MODEL 1
REMARK minimizedAffinity -1.82947266
REMARK minimizedRMSD -1
REMARK  0 active torsions:
REMARK  status: ('A' for Active; 'I' for Inactive)
ROOT
ATOM      1  C   UNL d   1      -1.642  -3.696  -1.587  0.00  0.00     0.124 A 
ATOM      2  C1  UNL d   1      -0.755  -3.177  -2.520  0.00  0.00     0.062 A 
ATOM      3  C2  UNL d   1       0.356  -2.450  -2.101  0.00  0.00     0.162 A 
ATOM      4  C3  UNL d   1       0.587  -2.238  -0.742  0.00  0.00    -0.034 A 
ATOM      5  C4  UNL d   1      -0.310  -2.763   0.190  0.00  0.00     0.162 A 
ATOM      6  C5  UNL d   1      -1.418  -3.489  -0.233  0.00  0.00     0.062 A 
ATOM      7  F   UNL d   1      -2.274  -3.990   0.670  0.00  0.00    -0.097 F 
ATOM      8  F1  UNL d   1      -0.118  -2.579   1.505  0.00  0.00    -0.096 F 
ATOM      9  I   UNL d   1       2.246  -1.151  -0.112  0.00  0.00    -0.060 I 
ATOM     10  F2  UNL d   1       1.196  -1.959  -3.025  0.00  0.00    -0.096 F 
ATOM     11  F3  UNL d   1      -0.969  -3.375  -3.829  0.00  0.00    -0.097 F 
ATOM     12  F4  UNL d   1      -2.710  -4.395  -1.993  0.00  0.00    -0.092 F 
ENDROOT
TORSDOF 0
ENDMDL
