MODEL 1
REMARK minimizedAffinity -2.68123603
REMARK minimizedRMSD -1
REMARK  0 active torsions:
REMARK  status: ('A' for Active; 'I' for Inactive)
ROOT
ATOM      1  C   UNL d   1       0.919   2.789  -0.056  0.00  0.00     0.124 A 
ATOM      2  C1  UNL d   1      -0.431   2.490   0.074  0.00  0.00     0.062 A 
ATOM      3  C2  UNL d   1      -0.855   1.164   0.092  0.00  0.00     0.162 A 
ATOM      4  C3  UNL d   1       0.071   0.127  -0.020  0.00  0.00    -0.034 A 
ATOM      5  C4  UNL d   1       1.426   0.436  -0.151  0.00  0.00     0.162 A 
ATOM      6  C5  UNL d   1       1.845   1.762  -0.168  0.00  0.00     0.062 A 
ATOM      7  F   UNL d   1       3.149   2.050  -0.294  0.00  0.00    -0.097 F 
ATOM      8  F1  UNL d   1       2.344  -0.536  -0.261  0.00  0.00    -0.096 F 
ATOM      9  I   UNL d   1      -0.559  -1.856   0.006  0.00  0.00    -0.060 I 
ATOM     10  F2  UNL d   1      -2.165   0.904   0.218  0.00  0.00    -0.096 F 
ATOM     11  F3  UNL d   1      -1.328   3.480   0.182  0.00  0.00    -0.097 F 
ATOM     12  F4  UNL d   1       1.324   4.065  -0.073  0.00  0.00    -0.092 F 
ENDROOT
TORSDOF 0
ENDMDL
