MODEL 1
REMARK minimizedAffinity 3.11285448
REMARK minimizedRMSD -1
REMARK  0 active torsions:
REMARK  status: ('A' for Active; 'I' for Inactive)
ROOT
ATOM      1  C4' PXY d   1       0.377  -0.695   0.919  0.00  0.00     0.077 C 
ATOM      2  C1' PXY d   1       3.019  -1.491   5.999  0.00  0.00     0.077 C 
ATOM      3  C1  PXY d   1       2.317  -1.290   4.671  0.00  0.00    -0.082 A 
ATOM      4  C2  PXY d   1       3.014  -0.908   3.613  0.00  0.00     0.003 A 
ATOM      5  C3  PXY d   1       2.390  -0.691   2.412  0.00  0.00     0.003 A 
ATOM      6  C4  PXY d   1       1.046  -0.919   2.278  0.00  0.00    -0.082 A 
ATOM      7  C5  PXY d   1       0.329  -1.319   3.350  0.00  0.00     0.003 A 
ATOM      8  C6  PXY d   1       0.975  -1.494   4.571  0.00  0.00     0.003 A 
ENDROOT
TORSDOF 0
ENDMDL
