MODEL 1
REMARK minimizedAffinity 1.8819797
REMARK minimizedRMSD -1
REMARK  0 active torsions:
REMARK  status: ('A' for Active; 'I' for Inactive)
ROOT
ATOM      1  C4' PXY d   1       1.375  -0.555   1.492  0.00  0.00     0.077 C 
ATOM      2  C1' PXY d   1      -3.882  -0.453  -0.910  0.00  0.00     0.077 C 
ATOM      3  C1  PXY d   1      -2.506  -0.469  -0.273  0.00  0.00    -0.082 A 
ATOM      4  C2  PXY d   1      -1.501  -1.056  -0.902  0.00  0.00     0.003 A 
ATOM      5  C3  PXY d   1      -0.258  -1.108  -0.326  0.00  0.00     0.003 A 
ATOM      6  C4  PXY d   1      -0.029  -0.506   0.883  0.00  0.00    -0.082 A 
ATOM      7  C5  PXY d   1      -1.047   0.104   1.526  0.00  0.00     0.003 A 
ATOM      8  C6  PXY d   1      -2.311   0.109   0.943  0.00  0.00     0.003 A 
ENDROOT
TORSDOF 0
ENDMDL
