MODEL 1
REMARK minimizedAffinity 6.75093269
REMARK minimizedRMSD -1
REMARK  0 active torsions:
REMARK  status: ('A' for Active; 'I' for Inactive)
ROOT
ATOM      1  C4' PXY d   1      -3.766  -2.071   3.260  0.00  0.00     0.077 C 
ATOM      2  C1' PXY d   1      -1.401   0.363  -1.420  0.00  0.00     0.077 C 
ATOM      3  C1  PXY d   1      -2.013  -0.270  -0.185  0.00  0.00    -0.082 A 
ATOM      4  C2  PXY d   1      -2.703  -1.393  -0.298  0.00  0.00     0.003 A 
ATOM      5  C3  PXY d   1      -3.289  -1.961   0.803  0.00  0.00     0.003 A 
ATOM      6  C4  PXY d   1      -3.123  -1.402   2.042  0.00  0.00    -0.082 A 
ATOM      7  C5  PXY d   1      -2.412  -0.262   2.168  0.00  0.00     0.003 A 
ATOM      8  C6  PXY d   1      -1.859   0.321   1.031  0.00  0.00     0.003 A 
ENDROOT
TORSDOF 0
ENDMDL
