MODEL 1
REMARK minimizedAffinity 0.226672649
REMARK minimizedRMSD -1
REMARK  0 active torsions:
REMARK  status: ('A' for Active; 'I' for Inactive)
ROOT
ATOM      1  C4' PXY d   1      -2.791   0.322  -0.161  0.00  0.00     0.077 C 
ATOM      2  C1' PXY d   1       1.519  -0.790   3.527  0.00  0.00     0.077 C 
ATOM      3  C1  PXY d   1       0.380  -0.500   2.570  0.00  0.00    -0.082 A 
ATOM      4  C2  PXY d   1       0.570  -0.637   1.267  0.00  0.00     0.003 A 
ATOM      5  C3  PXY d   1      -0.440  -0.349   0.385  0.00  0.00     0.003 A 
ATOM      6  C4  PXY d   1      -1.672   0.032   0.843  0.00  0.00    -0.082 A 
ATOM      7  C5  PXY d   1      -1.877   0.163   2.171  0.00  0.00     0.003 A 
ATOM      8  C6  PXY d   1      -0.828  -0.094   3.048  0.00  0.00     0.003 A 
ENDROOT
TORSDOF 0
ENDMDL
