MODEL 1
REMARK minimizedAffinity -1.96298969
REMARK minimizedRMSD -1
REMARK  0 active torsions:
REMARK  status: ('A' for Active; 'I' for Inactive)
ROOT
ATOM      1  C4' PXY d   1       1.474  -1.095   3.741  0.00  0.00     0.077 C 
ATOM      2  C1' PXY d   1      -2.477  -0.099  -0.359  0.00  0.00     0.077 C 
ATOM      3  C1  PXY d   1      -1.434  -0.368   0.708  0.00  0.00    -0.082 A 
ATOM      4  C2  PXY d   1      -1.760  -0.252   1.985  0.00  0.00     0.003 A 
ATOM      5  C3  PXY d   1      -0.821  -0.460   2.962  0.00  0.00     0.003 A 
ATOM      6  C4  PXY d   1       0.451  -0.843   2.630  0.00  0.00    -0.082 A 
ATOM      7  C5  PXY d   1       0.788  -0.973   1.330  0.00  0.00     0.003 A 
ATOM      8  C6  PXY d   1      -0.169  -0.717   0.352  0.00  0.00     0.003 A 
ENDROOT
TORSDOF 0
ENDMDL
