MODEL 1
REMARK minimizedAffinity -2.07437563
REMARK minimizedRMSD -1
REMARK  0 active torsions:
REMARK  status: ('A' for Active; 'I' for Inactive)
ROOT
ATOM      1  C4' PXY d   1       0.952  -1.168   4.826  0.00  0.00     0.077 C 
ATOM      2  C1' PXY d   1      -1.726   0.155  -0.124  0.00  0.00     0.077 C 
ATOM      3  C1  PXY d   1      -1.015  -0.200   1.168  0.00  0.00    -0.082 A 
ATOM      4  C2  PXY d   1      -1.659  -0.095   2.319  0.00  0.00     0.003 A 
ATOM      5  C3  PXY d   1      -1.022  -0.381   3.498  0.00  0.00     0.003 A 
ATOM      6  C4  PXY d   1       0.271  -0.830   3.496  0.00  0.00    -0.082 A 
ATOM      7  C5  PXY d   1       0.932  -0.950   2.325  0.00  0.00     0.003 A 
ATOM      8  C6  PXY d   1       0.280  -0.615   1.142  0.00  0.00     0.003 A 
ENDROOT
TORSDOF 0
ENDMDL
