MODEL 1
REMARK minimizedAffinity 8.61559582
REMARK minimizedRMSD -1
REMARK  0 active torsions:
REMARK  status: ('A' for Active; 'I' for Inactive)
ROOT
ATOM      1  C4' PXY d   1       2.244  -1.721   5.016  0.00  0.00     0.077 C 
ATOM      2  C1' PXY d   1       3.060   1.160   0.071  0.00  0.00     0.077 C 
ATOM      3  C1  PXY d   1       2.859   0.405   1.370  0.00  0.00    -0.082 A 
ATOM      4  C2  PXY d   1       1.784  -0.351   1.528  0.00  0.00     0.003 A 
ATOM      5  C3  PXY d   1       1.571  -1.015   2.708  0.00  0.00     0.003 A 
ATOM      6  C4  PXY d   1       2.493  -0.948   3.717  0.00  0.00    -0.082 A 
ATOM      7  C5  PXY d   1       3.598  -0.188   3.560  0.00  0.00     0.003 A 
ATOM      8  C6  PXY d   1       3.776   0.511   2.370  0.00  0.00     0.003 A 
ENDROOT
TORSDOF 0
ENDMDL
