MODEL 1
REMARK minimizedAffinity 7.75728035
REMARK minimizedRMSD -1
REMARK  0 active torsions:
REMARK  status: ('A' for Active; 'I' for Inactive)
ROOT
ATOM      1  C4' PXY d   1      -3.320  -3.068  -5.994  0.00  0.00     0.077 C 
ATOM      2  C1' PXY d   1       0.638   0.645  -4.004  0.00  0.00     0.077 C 
ATOM      3  C1  PXY d   1      -0.393  -0.339  -4.521  0.00  0.00    -0.082 A 
ATOM      4  C2  PXY d   1      -1.166  -0.001  -5.540  0.00  0.00     0.003 A 
ATOM      5  C3  PXY d   1      -2.126  -0.866  -6.000  0.00  0.00     0.003 A 
ATOM      6  C4  PXY d   1      -2.259  -2.111  -5.445  0.00  0.00    -0.082 A 
ATOM      7  C5  PXY d   1      -1.467  -2.467  -4.412  0.00  0.00     0.003 A 
ATOM      8  C6  PXY d   1      -0.527  -1.559  -3.933  0.00  0.00     0.003 A 
ENDROOT
TORSDOF 0
ENDMDL
