MODEL 1
REMARK minimizedAffinity -3.24305129
REMARK minimizedRMSD -1
REMARK  0 active torsions:
REMARK  status: ('A' for Active; 'I' for Inactive)
ROOT
ATOM      1  C4' PXY d   1      -1.101   0.597   1.015  0.00  0.00     0.077 C 
ATOM      2  C1' PXY d   1       3.578  -0.884   4.068  0.00  0.00     0.077 C 
ATOM      3  C1  PXY d   1       2.359  -0.488   3.260  0.00  0.00    -0.082 A 
ATOM      4  C2  PXY d   1       1.154  -0.598   3.797  0.00  0.00     0.003 A 
ATOM      5  C3  PXY d   1       0.038  -0.274   3.069  0.00  0.00     0.003 A 
ATOM      6  C4  PXY d   1       0.159   0.218   1.797  0.00  0.00    -0.082 A 
ATOM      7  C5  PXY d   1       1.385   0.343   1.246  0.00  0.00     0.003 A 
ATOM      8  C6  PXY d   1       2.503  -0.030   1.987  0.00  0.00     0.003 A 
ENDROOT
TORSDOF 0
ENDMDL
