MODEL 1
REMARK minimizedAffinity -4.07039452
REMARK minimizedRMSD -1
REMARK  0 active torsions:
REMARK  status: ('A' for Active; 'I' for Inactive)
ROOT
ATOM      1  C   UNL d   1       1.360  -2.849   1.813  0.00  0.00     0.023 A 
ATOM      2  C1  UNL d   1       0.138  -2.364   2.280  0.00  0.00     0.003 A 
ATOM      3  C2  UNL d   1      -0.537  -1.370   1.568  0.00  0.00     0.048 A 
ATOM      4  C3  UNL d   1       0.014  -0.867   0.390  0.00  0.00     0.023 A 
ATOM      5  C4  UNL d   1       1.236  -1.351  -0.081  0.00  0.00     0.048 A 
ATOM      6  C5  UNL d   1       1.908  -2.344   0.634  0.00  0.00     0.003 A 
ATOM      7  I   UNL d   1      -0.989   0.612  -0.671  0.00  0.00    -0.146 I 
ENDROOT
TORSDOF 0
ENDMDL
