MODEL 1
REMARK minimizedAffinity -4.20117807
REMARK minimizedRMSD -1
REMARK  0 active torsions:
REMARK  status: ('A' for Active; 'I' for Inactive)
ROOT
ATOM      1  C   UNL d   1       2.177  -1.474   0.593  0.00  0.00     0.023 A 
ATOM      2  C1  UNL d   1       0.914  -2.063   0.536  0.00  0.00     0.003 A 
ATOM      3  C2  UNL d   1      -0.191  -1.312   0.131  0.00  0.00     0.048 A 
ATOM      4  C3  UNL d   1      -0.026   0.028  -0.216  0.00  0.00     0.023 A 
ATOM      5  C4  UNL d   1       1.235   0.623  -0.161  0.00  0.00     0.048 A 
ATOM      6  C5  UNL d   1       2.337  -0.132   0.245  0.00  0.00     0.003 A 
ATOM      7  I   UNL d   1      -1.670   1.149  -0.819  0.00  0.00    -0.146 I 
ENDROOT
TORSDOF 0
ENDMDL
