MODEL 1
REMARK minimizedAffinity -2.8179729
REMARK minimizedRMSD -1
REMARK  0 active torsions:
REMARK  status: ('A' for Active; 'I' for Inactive)
ROOT
ATOM      1  C   UNL d   1       1.452  -2.552   0.977  0.00  0.00     0.023 A 
ATOM      2  C1  UNL d   1       0.060  -2.599   1.046  0.00  0.00     0.003 A 
ATOM      3  C2  UNL d   1      -0.704  -1.581   0.472  0.00  0.00     0.048 A 
ATOM      4  C3  UNL d   1      -0.069  -0.518  -0.170  0.00  0.00     0.023 A 
ATOM      5  C4  UNL d   1       1.324  -0.467  -0.242  0.00  0.00     0.048 A 
ATOM      6  C5  UNL d   1       2.083  -1.488   0.334  0.00  0.00     0.003 A 
ATOM      7  I   UNL d   1      -1.204   0.999  -1.025  0.00  0.00    -0.146 I 
ENDROOT
TORSDOF 0
ENDMDL
