MODEL 1
REMARK minimizedAffinity -2.75401545
REMARK minimizedRMSD -1
REMARK  0 active torsions:
REMARK  status: ('A' for Active; 'I' for Inactive)
ROOT
ATOM      1  C   UNL d   1       2.178  -1.977   0.868  0.00  0.00     0.023 A 
ATOM      2  C1  UNL d   1       2.652  -0.845   0.205  0.00  0.00     0.003 A 
ATOM      3  C2  UNL d   1       1.754   0.089  -0.316  0.00  0.00     0.048 A 
ATOM      4  C3  UNL d   1       0.382  -0.115  -0.169  0.00  0.00     0.023 A 
ATOM      5  C4  UNL d   1      -0.097  -1.246   0.494  0.00  0.00     0.048 A 
ATOM      6  C5  UNL d   1       0.805  -2.177   1.012  0.00  0.00     0.003 A 
ATOM      7  I   UNL d   1      -0.957   1.273  -0.943  0.00  0.00    -0.146 I 
ENDROOT
TORSDOF 0
ENDMDL
