MODEL 1
REMARK minimizedAffinity -4.00387716
REMARK minimizedRMSD -1
REMARK  0 active torsions:
REMARK  status: ('A' for Active; 'I' for Inactive)
ROOT
ATOM      1  C   UNL d   1       2.074  -1.665   0.873  0.00  0.00     0.023 A 
ATOM      2  C1  UNL d   1       2.527  -0.626   0.060  0.00  0.00     0.003 A 
ATOM      3  C2  UNL d   1       1.616   0.273  -0.498  0.00  0.00     0.048 A 
ATOM      4  C3  UNL d   1       0.254   0.129  -0.237  0.00  0.00     0.023 A 
ATOM      5  C4  UNL d   1      -0.204  -0.908   0.578  0.00  0.00     0.048 A 
ATOM      6  C5  UNL d   1       0.711  -1.806   1.132  0.00  0.00     0.003 A 
ATOM      7  I   UNL d   1      -1.104   1.467  -1.065  0.00  0.00    -0.146 I 
ENDROOT
TORSDOF 0
ENDMDL
