MODEL 1
REMARK minimizedAffinity -1.86088383
REMARK minimizedRMSD -1
REMARK  0 active torsions:
REMARK  status: ('A' for Active; 'I' for Inactive)
ROOT
ATOM      1  C   UNL d   1      -0.150  -2.369   1.490  0.00  0.00     0.023 A 
ATOM      2  C1  UNL d   1      -1.233  -1.608   1.930  0.00  0.00     0.003 A 
ATOM      3  C2  UNL d   1      -1.575  -0.429   1.264  0.00  0.00     0.048 A 
ATOM      4  C3  UNL d   1      -0.831  -0.018   0.159  0.00  0.00     0.023 A 
ATOM      5  C4  UNL d   1       0.253  -0.777  -0.285  0.00  0.00     0.048 A 
ATOM      6  C5  UNL d   1       0.592  -1.955   0.384  0.00  0.00     0.003 A 
ATOM      7  I   UNL d   1      -1.338   1.737  -0.833  0.00  0.00    -0.146 I 
ENDROOT
TORSDOF 0
ENDMDL
