MODEL 1
REMARK minimizedAffinity -3.25336027
REMARK minimizedRMSD -1
REMARK  0 active torsions:
REMARK  status: ('A' for Active; 'I' for Inactive)
ROOT
ATOM      1  C   UNL d   1       2.227  -1.515   0.872  0.00  0.00     0.023 A 
ATOM      2  C1  UNL d   1       0.899  -1.925   0.755  0.00  0.00     0.003 A 
ATOM      3  C2  UNL d   1      -0.041  -1.088   0.151  0.00  0.00     0.048 A 
ATOM      4  C3  UNL d   1       0.354   0.158  -0.335  0.00  0.00     0.023 A 
ATOM      5  C4  UNL d   1       1.682   0.573  -0.221  0.00  0.00     0.048 A 
ATOM      6  C5  UNL d   1       2.618  -0.268   0.385  0.00  0.00     0.003 A 
ATOM      7  I   UNL d   1      -1.043   1.406  -1.235  0.00  0.00    -0.146 I 
ENDROOT
TORSDOF 0
ENDMDL
