MODEL 1
REMARK minimizedAffinity -2.97440004
REMARK minimizedRMSD -1
REMARK  0 active torsions:
REMARK  status: ('A' for Active; 'I' for Inactive)
ROOT
ATOM      1  C   UNL d   1       2.285  -2.165   0.833  0.00  0.00     0.023 A 
ATOM      2  C1  UNL d   1       0.986  -2.603   0.574  0.00  0.00     0.003 A 
ATOM      3  C2  UNL d   1       0.033  -1.712   0.077  0.00  0.00     0.048 A 
ATOM      4  C3  UNL d   1       0.385  -0.384  -0.160  0.00  0.00     0.023 A 
ATOM      5  C4  UNL d   1       1.684   0.059   0.097  0.00  0.00     0.048 A 
ATOM      6  C5  UNL d   1       2.633  -0.835   0.595  0.00  0.00     0.003 A 
ATOM      7  I   UNL d   1      -1.031   0.944  -0.900  0.00  0.00    -0.146 I 
ENDROOT
TORSDOF 0
ENDMDL
