MODEL 1
REMARK minimizedAffinity -3.0741446
REMARK minimizedRMSD -1
REMARK  0 active torsions:
REMARK  status: ('A' for Active; 'I' for Inactive)
ROOT
ATOM      1  C   UNL d   1       1.877  -2.199   0.973  0.00  0.00     0.023 A 
ATOM      2  C1  UNL d   1       0.550  -2.489   0.655  0.00  0.00     0.003 A 
ATOM      3  C2  UNL d   1      -0.282  -1.489   0.149  0.00  0.00     0.048 A 
ATOM      4  C3  UNL d   1       0.219  -0.201  -0.038  0.00  0.00     0.023 A 
ATOM      5  C4  UNL d   1       1.546   0.093   0.278  0.00  0.00     0.048 A 
ATOM      6  C5  UNL d   1       2.375  -0.910   0.784  0.00  0.00     0.003 A 
ATOM      7  I   UNL d   1      -1.019   1.289  -0.791  0.00  0.00    -0.146 I 
ENDROOT
TORSDOF 0
ENDMDL
