MODEL 1
REMARK minimizedAffinity -3.32128143
REMARK minimizedRMSD -1
REMARK  0 active torsions:
REMARK  status: ('A' for Active; 'I' for Inactive)
ROOT
ATOM      1  C   UNL d   1       1.278  -2.412   1.162  0.00  0.00     0.023 A 
ATOM      2  C1  UNL d   1       1.916  -1.492   0.330  0.00  0.00     0.003 A 
ATOM      3  C2  UNL d   1       1.182  -0.475  -0.283  0.00  0.00     0.048 A 
ATOM      4  C3  UNL d   1      -0.192  -0.383  -0.058  0.00  0.00     0.023 A 
ATOM      5  C4  UNL d   1      -0.835  -1.300   0.775  0.00  0.00     0.048 A 
ATOM      6  C5  UNL d   1      -0.096  -2.316   1.384  0.00  0.00     0.003 A 
ATOM      7  I   UNL d   1      -1.288   1.130  -0.969  0.00  0.00    -0.146 I 
ENDROOT
TORSDOF 0
ENDMDL
