MODEL 1
REMARK minimizedAffinity -2.90555763
REMARK minimizedRMSD -1
REMARK  0 active torsions:
REMARK  status: ('A' for Active; 'I' for Inactive)
ROOT
ATOM      1  C   UNL d   1      -0.811  -1.880   0.983  0.00  0.00     0.023 A 
ATOM      2  C1  UNL d   1       0.401  -2.544   0.792  0.00  0.00     0.003 A 
ATOM      3  C2  UNL d   1       1.520  -1.841   0.343  0.00  0.00     0.048 A 
ATOM      4  C3  UNL d   1       1.421  -0.474   0.086  0.00  0.00     0.023 A 
ATOM      5  C4  UNL d   1       0.211   0.195   0.277  0.00  0.00     0.048 A 
ATOM      6  C5  UNL d   1      -0.906  -0.512   0.725  0.00  0.00     0.003 A 
ATOM      7  I   UNL d   1       3.086   0.574  -0.583  0.00  0.00    -0.146 I 
ENDROOT
TORSDOF 0
ENDMDL
