MODEL 1
REMARK minimizedAffinity -3.99453092
REMARK minimizedRMSD -1
REMARK  0 active torsions:
REMARK  status: ('A' for Active; 'I' for Inactive)
ROOT
ATOM      1  C   UNL d   1       1.920  -2.224   0.903  0.00  0.00     0.023 A 
ATOM      2  C1  UNL d   1       2.306  -1.048   0.259  0.00  0.00     0.003 A 
ATOM      3  C2  UNL d   1       1.346  -0.099  -0.098  0.00  0.00     0.048 A 
ATOM      4  C3  UNL d   1       0.003  -0.330   0.194  0.00  0.00     0.023 A 
ATOM      5  C4  UNL d   1      -0.388  -1.504   0.839  0.00  0.00     0.048 A 
ATOM      6  C5  UNL d   1       0.574  -2.452   1.193  0.00  0.00     0.003 A 
ATOM      7  I   UNL d   1      -1.427   1.082  -0.335  0.00  0.00    -0.146 I 
ENDROOT
TORSDOF 0
ENDMDL
