MODEL 1
REMARK minimizedAffinity -2.707232
REMARK minimizedRMSD -1
REMARK  0 active torsions:
REMARK  status: ('A' for Active; 'I' for Inactive)
ROOT
ATOM      1  C   UNL d   1      -1.894   2.600  -3.886  0.00  0.00     0.023 A 
ATOM      2  C1  UNL d   1      -0.790   2.936  -3.103  0.00  0.00     0.003 A 
ATOM      3  C2  UNL d   1      -0.576   2.293  -1.882  0.00  0.00     0.048 A 
ATOM      4  C3  UNL d   1      -1.471   1.314  -1.451  0.00  0.00     0.023 A 
ATOM      5  C4  UNL d   1      -2.577   0.974  -2.232  0.00  0.00     0.048 A 
ATOM      6  C5  UNL d   1      -2.786   1.620  -3.451  0.00  0.00     0.003 A 
ATOM      7  I   UNL d   1      -1.156   0.355   0.366  0.00  0.00    -0.146 I 
ENDROOT
TORSDOF 0
ENDMDL
