MODEL 1
REMARK minimizedAffinity -0.726819158
REMARK minimizedRMSD -1
REMARK  0 active torsions:
REMARK  status: ('A' for Active; 'I' for Inactive)
ROOT
ATOM      1  C   UNL d   1       0.213  -2.808   2.888  0.00  0.00     0.023 A 
ATOM      2  C1  UNL d   1      -0.959  -2.053   2.948  0.00  0.00     0.003 A 
ATOM      3  C2  UNL d   1      -1.247  -1.129   1.942  0.00  0.00     0.048 A 
ATOM      4  C3  UNL d   1      -0.361  -0.965   0.878  0.00  0.00     0.023 A 
ATOM      5  C4  UNL d   1       0.812  -1.720   0.813  0.00  0.00     0.048 A 
ATOM      6  C5  UNL d   1       1.097  -2.642   1.822  0.00  0.00     0.003 A 
ATOM      7  I   UNL d   1      -0.788   0.410  -0.621  0.00  0.00    -0.146 I 
ENDROOT
TORSDOF 0
ENDMDL
