MODEL 1
REMARK minimizedAffinity -4.47801399
REMARK minimizedRMSD -1
REMARK  0 active torsions:
REMARK  status: ('A' for Active; 'I' for Inactive)
ROOT
ATOM      1  C1  BNZ d   1      -0.863   2.346   1.754  0.00  0.00     0.000 A 
ATOM      2  C2  BNZ d   1       0.179   1.471   1.911  0.00  0.00     0.000 A 
ATOM      3  C3  BNZ d   1       0.266   0.342   1.147  0.00  0.00     0.000 A 
ATOM      4  C4  BNZ d   1      -0.708   0.067   0.256  0.00  0.00     0.000 A 
ATOM      5  C5  BNZ d   1      -1.770   0.934   0.092  0.00  0.00     0.000 A 
ATOM      6  C6  BNZ d   1      -1.834   2.090   0.836  0.00  0.00     0.000 A 
ENDROOT
TORSDOF 0
ENDMDL
