MODEL 1
REMARK minimizedAffinity -4.94841433
REMARK minimizedRMSD -1
REMARK  0 active torsions:
REMARK  status: ('A' for Active; 'I' for Inactive)
ROOT
ATOM      1  C1  BNZ d   1       0.482   1.240   1.787  0.00  0.00     0.000 A 
ATOM      2  C2  BNZ d   1       0.071   2.481   2.193  0.00  0.00     0.000 A 
ATOM      3  C3  BNZ d   1      -0.962   3.117   1.563  0.00  0.00     0.000 A 
ATOM      4  C4  BNZ d   1      -1.555   2.530   0.504  0.00  0.00     0.000 A 
ATOM      5  C5  BNZ d   1      -1.146   1.282   0.077  0.00  0.00     0.000 A 
ATOM      6  C6  BNZ d   1      -0.132   0.628   0.738  0.00  0.00     0.000 A 
ENDROOT
TORSDOF 0
ENDMDL
