MODEL 1
REMARK minimizedAffinity -4.20655012
REMARK minimizedRMSD -1
REMARK  0 active torsions:
REMARK  status: ('A' for Active; 'I' for Inactive)
ROOT
ATOM      1  C1  BNZ d   1       0.064  -2.650  -1.789  0.00  0.00     0.000 A 
ATOM      2  C2  BNZ d   1       1.258  -3.188  -1.388  0.00  0.00     0.000 A 
ATOM      3  C3  BNZ d   1       1.302  -4.397  -0.752  0.00  0.00     0.000 A 
ATOM      4  C4  BNZ d   1       0.152  -5.046  -0.481  0.00  0.00     0.000 A 
ATOM      5  C5  BNZ d   1      -1.061  -4.513  -0.870  0.00  0.00     0.000 A 
ATOM      6  C6  BNZ d   1      -1.099  -3.314  -1.545  0.00  0.00     0.000 A 
ENDROOT
TORSDOF 0
ENDMDL
