MODEL 1
REMARK minimizedAffinity -2.64420915
REMARK minimizedRMSD -1
REMARK  0 active torsions:
REMARK  status: ('A' for Active; 'I' for Inactive)
ROOT
ATOM      1  C1  BNZ d   1      -1.165   1.442  -0.016  0.00  0.00     0.000 A 
ATOM      2  C2  BNZ d   1      -0.703   0.474  -0.868  0.00  0.00     0.000 A 
ATOM      3  C3  BNZ d   1       0.117  -0.522  -0.416  0.00  0.00     0.000 A 
ATOM      4  C4  BNZ d   1       0.505  -0.526   0.876  0.00  0.00     0.000 A 
ATOM      5  C5  BNZ d   1       0.055   0.449   1.744  0.00  0.00     0.000 A 
ATOM      6  C6  BNZ d   1      -0.801   1.427   1.295  0.00  0.00     0.000 A 
ENDROOT
TORSDOF 0
ENDMDL
