MODEL 1
REMARK minimizedAffinity 5.40054131
REMARK minimizedRMSD -1
REMARK  0 active torsions:
REMARK  status: ('A' for Active; 'I' for Inactive)
ROOT
ATOM      1  C1  BNZ d   1      -0.488   3.384   1.221  0.00  0.00     0.000 A 
ATOM      2  C2  BNZ d   1       0.609   2.873   1.861  0.00  0.00     0.000 A 
ATOM      3  C3  BNZ d   1       0.510   1.748   2.631  0.00  0.00     0.000 A 
ATOM      4  C4  BNZ d   1      -0.693   1.160   2.793  0.00  0.00     0.000 A 
ATOM      5  C5  BNZ d   1      -1.811   1.669   2.162  0.00  0.00     0.000 A 
ATOM      6  C6  BNZ d   1      -1.699   2.779   1.357  0.00  0.00     0.000 A 
ENDROOT
TORSDOF 0
ENDMDL
