MODEL 1
REMARK minimizedAffinity -4.09600878
REMARK minimizedRMSD -1
REMARK  0 active torsions:
REMARK  status: ('A' for Active; 'I' for Inactive)
ROOT
ATOM      1  C1  BNZ d   1      -0.601   0.670  -0.203  0.00  0.00     0.000 A 
ATOM      2  C2  BNZ d   1      -1.334   1.514   0.588  0.00  0.00     0.000 A 
ATOM      3  C3  BNZ d   1      -0.978   1.741   1.888  0.00  0.00     0.000 A 
ATOM      4  C4  BNZ d   1       0.085   1.093   2.407  0.00  0.00     0.000 A 
ATOM      5  C5  BNZ d   1       0.829   0.231   1.625  0.00  0.00     0.000 A 
ATOM      6  C6  BNZ d   1       0.490   0.035   0.305  0.00  0.00     0.000 A 
ENDROOT
TORSDOF 0
ENDMDL
