MODEL 1
REMARK minimizedAffinity -3.86007643
REMARK minimizedRMSD -1
REMARK  0 active torsions:
REMARK  status: ('A' for Active; 'I' for Inactive)
ROOT
ATOM      1  C1  BNZ d   1      -0.147   2.006  -1.479  0.00  0.00     0.000 A 
ATOM      2  C2  BNZ d   1      -0.446   2.254  -0.166  0.00  0.00     0.000 A 
ATOM      3  C3  BNZ d   1      -0.237   1.301   0.792  0.00  0.00     0.000 A 
ATOM      4  C4  BNZ d   1       0.232   0.089   0.430  0.00  0.00     0.000 A 
ATOM      5  C5  BNZ d   1       0.529  -0.180  -0.891  0.00  0.00     0.000 A 
ATOM      6  C6  BNZ d   1       0.355   0.795  -1.846  0.00  0.00     0.000 A 
ENDROOT
TORSDOF 0
ENDMDL
