MODEL 1
REMARK minimizedAffinity -3.1254499
REMARK minimizedRMSD -1
REMARK  0 active torsions:
REMARK  status: ('A' for Active; 'I' for Inactive)
ROOT
ATOM      1  C1  BNZ d   1      -0.808   0.776  -0.863  0.00  0.00     0.000 A 
ATOM      2  C2  BNZ d   1      -0.107  -0.337  -1.244  0.00  0.00     0.000 A 
ATOM      3  C3  BNZ d   1       0.679  -1.010  -0.350  0.00  0.00     0.000 A 
ATOM      4  C4  BNZ d   1       0.793  -0.547   0.912  0.00  0.00     0.000 A 
ATOM      5  C5  BNZ d   1       0.100   0.579   1.309  0.00  0.00     0.000 A 
ATOM      6  C6  BNZ d   1      -0.720   1.231   0.417  0.00  0.00     0.000 A 
ENDROOT
TORSDOF 0
ENDMDL
