MODEL 1
REMARK minimizedAffinity -2.92138553
REMARK minimizedRMSD -1
REMARK  0 active torsions:
REMARK  status: ('A' for Active; 'I' for Inactive)
ROOT
ATOM      1  C1  BNZ d   1       0.199  -1.829  -0.630  0.00  0.00     0.000 A 
ATOM      2  C2  BNZ d   1       0.111  -3.102  -0.135  0.00  0.00     0.000 A 
ATOM      3  C3  BNZ d   1       0.076  -4.180  -0.976  0.00  0.00     0.000 A 
ATOM      4  C4  BNZ d   1       0.088  -3.980  -2.310  0.00  0.00     0.000 A 
ATOM      5  C5  BNZ d   1       0.167  -2.701  -2.825  0.00  0.00     0.000 A 
ATOM      6  C6  BNZ d   1       0.242  -1.622  -1.975  0.00  0.00     0.000 A 
ENDROOT
TORSDOF 0
ENDMDL
