MODEL 1
REMARK minimizedAffinity -4.23062944
REMARK minimizedRMSD -1
REMARK  0 active torsions:
REMARK  status: ('A' for Active; 'I' for Inactive)
ROOT
ATOM      1  C1  BNZ d   1      -1.260   1.649   0.083  0.00  0.00     0.000 A 
ATOM      2  C2  BNZ d   1      -0.871   1.255   1.336  0.00  0.00     0.000 A 
ATOM      3  C3  BNZ d   1      -0.195   2.111   2.160  0.00  0.00     0.000 A 
ATOM      4  C4  BNZ d   1       0.125   3.344   1.717  0.00  0.00     0.000 A 
ATOM      5  C5  BNZ d   1      -0.253   3.753   0.454  0.00  0.00     0.000 A 
ATOM      6  C6  BNZ d   1      -0.967   2.902  -0.359  0.00  0.00     0.000 A 
ENDROOT
TORSDOF 0
ENDMDL
