MODEL 1
REMARK minimizedAffinity -4.76124907
REMARK minimizedRMSD -1
REMARK  0 active torsions:
REMARK  status: ('A' for Active; 'I' for Inactive)
ROOT
ATOM      1  C1  BNZ d   1       0.632  -0.563   0.202  0.00  0.00     0.000 A 
ATOM      2  C2  BNZ d   1       0.463  -0.042   1.457  0.00  0.00     0.000 A 
ATOM      3  C3  BNZ d   1      -0.446   0.954   1.684  0.00  0.00     0.000 A 
ATOM      4  C4  BNZ d   1      -1.154   1.453   0.651  0.00  0.00     0.000 A 
ATOM      5  C5  BNZ d   1      -0.988   0.945  -0.621  0.00  0.00     0.000 A 
ATOM      6  C6  BNZ d   1      -0.101  -0.084  -0.840  0.00  0.00     0.000 A 
ENDROOT
TORSDOF 0
ENDMDL
