MODEL 1
REMARK minimizedAffinity 2.33111644
REMARK minimizedRMSD -1
REMARK  1 active torsions:
REMARK  status: ('A' for Active; 'I' for Inactive)
REMARK    1  A    between atoms: C3_4  and  O_7 
ROOT
ATOM      1  C   UNL d   1       1.809  -0.675   0.604  0.00  0.00    -0.033 A 
ATOM      2  C1  UNL d   1       1.745  -0.505  -0.780  0.00  0.00     0.039 A 
ATOM      3  C2  UNL d   1       1.988   0.749  -1.343  0.00  0.00    -0.080 A 
ATOM      4  C3  UNL d   1       2.293   1.824  -0.513  0.00  0.00     0.150 A 
ATOM      5  C4  UNL d   1       2.362   1.661   0.867  0.00  0.00    -0.007 A 
ATOM      6  C5  UNL d   1       2.118   0.408   1.428  0.00  0.00     0.039 A 
ENDROOT
BRANCH   4   7
ATOM      7  O   UNL d   1       2.533   3.068  -1.016  0.00  0.00    -0.526 OA
ATOM      8  H5  UNL d   1       2.422   3.036  -1.980  0.00  0.00     0.418 HD
ENDBRANCH   4   7
TORSDOF 1
ENDMDL
