MODEL 1
REMARK minimizedAffinity 7.17309523
REMARK minimizedRMSD -1
REMARK  1 active torsions:
REMARK  status: ('A' for Active; 'I' for Inactive)
REMARK    1  A    between atoms: C3_4  and  O_7 
ROOT
ATOM      1  C   UNL d   1       2.558  -1.068   0.954  0.00  0.00    -0.033 A 
ATOM      2  C1  UNL d   1       1.506  -0.264   1.394  0.00  0.00     0.039 A 
ATOM      3  C2  UNL d   1       1.138   0.869   0.666  0.00  0.00    -0.080 A 
ATOM      4  C3  UNL d   1       1.829   1.185  -0.501  0.00  0.00     0.150 A 
ATOM      5  C4  UNL d   1       2.876   0.386  -0.948  0.00  0.00    -0.007 A 
ATOM      6  C5  UNL d   1       3.243  -0.744  -0.218  0.00  0.00     0.039 A 
ENDROOT
BRANCH   4   7
ATOM      7  O   UNL d   1       1.509   2.283  -1.243  0.00  0.00    -0.526 OA
ATOM      8  H5  UNL d   1       0.786   2.756  -0.798  0.00  0.00     0.418 HD
ENDBRANCH   4   7
TORSDOF 1
ENDMDL
