MODEL 1
REMARK minimizedAffinity 7.06949759
REMARK minimizedRMSD -1
REMARK  1 active torsions:
REMARK  status: ('A' for Active; 'I' for Inactive)
REMARK    1  A    between atoms: C3_4  and  O_7 
ROOT
ATOM      1  C   UNL d   1       0.486   0.805   2.115  0.00  0.00    -0.033 A 
ATOM      2  C1  UNL d   1       0.746  -0.395   1.451  0.00  0.00     0.039 A 
ATOM      3  C2  UNL d   1       0.919  -1.574   2.179  0.00  0.00    -0.080 A 
ATOM      4  C3  UNL d   1       0.828  -1.539   3.568  0.00  0.00     0.150 A 
ATOM      5  C4  UNL d   1       0.565  -0.348   4.235  0.00  0.00    -0.007 A 
ATOM      6  C5  UNL d   1       0.394   0.829   3.507  0.00  0.00     0.039 A 
ENDROOT
BRANCH   4   7
ATOM      7  O   UNL d   1       0.994  -2.663   4.321  0.00  0.00    -0.526 OA
ATOM      8  H5  UNL d   1       1.198  -3.405   3.727  0.00  0.00     0.418 HD
ENDBRANCH   4   7
TORSDOF 1
ENDMDL
