MODEL 1
REMARK minimizedAffinity 3.61070204
REMARK minimizedRMSD -1
REMARK  1 active torsions:
REMARK  status: ('A' for Active; 'I' for Inactive)
REMARK    1  A    between atoms: C3_4  and  O_7 
ROOT
ATOM      1  C   UNL d   1       0.110   0.640   2.874  0.00  0.00    -0.033 A 
ATOM      2  C1  UNL d   1      -0.635  -0.512   3.132  0.00  0.00     0.039 A 
ATOM      3  C2  UNL d   1      -0.030  -1.617   3.735  0.00  0.00    -0.080 A 
ATOM      4  C3  UNL d   1       1.318  -1.556   4.076  0.00  0.00     0.150 A 
ATOM      5  C4  UNL d   1       2.066  -0.410   3.826  0.00  0.00    -0.007 A 
ATOM      6  C5  UNL d   1       1.460   0.692   3.222  0.00  0.00     0.039 A 
ENDROOT
BRANCH   4   7
ATOM      7  O   UNL d   1       1.953  -2.610   4.663  0.00  0.00    -0.526 OA
ATOM      8  H5  UNL d   1       1.320  -3.342   4.749  0.00  0.00     0.418 HD
ENDBRANCH   4   7
TORSDOF 1
ENDMDL
