MODEL 1
REMARK minimizedAffinity 1.48332286
REMARK minimizedRMSD -1
REMARK  1 active torsions:
REMARK  status: ('A' for Active; 'I' for Inactive)
REMARK    1  A    between atoms: C3_4  and  O_7 
ROOT
ATOM      1  C   UNL d   1      -0.580   1.817   3.447  0.00  0.00    -0.033 A 
ATOM      2  C1  UNL d   1      -1.114   0.687   2.826  0.00  0.00     0.039 A 
ATOM      3  C2  UNL d   1      -0.297  -0.138   2.050  0.00  0.00    -0.080 A 
ATOM      4  C3  UNL d   1       1.051   0.178   1.905  0.00  0.00     0.150 A 
ATOM      5  C4  UNL d   1       1.591   1.301   2.524  0.00  0.00    -0.007 A 
ATOM      6  C5  UNL d   1       0.773   2.123   3.297  0.00  0.00     0.039 A 
ENDROOT
BRANCH   4   7
ATOM      7  O   UNL d   1       1.887  -0.594   1.154  0.00  0.00    -0.526 OA
ATOM      8  H5  UNL d   1       1.370  -1.318   0.764  0.00  0.00     0.418 HD
ENDBRANCH   4   7
TORSDOF 1
ENDMDL
