MODEL 1
REMARK minimizedAffinity 1.82680917
REMARK minimizedRMSD -1
REMARK  1 active torsions:
REMARK  status: ('A' for Active; 'I' for Inactive)
REMARK    1  A    between atoms: C3_4  and  O_7 
ROOT
ATOM      1  C   UNL d   1       1.541  -0.285  -0.367  0.00  0.00    -0.033 A 
ATOM      2  C1  UNL d   1       1.663   0.499  -1.516  0.00  0.00     0.039 A 
ATOM      3  C2  UNL d   1       2.034   1.841  -1.411  0.00  0.00    -0.080 A 
ATOM      4  C3  UNL d   1       2.282   2.385  -0.154  0.00  0.00     0.150 A 
ATOM      5  C4  UNL d   1       2.167   1.608   0.994  0.00  0.00    -0.007 A 
ATOM      6  C5  UNL d   1       1.795   0.269   0.888  0.00  0.00     0.039 A 
ENDROOT
BRANCH   4   7
ATOM      7  O   UNL d   1       2.643   3.691  -0.001  0.00  0.00    -0.526 OA
ATOM      8  H5  UNL d   1       2.655   4.111  -0.877  0.00  0.00     0.418 HD
ENDBRANCH   4   7
TORSDOF 1
ENDMDL
