MODEL 1
REMARK minimizedAffinity 4.06511116
REMARK minimizedRMSD -1
REMARK  1 active torsions:
REMARK  status: ('A' for Active; 'I' for Inactive)
REMARK    1  A    between atoms: C3_4  and  O_7 
ROOT
ATOM      1  C   UNL d   1      -5.807   5.997   0.168  0.00  0.00    -0.033 A 
ATOM      2  C1  UNL d   1      -5.547   5.629  -1.153  0.00  0.00     0.039 A 
ATOM      3  C2  UNL d   1      -5.473   4.279  -1.502  0.00  0.00    -0.080 A 
ATOM      4  C3  UNL d   1      -5.664   3.308  -0.522  0.00  0.00     0.150 A 
ATOM      5  C4  UNL d   1      -5.928   3.668   0.795  0.00  0.00    -0.007 A 
ATOM      6  C5  UNL d   1      -5.999   5.017   1.142  0.00  0.00     0.039 A 
ENDROOT
BRANCH   4   7
ATOM      7  O   UNL d   1      -5.597   1.978  -0.814  0.00  0.00    -0.526 OA
ATOM      8  H5  UNL d   1      -5.379   1.880  -1.756  0.00  0.00     0.418 HD
ENDBRANCH   4   7
TORSDOF 1
ENDMDL
