MODEL 1
REMARK minimizedAffinity 1.44047046
REMARK minimizedRMSD -1
REMARK  1 active torsions:
REMARK  status: ('A' for Active; 'I' for Inactive)
REMARK    1  A    between atoms: C1_2  and  C2_3 
ROOT
ATOM      1  C2  UNL d   1      -0.620   1.255  -0.693  0.00  0.00    -0.081 A 
ATOM      2  C3  UNL d   1      -0.685   1.451   0.692  0.00  0.00     0.006 A 
ATOM      3  C4  UNL d   1       0.202   0.788   1.543  0.00  0.00     0.002 A 
ATOM      4  C5  UNL d   1       1.172  -0.075   1.024  0.00  0.00    -0.080 A 
ATOM      5  C6  UNL d   1       2.150  -0.770   1.925  0.00  0.00     0.076 C 
ATOM      6  C7  UNL d   1       1.226  -0.285  -0.358  0.00  0.00     0.002 A 
ATOM      7  C8  UNL d   1       0.339   0.378  -1.210  0.00  0.00     0.006 A 
ENDROOT
BRANCH   1   8
ATOM      8  C1  UNL d   1      -1.532   2.019  -1.619  0.00  0.00     0.054 C 
ATOM      9  C   UNL d   1      -2.848   1.283  -1.830  0.00  0.00     0.018 C 
ENDBRANCH   1   8
TORSDOF 1
ENDMDL
