MODEL 1
REMARK minimizedAffinity 7.64256382
REMARK minimizedRMSD -1
REMARK  1 active torsions:
REMARK  status: ('A' for Active; 'I' for Inactive)
REMARK    1  A    between atoms: C1_2  and  C2_3 
ROOT
ATOM      1  C2  UNL d   1      -0.239   0.639  -0.577  0.00  0.00    -0.081 A 
ATOM      2  C3  UNL d   1       0.889  -0.179  -0.436  0.00  0.00     0.006 A 
ATOM      3  C4  UNL d   1       1.375  -0.502   0.833  0.00  0.00     0.002 A 
ATOM      4  C5  UNL d   1       0.737  -0.020   1.981  0.00  0.00    -0.080 A 
ATOM      5  C6  UNL d   1       1.231  -0.384   3.350  0.00  0.00     0.076 C 
ATOM      6  C7  UNL d   1      -0.379   0.812   1.840  0.00  0.00     0.002 A 
ATOM      7  C8  UNL d   1      -0.865   1.135   0.572  0.00  0.00     0.006 A 
ENDROOT
BRANCH   1   8
ATOM      8  C1  UNL d   1      -0.804   0.936  -1.943  0.00  0.00     0.054 C 
ATOM      9  C   UNL d   1      -2.292   1.246  -1.870  0.00  0.00     0.018 C 
ENDBRANCH   1   8
TORSDOF 1
ENDMDL
