MODEL 1
REMARK minimizedAffinity 10.329895
REMARK minimizedRMSD -1
REMARK  1 active torsions:
REMARK  status: ('A' for Active; 'I' for Inactive)
REMARK    1  A    between atoms: C1_2  and  C2_3 
ROOT
ATOM      1  C2  UNL d   1       0.000   0.239  -0.858  0.00  0.00    -0.081 A 
ATOM      2  C3  UNL d   1       0.965  -0.694  -0.457  0.00  0.00     0.006 A 
ATOM      3  C4  UNL d   1       1.339  -0.792   0.885  0.00  0.00     0.002 A 
ATOM      4  C5  UNL d   1       0.750   0.034   1.849  0.00  0.00    -0.080 A 
ATOM      5  C6  UNL d   1       1.121  -0.082   3.297  0.00  0.00     0.076 C 
ATOM      6  C7  UNL d   1      -0.200   0.978   1.445  0.00  0.00     0.002 A 
ATOM      7  C8  UNL d   1      -0.574   1.077   0.103  0.00  0.00     0.006 A 
ENDROOT
BRANCH   1   8
ATOM      8  C1  UNL d   1      -0.452   0.303  -2.295  0.00  0.00     0.054 C 
ATOM      9  C   UNL d   1      -1.923  -0.067  -2.428  0.00  0.00     0.018 C 
ENDBRANCH   1   8
TORSDOF 1
ENDMDL
