MODEL 1
REMARK minimizedAffinity 13.1193724
REMARK minimizedRMSD -1
REMARK  1 active torsions:
REMARK  status: ('A' for Active; 'I' for Inactive)
REMARK    1  A    between atoms: C1_2  and  C2_3 
ROOT
ATOM      1  C2  UNL d   1      -0.441   1.223  -0.136  0.00  0.00    -0.081 A 
ATOM      2  C3  UNL d   1      -0.756   1.283   1.227  0.00  0.00     0.006 A 
ATOM      3  C4  UNL d   1       0.004   0.575   2.161  0.00  0.00     0.002 A 
ATOM      4  C5  UNL d   1       1.096  -0.197   1.749  0.00  0.00    -0.080 A 
ATOM      5  C6  UNL d   1       1.939  -0.937   2.745  0.00  0.00     0.076 C 
ATOM      6  C7  UNL d   1       1.400  -0.270   0.386  0.00  0.00     0.002 A 
ATOM      7  C8  UNL d   1       0.639   0.436  -0.549  0.00  0.00     0.006 A 
ENDROOT
BRANCH   1   8
ATOM      8  C1  UNL d   1      -1.219   2.037  -1.139  0.00  0.00     0.054 C 
ATOM      9  C   UNL d   1      -2.324   1.212  -1.783  0.00  0.00     0.018 C 
ENDBRANCH   1   8
TORSDOF 1
ENDMDL
