MODEL 1
REMARK minimizedAffinity 1.2688936
REMARK minimizedRMSD -1
REMARK  1 active torsions:
REMARK  status: ('A' for Active; 'I' for Inactive)
REMARK    1  A    between atoms: C1_2  and  C2_3 
ROOT
ATOM      1  C2  UNL d   1       1.443  -0.184   2.522  0.00  0.00    -0.081 A 
ATOM      2  C3  UNL d   1       0.860   1.087   2.437  0.00  0.00     0.006 A 
ATOM      3  C4  UNL d   1       0.428   1.587   1.206  0.00  0.00     0.002 A 
ATOM      4  C5  UNL d   1       0.564   0.822   0.043  0.00  0.00    -0.080 A 
ATOM      5  C6  UNL d   1       0.077   1.335  -1.280  0.00  0.00     0.076 C 
ATOM      6  C7  UNL d   1       1.162  -0.440   0.125  0.00  0.00     0.002 A 
ATOM      7  C8  UNL d   1       1.595  -0.940   1.355  0.00  0.00     0.006 A 
ENDROOT
BRANCH   1   8
ATOM      8  C1  UNL d   1       1.850  -0.752   3.857  0.00  0.00     0.054 C 
ATOM      9  C   UNL d   1       3.154  -1.531   3.753  0.00  0.00     0.018 C 
ENDBRANCH   1   8
TORSDOF 1
ENDMDL
