MODEL 1
REMARK minimizedAffinity -1.27425337
REMARK minimizedRMSD -1
REMARK  1 active torsions:
REMARK  status: ('A' for Active; 'I' for Inactive)
REMARK    1  A    between atoms: C1_2  and  C2_3 
ROOT
ATOM      1  C2  UNL d   1      -0.025   1.778   0.798  0.00  0.00    -0.081 A 
ATOM      2  C3  UNL d   1       0.300   3.108   1.092  0.00  0.00     0.006 A 
ATOM      3  C4  UNL d   1       0.272   4.082   0.091  0.00  0.00     0.002 A 
ATOM      4  C5  UNL d   1      -0.089   3.744  -1.218  0.00  0.00    -0.080 A 
ATOM      5  C6  UNL d   1      -0.152   4.786  -2.295  0.00  0.00     0.076 C 
ATOM      6  C7  UNL d   1      -0.397   2.413  -1.516  0.00  0.00     0.002 A 
ATOM      7  C8  UNL d   1      -0.368   1.438  -0.516  0.00  0.00     0.006 A 
ENDROOT
BRANCH   1   8
ATOM      8  C1  UNL d   1      -0.059   0.738   1.888  0.00  0.00     0.054 C 
ATOM      9  C   UNL d   1       0.778  -0.478   1.519  0.00  0.00     0.018 C 
ENDBRANCH   1   8
TORSDOF 1
ENDMDL
