MODEL 1
REMARK minimizedAffinity 12.3300905
REMARK minimizedRMSD -1
REMARK  1 active torsions:
REMARK  status: ('A' for Active; 'I' for Inactive)
REMARK    1  A    between atoms: C1_2  and  C2_3 
ROOT
ATOM      1  C2  UNL d   1      -0.250   1.106  -0.354  0.00  0.00    -0.081 A 
ATOM      2  C3  UNL d   1      -0.199   1.198   1.042  0.00  0.00     0.006 A 
ATOM      3  C4  UNL d   1       0.814   0.555   1.757  0.00  0.00     0.002 A 
ATOM      4  C5  UNL d   1       1.797  -0.183   1.089  0.00  0.00    -0.080 A 
ATOM      5  C6  UNL d   1       2.907  -0.852   1.842  0.00  0.00     0.076 C 
ATOM      6  C7  UNL d   1       1.735  -0.290  -0.305  0.00  0.00     0.002 A 
ATOM      7  C8  UNL d   1       0.722   0.352  -1.021  0.00  0.00     0.006 A 
ENDROOT
BRANCH   1   8
ATOM      8  C1  UNL d   1      -1.304   1.851  -1.134  0.00  0.00     0.054 C 
ATOM      9  C   UNL d   1      -0.792   3.205  -1.602  0.00  0.00     0.018 C 
ENDBRANCH   1   8
TORSDOF 1
ENDMDL
