MODEL 1
REMARK minimizedAffinity 8.96742344
REMARK minimizedRMSD -1
REMARK  1 active torsions:
REMARK  status: ('A' for Active; 'I' for Inactive)
REMARK    1  A    between atoms: C1_2  and  C2_3 
ROOT
ATOM      1  C2  UNL d   1       0.873   1.222   2.038  0.00  0.00    -0.081 A 
ATOM      2  C3  UNL d   1       1.275   0.161   1.217  0.00  0.00     0.006 A 
ATOM      3  C4  UNL d   1       0.717  -0.002  -0.053  0.00  0.00     0.002 A 
ATOM      4  C5  UNL d   1      -0.245   0.896  -0.527  0.00  0.00    -0.080 A 
ATOM      5  C6  UNL d   1      -0.830   0.749  -1.900  0.00  0.00     0.076 C 
ATOM      6  C7  UNL d   1      -0.660   1.946   0.300  0.00  0.00     0.002 A 
ATOM      7  C8  UNL d   1      -0.103   2.109   1.570  0.00  0.00     0.006 A 
ENDROOT
BRANCH   1   8
ATOM      8  C1  UNL d   1       1.519   1.439   3.382  0.00  0.00     0.054 C 
ATOM      9  C   UNL d   1       2.415   2.669   3.374  0.00  0.00     0.018 C 
ENDBRANCH   1   8
TORSDOF 1
ENDMDL
