MODEL 1
REMARK minimizedAffinity -5.2237916
REMARK minimizedRMSD -1
REMARK  0 active torsions:
REMARK  status: ('A' for Active; 'I' for Inactive)
ROOT
ATOM      1  C   UNL d   1      -1.690  -3.655   2.111  0.00  0.00     0.077 C 
ATOM      2  C1  UNL d   1      -1.829  -2.465   1.209  0.00  0.00    -0.074 A 
ATOM      3  C2  UNL d   1      -3.056  -2.155   0.612  0.00  0.00    -0.005 A 
ATOM      4  C3  UNL d   1      -3.172  -1.040  -0.217  0.00  0.00     0.006 A 
ATOM      5  C4  UNL d   1      -2.065  -0.225  -0.459  0.00  0.00    -0.005 A 
ATOM      6  C5  UNL d   1      -0.831  -0.519   0.130  0.00  0.00    -0.074 A 
ATOM      7  C6  UNL d   1       0.366   0.352  -0.112  0.00  0.00     0.077 C 
ATOM      8  C7  UNL d   1      -0.724  -1.637   0.968  0.00  0.00    -0.001 A 
ENDROOT
TORSDOF 0
ENDMDL
