MODEL 1
REMARK minimizedAffinity -5.54661703
REMARK minimizedRMSD -1
REMARK  0 active torsions:
REMARK  status: ('A' for Active; 'I' for Inactive)
ROOT
ATOM      1  C   UNL d   1       1.530  -1.871   1.486  0.00  0.00     0.077 C 
ATOM      2  C1  UNL d   1       0.380  -1.220   0.776  0.00  0.00    -0.074 A 
ATOM      3  C2  UNL d   1       0.600  -0.293  -0.248  0.00  0.00    -0.005 A 
ATOM      4  C3  UNL d   1      -0.478   0.297  -0.906  0.00  0.00     0.006 A 
ATOM      5  C4  UNL d   1      -1.786  -0.033  -0.548  0.00  0.00    -0.005 A 
ATOM      6  C5  UNL d   1      -2.025  -0.958   0.473  0.00  0.00    -0.074 A 
ATOM      7  C6  UNL d   1      -3.425  -1.332   0.864  0.00  0.00     0.077 C 
ATOM      8  C7  UNL d   1      -0.936  -1.552   1.125  0.00  0.00    -0.001 A 
ENDROOT
TORSDOF 0
ENDMDL
