MODEL 1
REMARK minimizedAffinity -5.94405746
REMARK minimizedRMSD -1
REMARK  0 active torsions:
REMARK  status: ('A' for Active; 'I' for Inactive)
ROOT
ATOM      1  C   UNL d   1       1.478   0.380   0.050  0.00  0.00     0.077 C 
ATOM      2  C1  UNL d   1       0.060  -0.094  -0.071  0.00  0.00    -0.074 A 
ATOM      3  C2  UNL d   1      -0.638   0.026  -1.277  0.00  0.00    -0.005 A 
ATOM      4  C3  UNL d   1      -1.953  -0.429  -1.376  0.00  0.00     0.006 A 
ATOM      5  C4  UNL d   1      -2.582  -1.006  -0.273  0.00  0.00    -0.005 A 
ATOM      6  C5  UNL d   1      -1.900  -1.135   0.941  0.00  0.00    -0.074 A 
ATOM      7  C6  UNL d   1      -2.558  -1.763   2.134  0.00  0.00     0.077 C 
ATOM      8  C7  UNL d   1      -0.576  -0.683   1.031  0.00  0.00    -0.001 A 
ENDROOT
TORSDOF 0
ENDMDL
