MODEL 1
REMARK minimizedAffinity 0.279802501
REMARK minimizedRMSD -1
REMARK  0 active torsions:
REMARK  status: ('A' for Active; 'I' for Inactive)
ROOT
ATOM      1  C   UNL d   1       0.408  -2.380   1.468  0.00  0.00     0.077 C 
ATOM      2  C1  UNL d   1       0.430  -1.090   0.703  0.00  0.00    -0.074 A 
ATOM      3  C2  UNL d   1       0.952   0.075   1.274  0.00  0.00    -0.005 A 
ATOM      4  C3  UNL d   1       0.975   1.265   0.547  0.00  0.00     0.006 A 
ATOM      5  C4  UNL d   1       0.476   1.302  -0.756  0.00  0.00    -0.005 A 
ATOM      6  C5  UNL d   1      -0.049   0.147  -1.343  0.00  0.00    -0.074 A 
ATOM      7  C6  UNL d   1      -0.580   0.167  -2.746  0.00  0.00     0.077 C 
ATOM      8  C7  UNL d   1      -0.062  -1.046  -0.609  0.00  0.00    -0.001 A 
ENDROOT
TORSDOF 0
ENDMDL
