MODEL 1
REMARK minimizedAffinity -0.119843461
REMARK minimizedRMSD -1
REMARK  0 active torsions:
REMARK  status: ('A' for Active; 'I' for Inactive)
ROOT
ATOM      1  C   UNL d   1      -0.672   0.110  -2.354  0.00  0.00     0.077 C 
ATOM      2  C1  UNL d   1      -0.071   0.133  -0.980  0.00  0.00    -0.074 A 
ATOM      3  C2  UNL d   1       0.692   1.222  -0.547  0.00  0.00    -0.005 A 
ATOM      4  C3  UNL d   1       1.236   1.233   0.737  0.00  0.00     0.006 A 
ATOM      5  C4  UNL d   1       1.025   0.157   1.599  0.00  0.00    -0.005 A 
ATOM      6  C5  UNL d   1       0.264  -0.941   1.184  0.00  0.00    -0.074 A 
ATOM      7  C6  UNL d   1       0.019  -2.102   2.102  0.00  0.00     0.077 C 
ATOM      8  C7  UNL d   1      -0.286  -0.941  -0.105  0.00  0.00    -0.001 A 
ENDROOT
TORSDOF 0
ENDMDL
