MODEL 1
REMARK minimizedAffinity -3.19015956
REMARK minimizedRMSD -1
REMARK  0 active torsions:
REMARK  status: ('A' for Active; 'I' for Inactive)
ROOT
ATOM      1  C   UNL d   1      -3.575  -1.252  -0.670  0.00  0.00     0.077 C 
ATOM      2  C1  UNL d   1      -2.278  -1.266   0.083  0.00  0.00    -0.074 A 
ATOM      3  C2  UNL d   1      -2.077  -2.144   1.152  0.00  0.00    -0.005 A 
ATOM      4  C3  UNL d   1      -0.862  -2.152   1.837  0.00  0.00     0.006 A 
ATOM      5  C4  UNL d   1       0.163  -1.282   1.460  0.00  0.00    -0.005 A 
ATOM      6  C5  UNL d   1      -0.020  -0.397   0.393  0.00  0.00    -0.074 A 
ATOM      7  C6  UNL d   1       1.074   0.537  -0.032  0.00  0.00     0.077 C 
ATOM      8  C7  UNL d   1      -1.242  -0.401  -0.295  0.00  0.00    -0.001 A 
ENDROOT
TORSDOF 0
ENDMDL
