MODEL 1
REMARK minimizedAffinity -1.29178703
REMARK minimizedRMSD -1
REMARK  0 active torsions:
REMARK  status: ('A' for Active; 'I' for Inactive)
ROOT
ATOM      1  C   UNL d   1      -0.275  -2.361   1.603  0.00  0.00     0.077 C 
ATOM      2  C1  UNL d   1      -0.210  -1.280   0.567  0.00  0.00    -0.074 A 
ATOM      3  C2  UNL d   1      -1.099  -1.264  -0.513  0.00  0.00    -0.005 A 
ATOM      4  C3  UNL d   1      -1.033  -0.246  -1.464  0.00  0.00     0.006 A 
ATOM      5  C4  UNL d   1      -0.078   0.765  -1.346  0.00  0.00    -0.005 A 
ATOM      6  C5  UNL d   1       0.818   0.767  -0.272  0.00  0.00    -0.074 A 
ATOM      7  C6  UNL d   1       1.843   1.852  -0.125  0.00  0.00     0.077 C 
ATOM      8  C7  UNL d   1       0.741  -0.256   0.683  0.00  0.00    -0.001 A 
ENDROOT
TORSDOF 0
ENDMDL
