MODEL 1
REMARK minimizedAffinity -4.06664753
REMARK minimizedRMSD -1
REMARK  0 active torsions:
REMARK  status: ('A' for Active; 'I' for Inactive)
ROOT
ATOM      1  C   UNL d   1      -2.065  -3.414   0.569  0.00  0.00     0.077 C 
ATOM      2  C1  UNL d   1      -1.557  -2.161  -0.079  0.00  0.00    -0.074 A 
ATOM      3  C2  UNL d   1      -2.168  -1.647  -1.227  0.00  0.00    -0.005 A 
ATOM      4  C3  UNL d   1      -1.691  -0.475  -1.814  0.00  0.00     0.006 A 
ATOM      5  C4  UNL d   1      -0.599   0.194  -1.259  0.00  0.00    -0.005 A 
ATOM      6  C5  UNL d   1       0.024  -0.304  -0.110  0.00  0.00    -0.074 A 
ATOM      7  C6  UNL d   1       1.192   0.408   0.505  0.00  0.00     0.077 C 
ATOM      8  C7  UNL d   1      -0.466  -1.479   0.477  0.00  0.00    -0.001 A 
ENDROOT
TORSDOF 0
ENDMDL
