MODEL 1
REMARK minimizedAffinity -6.10185099
REMARK minimizedRMSD -1
REMARK  0 active torsions:
REMARK  status: ('A' for Active; 'I' for Inactive)
ROOT
ATOM      1  C   UNL d   1       0.827  -0.402   0.487  0.00  0.00     0.077 C 
ATOM      2  C1  UNL d   1      -0.523  -0.399  -0.165  0.00  0.00    -0.074 A 
ATOM      3  C2  UNL d   1      -0.779   0.400  -1.284  0.00  0.00    -0.005 A 
ATOM      4  C3  UNL d   1      -2.037   0.384  -1.887  0.00  0.00     0.006 A 
ATOM      5  C4  UNL d   1      -3.050  -0.428  -1.376  0.00  0.00    -0.005 A 
ATOM      6  C5  UNL d   1      -2.813  -1.234  -0.259  0.00  0.00    -0.074 A 
ATOM      7  C6  UNL d   1      -3.888  -2.120   0.296  0.00  0.00     0.077 C 
ATOM      8  C7  UNL d   1      -1.544  -1.219   0.337  0.00  0.00    -0.001 A 
ENDROOT
TORSDOF 0
ENDMDL
