MODEL 1
REMARK minimizedAffinity -4.42399406
REMARK minimizedRMSD -1
REMARK  0 active torsions:
REMARK  status: ('A' for Active; 'I' for Inactive)
ROOT
ATOM      1  C   UNL d   1      -3.126  -1.445  -0.930  0.00  0.00     0.077 C 
ATOM      2  C1  UNL d   1      -1.886  -1.418  -0.087  0.00  0.00    -0.074 A 
ATOM      3  C2  UNL d   1      -1.623  -2.433   0.838  0.00  0.00    -0.005 A 
ATOM      4  C3  UNL d   1      -0.461  -2.399   1.609  0.00  0.00     0.006 A 
ATOM      5  C4  UNL d   1       0.448  -1.351   1.463  0.00  0.00    -0.005 A 
ATOM      6  C5  UNL d   1       0.203  -0.327   0.542  0.00  0.00    -0.074 A 
ATOM      7  C6  UNL d   1       1.175   0.801   0.366  0.00  0.00     0.077 C 
ATOM      8  C7  UNL d   1      -0.963  -0.372  -0.233  0.00  0.00    -0.001 A 
ENDROOT
TORSDOF 0
ENDMDL
