MODEL 1
REMARK minimizedAffinity -6.19454384
REMARK minimizedRMSD -1
REMARK  0 active torsions:
REMARK  status: ('A' for Active; 'I' for Inactive)
ROOT
ATOM      1  C   UNL d   1      -1.083  -3.661   2.081  0.00  0.00     0.077 C 
ATOM      2  C1  UNL d   1      -1.582  -2.527   1.236  0.00  0.00    -0.074 A 
ATOM      3  C2  UNL d   1      -2.932  -2.160   1.251  0.00  0.00    -0.005 A 
ATOM      4  C3  UNL d   1      -3.380  -1.096   0.467  0.00  0.00     0.006 A 
ATOM      5  C4  UNL d   1      -2.485  -0.391  -0.338  0.00  0.00    -0.005 A 
ATOM      6  C5  UNL d   1      -1.132  -0.743  -0.365  0.00  0.00    -0.074 A 
ATOM      7  C6  UNL d   1      -0.155   0.011  -1.217  0.00  0.00     0.077 C 
ATOM      8  C7  UNL d   1      -0.688  -1.808   0.431  0.00  0.00    -0.001 A 
ENDROOT
TORSDOF 0
ENDMDL
