MODEL 1
REMARK minimizedAffinity -4.64408779
REMARK minimizedRMSD -1
REMARK  0 active torsions:
REMARK  status: ('A' for Active; 'I' for Inactive)
ROOT
ATOM      1  C   UNL d   1      -1.053  -2.970   2.143  0.00  0.00     0.077 C 
ATOM      2  C1  UNL d   1      -1.514  -2.018   1.080  0.00  0.00    -0.074 A 
ATOM      3  C2  UNL d   1      -2.817  -2.080   0.575  0.00  0.00    -0.005 A 
ATOM      4  C3  UNL d   1      -3.234  -1.182  -0.407  0.00  0.00     0.006 A 
ATOM      5  C4  UNL d   1      -2.355  -0.214  -0.894  0.00  0.00    -0.005 A 
ATOM      6  C5  UNL d   1      -1.049  -0.137  -0.400  0.00  0.00    -0.074 A 
ATOM      7  C6  UNL d   1      -0.093   0.904  -0.905  0.00  0.00     0.077 C 
ATOM      8  C7  UNL d   1      -0.639  -1.038   0.592  0.00  0.00    -0.001 A 
ENDROOT
TORSDOF 0
ENDMDL
