MODEL 1
REMARK minimizedAffinity -3.70567584
REMARK minimizedRMSD -1
REMARK  0 active torsions:
REMARK  status: ('A' for Active; 'I' for Inactive)
ROOT
ATOM      1  C   UNL d   1      -2.065  -3.450  -2.643  0.00  0.00     0.077 C 
ATOM      2  C1  UNL d   1      -2.225  -2.863  -1.272  0.00  0.00    -0.074 A 
ATOM      3  C2  UNL d   1      -3.169  -1.861  -1.025  0.00  0.00    -0.005 A 
ATOM      4  C3  UNL d   1      -3.313  -1.331   0.257  0.00  0.00     0.006 A 
ATOM      5  C4  UNL d   1      -2.515  -1.796   1.303  0.00  0.00    -0.005 A 
ATOM      6  C5  UNL d   1      -1.567  -2.798   1.075  0.00  0.00    -0.074 A 
ATOM      7  C6  UNL d   1      -0.709  -3.316   2.191  0.00  0.00     0.077 C 
ATOM      8  C7  UNL d   1      -1.433  -3.331  -0.214  0.00  0.00    -0.001 A 
ENDROOT
TORSDOF 0
ENDMDL
