MODEL 1
REMARK minimizedAffinity -1.69762921
REMARK minimizedRMSD -1
REMARK  0 active torsions:
REMARK  status: ('A' for Active; 'I' for Inactive)
ROOT
ATOM      1  C   UNL d   1      -2.660  -3.065  -2.747  0.00  0.00     0.077 C 
ATOM      2  C1  UNL d   1      -2.469  -2.060  -1.651  0.00  0.00    -0.074 A 
ATOM      3  C2  UNL d   1      -3.421  -1.910  -0.638  0.00  0.00    -0.005 A 
ATOM      4  C3  UNL d   1      -3.224  -0.978   0.381  0.00  0.00     0.006 A 
ATOM      5  C4  UNL d   1      -2.075  -0.186   0.396  0.00  0.00    -0.005 A 
ATOM      6  C5  UNL d   1      -1.111  -0.322  -0.608  0.00  0.00    -0.074 A 
ATOM      7  C6  UNL d   1       0.134   0.514  -0.601  0.00  0.00     0.077 C 
ATOM      8  C7  UNL d   1      -1.313  -1.266  -1.624  0.00  0.00    -0.001 A 
ENDROOT
TORSDOF 0
ENDMDL
