MODEL 1
REMARK minimizedAffinity -2.88750577
REMARK minimizedRMSD -1
REMARK  0 active torsions:
REMARK  status: ('A' for Active; 'I' for Inactive)
ROOT
ATOM      1  C   UNL d   1       0.955  -1.794   1.907  0.00  0.00     0.077 C 
ATOM      2  C1  UNL d   1       0.019  -1.134   0.939  0.00  0.00    -0.074 A 
ATOM      3  C2  UNL d   1       0.359   0.073   0.320  0.00  0.00    -0.005 A 
ATOM      4  C3  UNL d   1      -0.517   0.670  -0.586  0.00  0.00     0.006 A 
ATOM      5  C4  UNL d   1      -1.740   0.068  -0.882  0.00  0.00    -0.005 A 
ATOM      6  C5  UNL d   1      -2.097  -1.140  -0.273  0.00  0.00    -0.074 A 
ATOM      7  C6  UNL d   1      -3.404  -1.806  -0.588  0.00  0.00     0.077 C 
ATOM      8  C7  UNL d   1      -1.208  -1.738   0.630  0.00  0.00    -0.001 A 
ENDROOT
TORSDOF 0
ENDMDL
