MODEL 1
REMARK minimizedAffinity 9.34946346
REMARK minimizedRMSD -1
REMARK  0 active torsions:
REMARK  status: ('A' for Active; 'I' for Inactive)
ROOT
ATOM      1  C   UNL d   1       5.204  -3.787   4.876  0.00  0.00     0.020 A 
ATOM      2  C1  UNL d   1       4.953  -2.976   5.982  0.00  0.00     0.020 A 
ATOM      3  C2  UNL d   1       3.826  -2.150   6.000  0.00  0.00     0.034 A 
ATOM      4  C3  UNL d   1       2.947  -2.135   4.911  0.00  0.00     0.017 A 
ATOM      5  C4  UNL d   1       3.200  -2.951   3.802  0.00  0.00     0.017 A 
ATOM      6  C5  UNL d   1       4.330  -3.775   3.789  0.00  0.00     0.034 A 
ATOM      7 Cl   UNL d   1       2.161  -2.986   2.421  0.00  0.00    -0.070 Cl
ATOM      8 Cl1  UNL d   1       1.573  -1.091   5.002  0.00  0.00    -0.070 Cl
ENDROOT
TORSDOF 0
ENDMDL
