MODEL 1
REMARK minimizedAffinity 9.49308586
REMARK minimizedRMSD -1
REMARK  0 active torsions:
REMARK  status: ('A' for Active; 'I' for Inactive)
ROOT
ATOM      1  C   UNL d   1       0.072   4.492  -2.695  0.00  0.00     0.020 A 
ATOM      2  C1  UNL d   1      -0.740   5.625  -2.747  0.00  0.00     0.020 A 
ATOM      3  C2  UNL d   1      -1.487   6.000  -1.628  0.00  0.00     0.034 A 
ATOM      4  C3  UNL d   1      -1.423   5.243  -0.453  0.00  0.00     0.017 A 
ATOM      5  C4  UNL d   1      -0.607   4.106  -0.402  0.00  0.00     0.017 A 
ATOM      6  C5  UNL d   1       0.139   3.735  -1.525  0.00  0.00     0.034 A 
ATOM      7 Cl   UNL d   1      -0.476   3.122   1.013  0.00  0.00    -0.070 Cl
ATOM      8 Cl1  UNL d   1      -2.373   5.765   0.892  0.00  0.00    -0.070 Cl
ENDROOT
TORSDOF 0
ENDMDL
