MODEL 1
REMARK minimizedAffinity 0.722239733
REMARK minimizedRMSD -1
REMARK  0 active torsions:
REMARK  status: ('A' for Active; 'I' for Inactive)
ROOT
ATOM      1  C   UNL d   1      -0.883   4.865  -1.831  0.00  0.00     0.020 A 
ATOM      2  C1  UNL d   1       0.008   3.792  -1.822  0.00  0.00     0.020 A 
ATOM      3  C2  UNL d   1       0.273   3.115  -0.630  0.00  0.00     0.034 A 
ATOM      4  C3  UNL d   1      -0.353   3.509   0.558  0.00  0.00     0.017 A 
ATOM      5  C4  UNL d   1      -1.247   4.586   0.548  0.00  0.00     0.017 A 
ATOM      6  C5  UNL d   1      -1.509   5.261  -0.648  0.00  0.00     0.034 A 
ATOM      7 Cl   UNL d   1      -2.058   5.130   1.974  0.00  0.00    -0.070 Cl
ATOM      8 Cl1  UNL d   1       0.021   2.626   1.995  0.00  0.00    -0.070 Cl
ENDROOT
TORSDOF 0
ENDMDL
