MODEL 1
REMARK minimizedAffinity 10.7596064
REMARK minimizedRMSD -1
REMARK  0 active torsions:
REMARK  status: ('A' for Active; 'I' for Inactive)
ROOT
ATOM      1  C   UNL d   1       1.124  -2.262   5.629  0.00  0.00     0.020 A 
ATOM      2  C1  UNL d   1       1.122  -0.918   6.000  0.00  0.00     0.020 A 
ATOM      3  C2  UNL d   1       1.482   0.063   5.072  0.00  0.00     0.034 A 
ATOM      4  C3  UNL d   1       1.845  -0.300   3.770  0.00  0.00     0.017 A 
ATOM      5  C4  UNL d   1       1.846  -1.649   3.399  0.00  0.00     0.017 A 
ATOM      6  C5  UNL d   1       1.485  -2.627   4.332  0.00  0.00     0.034 A 
ATOM      7 Cl   UNL d   1       2.282  -2.173   1.811  0.00  0.00    -0.070 Cl
ATOM      8 Cl1  UNL d   1       2.278   0.965   2.675  0.00  0.00    -0.070 Cl
ENDROOT
TORSDOF 0
ENDMDL
