MODEL 1
REMARK minimizedAffinity 9.04913044
REMARK minimizedRMSD -1
REMARK  0 active torsions:
REMARK  status: ('A' for Active; 'I' for Inactive)
ROOT
ATOM      1  C   UNL d   1      -0.910   5.985  -2.024  0.00  0.00     0.020 A 
ATOM      2  C1  UNL d   1      -1.781   4.939  -1.723  0.00  0.00     0.020 A 
ATOM      3  C2  UNL d   1      -1.365   3.906  -0.881  0.00  0.00     0.034 A 
ATOM      4  C3  UNL d   1      -0.076   3.917  -0.336  0.00  0.00     0.017 A 
ATOM      5  C4  UNL d   1       0.797   4.968  -0.639  0.00  0.00     0.017 A 
ATOM      6  C5  UNL d   1       0.376   6.000  -1.483  0.00  0.00     0.034 A 
ATOM      7 Cl   UNL d   1       2.403   5.051  -0.005  0.00  0.00    -0.070 Cl
ATOM      8 Cl1  UNL d   1       0.371   2.607   0.699  0.00  0.00    -0.070 Cl
ENDROOT
TORSDOF 0
ENDMDL
