MODEL 1
REMARK minimizedAffinity 3.43559313
REMARK minimizedRMSD -1
REMARK  0 active torsions:
REMARK  status: ('A' for Active; 'I' for Inactive)
ROOT
ATOM      1  C   UNL d   1      -0.375   4.303  -3.003  0.00  0.00     0.020 A 
ATOM      2  C1  UNL d   1      -1.096   5.494  -2.928  0.00  0.00     0.020 A 
ATOM      3  C2  UNL d   1      -1.482   6.000  -1.685  0.00  0.00     0.034 A 
ATOM      4  C3  UNL d   1      -1.148   5.314  -0.512  0.00  0.00     0.017 A 
ATOM      5  C4  UNL d   1      -0.424   4.119  -0.588  0.00  0.00     0.017 A 
ATOM      6  C5  UNL d   1      -0.040   3.617  -1.835  0.00  0.00     0.034 A 
ATOM      7 Cl   UNL d   1       0.026   3.217   0.817  0.00  0.00    -0.070 Cl
ATOM      8 Cl1  UNL d   1      -1.657   5.998   0.991  0.00  0.00    -0.070 Cl
ENDROOT
TORSDOF 0
ENDMDL
