MODEL 1
REMARK minimizedAffinity 9.94059086
REMARK minimizedRMSD -1
REMARK  0 active torsions:
REMARK  status: ('A' for Active; 'I' for Inactive)
ROOT
ATOM      1  C   UNL d   1      -0.569   1.079   3.610  0.00  0.00     0.020 A 
ATOM      2  C1  UNL d   1      -1.558   1.320   2.658  0.00  0.00     0.020 A 
ATOM      3  C2  UNL d   1      -1.261   2.071   1.518  0.00  0.00     0.034 A 
ATOM      4  C3  UNL d   1       0.027   2.583   1.328  0.00  0.00     0.017 A 
ATOM      5  C4  UNL d   1       1.019   2.341   2.285  0.00  0.00     0.017 A 
ATOM      6  C5  UNL d   1       0.717   1.588   3.424  0.00  0.00     0.034 A 
ATOM      7 Cl   UNL d   1       2.632   2.940   2.120  0.00  0.00    -0.070 Cl
ATOM      8 Cl1  UNL d   1       0.323   3.503  -0.104  0.00  0.00    -0.070 Cl
ENDROOT
TORSDOF 0
ENDMDL
