MODEL 1
REMARK minimizedAffinity 10.7429867
REMARK minimizedRMSD -1
REMARK  0 active torsions:
REMARK  status: ('A' for Active; 'I' for Inactive)
ROOT
ATOM      1  C   UNL d   1       1.106  -1.365  -0.527  0.00  0.00     0.020 A 
ATOM      2  C1  UNL d   1       2.131  -2.100   0.068  0.00  0.00     0.020 A 
ATOM      3  C2  UNL d   1       2.135  -3.493  -0.025  0.00  0.00     0.034 A 
ATOM      4  C3  UNL d   1       1.113  -4.156  -0.714  0.00  0.00     0.017 A 
ATOM      5  C4  UNL d   1       0.085  -3.418  -1.311  0.00  0.00     0.017 A 
ATOM      6  C5  UNL d   1       0.085  -2.023  -1.215  0.00  0.00     0.034 A 
ATOM      7 Cl   UNL d   1      -1.210  -4.165  -2.178  0.00  0.00    -0.070 Cl
ATOM      8 Cl1  UNL d   1       1.183  -5.881  -0.790  0.00  0.00    -0.070 Cl
ENDROOT
TORSDOF 0
ENDMDL
