MODEL 1
REMARK minimizedAffinity 11.4947767
REMARK minimizedRMSD -1
REMARK  0 active torsions:
REMARK  status: ('A' for Active; 'I' for Inactive)
ROOT
ATOM      1  C   UNL d   1      -5.759   2.095  -4.874  0.00  0.00     0.020 A 
ATOM      2  C1  UNL d   1      -5.186   3.298  -5.285  0.00  0.00     0.020 A 
ATOM      3  C2  UNL d   1      -4.854   4.272  -4.341  0.00  0.00     0.034 A 
ATOM      4  C3  UNL d   1      -5.094   4.044  -2.981  0.00  0.00     0.017 A 
ATOM      5  C4  UNL d   1      -5.669   2.837  -2.569  0.00  0.00     0.017 A 
ATOM      6  C5  UNL d   1      -6.000   1.865  -3.519  0.00  0.00     0.034 A 
ATOM      7 Cl   UNL d   1      -5.996   2.484  -0.909  0.00  0.00    -0.070 Cl
ATOM      8 Cl1  UNL d   1      -4.658   5.293  -1.869  0.00  0.00    -0.070 Cl
ENDROOT
TORSDOF 0
ENDMDL
