MODEL 1
REMARK minimizedAffinity 9.83533764
REMARK minimizedRMSD -1
REMARK  0 active torsions:
REMARK  status: ('A' for Active; 'I' for Inactive)
ROOT
ATOM      1  C   UNL d   1      -4.848   3.458  -4.645  0.00  0.00     0.020 A 
ATOM      2  C1  UNL d   1      -6.000   4.112  -4.207  0.00  0.00     0.020 A 
ATOM      3  C2  UNL d   1      -6.000   4.780  -2.981  0.00  0.00     0.034 A 
ATOM      4  C3  UNL d   1      -4.847   4.796  -2.188  0.00  0.00     0.017 A 
ATOM      5  C4  UNL d   1      -3.692   4.139  -2.628  0.00  0.00     0.017 A 
ATOM      6  C5  UNL d   1      -3.697   3.472  -3.857  0.00  0.00     0.034 A 
ATOM      7 Cl   UNL d   1      -2.231   4.115  -1.705  0.00  0.00    -0.070 Cl
ATOM      8 Cl1  UNL d   1      -4.918   5.642  -0.683  0.00  0.00    -0.070 Cl
ENDROOT
TORSDOF 0
ENDMDL
