MODEL 1
REMARK minimizedAffinity 2.26846981
REMARK minimizedRMSD -1
REMARK  0 active torsions:
REMARK  status: ('A' for Active; 'I' for Inactive)
ROOT
ATOM      1  C1  BNZ d   1       0.416   1.401   2.226  0.00  0.00     0.000 A 
ATOM      2  C2  BNZ d   1       0.893   0.292   2.873  0.00  0.00     0.000 A 
ATOM      3  C3  BNZ d   1       1.461  -0.736   2.173  0.00  0.00     0.000 A 
ATOM      4  C4  BNZ d   1       1.513  -0.672   0.827  0.00  0.00     0.000 A 
ATOM      5  C5  BNZ d   1       1.028   0.435   0.160  0.00  0.00     0.000 A 
ATOM      6  C6  BNZ d   1       0.492   1.485   0.870  0.00  0.00     0.000 A 
ENDROOT
TORSDOF 0
ENDMDL
