MODEL 1
REMARK minimizedAffinity -0.293958217
REMARK minimizedRMSD -1
REMARK  0 active torsions:
REMARK  status: ('A' for Active; 'I' for Inactive)
ROOT
ATOM      1  C1  BNZ d   1      -0.058   4.847  -2.381  0.00  0.00     0.000 A 
ATOM      2  C2  BNZ d   1       0.337   3.688  -1.766  0.00  0.00     0.000 A 
ATOM      3  C3  BNZ d   1       0.626   3.669  -0.430  0.00  0.00     0.000 A 
ATOM      4  C4  BNZ d   1       0.560   4.813   0.279  0.00  0.00     0.000 A 
ATOM      5  C5  BNZ d   1       0.173   5.991  -0.328  0.00  0.00     0.000 A 
ATOM      6  C6  BNZ d   1      -0.155   6.000  -1.664  0.00  0.00     0.000 A 
ENDROOT
TORSDOF 0
ENDMDL
