MODEL 1
REMARK minimizedAffinity -2.12770748
REMARK minimizedRMSD -1
REMARK  0 active torsions:
REMARK  status: ('A' for Active; 'I' for Inactive)
ROOT
ATOM      1  C1  BNZ d   1      -1.624  -0.385  -1.987  0.00  0.00     0.000 A 
ATOM      2  C2  BNZ d   1      -1.347  -1.164  -0.895  0.00  0.00     0.000 A 
ATOM      3  C3  BNZ d   1      -0.318  -0.848  -0.053  0.00  0.00     0.000 A 
ATOM      4  C4  BNZ d   1       0.457   0.222  -0.325  0.00  0.00     0.000 A 
ATOM      5  C5  BNZ d   1       0.196   1.012  -1.427  0.00  0.00     0.000 A 
ATOM      6  C6  BNZ d   1      -0.864   0.713  -2.251  0.00  0.00     0.000 A 
ENDROOT
TORSDOF 0
ENDMDL
