MODEL 1
REMARK minimizedAffinity -4.18506622
REMARK minimizedRMSD -1
REMARK  0 active torsions:
REMARK  status: ('A' for Active; 'I' for Inactive)
ROOT
ATOM      1  C1  BNZ d   1       2.624  -0.765   2.912  0.00  0.00     0.000 A 
ATOM      2  C2  BNZ d   1       3.145   0.117   3.820  0.00  0.00     0.000 A 
ATOM      3  C3  BNZ d   1       2.622   1.373   3.955  0.00  0.00     0.000 A 
ATOM      4  C4  BNZ d   1       1.608   1.758   3.155  0.00  0.00     0.000 A 
ATOM      5  C5  BNZ d   1       1.078   0.883   2.227  0.00  0.00     0.000 A 
ATOM      6  C6  BNZ d   1       1.581  -0.393   2.121  0.00  0.00     0.000 A 
ENDROOT
TORSDOF 0
ENDMDL
