MODEL 1
REMARK minimizedAffinity -0.391165912
REMARK minimizedRMSD -1
REMARK  0 active torsions:
REMARK  status: ('A' for Active; 'I' for Inactive)
ROOT
ATOM      1  C1  BNZ d   1      -0.150   1.318   0.649  0.00  0.00     0.000 A 
ATOM      2  C2  BNZ d   1       0.389   0.059   0.628  0.00  0.00     0.000 A 
ATOM      3  C3  BNZ d   1       1.246  -0.351   1.610  0.00  0.00     0.000 A 
ATOM      4  C4  BNZ d   1       1.594   0.509   2.589  0.00  0.00     0.000 A 
ATOM      5  C5  BNZ d   1       1.066   1.784   2.619  0.00  0.00     0.000 A 
ATOM      6  C6  BNZ d   1       0.173   2.181   1.650  0.00  0.00     0.000 A 
ENDROOT
TORSDOF 0
ENDMDL
