MODEL 1
REMARK minimizedAffinity -2.33403897
REMARK minimizedRMSD -1
REMARK  0 active torsions:
REMARK  status: ('A' for Active; 'I' for Inactive)
ROOT
ATOM      1  C1  BNZ d   1       1.161   4.164   0.496  0.00  0.00     0.000 A 
ATOM      2  C2  BNZ d   1       1.003   5.241  -0.336  0.00  0.00     0.000 A 
ATOM      3  C3  BNZ d   1       0.394   5.101  -1.552  0.00  0.00     0.000 A 
ATOM      4  C4  BNZ d   1      -0.018   3.881  -1.951  0.00  0.00     0.000 A 
ATOM      5  C5  BNZ d   1       0.143   2.785  -1.127  0.00  0.00     0.000 A 
ATOM      6  C6  BNZ d   1       0.721   2.936   0.113  0.00  0.00     0.000 A 
ENDROOT
TORSDOF 0
ENDMDL
