MODEL 1
REMARK minimizedAffinity 0.973676324
REMARK minimizedRMSD -1
REMARK  0 active torsions:
REMARK  status: ('A' for Active; 'I' for Inactive)
ROOT
ATOM      1  C1  BNZ d   1       0.066   4.180  -2.597  0.00  0.00     0.000 A 
ATOM      2  C2  BNZ d   1       0.635   5.350  -2.170  0.00  0.00     0.000 A 
ATOM      3  C3  BNZ d   1       1.142   5.462  -0.905  0.00  0.00     0.000 A 
ATOM      4  C4  BNZ d   1       1.043   4.418  -0.057  0.00  0.00     0.000 A 
ATOM      5  C5  BNZ d   1       0.463   3.235  -0.469  0.00  0.00     0.000 A 
ATOM      6  C6  BNZ d   1      -0.010   3.113  -1.755  0.00  0.00     0.000 A 
ENDROOT
TORSDOF 0
ENDMDL
