MODEL 1
REMARK minimizedAffinity 1.21131301
REMARK minimizedRMSD -1
REMARK  0 active torsions:
REMARK  status: ('A' for Active; 'I' for Inactive)
ROOT
ATOM      1  C1  BNZ d   1       0.122   2.639   1.407  0.00  0.00     0.000 A 
ATOM      2  C2  BNZ d   1       0.291   2.351   0.079  0.00  0.00     0.000 A 
ATOM      3  C3  BNZ d   1       0.524   1.069  -0.335  0.00  0.00     0.000 A 
ATOM      4  C4  BNZ d   1       0.628   0.085   0.581  0.00  0.00     0.000 A 
ATOM      5  C5  BNZ d   1       0.470   0.361   1.925  0.00  0.00     0.000 A 
ATOM      6  C6  BNZ d   1       0.196   1.646   2.334  0.00  0.00     0.000 A 
ENDROOT
TORSDOF 0
ENDMDL
