MODEL 1
REMARK minimizedAffinity -2.07268262
REMARK minimizedRMSD -1
REMARK  0 active torsions:
REMARK  status: ('A' for Active; 'I' for Inactive)
ROOT
ATOM      1  C1  BNZ d   1       0.612   5.211  -1.147  0.00  0.00     0.000 A 
ATOM      2  C2  BNZ d   1       0.459   3.915  -0.734  0.00  0.00     0.000 A 
ATOM      3  C3  BNZ d   1      -0.283   3.030  -1.465  0.00  0.00     0.000 A 
ATOM      4  C4  BNZ d   1      -0.903   3.451  -2.586  0.00  0.00     0.000 A 
ATOM      5  C5  BNZ d   1      -0.766   4.758  -3.011  0.00  0.00     0.000 A 
ATOM      6  C6  BNZ d   1       0.013   5.636  -2.293  0.00  0.00     0.000 A 
ENDROOT
TORSDOF 0
ENDMDL
