MODEL 1
REMARK minimizedAffinity 1.92686987
REMARK minimizedRMSD -1
REMARK  0 active torsions:
REMARK  status: ('A' for Active; 'I' for Inactive)
ROOT
ATOM      1  C1  BNZ d   1       2.019   4.145   1.862  0.00  0.00     0.000 A 
ATOM      2  C2  BNZ d   1       2.331   3.250   2.851  0.00  0.00     0.000 A 
ATOM      3  C3  BNZ d   1       1.621   2.092   2.996  0.00  0.00     0.000 A 
ATOM      4  C4  BNZ d   1       0.575   1.848   2.180  0.00  0.00     0.000 A 
ATOM      5  C5  BNZ d   1       0.242   2.745   1.184  0.00  0.00     0.000 A 
ATOM      6  C6  BNZ d   1       0.984   3.891   1.016  0.00  0.00     0.000 A 
ENDROOT
TORSDOF 0
ENDMDL
