MODEL 1
REMARK minimizedAffinity -3.50643873
REMARK minimizedRMSD -1
REMARK  0 active torsions:
REMARK  status: ('A' for Active; 'I' for Inactive)
ROOT
ATOM      1  C1  BNZ d   1      -1.168   2.500  -1.614  0.00  0.00     0.000 A 
ATOM      2  C2  BNZ d   1      -0.043   3.071  -1.081  0.00  0.00     0.000 A 
ATOM      3  C3  BNZ d   1       0.307   4.354  -1.394  0.00  0.00     0.000 A 
ATOM      4  C4  BNZ d   1      -0.445   5.051  -2.270  0.00  0.00     0.000 A 
ATOM      5  C5  BNZ d   1      -1.578   4.487  -2.823  0.00  0.00     0.000 A 
ATOM      6  C6  BNZ d   1      -1.948   3.208  -2.475  0.00  0.00     0.000 A 
ENDROOT
TORSDOF 0
ENDMDL
