MODEL 1
REMARK minimizedAffinity -2.06889272
REMARK minimizedRMSD -1
REMARK  0 active torsions:
REMARK  status: ('A' for Active; 'I' for Inactive)
ROOT
ATOM      1  C2' OXE d   1      -0.026   1.437  -0.329  0.00  0.00     0.078 C 
ATOM      2  C1' OXE d   1      -2.001  -0.379   0.498  0.00  0.00     0.078 C 
ATOM      3  C1  OXE d   1      -0.686  -0.384   1.238  0.00  0.00    -0.078 A 
ATOM      4  C2  OXE d   1       0.291   0.476   0.797  0.00  0.00    -0.078 A 
ATOM      5  C3  OXE d   1       1.502   0.551   1.478  0.00  0.00     0.003 A 
ATOM      6  C4  OXE d   1       1.791  -0.349   2.511  0.00  0.00    -0.002 A 
ATOM      7  C5  OXE d   1       0.824  -1.259   2.951  0.00  0.00    -0.002 A 
ATOM      8  C6  OXE d   1      -0.432  -1.260   2.354  0.00  0.00     0.003 A 
ENDROOT
TORSDOF 0
ENDMDL
