MODEL 1
REMARK minimizedAffinity -4.09789228
REMARK minimizedRMSD -1
REMARK  0 active torsions:
REMARK  status: ('A' for Active; 'I' for Inactive)
ROOT
ATOM      1  C2' OXE d   1      -0.612   0.107  -0.672  0.00  0.00     0.078 C 
ATOM      2  C1' OXE d   1       1.943  -0.823  -1.370  0.00  0.00     0.078 C 
ATOM      3  C1  OXE d   1       1.584  -0.785   0.095  0.00  0.00    -0.078 A 
ATOM      4  C2  OXE d   1       0.349  -0.285   0.430  0.00  0.00    -0.078 A 
ATOM      5  C3  OXE d   1      -0.054  -0.278   1.763  0.00  0.00     0.003 A 
ATOM      6  C4  OXE d   1       0.845  -0.632   2.776  0.00  0.00    -0.002 A 
ATOM      7  C5  OXE d   1       2.122  -1.107   2.459  0.00  0.00    -0.002 A 
ATOM      8  C6  OXE d   1       2.491  -1.229   1.124  0.00  0.00     0.003 A 
ENDROOT
TORSDOF 0
ENDMDL
