MODEL 1
REMARK minimizedAffinity -2.55077338
REMARK minimizedRMSD -1
REMARK  0 active torsions:
REMARK  status: ('A' for Active; 'I' for Inactive)
ROOT
ATOM      1  C2' OXE d   1      -1.754   0.401   0.273  0.00  0.00     0.078 C 
ATOM      2  C1' OXE d   1      -0.412   0.075  -2.171  0.00  0.00     0.078 C 
ATOM      3  C1  OXE d   1       0.384  -0.102  -0.903  0.00  0.00    -0.078 A 
ATOM      4  C2  OXE d   1      -0.269   0.105   0.288  0.00  0.00    -0.078 A 
ATOM      5  C3  OXE d   1       0.405  -0.098   1.489  0.00  0.00     0.003 A 
ATOM      6  C4  OXE d   1       1.780  -0.361   1.494  0.00  0.00    -0.002 A 
ATOM      7  C5  OXE d   1       2.474  -0.537   0.292  0.00  0.00    -0.002 A 
ATOM      8  C6  OXE d   1       1.783  -0.453  -0.912  0.00  0.00     0.003 A 
ENDROOT
TORSDOF 0
ENDMDL
