MODEL 1
REMARK minimizedAffinity 0.226690739
REMARK minimizedRMSD -1
REMARK  0 active torsions:
REMARK  status: ('A' for Active; 'I' for Inactive)
ROOT
ATOM      1  C2' OXE d   1       1.403  -0.752  -1.128  0.00  0.00     0.078 C 
ATOM      2  C1' OXE d   1      -0.284   1.479  -1.371  0.00  0.00     0.078 C 
ATOM      3  C1  OXE d   1      -0.318   0.709  -0.074  0.00  0.00    -0.078 A 
ATOM      4  C2  OXE d   1       0.477  -0.408   0.019  0.00  0.00    -0.078 A 
ATOM      5  C3  OXE d   1       0.524  -1.122   1.213  0.00  0.00     0.003 A 
ATOM      6  C4  OXE d   1      -0.343  -0.804   2.264  0.00  0.00    -0.002 A 
ATOM      7  C5  OXE d   1      -1.189   0.307   2.175  0.00  0.00    -0.002 A 
ATOM      8  C6  OXE d   1      -1.158   1.097   1.032  0.00  0.00     0.003 A 
ENDROOT
TORSDOF 0
ENDMDL
