MODEL 1
REMARK minimizedAffinity -3.40021992
REMARK minimizedRMSD -1
REMARK  0 active torsions:
REMARK  status: ('A' for Active; 'I' for Inactive)
ROOT
ATOM      1  C2' OXE d   1       1.797  -1.422  -0.014  0.00  0.00     0.078 C 
ATOM      2  C1' OXE d   1       0.518  -1.481   2.484  0.00  0.00     0.078 C 
ATOM      3  C1  OXE d   1       0.034  -0.476   1.469  0.00  0.00    -0.078 A 
ATOM      4  C2  OXE d   1       0.696  -0.422   0.266  0.00  0.00    -0.078 A 
ATOM      5  C3  OXE d   1       0.255   0.449  -0.725  0.00  0.00     0.003 A 
ATOM      6  C4  OXE d   1      -0.758   1.377  -0.454  0.00  0.00    -0.002 A 
ATOM      7  C5  OXE d   1      -1.419   1.367   0.779  0.00  0.00    -0.002 A 
ATOM      8  C6  OXE d   1      -1.064   0.420   1.734  0.00  0.00     0.003 A 
ENDROOT
TORSDOF 0
ENDMDL
