MODEL 1
REMARK minimizedAffinity -3.59148836
REMARK minimizedRMSD -1
REMARK  0 active torsions:
REMARK  status: ('A' for Active; 'I' for Inactive)
ROOT
ATOM      1  C2' OXE d   1      -0.335  -0.552   2.102  0.00  0.00     0.078 C 
ATOM      2  C1' OXE d   1      -2.449  -1.186   0.367  0.00  0.00     0.078 C 
ATOM      3  C1  OXE d   1      -1.346  -0.304  -0.162  0.00  0.00    -0.078 A 
ATOM      4  C2  OXE d   1      -0.339   0.039   0.709  0.00  0.00    -0.078 A 
ATOM      5  C3  OXE d   1       0.731   0.806   0.256  0.00  0.00     0.003 A 
ATOM      6  C4  OXE d   1       0.715   1.356  -1.031  0.00  0.00    -0.002 A 
ATOM      7  C5  OXE d   1      -0.321   1.052  -1.920  0.00  0.00    -0.002 A 
ATOM      8  C6  OXE d   1      -1.335   0.190  -1.516  0.00  0.00     0.003 A 
ENDROOT
TORSDOF 0
ENDMDL
