MODEL 1
REMARK minimizedAffinity -4.24967813
REMARK minimizedRMSD -1
REMARK  0 active torsions:
REMARK  status: ('A' for Active; 'I' for Inactive)
ROOT
ATOM      1  C2' OXE d   1      -1.727  -0.126   0.619  0.00  0.00     0.078 C 
ATOM      2  C1' OXE d   1       0.213   0.954  -1.098  0.00  0.00     0.078 C 
ATOM      3  C1  OXE d   1       0.688   0.287   0.168  0.00  0.00    -0.078 A 
ATOM      4  C2  OXE d   1      -0.270  -0.198   1.025  0.00  0.00    -0.078 A 
ATOM      5  C3  OXE d   1       0.115  -0.871   2.181  0.00  0.00     0.003 A 
ATOM      6  C4  OXE d   1       1.463  -0.925   2.554  0.00  0.00    -0.002 A 
ATOM      7  C5  OXE d   1       2.453  -0.403   1.714  0.00  0.00    -0.002 A 
ATOM      8  C6  OXE d   1       2.086   0.167   0.500  0.00  0.00     0.003 A 
ENDROOT
TORSDOF 0
ENDMDL
