MODEL 1
REMARK minimizedAffinity -2.46308231
REMARK minimizedRMSD -1
REMARK  0 active torsions:
REMARK  status: ('A' for Active; 'I' for Inactive)
ROOT
ATOM      1  C2' OXE d   1       1.828  -1.378  -0.480  0.00  0.00     0.078 C 
ATOM      2  C1' OXE d   1       0.147  -1.223   1.763  0.00  0.00     0.078 C 
ATOM      3  C1  OXE d   1      -0.402  -0.755   0.438  0.00  0.00    -0.078 A 
ATOM      4  C2  OXE d   1       0.443  -0.791  -0.645  0.00  0.00    -0.078 A 
ATOM      5  C3  OXE d   1      -0.030  -0.422  -1.901  0.00  0.00     0.003 A 
ATOM      6  C4  OXE d   1      -1.309   0.130  -2.042  0.00  0.00    -0.002 A 
ATOM      7  C5  OXE d   1      -2.172   0.212  -0.945  0.00  0.00    -0.002 A 
ATOM      8  C6  OXE d   1      -1.750  -0.264   0.292  0.00  0.00     0.003 A 
ENDROOT
TORSDOF 0
ENDMDL
