MODEL 1
REMARK minimizedAffinity -4.25511742
REMARK minimizedRMSD -1
REMARK  0 active torsions:
REMARK  status: ('A' for Active; 'I' for Inactive)
ROOT
ATOM      1  C2' OXE d   1      -2.502   0.808  -2.280  0.00  0.00     0.078 C 
ATOM      2  C1' OXE d   1      -2.435   3.521  -2.999  0.00  0.00     0.078 C 
ATOM      3  C1  OXE d   1      -3.709   2.756  -3.258  0.00  0.00    -0.078 A 
ATOM      4  C2  OXE d   1      -3.717   1.418  -2.946  0.00  0.00    -0.078 A 
ATOM      5  C3  OXE d   1      -4.884   0.678  -3.114  0.00  0.00     0.003 A 
ATOM      6  C4  OXE d   1      -6.000   1.247  -3.740  0.00  0.00    -0.002 A 
ATOM      7  C5  OXE d   1      -5.999   2.598  -4.102  0.00  0.00    -0.002 A 
ATOM      8  C6  OXE d   1      -4.879   3.376  -3.829  0.00  0.00     0.003 A 
ENDROOT
TORSDOF 0
ENDMDL
