MODEL 1
REMARK minimizedAffinity -3.08700919
REMARK minimizedRMSD -1
REMARK  0 active torsions:
REMARK  status: ('A' for Active; 'I' for Inactive)
ROOT
ATOM      1  C2' OXE d   1      -0.160  -0.610   1.180  0.00  0.00     0.078 C 
ATOM      2  C1' OXE d   1      -0.104  -0.998  -1.600  0.00  0.00     0.078 C 
ATOM      3  C1  OXE d   1      -0.301   0.407  -1.090  0.00  0.00    -0.078 A 
ATOM      4  C2  OXE d   1      -0.373   0.581   0.272  0.00  0.00    -0.078 A 
ATOM      5  C3  OXE d   1      -0.499   1.864   0.797  0.00  0.00     0.003 A 
ATOM      6  C4  OXE d   1      -0.706   2.960  -0.050  0.00  0.00    -0.002 A 
ATOM      7  C5  OXE d   1      -0.675   2.799  -1.440  0.00  0.00    -0.002 A 
ATOM      8  C6  OXE d   1      -0.431   1.538  -1.974  0.00  0.00     0.003 A 
ENDROOT
TORSDOF 0
ENDMDL
