MODEL 1
REMARK minimizedAffinity 2.88745046
REMARK minimizedRMSD -1
REMARK  0 active torsions:
REMARK  status: ('A' for Active; 'I' for Inactive)
ROOT
ATOM      1  C   UNL d   1       0.351   4.876  -1.705  0.00  0.00     0.077 C 
ATOM      2  C1  UNL d   1       0.419   3.727  -0.743  0.00  0.00    -0.074 A 
ATOM      3  C2  UNL d   1      -0.164   2.494  -1.054  0.00  0.00    -0.005 A 
ATOM      4  C3  UNL d   1      -0.084   1.432  -0.153  0.00  0.00     0.006 A 
ATOM      5  C4  UNL d   1       0.578   1.591   1.065  0.00  0.00    -0.005 A 
ATOM      6  C5  UNL d   1       1.168   2.817   1.392  0.00  0.00    -0.074 A 
ATOM      7  C6  UNL d   1       1.892   3.002   2.692  0.00  0.00     0.077 C 
ATOM      8  C7  UNL d   1       1.090   3.877   0.479  0.00  0.00    -0.001 A 
ENDROOT
TORSDOF 0
ENDMDL
