MODEL 1
REMARK minimizedAffinity 0.338765442
REMARK minimizedRMSD -1
REMARK  0 active torsions:
REMARK  status: ('A' for Active; 'I' for Inactive)
ROOT
ATOM      1  C   UNL d   1       0.857   4.559  -1.220  0.00  0.00     0.077 C 
ATOM      2  C1  UNL d   1       0.791   3.523  -0.136  0.00  0.00    -0.074 A 
ATOM      3  C2  UNL d   1      -0.110   2.457  -0.215  0.00  0.00    -0.005 A 
ATOM      4  C3  UNL d   1      -0.153   1.496   0.795  0.00  0.00     0.006 A 
ATOM      5  C4  UNL d   1       0.703   1.592   1.893  0.00  0.00    -0.005 A 
ATOM      6  C5  UNL d   1       1.611   2.651   1.989  0.00  0.00    -0.074 A 
ATOM      7  C6  UNL d   1       2.545   2.764   3.157  0.00  0.00     0.077 C 
ATOM      8  C7  UNL d   1       1.653   3.609   0.966  0.00  0.00    -0.001 A 
ENDROOT
TORSDOF 0
ENDMDL
