MODEL 1
REMARK minimizedAffinity -3.80437589
REMARK minimizedRMSD -1
REMARK  0 active torsions:
REMARK  status: ('A' for Active; 'I' for Inactive)
ROOT
ATOM      1  C   UNL d   1       0.011   1.157   1.560  0.00  0.00     0.077 C 
ATOM      2  C1  UNL d   1       0.428   2.288   0.667  0.00  0.00    -0.074 A 
ATOM      3  C2  UNL d   1       1.744   2.761   0.673  0.00  0.00    -0.005 A 
ATOM      4  C3  UNL d   1       2.119   3.806  -0.171  0.00  0.00     0.006 A 
ATOM      5  C4  UNL d   1       1.183   4.388  -1.027  0.00  0.00    -0.005 A 
ATOM      6  C5  UNL d   1      -0.137   3.928  -1.048  0.00  0.00    -0.074 A 
ATOM      7  C6  UNL d   1      -1.152   4.536  -1.969  0.00  0.00     0.077 C 
ATOM      8  C7  UNL d   1      -0.504   2.872  -0.202  0.00  0.00    -0.001 A 
ENDROOT
TORSDOF 0
ENDMDL
