MODEL 1
REMARK minimizedAffinity 0.629909575
REMARK minimizedRMSD -1
REMARK  0 active torsions:
REMARK  status: ('A' for Active; 'I' for Inactive)
ROOT
ATOM      1  C   UNL d   1       1.273   5.050  -1.117  0.00  0.00     0.077 C 
ATOM      2  C1  UNL d   1       0.579   3.763  -0.785  0.00  0.00    -0.074 A 
ATOM      3  C2  UNL d   1      -0.513   3.321  -1.539  0.00  0.00    -0.005 A 
ATOM      4  C3  UNL d   1      -1.143   2.117  -1.225  0.00  0.00     0.006 A 
ATOM      5  C4  UNL d   1      -0.689   1.344  -0.156  0.00  0.00    -0.005 A 
ATOM      6  C5  UNL d   1       0.402   1.770   0.608  0.00  0.00    -0.074 A 
ATOM      7  C6  UNL d   1       0.910   0.946   1.755  0.00  0.00     0.077 C 
ATOM      8  C7  UNL d   1       1.035   2.977   0.282  0.00  0.00    -0.001 A 
ENDROOT
TORSDOF 0
ENDMDL
