MODEL 1
REMARK minimizedAffinity 5.63825226
REMARK minimizedRMSD -1
REMARK  0 active torsions:
REMARK  status: ('A' for Active; 'I' for Inactive)
ROOT
ATOM      1  C   UNL d   1       0.031   0.069   1.924  0.00  0.00     0.077 C 
ATOM      2  C1  UNL d   1       0.554   1.286   1.220  0.00  0.00    -0.074 A 
ATOM      3  C2  UNL d   1       1.471   2.139   1.844  0.00  0.00    -0.005 A 
ATOM      4  C3  UNL d   1       1.956   3.261   1.173  0.00  0.00     0.006 A 
ATOM      5  C4  UNL d   1       1.530   3.542  -0.126  0.00  0.00    -0.005 A 
ATOM      6  C5  UNL d   1       0.615   2.700  -0.766  0.00  0.00    -0.074 A 
ATOM      7  C6  UNL d   1       0.154   2.981  -2.165  0.00  0.00     0.077 C 
ATOM      8  C7  UNL d   1       0.137   1.570  -0.088  0.00  0.00    -0.001 A 
ENDROOT
TORSDOF 0
ENDMDL
