MODEL 1
REMARK minimizedAffinity 5.66451597
REMARK minimizedRMSD -1
REMARK  0 active torsions:
REMARK  status: ('A' for Active; 'I' for Inactive)
ROOT
ATOM      1  C   UNL d   1       0.520   1.292   1.788  0.00  0.00     0.077 C 
ATOM      2  C1  UNL d   1      -0.508   1.297   0.696  0.00  0.00    -0.074 A 
ATOM      3  C2  UNL d   1      -0.198   1.778  -0.581  0.00  0.00    -0.005 A 
ATOM      4  C3  UNL d   1      -1.161   1.767  -1.589  0.00  0.00     0.006 A 
ATOM      5  C4  UNL d   1      -2.442   1.278  -1.333  0.00  0.00    -0.005 A 
ATOM      6  C5  UNL d   1      -2.771   0.792  -0.063  0.00  0.00    -0.074 A 
ATOM      7  C6  UNL d   1      -4.140   0.253   0.227  0.00  0.00     0.077 C 
ATOM      8  C7  UNL d   1      -1.795   0.799   0.944  0.00  0.00    -0.001 A 
ENDROOT
TORSDOF 0
ENDMDL
