MODEL 1
REMARK minimizedAffinity -1.77400804
REMARK minimizedRMSD -1
REMARK  0 active torsions:
REMARK  status: ('A' for Active; 'I' for Inactive)
ROOT
ATOM      1  C   UNL d   1       0.820   4.904  -1.447  0.00  0.00     0.077 C 
ATOM      2  C1  UNL d   1       0.359   3.609  -0.847  0.00  0.00    -0.074 A 
ATOM      3  C2  UNL d   1       0.732   3.246   0.451  0.00  0.00    -0.005 A 
ATOM      4  C3  UNL d   1       0.288   2.043   0.999  0.00  0.00     0.006 A 
ATOM      5  C4  UNL d   1      -0.531   1.192   0.256  0.00  0.00    -0.005 A 
ATOM      6  C5  UNL d   1      -0.915   1.539  -1.043  0.00  0.00    -0.074 A 
ATOM      7  C6  UNL d   1      -1.803   0.641  -1.851  0.00  0.00     0.077 C 
ATOM      8  C7  UNL d   1      -0.471   2.753  -1.584  0.00  0.00    -0.001 A 
ENDROOT
TORSDOF 0
ENDMDL
