MODEL 1
REMARK minimizedAffinity -3.61332798
REMARK minimizedRMSD -1
REMARK  1 active torsions:
REMARK  status: ('A' for Active; 'I' for Inactive)
REMARK    1  A    between atoms: C1_2  and  C2_3 
ROOT
ATOM      1  C2  UNL d   1      -4.867   5.033   3.140  0.00  0.00    -0.077 A 
ATOM      2  C3  UNL d   1      -4.429   3.715   3.333  0.00  0.00     0.002 A 
ATOM      3  C4  UNL d   1      -4.774   3.020   4.493  0.00  0.00     0.002 A 
ATOM      4  C5  UNL d   1      -5.562   3.632   5.466  0.00  0.00    -0.004 A 
ATOM      5  C6  UNL d   1      -6.000   4.943   5.284  0.00  0.00     0.002 A 
ATOM      6  C7  UNL d   1      -5.655   5.640   4.126  0.00  0.00     0.002 A 
ENDROOT
BRANCH   1   7
ATOM      7  C1  UNL d   1      -4.536   5.768   1.867  0.00  0.00     0.055 C 
ATOM      8  C   UNL d   1      -5.781   5.999   1.022  0.00  0.00     0.019 C 
ENDBRANCH   1   7
TORSDOF 1
ENDMDL
