MODEL 1
REMARK minimizedAffinity -3.63061905
REMARK minimizedRMSD -1
REMARK  1 active torsions:
REMARK  status: ('A' for Active; 'I' for Inactive)
REMARK    1  A    between atoms: C1_2  and  C2_3 
ROOT
ATOM      1  C2  UNL d   1      -4.715   4.835   2.847  0.00  0.00    -0.077 A 
ATOM      2  C3  UNL d   1      -3.588   4.616   3.652  0.00  0.00     0.002 A 
ATOM      3  C4  UNL d   1      -3.667   3.776   4.765  0.00  0.00     0.002 A 
ATOM      4  C5  UNL d   1      -4.869   3.146   5.080  0.00  0.00    -0.004 A 
ATOM      5  C6  UNL d   1      -5.996   3.359   4.287  0.00  0.00     0.002 A 
ATOM      6  C7  UNL d   1      -5.919   4.199   3.175  0.00  0.00     0.002 A 
ENDROOT
BRANCH   1   7
ATOM      7  C1  UNL d   1      -4.619   5.701   1.619  0.00  0.00     0.055 C 
ATOM      8  C   UNL d   1      -5.995   5.999   1.042  0.00  0.00     0.019 C 
ENDBRANCH   1   7
TORSDOF 1
ENDMDL
