MODEL 1
REMARK minimizedAffinity 4.43378258
REMARK minimizedRMSD -1
REMARK  1 active torsions:
REMARK  status: ('A' for Active; 'I' for Inactive)
REMARK    1  A    between atoms: C1_2  and  C2_3 
ROOT
ATOM      1  C2  UNL d   1      -5.366   4.768   2.406  0.00  0.00    -0.077 A 
ATOM      2  C3  UNL d   1      -5.312   3.566   3.125  0.00  0.00     0.002 A 
ATOM      3  C4  UNL d   1      -4.705   2.438   2.570  0.00  0.00     0.002 A 
ATOM      4  C5  UNL d   1      -4.144   2.502   1.296  0.00  0.00    -0.004 A 
ATOM      5  C6  UNL d   1      -4.195   3.693   0.572  0.00  0.00     0.002 A 
ATOM      6  C7  UNL d   1      -4.802   4.821   1.125  0.00  0.00     0.002 A 
ENDROOT
BRANCH   1   7
ATOM      7  C1  UNL d   1      -5.977   6.000   3.022  0.00  0.00     0.055 C 
ATOM      8  C   UNL d   1      -6.000   5.906   4.541  0.00  0.00     0.019 C 
ENDBRANCH   1   7
TORSDOF 1
ENDMDL
