MODEL 1
REMARK minimizedAffinity -3.87122726
REMARK minimizedRMSD -1
REMARK  1 active torsions:
REMARK  status: ('A' for Active; 'I' for Inactive)
REMARK    1  A    between atoms: C1_2  and  C2_3 
ROOT
ATOM      1  C2  UNL d   1      -4.817   4.925   2.545  0.00  0.00    -0.077 A 
ATOM      2  C3  UNL d   1      -5.146   3.594   2.249  0.00  0.00     0.002 A 
ATOM      3  C4  UNL d   1      -5.086   2.614   3.242  0.00  0.00     0.002 A 
ATOM      4  C5  UNL d   1      -4.702   2.954   4.537  0.00  0.00    -0.004 A 
ATOM      5  C6  UNL d   1      -4.371   4.274   4.841  0.00  0.00     0.002 A 
ATOM      6  C7  UNL d   1      -4.429   5.255   3.850  0.00  0.00     0.002 A 
ENDROOT
BRANCH   1   7
ATOM      7  C1  UNL d   1      -4.928   5.992   1.488  0.00  0.00     0.055 C 
ATOM      8  C   UNL d   1      -5.940   5.609   0.419  0.00  0.00     0.019 C 
ENDBRANCH   1   7
TORSDOF 1
ENDMDL
