MODEL 1
REMARK minimizedAffinity -2.43731689
REMARK minimizedRMSD -1
REMARK  1 active torsions:
REMARK  status: ('A' for Active; 'I' for Inactive)
REMARK    1  A    between atoms: C1_2  and  C2_3 
ROOT
ATOM      1  C2  UNL d   1      -5.614   3.069   4.989  0.00  0.00    -0.077 A 
ATOM      2  C3  UNL d   1      -5.227   2.876   3.655  0.00  0.00     0.002 A 
ATOM      3  C4  UNL d   1      -5.228   3.945   2.758  0.00  0.00     0.002 A 
ATOM      4  C5  UNL d   1      -5.610   5.215   3.185  0.00  0.00    -0.004 A 
ATOM      5  C6  UNL d   1      -5.998   5.417   4.508  0.00  0.00     0.002 A 
ATOM      6  C7  UNL d   1      -6.000   4.349   5.407  0.00  0.00     0.002 A 
ENDROOT
BRANCH   1   7
ATOM      7  C1  UNL d   1      -5.567   1.928   5.971  0.00  0.00     0.055 C 
ATOM      8  C   UNL d   1      -4.197   1.266   5.986  0.00  0.00     0.019 C 
ENDBRANCH   1   7
TORSDOF 1
ENDMDL
