MODEL 1
REMARK minimizedAffinity -3.02790689
REMARK minimizedRMSD -1
REMARK  1 active torsions:
REMARK  status: ('A' for Active; 'I' for Inactive)
REMARK    1  A    between atoms: C1_2  and  C2_3 
ROOT
ATOM      1  C2  UNL d   1      -4.932   3.573   3.416  0.00  0.00    -0.077 A 
ATOM      2  C3  UNL d   1      -4.743   4.794   4.079  0.00  0.00     0.002 A 
ATOM      3  C4  UNL d   1      -4.852   6.000   3.384  0.00  0.00     0.002 A 
ATOM      4  C5  UNL d   1      -5.155   5.996   2.024  0.00  0.00    -0.004 A 
ATOM      5  C6  UNL d   1      -5.343   4.787   1.355  0.00  0.00     0.002 A 
ATOM      6  C7  UNL d   1      -5.232   3.581   2.048  0.00  0.00     0.002 A 
ENDROOT
BRANCH   1   7
ATOM      7  C1  UNL d   1      -4.862   2.274   4.175  0.00  0.00     0.055 C 
ATOM      8  C   UNL d   1      -5.851   2.254   5.331  0.00  0.00     0.019 C 
ENDBRANCH   1   7
TORSDOF 1
ENDMDL
