MODEL 1
REMARK minimizedAffinity -3.30974078
REMARK minimizedRMSD -1
REMARK  1 active torsions:
REMARK  status: ('A' for Active; 'I' for Inactive)
REMARK    1  A    between atoms: C1_2  and  C2_3 
ROOT
ATOM      1  C2  UNL d   1      -4.733   4.824   3.447  0.00  0.00    -0.077 A 
ATOM      2  C3  UNL d   1      -4.511   3.442   3.372  0.00  0.00     0.002 A 
ATOM      3  C4  UNL d   1      -4.768   2.625   4.475  0.00  0.00     0.002 A 
ATOM      4  C5  UNL d   1      -5.252   3.179   5.658  0.00  0.00    -0.004 A 
ATOM      5  C6  UNL d   1      -5.475   4.553   5.743  0.00  0.00     0.002 A 
ATOM      6  C7  UNL d   1      -5.217   5.372   4.643  0.00  0.00     0.002 A 
ENDROOT
BRANCH   1   7
ATOM      7  C1  UNL d   1      -4.504   5.701   2.244  0.00  0.00     0.055 C 
ATOM      8  C   UNL d   1      -5.808   6.000   1.520  0.00  0.00     0.019 C 
ENDBRANCH   1   7
TORSDOF 1
ENDMDL
