MODEL 1
REMARK minimizedAffinity -3.65656161
REMARK minimizedRMSD -1
REMARK  1 active torsions:
REMARK  status: ('A' for Active; 'I' for Inactive)
REMARK    1  A    between atoms: C1_2  and  C2_3 
ROOT
ATOM      1  C2  UNL d   1      -4.952   5.230   3.368  0.00  0.00    -0.077 A 
ATOM      2  C3  UNL d   1      -5.394   5.881   4.529  0.00  0.00     0.002 A 
ATOM      3  C4  UNL d   1      -5.526   5.176   5.727  0.00  0.00     0.002 A 
ATOM      4  C5  UNL d   1      -5.214   3.819   5.777  0.00  0.00    -0.004 A 
ATOM      5  C6  UNL d   1      -4.775   3.163   4.628  0.00  0.00     0.002 A 
ATOM      6  C7  UNL d   1      -4.644   3.865   3.429  0.00  0.00     0.002 A 
ENDROOT
BRANCH   1   7
ATOM      7  C1  UNL d   1      -4.762   6.000   2.087  0.00  0.00     0.055 C 
ATOM      8  C   UNL d   1      -5.512   5.348   0.934  0.00  0.00     0.019 C 
ENDBRANCH   1   7
TORSDOF 1
ENDMDL
