MODEL 1
REMARK minimizedAffinity -3.54477143
REMARK minimizedRMSD -1
REMARK  1 active torsions:
REMARK  status: ('A' for Active; 'I' for Inactive)
REMARK    1  A    between atoms: C1_2  and  C2_3 
ROOT
ATOM      1  C2  UNL d   1      -4.906   5.188   3.467  0.00  0.00    -0.077 A 
ATOM      2  C3  UNL d   1      -4.490   5.631   4.730  0.00  0.00     0.002 A 
ATOM      3  C4  UNL d   1      -4.829   4.912   5.878  0.00  0.00     0.002 A 
ATOM      4  C5  UNL d   1      -5.580   3.744   5.774  0.00  0.00    -0.004 A 
ATOM      5  C6  UNL d   1      -6.000   3.295   4.522  0.00  0.00     0.002 A 
ATOM      6  C7  UNL d   1      -5.664   4.013   3.374  0.00  0.00     0.002 A 
ENDROOT
BRANCH   1   7
ATOM      7  C1  UNL d   1      -4.500   5.935   2.224  0.00  0.00     0.055 C 
ATOM      8  C   UNL d   1      -5.642   6.000   1.219  0.00  0.00     0.019 C 
ENDBRANCH   1   7
TORSDOF 1
ENDMDL
