MODEL 1
REMARK minimizedAffinity -3.3293736
REMARK minimizedRMSD -1
REMARK  1 active torsions:
REMARK  status: ('A' for Active; 'I' for Inactive)
REMARK    1  A    between atoms: C1_2  and  C2_3 
ROOT
ATOM      1  C2  UNL d   1      -5.147   4.230   4.223  0.00  0.00    -0.077 A 
ATOM      2  C3  UNL d   1      -4.267   5.283   3.938  0.00  0.00     0.002 A 
ATOM      3  C4  UNL d   1      -4.242   5.858   2.665  0.00  0.00     0.002 A 
ATOM      4  C5  UNL d   1      -5.097   5.388   1.670  0.00  0.00    -0.004 A 
ATOM      5  C6  UNL d   1      -5.974   4.340   1.943  0.00  0.00     0.002 A 
ATOM      6  C7  UNL d   1      -6.000   3.764   3.214  0.00  0.00     0.002 A 
ENDROOT
BRANCH   1   7
ATOM      7  C1  UNL d   1      -5.211   3.642   5.608  0.00  0.00     0.055 C 
ATOM      8  C   UNL d   1      -3.886   3.003   6.000  0.00  0.00     0.019 C 
ENDBRANCH   1   7
TORSDOF 1
ENDMDL
