MODEL 1
REMARK minimizedAffinity -3.76255894
REMARK minimizedRMSD -1
REMARK  1 active torsions:
REMARK  status: ('A' for Active; 'I' for Inactive)
REMARK    1  A    between atoms: C1_2  and  C2_3 
ROOT
ATOM      1  C2  UNL d   1      -5.015   3.236   4.632  0.00  0.00    -0.077 A 
ATOM      2  C3  UNL d   1      -4.108   4.297   4.506  0.00  0.00     0.002 A 
ATOM      3  C4  UNL d   1      -4.145   5.129   3.386  0.00  0.00     0.002 A 
ATOM      4  C5  UNL d   1      -5.089   4.912   2.385  0.00  0.00    -0.004 A 
ATOM      5  C6  UNL d   1      -5.995   3.858   2.500  0.00  0.00     0.002 A 
ATOM      6  C7  UNL d   1      -5.959   3.024   3.618  0.00  0.00     0.002 A 
ENDROOT
BRANCH   1   7
ATOM      7  C1  UNL d   1      -5.009   2.367   5.863  0.00  0.00     0.055 C 
ATOM      8  C   UNL d   1      -5.997   1.217   5.734  0.00  0.00     0.019 C 
ENDBRANCH   1   7
TORSDOF 1
ENDMDL
