MODEL 1
REMARK minimizedAffinity -3.66790247
REMARK minimizedRMSD -1
REMARK  1 active torsions:
REMARK  status: ('A' for Active; 'I' for Inactive)
REMARK    1  A    between atoms: C1_2  and  C2_3 
ROOT
ATOM      1  C2  UNL d   1      -4.761   4.962   3.735  0.00  0.00    -0.077 A 
ATOM      2  C3  UNL d   1      -5.457   3.848   3.246  0.00  0.00     0.002 A 
ATOM      3  C4  UNL d   1      -5.999   2.911   4.128  0.00  0.00     0.002 A 
ATOM      4  C5  UNL d   1      -5.853   3.081   5.503  0.00  0.00    -0.004 A 
ATOM      5  C6  UNL d   1      -5.161   4.185   5.999  0.00  0.00     0.002 A 
ATOM      6  C7  UNL d   1      -4.618   5.122   5.119  0.00  0.00     0.002 A 
ENDROOT
BRANCH   1   7
ATOM      7  C1  UNL d   1      -4.219   6.000   2.786  0.00  0.00     0.055 C 
ATOM      8  C   UNL d   1      -4.969   5.986   1.462  0.00  0.00     0.019 C 
ENDBRANCH   1   7
TORSDOF 1
ENDMDL
