MODEL 1
REMARK minimizedAffinity -3.37532139
REMARK minimizedRMSD -1
REMARK  1 active torsions:
REMARK  status: ('A' for Active; 'I' for Inactive)
REMARK    1  A    between atoms: C1_2  and  C2_3 
ROOT
ATOM      1  C2  UNL d   1      -4.882   4.582   3.711  0.00  0.00    -0.077 A 
ATOM      2  C3  UNL d   1      -5.424   3.371   3.258  0.00  0.00     0.002 A 
ATOM      3  C4  UNL d   1      -5.953   2.450   4.165  0.00  0.00     0.002 A 
ATOM      4  C5  UNL d   1      -5.948   2.733   5.529  0.00  0.00    -0.004 A 
ATOM      5  C6  UNL d   1      -5.410   3.934   5.990  0.00  0.00     0.002 A 
ATOM      6  C7  UNL d   1      -4.880   4.854   5.085  0.00  0.00     0.002 A 
ENDROOT
BRANCH   1   7
ATOM      7  C1  UNL d   1      -4.356   5.597   2.730  0.00  0.00     0.055 C 
ATOM      8  C   UNL d   1      -4.808   5.283   1.312  0.00  0.00     0.019 C 
ENDBRANCH   1   7
TORSDOF 1
ENDMDL
