MODEL 1
REMARK minimizedAffinity 10.877243
REMARK minimizedRMSD -1
REMARK  1 active torsions:
REMARK  status: ('A' for Active; 'I' for Inactive)
REMARK    1  A    between atoms: C1_2  and  C2_3 
ROOT
ATOM      1  C2  UNL d   1      -1.608  -2.005   0.075  0.00  0.00    -0.073 A 
ATOM      2  C3  UNL d   1      -0.812  -3.040  -0.427  0.00  0.00    -0.002 A 
ATOM      3  C4  UNL d   1      -0.488  -4.134   0.377  0.00  0.00     0.004 A 
ATOM      4  C5  UNL d   1      -0.963  -4.207   1.687  0.00  0.00    -0.004 A 
ATOM      5  C6  UNL d   1      -1.770  -3.189   2.203  0.00  0.00    -0.075 A 
ATOM      6  C7  UNL d   1      -2.287  -3.251   3.610  0.00  0.00     0.076 C 
ATOM      7  C8  UNL d   1      -2.088  -2.092   1.390  0.00  0.00     0.001 A 
ENDROOT
BRANCH   1   8
ATOM      8  C1  UNL d   1      -1.966  -0.825  -0.791  0.00  0.00     0.053 C 
ATOM      9  C   UNL d   1      -1.454  -0.987  -2.214  0.00  0.00     0.018 C 
ENDBRANCH   1   8
TORSDOF 1
ENDMDL
