MODEL 1
REMARK minimizedAffinity 14.1369629
REMARK minimizedRMSD -1
REMARK  1 active torsions:
REMARK  status: ('A' for Active; 'I' for Inactive)
REMARK    1  A    between atoms: C1_2  and  C2_3 
ROOT
ATOM      1  C2  UNL d   1      -0.226   0.989  -3.540  0.00  0.00    -0.073 A 
ATOM      2  C3  UNL d   1      -1.573   0.971  -3.159  0.00  0.00    -0.002 A 
ATOM      3  C4  UNL d   1      -2.433   1.993  -3.564  0.00  0.00     0.004 A 
ATOM      4  C5  UNL d   1      -1.958   3.037  -4.358  0.00  0.00    -0.004 A 
ATOM      5  C6  UNL d   1      -0.619   3.065  -4.759  0.00  0.00    -0.075 A 
ATOM      6  C7  UNL d   1      -0.092   4.182  -5.611  0.00  0.00     0.076 C 
ATOM      7  C8  UNL d   1       0.240   2.037  -4.346  0.00  0.00     0.001 A 
ENDROOT
BRANCH   1   8
ATOM      8  C1  UNL d   1       0.705  -0.116  -3.110  0.00  0.00     0.053 C 
ATOM      9  C   UNL d   1       2.041   0.422  -2.625  0.00  0.00     0.018 C 
ENDBRANCH   1   8
TORSDOF 1
ENDMDL
