MODEL 1
REMARK minimizedAffinity 15.3290529
REMARK minimizedRMSD -1
REMARK  1 active torsions:
REMARK  status: ('A' for Active; 'I' for Inactive)
REMARK    1  A    between atoms: C1_2  and  C2_3 
ROOT
ATOM      1  C2  UNL d   1      -1.367  -2.257  -0.003  0.00  0.00    -0.073 A 
ATOM      2  C3  UNL d   1      -0.553  -3.391  -0.107  0.00  0.00    -0.002 A 
ATOM      3  C4  UNL d   1      -0.356  -4.221   0.998  0.00  0.00     0.004 A 
ATOM      4  C5  UNL d   1      -0.975  -3.930   2.213  0.00  0.00    -0.004 A 
ATOM      5  C6  UNL d   1      -1.801  -2.808   2.333  0.00  0.00    -0.075 A 
ATOM      6  C7  UNL d   1      -2.472  -2.480   3.635  0.00  0.00     0.076 C 
ATOM      7  C8  UNL d   1      -1.992  -1.978   1.220  0.00  0.00     0.001 A 
ENDROOT
BRANCH   1   8
ATOM      8  C1  UNL d   1      -1.587  -1.362  -1.195  0.00  0.00     0.053 C 
ATOM      9  C   UNL d   1      -0.557  -1.603  -2.287  0.00  0.00     0.018 C 
ENDBRANCH   1   8
TORSDOF 1
ENDMDL
