MODEL 1
REMARK minimizedAffinity 11.9257565
REMARK minimizedRMSD -1
REMARK  1 active torsions:
REMARK  status: ('A' for Active; 'I' for Inactive)
REMARK    1  A    between atoms: C1_2  and  C2_3 
ROOT
ATOM      1  C2  UNL d   1       0.684   2.087  -3.675  0.00  0.00    -0.073 A 
ATOM      2  C3  UNL d   1       0.921   0.745  -3.993  0.00  0.00    -0.002 A 
ATOM      3  C4  UNL d   1       1.852   0.002  -3.266  0.00  0.00     0.004 A 
ATOM      4  C5  UNL d   1       2.549   0.591  -2.210  0.00  0.00    -0.004 A 
ATOM      5  C6  UNL d   1       2.317   1.927  -1.870  0.00  0.00    -0.075 A 
ATOM      6  C7  UNL d   1       3.060   2.575  -0.739  0.00  0.00     0.076 C 
ATOM      7  C8  UNL d   1       1.383   2.667  -2.607  0.00  0.00     0.001 A 
ENDROOT
BRANCH   1   8
ATOM      8  C1  UNL d   1      -0.325   2.891  -4.453  0.00  0.00     0.053 C 
ATOM      9  C   UNL d   1       0.332   3.745  -5.527  0.00  0.00     0.018 C 
ENDBRANCH   1   8
TORSDOF 1
ENDMDL
