MODEL 1
REMARK minimizedAffinity 15.869154
REMARK minimizedRMSD -1
REMARK  1 active torsions:
REMARK  status: ('A' for Active; 'I' for Inactive)
REMARK    1  A    between atoms: C1_2  and  C2_3 
ROOT
ATOM      1  C2  UNL d   1       0.656   2.204  -3.845  0.00  0.00    -0.073 A 
ATOM      2  C3  UNL d   1       0.469   0.819  -3.924  0.00  0.00    -0.002 A 
ATOM      3  C4  UNL d   1       1.035  -0.024  -2.966  0.00  0.00     0.004 A 
ATOM      4  C5  UNL d   1       1.785   0.509  -1.918  0.00  0.00    -0.004 A 
ATOM      5  C6  UNL d   1       1.973   1.891  -1.815  0.00  0.00    -0.075 A 
ATOM      6  C7  UNL d   1       2.779   2.479  -0.695  0.00  0.00     0.076 C 
ATOM      7  C8  UNL d   1       1.404   2.730  -2.782  0.00  0.00     0.001 A 
ENDROOT
BRANCH   1   8
ATOM      8  C1  UNL d   1       0.041   3.119  -4.873  0.00  0.00     0.053 C 
ATOM      9  C   UNL d   1       1.010   3.441  -6.000  0.00  0.00     0.018 C 
ENDBRANCH   1   8
TORSDOF 1
ENDMDL
