MODEL 1
REMARK minimizedAffinity 15.0010109
REMARK minimizedRMSD -1
REMARK  1 active torsions:
REMARK  status: ('A' for Active; 'I' for Inactive)
REMARK    1  A    between atoms: C1_2  and  C2_3 
ROOT
ATOM      1  C2  UNL d   1      -4.402   5.309  -0.914  0.00  0.00    -0.073 A 
ATOM      2  C3  UNL d   1      -5.409   5.975  -0.206  0.00  0.00    -0.002 A 
ATOM      3  C4  UNL d   1      -5.959   5.404   0.942  0.00  0.00     0.004 A 
ATOM      4  C5  UNL d   1      -5.504   4.166   1.398  0.00  0.00    -0.004 A 
ATOM      5  C6  UNL d   1      -4.490   3.491   0.711  0.00  0.00    -0.075 A 
ATOM      6  C7  UNL d   1      -3.991   2.158   1.187  0.00  0.00     0.076 C 
ATOM      7  C8  UNL d   1      -3.945   4.070  -0.443  0.00  0.00     0.001 A 
ENDROOT
BRANCH   1   8
ATOM      8  C1  UNL d   1      -3.800   5.925  -2.151  0.00  0.00     0.053 C 
ATOM      9  C   UNL d   1      -3.202   4.877  -3.075  0.00  0.00     0.018 C 
ENDBRANCH   1   8
TORSDOF 1
ENDMDL
