MODEL 1
REMARK minimizedAffinity 15.8747501
REMARK minimizedRMSD -1
REMARK  1 active torsions:
REMARK  status: ('A' for Active; 'I' for Inactive)
REMARK    1  A    between atoms: C1_2  and  C2_3 
ROOT
ATOM      1  C2  UNL d   1      -1.268  -2.736   0.324  0.00  0.00    -0.073 A 
ATOM      2  C3  UNL d   1      -2.448  -2.049   0.628  0.00  0.00    -0.002 A 
ATOM      3  C4  UNL d   1      -2.963  -1.105  -0.262  0.00  0.00     0.004 A 
ATOM      4  C5  UNL d   1      -2.307  -0.844  -1.465  0.00  0.00    -0.004 A 
ATOM      5  C6  UNL d   1      -1.133  -1.529  -1.792  0.00  0.00    -0.075 A 
ATOM      6  C7  UNL d   1      -0.414  -1.258  -3.081  0.00  0.00     0.076 C 
ATOM      7  C8  UNL d   1      -0.621  -2.474  -0.892  0.00  0.00     0.001 A 
ENDROOT
BRANCH   1   8
ATOM      8  C1  UNL d   1      -0.712  -3.761   1.279  0.00  0.00     0.053 C 
ATOM      9  C   UNL d   1      -0.738  -5.162   0.690  0.00  0.00     0.018 C 
ENDBRANCH   1   8
TORSDOF 1
ENDMDL
