MODEL 1
REMARK minimizedAffinity 20.074688
REMARK minimizedRMSD -1
REMARK  1 active torsions:
REMARK  status: ('A' for Active; 'I' for Inactive)
REMARK    1  A    between atoms: C1_2  and  C2_3 
ROOT
ATOM      1  C2  UNL d   1      -0.751  -4.115   1.031  0.00  0.00    -0.073 A 
ATOM      2  C3  UNL d   1      -0.966  -3.285  -0.076  0.00  0.00    -0.002 A 
ATOM      3  C4  UNL d   1      -1.723  -2.120   0.054  0.00  0.00     0.004 A 
ATOM      4  C5  UNL d   1      -2.264  -1.768   1.291  0.00  0.00    -0.004 A 
ATOM      5  C6  UNL d   1      -2.050  -2.578   2.410  0.00  0.00    -0.075 A 
ATOM      6  C7  UNL d   1      -2.627  -2.215   3.747  0.00  0.00     0.076 C 
ATOM      7  C8  UNL d   1      -1.291  -3.748   2.272  0.00  0.00     0.001 A 
ENDROOT
BRANCH   1   8
ATOM      8  C1  UNL d   1       0.071  -5.371   0.897  0.00  0.00     0.053 C 
ATOM      9  C   UNL d   1       0.375  -6.000   2.248  0.00  0.00     0.018 C 
ENDBRANCH   1   8
TORSDOF 1
ENDMDL
