MODEL 1
REMARK minimizedAffinity 21.7353745
REMARK minimizedRMSD -1
REMARK  1 active torsions:
REMARK  status: ('A' for Active; 'I' for Inactive)
REMARK    1  A    between atoms: C1_2  and  C2_3 
ROOT
ATOM      1  C2  UNL d   1      -0.993  -3.854   0.753  0.00  0.00    -0.073 A 
ATOM      2  C3  UNL d   1      -1.063  -2.869  -0.239  0.00  0.00    -0.002 A 
ATOM      3  C4  UNL d   1      -1.824  -1.717  -0.035  0.00  0.00     0.004 A 
ATOM      4  C5  UNL d   1      -2.515  -1.535   1.163  0.00  0.00    -0.004 A 
ATOM      5  C6  UNL d   1      -2.448  -2.502   2.171  0.00  0.00    -0.075 A 
ATOM      6  C7  UNL d   1      -3.187  -2.322   3.464  0.00  0.00     0.076 C 
ATOM      7  C8  UNL d   1      -1.683  -3.657   1.957  0.00  0.00     0.001 A 
ENDROOT
BRANCH   1   8
ATOM      8  C1  UNL d   1      -0.167  -5.096   0.540  0.00  0.00     0.053 C 
ATOM      9  C   UNL d   1      -0.762  -6.000  -0.528  0.00  0.00     0.018 C 
ENDBRANCH   1   8
TORSDOF 1
ENDMDL
