MODEL 1
REMARK minimizedAffinity 9.9227972
REMARK minimizedRMSD -1
REMARK  1 active torsions:
REMARK  status: ('A' for Active; 'I' for Inactive)
REMARK    1  A    between atoms: C1_2  and  C2_3 
ROOT
ATOM      1  C2  UNL d   1       0.895   1.696  -4.029  0.00  0.00    -0.073 A 
ATOM      2  C3  UNL d   1       0.455   0.391  -3.780  0.00  0.00    -0.002 A 
ATOM      3  C4  UNL d   1       1.376  -0.635  -3.567  0.00  0.00     0.004 A 
ATOM      4  C5  UNL d   1       2.744  -0.367  -3.593  0.00  0.00    -0.004 A 
ATOM      5  C6  UNL d   1       3.204   0.933  -3.828  0.00  0.00    -0.075 A 
ATOM      6  C7  UNL d   1       4.673   1.237  -3.861  0.00  0.00     0.076 C 
ATOM      7  C8  UNL d   1       2.273   1.957  -4.044  0.00  0.00     0.001 A 
ENDROOT
BRANCH   1   8
ATOM      8  C1  UNL d   1      -0.096   2.808  -4.253  0.00  0.00     0.053 C 
ATOM      9  C   UNL d   1      -1.532   2.330  -4.111  0.00  0.00     0.018 C 
ENDBRANCH   1   8
TORSDOF 1
ENDMDL
