MODEL 1
REMARK minimizedAffinity 9.59073067
REMARK minimizedRMSD -1
REMARK  1 active torsions:
REMARK  status: ('A' for Active; 'I' for Inactive)
REMARK    1  A    between atoms: C1_2  and  C2_3 
ROOT
ATOM      1  C2  UNL d   1      -1.977  -2.266   3.523  0.00  0.00    -0.073 A 
ATOM      2  C3  UNL d   1      -0.857  -2.638   4.276  0.00  0.00    -0.002 A 
ATOM      3  C4  UNL d   1      -0.501  -1.915   5.415  0.00  0.00     0.004 A 
ATOM      4  C5  UNL d   1      -1.264  -0.819   5.817  0.00  0.00    -0.004 A 
ATOM      5  C6  UNL d   1      -2.393  -0.439   5.086  0.00  0.00    -0.075 A 
ATOM      6  C7  UNL d   1      -3.223   0.740   5.504  0.00  0.00     0.076 C 
ATOM      7  C8  UNL d   1      -2.743  -1.168   3.941  0.00  0.00     0.001 A 
ENDROOT
BRANCH   1   8
ATOM      8  C1  UNL d   1      -2.369  -3.047   2.296  0.00  0.00     0.053 C 
ATOM      9  C   UNL d   1      -1.160  -3.445   1.463  0.00  0.00     0.018 C 
ENDBRANCH   1   8
TORSDOF 1
ENDMDL
