MODEL 1
REMARK minimizedAffinity 20.5590343
REMARK minimizedRMSD -1
REMARK  1 active torsions:
REMARK  status: ('A' for Active; 'I' for Inactive)
REMARK    1  A    between atoms: C1_2  and  C2_3 
ROOT
ATOM      1  C2  UNL d   1       4.177   3.767  -0.154  0.00  0.00    -0.073 A 
ATOM      2  C3  UNL d   1       4.161   3.286   1.160  0.00  0.00    -0.002 A 
ATOM      3  C4  UNL d   1       3.493   2.101   1.469  0.00  0.00     0.004 A 
ATOM      4  C5  UNL d   1       2.840   1.382   0.468  0.00  0.00    -0.004 A 
ATOM      5  C6  UNL d   1       2.854   1.840  -0.853  0.00  0.00    -0.075 A 
ATOM      6  C7  UNL d   1       2.155   1.080  -1.941  0.00  0.00     0.076 C 
ATOM      7  C8  UNL d   1       3.525   3.033  -1.155  0.00  0.00     0.001 A 
ENDROOT
BRANCH   1   8
ATOM      8  C1  UNL d   1       4.903   5.043  -0.493  0.00  0.00     0.053 C 
ATOM      9  C   UNL d   1       4.958   5.999   0.688  0.00  0.00     0.018 C 
ENDBRANCH   1   8
TORSDOF 1
ENDMDL
