MODEL 1
REMARK minimizedAffinity 22.4693718
REMARK minimizedRMSD -1
REMARK  1 active torsions:
REMARK  status: ('A' for Active; 'I' for Inactive)
REMARK    1  A    between atoms: C1_2  and  C2_3 
ROOT
ATOM      1  C2  UNL d   1       3.956   2.540  -0.415  0.00  0.00    -0.073 A 
ATOM      2  C3  UNL d   1       4.974   2.350  -1.357  0.00  0.00    -0.002 A 
ATOM      3  C4  UNL d   1       5.934   3.340  -1.567  0.00  0.00     0.004 A 
ATOM      4  C5  UNL d   1       5.892   4.526  -0.833  0.00  0.00    -0.004 A 
ATOM      5  C6  UNL d   1       4.890   4.729   0.122  0.00  0.00    -0.075 A 
ATOM      6  C7  UNL d   1       4.830   6.000   0.918  0.00  0.00     0.076 C 
ATOM      7  C8  UNL d   1       3.928   3.731   0.324  0.00  0.00     0.001 A 
ENDROOT
BRANCH   1   8
ATOM      8  C1  UNL d   1       2.920   1.471  -0.181  0.00  0.00     0.053 C 
ATOM      9  C   UNL d   1       2.597   0.702  -1.452  0.00  0.00     0.018 C 
ENDBRANCH   1   8
TORSDOF 1
ENDMDL
