MODEL 1
REMARK minimizedAffinity 19.3383865
REMARK minimizedRMSD -1
REMARK  1 active torsions:
REMARK  status: ('A' for Active; 'I' for Inactive)
REMARK    1  A    between atoms: C1_2  and  C2_3 
ROOT
ATOM      1  C2  UNL d   1      -2.311  -0.188   5.416  0.00  0.00    -0.073 A 
ATOM      2  C3  UNL d   1      -1.135  -0.674   5.998  0.00  0.00    -0.002 A 
ATOM      3  C4  UNL d   1      -0.481  -1.778   5.451  0.00  0.00     0.004 A 
ATOM      4  C5  UNL d   1      -0.992  -2.404   4.314  0.00  0.00    -0.004 A 
ATOM      5  C6  UNL d   1      -2.160  -1.927   3.711  0.00  0.00    -0.075 A 
ATOM      6  C7  UNL d   1      -2.724  -2.590   2.489  0.00  0.00     0.076 C 
ATOM      7  C8  UNL d   1      -2.812  -0.818   4.268  0.00  0.00     0.001 A 
ENDROOT
BRANCH   1   8
ATOM      8  C1  UNL d   1      -3.017   1.008   6.000  0.00  0.00     0.053 C 
ATOM      9  C   UNL d   1      -4.529   0.844   5.981  0.00  0.00     0.018 C 
ENDBRANCH   1   8
TORSDOF 1
ENDMDL
