MODEL 1
REMARK minimizedAffinity 6.7938199
REMARK minimizedRMSD -1
REMARK  1 active torsions:
REMARK  status: ('A' for Active; 'I' for Inactive)
REMARK    1  A    between atoms: C1_2  and  C2_3 
ROOT
ATOM      1  C2  UNL d   1      -2.080  -2.763   2.346  0.00  0.00    -0.073 A 
ATOM      2  C3  UNL d   1      -2.066  -2.082   1.123  0.00  0.00    -0.002 A 
ATOM      3  C4  UNL d   1      -1.470  -2.660   0.001  0.00  0.00     0.004 A 
ATOM      4  C5  UNL d   1      -0.889  -3.925   0.089  0.00  0.00    -0.004 A 
ATOM      5  C6  UNL d   1      -0.903  -4.626   1.299  0.00  0.00    -0.075 A 
ATOM      6  C7  UNL d   1      -0.280  -5.986   1.410  0.00  0.00     0.076 C 
ATOM      7  C8  UNL d   1      -1.501  -4.037   2.421  0.00  0.00     0.001 A 
ENDROOT
BRANCH   1   8
ATOM      8  C1  UNL d   1      -2.728  -2.145   3.558  0.00  0.00     0.053 C 
ATOM      9  C   UNL d   1      -1.701  -1.624   4.550  0.00  0.00     0.018 C 
ENDBRANCH   1   8
TORSDOF 1
ENDMDL
