MODEL 1
REMARK minimizedAffinity 9.78019238
REMARK minimizedRMSD -1
REMARK  1 active torsions:
REMARK  status: ('A' for Active; 'I' for Inactive)
REMARK    1  A    between atoms: C1_2  and  C2_3 
ROOT
ATOM      1  C2  UNL d   1      -3.387  -0.074   5.974  0.00  0.00    -0.073 A 
ATOM      2  C3  UNL d   1      -4.700  -0.559   5.976  0.00  0.00    -0.002 A 
ATOM      3  C4  UNL d   1      -5.779   0.326   5.992  0.00  0.00     0.004 A 
ATOM      4  C5  UNL d   1      -5.557   1.703   6.000  0.00  0.00    -0.004 A 
ATOM      5  C6  UNL d   1      -4.252   2.207   5.986  0.00  0.00    -0.075 A 
ATOM      6  C7  UNL d   1      -3.996   3.686   5.996  0.00  0.00     0.076 C 
ATOM      7  C8  UNL d   1      -3.174   1.312   5.972  0.00  0.00     0.001 A 
ENDROOT
BRANCH   1   8
ATOM      8  C1  UNL d   1      -2.219  -1.026   5.949  0.00  0.00     0.053 C 
ATOM      9  C   UNL d   1      -2.234  -1.915   4.716  0.00  0.00     0.018 C 
ENDBRANCH   1   8
TORSDOF 1
ENDMDL
