MODEL 1
REMARK minimizedAffinity 17.6432171
REMARK minimizedRMSD -1
REMARK  1 active torsions:
REMARK  status: ('A' for Active; 'I' for Inactive)
REMARK    1  A    between atoms: C1_2  and  C2_3 
ROOT
ATOM      1  C2  UNL d   1       4.011   2.504  -0.243  0.00  0.00    -0.073 A 
ATOM      2  C3  UNL d   1       5.049   2.316  -1.162  0.00  0.00    -0.002 A 
ATOM      3  C4  UNL d   1       5.998   3.318  -1.370  0.00  0.00     0.004 A 
ATOM      4  C5  UNL d   1       5.922   4.514  -0.657  0.00  0.00    -0.004 A 
ATOM      5  C6  UNL d   1       4.900   4.717   0.275  0.00  0.00    -0.075 A 
ATOM      6  C7  UNL d   1       4.803   5.999   1.049  0.00  0.00     0.076 C 
ATOM      7  C8  UNL d   1       3.949   3.706   0.476  0.00  0.00     0.001 A 
ENDROOT
BRANCH   1   8
ATOM      8  C1  UNL d   1       2.989   1.422  -0.010  0.00  0.00     0.053 C 
ATOM      9  C   UNL d   1       2.643   0.679  -1.291  0.00  0.00     0.018 C 
ENDBRANCH   1   8
TORSDOF 1
ENDMDL
