MODEL 1
REMARK minimizedAffinity 0.367256403
REMARK minimizedRMSD -1
REMARK  0 active torsions:
REMARK  status: ('A' for Active; 'I' for Inactive)
ROOT
ATOM      1  C   UNL d   1      -4.886   2.273   5.249  0.00  0.00    -0.002 A 
ATOM      2  C1  UNL d   1      -5.250   3.383   5.999  0.00  0.00     0.010 A 
ATOM      3  C2  UNL d   1      -5.608   4.578   5.372  0.00  0.00     0.041 A 
ATOM      4  C3  UNL d   1      -5.595   4.639   3.964  0.00  0.00    -0.075 A 
ATOM      5  S   UNL d   1      -5.996   5.996   2.979  0.00  0.00     0.015 SA
ATOM      6  C4  UNL d   1      -5.694   5.134   1.540  0.00  0.00     0.022 A 
ATOM      7  C5  UNL d   1      -5.295   3.842   1.786  0.00  0.00     0.026 A 
ATOM      8  C6  UNL d   1      -5.233   3.535   3.188  0.00  0.00    -0.082 A 
ATOM      9  C7  UNL d   1      -4.874   2.338   3.854  0.00  0.00     0.045 A 
ENDROOT
TORSDOF 0
ENDMDL
