MODEL 1
REMARK minimizedAffinity -2.50120282
REMARK minimizedRMSD -1
REMARK  0 active torsions:
REMARK  status: ('A' for Active; 'I' for Inactive)
ROOT
ATOM      1  C   UNL d   1      -5.351   4.585   1.506  0.00  0.00    -0.002 A 
ATOM      2  C1  UNL d   1      -5.158   5.834   2.080  0.00  0.00     0.010 A 
ATOM      3  C2  UNL d   1      -5.238   5.999   3.464  0.00  0.00     0.041 A 
ATOM      4  C3  UNL d   1      -5.516   4.877   4.270  0.00  0.00    -0.075 A 
ATOM      5  S   UNL d   1      -5.660   4.841   5.987  0.00  0.00     0.015 SA
ATOM      6  C4  UNL d   1      -5.980   3.167   6.000  0.00  0.00     0.022 A 
ATOM      7  C5  UNL d   1      -5.981   2.633   4.733  0.00  0.00     0.026 A 
ATOM      8  C6  UNL d   1      -5.713   3.610   3.715  0.00  0.00    -0.082 A 
ATOM      9  C7  UNL d   1      -5.626   3.474   2.309  0.00  0.00     0.045 A 
ENDROOT
TORSDOF 0
ENDMDL
