MODEL 1
REMARK minimizedAffinity -2.60213208
REMARK minimizedRMSD -1
REMARK  0 active torsions:
REMARK  status: ('A' for Active; 'I' for Inactive)
ROOT
ATOM      1  C   UNL d   1      -5.853   3.732   5.937  0.00  0.00    -0.002 A 
ATOM      2  C1  UNL d   1      -5.999   5.111   5.999  0.00  0.00     0.010 A 
ATOM      3  C2  UNL d   1      -5.898   5.889   4.843  0.00  0.00     0.041 A 
ATOM      4  C3  UNL d   1      -5.646   5.251   3.613  0.00  0.00    -0.075 A 
ATOM      5  S   UNL d   1      -5.483   6.000   2.068  0.00  0.00     0.015 SA
ATOM      6  C4  UNL d   1      -5.216   4.507   1.290  0.00  0.00     0.022 A 
ATOM      7  C5  UNL d   1      -5.248   3.453   2.171  0.00  0.00     0.026 A 
ATOM      8  C6  UNL d   1      -5.497   3.864   3.525  0.00  0.00    -0.082 A 
ATOM      9  C7  UNL d   1      -5.604   3.103   4.714  0.00  0.00     0.045 A 
ENDROOT
TORSDOF 0
ENDMDL
