MODEL 1
REMARK minimizedAffinity -2.10214329
REMARK minimizedRMSD -1
REMARK  0 active torsions:
REMARK  status: ('A' for Active; 'I' for Inactive)
ROOT
ATOM      1  C   UNL d   1      -4.735   5.103   5.977  0.00  0.00    -0.002 A 
ATOM      2  C1  UNL d   1      -4.874   3.727   5.865  0.00  0.00     0.010 A 
ATOM      3  C2  UNL d   1      -5.246   3.147   4.650  0.00  0.00     0.041 A 
ATOM      4  C3  UNL d   1      -5.476   3.981   3.539  0.00  0.00    -0.075 A 
ATOM      5  S   UNL d   1      -5.940   3.494   1.951  0.00  0.00     0.015 SA
ATOM      6  C4  UNL d   1      -5.963   5.101   1.384  0.00  0.00     0.022 A 
ATOM      7  C5  UNL d   1      -5.628   6.000   2.368  0.00  0.00     0.026 A 
ATOM      8  C6  UNL d   1      -5.342   5.370   3.627  0.00  0.00    -0.082 A 
ATOM      9  C7  UNL d   1      -4.964   5.927   4.872  0.00  0.00     0.045 A 
ENDROOT
TORSDOF 0
ENDMDL
