MODEL 1
REMARK minimizedAffinity -1.56839013
REMARK minimizedRMSD -1
REMARK  0 active torsions:
REMARK  status: ('A' for Active; 'I' for Inactive)
ROOT
ATOM      1  C   UNL d   1      -5.595   5.686   1.497  0.00  0.00    -0.002 A 
ATOM      2  C1  UNL d   1      -4.899   4.513   1.242  0.00  0.00     0.010 A 
ATOM      3  C2  UNL d   1      -4.589   3.631   2.280  0.00  0.00     0.041 A 
ATOM      4  C3  UNL d   1      -4.996   3.950   3.590  0.00  0.00    -0.075 A 
ATOM      5  S   UNL d   1      -4.729   3.021   5.017  0.00  0.00     0.015 SA
ATOM      6  C4  UNL d   1      -5.533   4.159   5.999  0.00  0.00     0.022 A 
ATOM      7  C5  UNL d   1      -6.000   5.228   5.272  0.00  0.00     0.026 A 
ATOM      8  C6  UNL d   1      -5.699   5.126   3.872  0.00  0.00    -0.082 A 
ATOM      9  C7  UNL d   1      -5.996   6.000   2.798  0.00  0.00     0.045 A 
ENDROOT
TORSDOF 0
ENDMDL
