MODEL 1
REMARK minimizedAffinity -2.41837502
REMARK minimizedRMSD -1
REMARK  0 active torsions:
REMARK  status: ('A' for Active; 'I' for Inactive)
ROOT
ATOM      1  C   UNL d   1      -5.290   3.486   5.803  0.00  0.00    -0.002 A 
ATOM      2  C1  UNL d   1      -5.757   4.778   5.999  0.00  0.00     0.010 A 
ATOM      3  C2  UNL d   1      -5.998   5.619   4.911  0.00  0.00     0.041 A 
ATOM      4  C3  UNL d   1      -5.763   5.134   3.610  0.00  0.00    -0.075 A 
ATOM      5  S   UNL d   1      -5.989   5.985   2.127  0.00  0.00     0.015 SA
ATOM      6  C4  UNL d   1      -5.472   4.653   1.198  0.00  0.00     0.022 A 
ATOM      7  C5  UNL d   1      -5.132   3.577   1.983  0.00  0.00     0.026 A 
ATOM      8  C6  UNL d   1      -5.294   3.837   3.386  0.00  0.00    -0.082 A 
ATOM      9  C7  UNL d   1      -5.058   3.009   4.510  0.00  0.00     0.045 A 
ENDROOT
TORSDOF 0
ENDMDL
