MODEL 1
REMARK minimizedAffinity 1.87557137
REMARK minimizedRMSD -1
REMARK  0 active torsions:
REMARK  status: ('A' for Active; 'I' for Inactive)
ROOT
ATOM      1  C   UNL d   1      -5.337   2.837   5.966  0.00  0.00    -0.002 A 
ATOM      2  C1  UNL d   1      -5.679   4.182   5.999  0.00  0.00     0.010 A 
ATOM      3  C2  UNL d   1      -5.901   4.887   4.814  0.00  0.00     0.041 A 
ATOM      4  C3  UNL d   1      -5.774   4.210   3.584  0.00  0.00    -0.075 A 
ATOM      5  S   UNL d   1      -6.000   4.870   2.008  0.00  0.00     0.015 SA
ATOM      6  C4  UNL d   1      -5.649   3.382   1.254  0.00  0.00     0.022 A 
ATOM      7  C5  UNL d   1      -5.365   2.395   2.168  0.00  0.00     0.026 A 
ATOM      8  C6  UNL d   1      -5.432   2.856   3.526  0.00  0.00    -0.082 A 
ATOM      9  C7  UNL d   1      -5.213   2.170   4.745  0.00  0.00     0.045 A 
ENDROOT
TORSDOF 0
ENDMDL
