MODEL 1
REMARK minimizedAffinity 10.9257231
REMARK minimizedRMSD -1
REMARK  0 active torsions:
REMARK  status: ('A' for Active; 'I' for Inactive)
ROOT
ATOM      1  C   UNL d   1      -1.411  -0.474   2.228  0.00  0.00    -0.002 A 
ATOM      2  C1  UNL d   1      -2.288  -1.449   1.776  0.00  0.00     0.010 A 
ATOM      3  C2  UNL d   1      -2.379  -1.746   0.415  0.00  0.00     0.041 A 
ATOM      4  C3  UNL d   1      -1.564  -1.041  -0.493  0.00  0.00    -0.075 A 
ATOM      5  S   UNL d   1      -1.504  -1.237  -2.205  0.00  0.00     0.015 SA
ATOM      6  C4  UNL d   1      -0.312  -0.031  -2.376  0.00  0.00     0.022 A 
ATOM      7  C5  UNL d   1       0.043   0.518  -1.167  0.00  0.00     0.026 A 
ATOM      8  C6  UNL d   1      -0.672  -0.055  -0.061  0.00  0.00    -0.082 A 
ATOM      9  C7  UNL d   1      -0.604   0.224   1.325  0.00  0.00     0.045 A 
ENDROOT
TORSDOF 0
ENDMDL
