MODEL 1
REMARK minimizedAffinity 0.611653149
REMARK minimizedRMSD -1
REMARK  0 active torsions:
REMARK  status: ('A' for Active; 'I' for Inactive)
ROOT
ATOM      1  C   UNL d   1      -5.598   3.927   5.997  0.00  0.00    -0.002 A 
ATOM      2  C1  UNL d   1      -5.874   5.287   6.000  0.00  0.00     0.010 A 
ATOM      3  C2  UNL d   1      -5.999   5.989   4.799  0.00  0.00     0.041 A 
ATOM      4  C3  UNL d   1      -5.842   5.294   3.584  0.00  0.00    -0.075 A 
ATOM      5  S   UNL d   1      -5.952   5.945   1.992  0.00  0.00     0.015 SA
ATOM      6  C4  UNL d   1      -5.637   4.434   1.271  0.00  0.00     0.022 A 
ATOM      7  C5  UNL d   1      -5.449   3.445   2.207  0.00  0.00     0.026 A 
ATOM      8  C6  UNL d   1      -5.565   3.924   3.556  0.00  0.00    -0.082 A 
ATOM      9  C7  UNL d   1      -5.444   3.241   4.790  0.00  0.00     0.045 A 
ENDROOT
TORSDOF 0
ENDMDL
