MODEL 1
REMARK minimizedAffinity -2.08425689
REMARK minimizedRMSD -1
REMARK  0 active torsions:
REMARK  status: ('A' for Active; 'I' for Inactive)
ROOT
ATOM      1  C   UNL d   1      -5.148   4.177   1.230  0.00  0.00    -0.002 A 
ATOM      2  C1  UNL d   1      -5.674   5.457   1.339  0.00  0.00     0.010 A 
ATOM      3  C2  UNL d   1      -5.967   6.000   2.591  0.00  0.00     0.041 A 
ATOM      4  C3  UNL d   1      -5.719   5.229   3.744  0.00  0.00    -0.075 A 
ATOM      5  S   UNL d   1      -6.000   5.688   5.382  0.00  0.00     0.015 SA
ATOM      6  C4  UNL d   1      -5.427   4.196   5.976  0.00  0.00     0.022 A 
ATOM      7  C5  UNL d   1      -5.028   3.357   4.963  0.00  0.00     0.026 A 
ATOM      8  C6  UNL d   1      -5.189   3.938   3.660  0.00  0.00    -0.082 A 
ATOM      9  C7  UNL d   1      -4.903   3.415   2.376  0.00  0.00     0.045 A 
ENDROOT
TORSDOF 0
ENDMDL
