MODEL 1
REMARK minimizedAffinity 12.2872791
REMARK minimizedRMSD -1
REMARK  0 active torsions:
REMARK  status: ('A' for Active; 'I' for Inactive)
ROOT
ATOM      1  C   UNL d   1       1.763  -2.405   5.918  0.00  0.00    -0.002 A 
ATOM      2  C1  UNL d   1       2.600  -3.446   5.542  0.00  0.00     0.010 A 
ATOM      3  C2  UNL d   1       2.969  -3.613   4.205  0.00  0.00     0.041 A 
ATOM      4  C3  UNL d   1       2.479  -2.707   3.244  0.00  0.00    -0.075 A 
ATOM      5  S   UNL d   1       2.798  -2.715   1.550  0.00  0.00     0.015 SA
ATOM      6  C4  UNL d   1       1.831  -1.337   1.286  0.00  0.00     0.022 A 
ATOM      7  C5  UNL d   1       1.271  -0.869   2.451  0.00  0.00     0.026 A 
ATOM      8  C6  UNL d   1       1.635  -1.650   3.599  0.00  0.00    -0.082 A 
ATOM      9  C7  UNL d   1       1.279  -1.508   4.962  0.00  0.00     0.045 A 
ENDROOT
TORSDOF 0
ENDMDL
