MODEL 1
REMARK minimizedAffinity 6.54952097
REMARK minimizedRMSD -1
REMARK  0 active torsions:
REMARK  status: ('A' for Active; 'I' for Inactive)
ROOT
ATOM      1  C   UNL d   1      -4.533   4.943  -4.723  0.00  0.00    -0.002 A 
ATOM      2  C1  UNL d   1      -4.571   5.395  -3.412  0.00  0.00     0.010 A 
ATOM      3  C2  UNL d   1      -4.212   4.552  -2.359  0.00  0.00     0.041 A 
ATOM      4  C3  UNL d   1      -3.809   3.233  -2.649  0.00  0.00    -0.075 A 
ATOM      5  S   UNL d   1      -3.325   2.023  -1.521  0.00  0.00     0.015 SA
ATOM      6  C4  UNL d   1      -3.055   0.877  -2.753  0.00  0.00     0.022 A 
ATOM      7  C5  UNL d   1      -3.324   1.388  -4.001  0.00  0.00     0.026 A 
ATOM      8  C6  UNL d   1      -3.762   2.755  -3.961  0.00  0.00    -0.082 A 
ATOM      9  C7  UNL d   1      -4.133   3.634  -5.007  0.00  0.00     0.045 A 
ENDROOT
TORSDOF 0
ENDMDL
