MODEL 1
REMARK minimizedAffinity 17.6385384
REMARK minimizedRMSD -1
REMARK  0 active torsions:
REMARK  status: ('A' for Active; 'I' for Inactive)
ROOT
ATOM      1  C   UNL d   1       1.994  -3.745   5.331  0.00  0.00    -0.002 A 
ATOM      2  C1  UNL d   1       1.204  -2.677   5.732  0.00  0.00     0.010 A 
ATOM      3  C2  UNL d   1       0.862  -1.669   4.829  0.00  0.00     0.041 A 
ATOM      4  C3  UNL d   1       1.331  -1.753   3.503  0.00  0.00    -0.075 A 
ATOM      5  S   UNL d   1       1.038  -0.635   2.224  0.00  0.00     0.015 SA
ATOM      6  C4  UNL d   1       1.954  -1.550   1.115  0.00  0.00     0.022 A 
ATOM      7  C5  UNL d   1       2.478  -2.683   1.690  0.00  0.00     0.026 A 
ATOM      8  C6  UNL d   1       2.127  -2.820   3.076  0.00  0.00    -0.082 A 
ATOM      9  C7  UNL d   1       2.457  -3.826   4.015  0.00  0.00     0.045 A 
ENDROOT
TORSDOF 0
ENDMDL
