MODEL 1
REMARK minimizedAffinity 6.42374039
REMARK minimizedRMSD -1
REMARK  0 active torsions:
REMARK  status: ('A' for Active; 'I' for Inactive)
ROOT
ATOM      1  C   UNL d   1       1.948  -1.854   1.514  0.00  0.00    -0.002 A 
ATOM      2  C1  UNL d   1       1.328  -0.756   2.095  0.00  0.00     0.010 A 
ATOM      3  C2  UNL d   1       1.166  -0.683   3.480  0.00  0.00     0.041 A 
ATOM      4  C3  UNL d   1       1.645  -1.739   4.279  0.00  0.00    -0.075 A 
ATOM      5  S   UNL d   1       1.558  -1.865   5.997  0.00  0.00     0.015 SA
ATOM      6  C4  UNL d   1       2.344  -3.378   6.000  0.00  0.00     0.022 A 
ATOM      7  C5  UNL d   1       2.670  -3.792   4.730  0.00  0.00     0.026 A 
ATOM      8  C6  UNL d   1       2.274  -2.854   3.718  0.00  0.00    -0.082 A 
ATOM      9  C7  UNL d   1       2.422  -2.900   2.311  0.00  0.00     0.045 A 
ENDROOT
TORSDOF 0
ENDMDL
