MODEL 1
REMARK minimizedAffinity 14.6860971
REMARK minimizedRMSD -1
REMARK  0 active torsions:
REMARK  status: ('A' for Active; 'I' for Inactive)
ROOT
ATOM      1  C   UNL d   1      -5.648   4.722  -3.049  0.00  0.00    -0.002 A 
ATOM      2  C1  UNL d   1      -5.851   4.646  -1.679  0.00  0.00     0.010 A 
ATOM      3  C2  UNL d   1      -5.037   3.836  -0.884  0.00  0.00     0.041 A 
ATOM      4  C3  UNL d   1      -4.005   3.098  -1.496  0.00  0.00    -0.075 A 
ATOM      5  S   UNL d   1      -2.884   2.041  -0.723  0.00  0.00     0.015 SA
ATOM      6  C4  UNL d   1      -2.108   1.667  -2.194  0.00  0.00     0.022 A 
ATOM      7  C5  UNL d   1      -2.678   2.323  -3.259  0.00  0.00     0.026 A 
ATOM      8  C6  UNL d   1      -3.780   3.159  -2.874  0.00  0.00    -0.082 A 
ATOM      9  C7  UNL d   1      -4.623   3.989  -3.653  0.00  0.00     0.045 A 
ENDROOT
TORSDOF 0
ENDMDL
