MODEL 1
REMARK minimizedAffinity 14.4586334
REMARK minimizedRMSD -1
REMARK  0 active torsions:
REMARK  status: ('A' for Active; 'I' for Inactive)
ROOT
ATOM      1  C   UNL d   1       1.008  -1.815   6.000  0.00  0.00    -0.002 A 
ATOM      2  C1  UNL d   1       1.740  -2.994   5.992  0.00  0.00     0.010 A 
ATOM      3  C2  UNL d   1       2.249  -3.506   4.797  0.00  0.00     0.041 A 
ATOM      4  C3  UNL d   1       2.009  -2.806   3.599  0.00  0.00    -0.075 A 
ATOM      5  S   UNL d   1       2.535  -3.244   2.016  0.00  0.00     0.015 SA
ATOM      6  C4  UNL d   1       1.801  -1.876   1.313  0.00  0.00     0.022 A 
ATOM      7  C5  UNL d   1       1.166  -1.093   2.248  0.00  0.00     0.026 A 
ATOM      8  C6  UNL d   1       1.276  -1.616   3.581  0.00  0.00    -0.082 A 
ATOM      9  C7  UNL d   1       0.772  -1.123   4.809  0.00  0.00     0.045 A 
ENDROOT
TORSDOF 0
ENDMDL
