MODEL 1
REMARK minimizedAffinity -1.51740301
REMARK minimizedRMSD -1
REMARK  0 active torsions:
REMARK  status: ('A' for Active; 'I' for Inactive)
ROOT
ATOM      1  C   UNL d   1      -0.219  -1.057   2.392  0.00  0.00     0.078 C 
ATOM      2  C1  UNL d   1      -0.382  -0.403   1.053  0.00  0.00    -0.077 A 
ATOM      3  C2  UNL d   1      -1.356  -0.843   0.148  0.00  0.00    -0.001 A 
ATOM      4  C3  UNL d   1      -1.489  -0.231  -1.099  0.00  0.00     0.003 A 
ATOM      5  C4  UNL d   1      -0.650   0.824  -1.454  0.00  0.00    -0.005 A 
ATOM      6  C5  UNL d   1       0.323   1.268  -0.561  0.00  0.00     0.003 A 
ATOM      7  C6  UNL d   1       0.458   0.657   0.687  0.00  0.00    -0.001 A 
ENDROOT
TORSDOF 0
ENDMDL
