MODEL 1
REMARK minimizedAffinity -3.24774504
REMARK minimizedRMSD -1
REMARK  0 active torsions:
REMARK  status: ('A' for Active; 'I' for Inactive)
ROOT
ATOM      1  C   UNL d   1       0.800  -1.136   3.032  0.00  0.00     0.078 C 
ATOM      2  C1  UNL d   1       0.660  -0.911   1.557  0.00  0.00    -0.077 A 
ATOM      3  C2  UNL d   1       1.627  -1.381   0.660  0.00  0.00    -0.001 A 
ATOM      4  C3  UNL d   1       1.488  -1.155  -0.710  0.00  0.00     0.003 A 
ATOM      5  C4  UNL d   1       0.384  -0.458  -1.197  0.00  0.00    -0.005 A 
ATOM      6  C5  UNL d   1      -0.583   0.016  -0.312  0.00  0.00     0.003 A 
ATOM      7  C6  UNL d   1      -0.446  -0.209   1.059  0.00  0.00    -0.001 A 
ENDROOT
TORSDOF 0
ENDMDL
