MODEL 1
REMARK minimizedAffinity -3.89391088
REMARK minimizedRMSD -1
REMARK  0 active torsions:
REMARK  status: ('A' for Active; 'I' for Inactive)
ROOT
ATOM      1  C   UNL d   1      -0.786   1.108  -1.323  0.00  0.00     0.078 C 
ATOM      2  C1  UNL d   1      -0.448   0.469  -0.009  0.00  0.00    -0.077 A 
ATOM      3  C2  UNL d   1       0.674  -0.360   0.121  0.00  0.00    -0.001 A 
ATOM      4  C3  UNL d   1       0.971  -0.957   1.348  0.00  0.00     0.003 A 
ATOM      5  C4  UNL d   1       0.152  -0.732   2.452  0.00  0.00    -0.005 A 
ATOM      6  C5  UNL d   1      -0.967   0.089   2.331  0.00  0.00     0.003 A 
ATOM      7  C6  UNL d   1      -1.267   0.686   1.106  0.00  0.00    -0.001 A 
ENDROOT
TORSDOF 0
ENDMDL
