MODEL 1
REMARK minimizedAffinity -3.17025685
REMARK minimizedRMSD -1
REMARK  0 active torsions:
REMARK  status: ('A' for Active; 'I' for Inactive)
ROOT
ATOM      1  C   UNL d   1       0.023  -0.433  -2.618  0.00  0.00     0.078 C 
ATOM      2  C1  UNL d   1      -0.486   0.975  -2.545  0.00  0.00    -0.077 A 
ATOM      3  C2  UNL d   1       0.334   2.057  -2.887  0.00  0.00    -0.001 A 
ATOM      4  C3  UNL d   1      -0.151   3.364  -2.805  0.00  0.00     0.003 A 
ATOM      5  C4  UNL d   1      -1.456   3.600  -2.379  0.00  0.00    -0.005 A 
ATOM      6  C5  UNL d   1      -2.279   2.530  -2.034  0.00  0.00     0.003 A 
ATOM      7  C6  UNL d   1      -1.796   1.223  -2.116  0.00  0.00    -0.001 A 
ENDROOT
TORSDOF 0
ENDMDL
