MODEL 1
REMARK minimizedAffinity -4.31734848
REMARK minimizedRMSD -1
REMARK  0 active torsions:
REMARK  status: ('A' for Active; 'I' for Inactive)
ROOT
ATOM      1  C   UNL d   1      -0.261   1.147  -1.256  0.00  0.00     0.078 C 
ATOM      2  C1  UNL d   1       0.142   0.391  -0.025  0.00  0.00    -0.077 A 
ATOM      3  C2  UNL d   1       1.070  -0.655  -0.093  0.00  0.00    -0.001 A 
ATOM      4  C3  UNL d   1       1.429  -1.356   1.059  0.00  0.00     0.003 A 
ATOM      5  C4  UNL d   1       0.864  -1.020   2.288  0.00  0.00    -0.005 A 
ATOM      6  C5  UNL d   1      -0.062   0.018   2.365  0.00  0.00     0.003 A 
ATOM      7  C6  UNL d   1      -0.422   0.721   1.214  0.00  0.00    -0.001 A 
ENDROOT
TORSDOF 0
ENDMDL
