MODEL 1
REMARK minimizedAffinity -3.99327755
REMARK minimizedRMSD -1
REMARK  0 active torsions:
REMARK  status: ('A' for Active; 'I' for Inactive)
ROOT
ATOM      1  C   UNL d   1       1.919  -1.827  -0.825  0.00  0.00     0.078 C 
ATOM      2  C1  UNL d   1       0.781  -1.282  -0.014  0.00  0.00    -0.077 A 
ATOM      3  C2  UNL d   1       0.714  -1.493   1.368  0.00  0.00    -0.001 A 
ATOM      4  C3  UNL d   1      -0.357  -0.989   2.108  0.00  0.00     0.003 A 
ATOM      5  C4  UNL d   1      -1.369  -0.272   1.474  0.00  0.00    -0.005 A 
ATOM      6  C5  UNL d   1      -1.313  -0.059   0.099  0.00  0.00     0.003 A 
ATOM      7  C6  UNL d   1      -0.243  -0.562  -0.643  0.00  0.00    -0.001 A 
ENDROOT
TORSDOF 0
ENDMDL
