MODEL 1
REMARK minimizedAffinity -3.97622538
REMARK minimizedRMSD -1
REMARK  0 active torsions:
REMARK  status: ('A' for Active; 'I' for Inactive)
ROOT
ATOM      1  C   UNL d   1      -0.048  -0.286  -0.933  0.00  0.00     0.078 C 
ATOM      2  C1  UNL d   1      -0.110   1.104  -1.491  0.00  0.00    -0.077 A 
ATOM      3  C2  UNL d   1       0.909   2.030  -1.235  0.00  0.00    -0.001 A 
ATOM      4  C3  UNL d   1       0.833   3.324  -1.753  0.00  0.00     0.003 A 
ATOM      5  C4  UNL d   1      -0.259   3.704  -2.530  0.00  0.00    -0.005 A 
ATOM      6  C5  UNL d   1      -1.279   2.790  -2.788  0.00  0.00     0.003 A 
ATOM      7  C6  UNL d   1      -1.205   1.496  -2.271  0.00  0.00    -0.001 A 
ENDROOT
TORSDOF 0
ENDMDL
