MODEL 1
REMARK minimizedAffinity -2.97784758
REMARK minimizedRMSD -1
REMARK  0 active torsions:
REMARK  status: ('A' for Active; 'I' for Inactive)
ROOT
ATOM      1  C   UNL d   1       0.384  -1.247   2.647  0.00  0.00     0.078 C 
ATOM      2  C1  UNL d   1       0.277  -0.851   1.205  0.00  0.00    -0.077 A 
ATOM      3  C2  UNL d   1      -0.785  -0.058   0.752  0.00  0.00    -0.001 A 
ATOM      4  C3  UNL d   1      -0.877   0.295  -0.595  0.00  0.00     0.003 A 
ATOM      5  C4  UNL d   1       0.088  -0.141  -1.501  0.00  0.00    -0.005 A 
ATOM      6  C5  UNL d   1       1.147  -0.932  -1.060  0.00  0.00     0.003 A 
ATOM      7  C6  UNL d   1       1.241  -1.286   0.287  0.00  0.00    -0.001 A 
ENDROOT
TORSDOF 0
ENDMDL
