MODEL 1
REMARK minimizedAffinity -4.75501966
REMARK minimizedRMSD -1
REMARK  1 active torsions:
REMARK  status: ('A' for Active; 'I' for Inactive)
REMARK    1  A    between atoms: C1_2  and  C2_3 
ROOT
ATOM      1  C2  UNL d   1       0.046  -0.165  -0.524  0.00  0.00    -0.073 A 
ATOM      2  C3  UNL d   1       0.604  -0.439   0.730  0.00  0.00    -0.002 A 
ATOM      3  C4  UNL d   1       0.502   0.492   1.765  0.00  0.00     0.004 A 
ATOM      4  C5  UNL d   1      -0.164   1.700   1.559  0.00  0.00    -0.004 A 
ATOM      5  C6  UNL d   1      -0.739   1.986   0.317  0.00  0.00    -0.075 A 
ATOM      6  C7  UNL d   1      -1.457   3.282   0.079  0.00  0.00     0.076 C 
ATOM      7  C8  UNL d   1      -0.630   1.048  -0.718  0.00  0.00     0.001 A 
ENDROOT
BRANCH   1   8
ATOM      8  C1  UNL d   1       0.148  -1.170  -1.643  0.00  0.00     0.053 C 
ATOM      9  C   UNL d   1      -0.218  -2.572  -1.185  0.00  0.00     0.018 C 
ENDBRANCH   1   8
TORSDOF 1
ENDMDL
