MODEL 1
REMARK minimizedAffinity -2.35471797
REMARK minimizedRMSD -1
REMARK  1 active torsions:
REMARK  status: ('A' for Active; 'I' for Inactive)
REMARK    1  A    between atoms: C1_2  and  C2_3 
ROOT
ATOM      1  C2  UNL d   1       0.515   0.136   0.586  0.00  0.00    -0.073 A 
ATOM      2  C3  UNL d   1       0.156   1.486   0.496  0.00  0.00    -0.002 A 
ATOM      3  C4  UNL d   1      -0.028   2.244   1.653  0.00  0.00     0.004 A 
ATOM      4  C5  UNL d   1       0.152   1.664   2.909  0.00  0.00    -0.004 A 
ATOM      5  C6  UNL d   1       0.522   0.320   3.018  0.00  0.00    -0.075 A 
ATOM      6  C7  UNL d   1       0.717  -0.320   4.362  0.00  0.00     0.076 C 
ATOM      7  C8  UNL d   1       0.703  -0.436   1.852  0.00  0.00     0.001 A 
ENDROOT
BRANCH   1   8
ATOM      8  C1  UNL d   1       0.722  -0.685  -0.661  0.00  0.00     0.053 C 
ATOM      9  C   UNL d   1       0.308  -2.134  -0.464  0.00  0.00     0.018 C 
ENDBRANCH   1   8
TORSDOF 1
ENDMDL
