MODEL 1
REMARK minimizedAffinity -4.71649933
REMARK minimizedRMSD -1
REMARK  1 active torsions:
REMARK  status: ('A' for Active; 'I' for Inactive)
REMARK    1  A    between atoms: C1_2  and  C2_3 
ROOT
ATOM      1  C2  UNL d   1       0.044  -0.337   0.024  0.00  0.00    -0.073 A 
ATOM      2  C3  UNL d   1       1.049  -0.536   0.976  0.00  0.00    -0.002 A 
ATOM      3  C4  UNL d   1       1.104   0.260   2.121  0.00  0.00     0.004 A 
ATOM      4  C5  UNL d   1       0.151   1.257   2.329  0.00  0.00    -0.004 A 
ATOM      5  C6  UNL d   1      -0.868   1.464   1.394  0.00  0.00    -0.075 A 
ATOM      6  C7  UNL d   1      -1.899   2.535   1.601  0.00  0.00     0.076 C 
ATOM      7  C8  UNL d   1      -0.915   0.663   0.246  0.00  0.00     0.001 A 
ENDROOT
BRANCH   1   8
ATOM      8  C1  UNL d   1      -0.023  -1.198  -1.211  0.00  0.00     0.053 C 
ATOM      9  C   UNL d   1      -0.052  -2.680  -0.871  0.00  0.00     0.018 C 
ENDBRANCH   1   8
TORSDOF 1
ENDMDL
