MODEL 1
REMARK minimizedAffinity -5.59871769
REMARK minimizedRMSD -1
REMARK  1 active torsions:
REMARK  status: ('A' for Active; 'I' for Inactive)
REMARK    1  A    between atoms: C1_2  and  C2_3 
ROOT
ATOM      1  C2  UNL d   1       0.169  -0.298   0.245  0.00  0.00    -0.073 A 
ATOM      2  C3  UNL d   1       0.632  -0.754   1.485  0.00  0.00    -0.002 A 
ATOM      3  C4  UNL d   1       0.396  -0.011   2.642  0.00  0.00     0.004 A 
ATOM      4  C5  UNL d   1      -0.309   1.191   2.573  0.00  0.00    -0.004 A 
ATOM      5  C6  UNL d   1      -0.790   1.657   1.346  0.00  0.00    -0.075 A 
ATOM      6  C7  UNL d   1      -1.548   2.949   1.254  0.00  0.00     0.076 C 
ATOM      7  C8  UNL d   1      -0.547   0.907   0.187  0.00  0.00     0.001 A 
ENDROOT
BRANCH   1   8
ATOM      8  C1  UNL d   1       0.415  -1.100  -1.006  0.00  0.00     0.053 C 
ATOM      9  C   UNL d   1      -0.147  -2.509  -0.900  0.00  0.00     0.018 C 
ENDBRANCH   1   8
TORSDOF 1
ENDMDL
