MODEL 1
REMARK minimizedAffinity -5.69875813
REMARK minimizedRMSD -1
REMARK  1 active torsions:
REMARK  status: ('A' for Active; 'I' for Inactive)
REMARK    1  A    between atoms: C1_2  and  C2_3 
ROOT
ATOM      1  C2  UNL d   1      -0.291  -0.409  -0.795  0.00  0.00    -0.073 A 
ATOM      2  C3  UNL d   1      -0.919   0.708  -1.358  0.00  0.00    -0.002 A 
ATOM      3  C4  UNL d   1      -1.168   1.842  -0.583  0.00  0.00     0.004 A 
ATOM      4  C5  UNL d   1      -0.787   1.873   0.758  0.00  0.00    -0.004 A 
ATOM      5  C6  UNL d   1      -0.148   0.771   1.335  0.00  0.00    -0.075 A 
ATOM      6  C7  UNL d   1       0.267   0.788   2.778  0.00  0.00     0.076 C 
ATOM      7  C8  UNL d   1       0.097  -0.364   0.551  0.00  0.00     0.001 A 
ENDROOT
BRANCH   1   8
ATOM      8  C1  UNL d   1      -0.014  -1.632  -1.630  0.00  0.00     0.053 C 
ATOM      9  C   UNL d   1      -1.120  -2.668  -1.508  0.00  0.00     0.018 C 
ENDBRANCH   1   8
TORSDOF 1
ENDMDL
