MODEL 1
REMARK minimizedAffinity -3.28344011
REMARK minimizedRMSD -1
REMARK  1 active torsions:
REMARK  status: ('A' for Active; 'I' for Inactive)
REMARK    1  A    between atoms: C1_2  and  C2_3 
ROOT
ATOM      1  C2  UNL d   1      -0.135  -0.857  -0.133  0.00  0.00    -0.073 A 
ATOM      2  C3  UNL d   1       0.919  -0.731  -1.046  0.00  0.00    -0.002 A 
ATOM      3  C4  UNL d   1       1.124  -1.704  -2.025  0.00  0.00     0.004 A 
ATOM      4  C5  UNL d   1       0.276  -2.808  -2.106  0.00  0.00    -0.004 A 
ATOM      5  C6  UNL d   1      -0.790  -2.946  -1.211  0.00  0.00    -0.075 A 
ATOM      6  C7  UNL d   1      -1.710  -4.129  -1.283  0.00  0.00     0.076 C 
ATOM      7  C8  UNL d   1      -0.988  -1.966  -0.229  0.00  0.00     0.001 A 
ENDROOT
BRANCH   1   8
ATOM      8  C1  UNL d   1      -0.364   0.194   0.922  0.00  0.00     0.053 C 
ATOM      9  C   UNL d   1       0.620   0.070   2.074  0.00  0.00     0.018 C 
ENDBRANCH   1   8
TORSDOF 1
ENDMDL
