MODEL 1
REMARK minimizedAffinity 4.26669407
REMARK minimizedRMSD -1
REMARK  1 active torsions:
REMARK  status: ('A' for Active; 'I' for Inactive)
REMARK    1  A    between atoms: C1_2  and  C2_3 
ROOT
ATOM      1  C2  UNL d   1       4.157  -1.131  -0.948  0.00  0.00    -0.073 A 
ATOM      2  C3  UNL d   1       3.866  -2.138  -0.021  0.00  0.00    -0.002 A 
ATOM      3  C4  UNL d   1       2.582  -2.255   0.513  0.00  0.00     0.004 A 
ATOM      4  C5  UNL d   1       1.576  -1.373   0.120  0.00  0.00    -0.004 A 
ATOM      5  C6  UNL d   1       1.844  -0.368  -0.814  0.00  0.00    -0.075 A 
ATOM      6  C7  UNL d   1       0.772   0.591  -1.245  0.00  0.00     0.076 C 
ATOM      7  C8  UNL d   1       3.136  -0.254  -1.343  0.00  0.00     0.001 A 
ENDROOT
BRANCH   1   8
ATOM      8  C1  UNL d   1       5.540  -1.004  -1.532  0.00  0.00     0.053 C 
ATOM      9  C   UNL d   1       5.999  -2.292  -2.197  0.00  0.00     0.018 C 
ENDBRANCH   1   8
TORSDOF 1
ENDMDL
