MODEL 1
REMARK minimizedAffinity 5.16187239
REMARK minimizedRMSD -1
REMARK  1 active torsions:
REMARK  status: ('A' for Active; 'I' for Inactive)
REMARK    1  A    between atoms: C1_2  and  C2_3 
ROOT
ATOM      1  C2  UNL d   1       2.567  -1.315  -0.590  0.00  0.00    -0.073 A 
ATOM      2  C3  UNL d   1       1.874  -2.526  -0.704  0.00  0.00    -0.002 A 
ATOM      3  C4  UNL d   1       2.493  -3.641  -1.270  0.00  0.00     0.004 A 
ATOM      4  C5  UNL d   1       3.810  -3.560  -1.721  0.00  0.00    -0.004 A 
ATOM      5  C6  UNL d   1       4.523  -2.363  -1.605  0.00  0.00    -0.075 A 
ATOM      6  C7  UNL d   1       5.940  -2.258  -2.087  0.00  0.00     0.076 C 
ATOM      7  C8  UNL d   1       3.894  -1.246  -1.038  0.00  0.00     0.001 A 
ENDROOT
BRANCH   1   8
ATOM      8  C1  UNL d   1       1.905  -0.109   0.026  0.00  0.00     0.053 C 
ATOM      9  C   UNL d   1       0.786   0.435  -0.847  0.00  0.00     0.018 C 
ENDBRANCH   1   8
TORSDOF 1
ENDMDL
