MODEL 1
REMARK minimizedAffinity -4.25909185
REMARK minimizedRMSD -1
REMARK  1 active torsions:
REMARK  status: ('A' for Active; 'I' for Inactive)
REMARK    1  A    between atoms: C3_4  and  O_7 
ROOT
ATOM      1  C   UNL d   1       0.741  -0.482   0.545  0.00  0.00    -0.033 A 
ATOM      2  C1  UNL d   1       1.263  -0.315   1.829  0.00  0.00     0.039 A 
ATOM      3  C2  UNL d   1       0.489   0.279   2.827  0.00  0.00    -0.080 A 
ATOM      4  C3  UNL d   1      -0.804   0.700   2.529  0.00  0.00     0.150 A 
ATOM      5  C4  UNL d   1      -1.332   0.533   1.253  0.00  0.00    -0.007 A 
ATOM      6  C5  UNL d   1      -0.557  -0.060   0.257  0.00  0.00     0.039 A 
ENDROOT
BRANCH   4   7
ATOM      7  O   UNL d   1      -1.596   1.289   3.470  0.00  0.00    -0.526 OA
ATOM      8  H5  UNL d   1      -1.090   1.365   4.295  0.00  0.00     0.418 HD
ENDBRANCH   4   7
TORSDOF 1
ENDMDL
