MODEL 1
REMARK minimizedAffinity -5.23882961
REMARK minimizedRMSD -1
REMARK  1 active torsions:
REMARK  status: ('A' for Active; 'I' for Inactive)
REMARK    1  A    between atoms: C3_4  and  O_7 
ROOT
ATOM      1  C   UNL d   1      -0.690  -0.426  -0.159  0.00  0.00    -0.033 A 
ATOM      2  C1  UNL d   1      -1.889  -0.378   0.554  0.00  0.00     0.039 A 
ATOM      3  C2  UNL d   1      -1.986   0.399   1.710  0.00  0.00    -0.080 A 
ATOM      4  C3  UNL d   1      -0.878   1.124   2.141  0.00  0.00     0.150 A 
ATOM      5  C4  UNL d   1       0.319   1.084   1.433  0.00  0.00    -0.007 A 
ATOM      6  C5  UNL d   1       0.414   0.306   0.280  0.00  0.00     0.039 A 
ENDROOT
BRANCH   4   7
ATOM      7  O   UNL d   1      -0.923   1.893   3.266  0.00  0.00    -0.526 OA
ATOM      8  H5  UNL d   1      -1.804   1.801   3.666  0.00  0.00     0.418 HD
ENDBRANCH   4   7
TORSDOF 1
ENDMDL
