MODEL 1
REMARK minimizedAffinity -4.05799198
REMARK minimizedRMSD -1
REMARK  1 active torsions:
REMARK  status: ('A' for Active; 'I' for Inactive)
REMARK    1  A    between atoms: C3_4  and  O_7 
ROOT
ATOM      1  C   UNL d   1       0.517   1.175   1.132  0.00  0.00    -0.033 A 
ATOM      2  C1  UNL d   1      -0.381   0.263   0.573  0.00  0.00     0.039 A 
ATOM      3  C2  UNL d   1      -1.456  -0.212   1.326  0.00  0.00    -0.080 A 
ATOM      4  C3  UNL d   1      -1.623   0.233   2.635  0.00  0.00     0.150 A 
ATOM      5  C4  UNL d   1      -0.735   1.144   3.197  0.00  0.00    -0.007 A 
ATOM      6  C5  UNL d   1       0.338   1.617   2.444  0.00  0.00     0.039 A 
ENDROOT
BRANCH   4   7
ATOM      7  O   UNL d   1      -2.655  -0.206   3.410  0.00  0.00    -0.526 OA
ATOM      8  H5  UNL d   1      -3.170  -0.853   2.900  0.00  0.00     0.418 HD
ENDBRANCH   4   7
TORSDOF 1
ENDMDL
