MODEL 1
REMARK minimizedAffinity -5.21715593
REMARK minimizedRMSD -1
REMARK  1 active torsions:
REMARK  status: ('A' for Active; 'I' for Inactive)
REMARK    1  A    between atoms: C3_4  and  O_7 
ROOT
ATOM      1  C   UNL d   1      -1.283   1.159   2.114  0.00  0.00    -0.033 A 
ATOM      2  C1  UNL d   1      -0.545   0.733   1.008  0.00  0.00     0.039 A 
ATOM      3  C2  UNL d   1       0.721   0.170   1.186  0.00  0.00    -0.080 A 
ATOM      4  C3  UNL d   1       1.235   0.039   2.473  0.00  0.00     0.150 A 
ATOM      5  C4  UNL d   1       0.504   0.458   3.579  0.00  0.00    -0.007 A 
ATOM      6  C5  UNL d   1      -0.759   1.020   3.400  0.00  0.00     0.039 A 
ENDROOT
BRANCH   4   7
ATOM      7  O   UNL d   1       2.468  -0.500   2.696  0.00  0.00    -0.526 OA
ATOM      8  H5  UNL d   1       2.868  -0.717   1.837  0.00  0.00     0.418 HD
ENDBRANCH   4   7
TORSDOF 1
ENDMDL
