MODEL 1
REMARK minimizedAffinity -4.95448971
REMARK minimizedRMSD -1
REMARK  1 active torsions:
REMARK  status: ('A' for Active; 'I' for Inactive)
REMARK    1  A    between atoms: C3_4  and  O_7 
ROOT
ATOM      1  C   UNL d   1      -0.400   0.745   3.200  0.00  0.00    -0.033 A 
ATOM      2  C1  UNL d   1       0.885   0.271   2.930  0.00  0.00     0.039 A 
ATOM      3  C2  UNL d   1       1.209  -0.186   1.651  0.00  0.00    -0.080 A 
ATOM      4  C3  UNL d   1       0.239  -0.163   0.652  0.00  0.00     0.150 A 
ATOM      5  C4  UNL d   1      -1.042   0.311   0.912  0.00  0.00    -0.007 A 
ATOM      6  C5  UNL d   1      -1.363   0.766   2.190  0.00  0.00     0.039 A 
ENDROOT
BRANCH   4   7
ATOM      7  O   UNL d   1       0.507  -0.603  -0.611  0.00  0.00    -0.526 OA
ATOM      8  H5  UNL d   1       1.422  -0.928  -0.636  0.00  0.00     0.418 HD
ENDBRANCH   4   7
TORSDOF 1
ENDMDL
