MODEL 1
REMARK minimizedAffinity -4.45220804
REMARK minimizedRMSD -1
REMARK  1 active torsions:
REMARK  status: ('A' for Active; 'I' for Inactive)
REMARK    1  A    between atoms: C3_4  and  O_7 
ROOT
ATOM      1  C   UNL d   1      -0.568   1.160   3.098  0.00  0.00    -0.033 A 
ATOM      2  C1  UNL d   1       0.616   0.482   2.801  0.00  0.00     0.039 A 
ATOM      3  C2  UNL d   1       0.850   0.018   1.505  0.00  0.00    -0.080 A 
ATOM      4  C3  UNL d   1      -0.106   0.237   0.517  0.00  0.00     0.150 A 
ATOM      5  C4  UNL d   1      -1.286   0.915   0.806  0.00  0.00    -0.007 A 
ATOM      6  C5  UNL d   1      -1.518   1.377   2.100  0.00  0.00     0.039 A 
ENDROOT
BRANCH   4   7
ATOM      7  O   UNL d   1       0.076  -0.202  -0.760  0.00  0.00    -0.526 OA
ATOM      8  H5  UNL d   1       0.922  -0.677  -0.805  0.00  0.00     0.418 HD
ENDBRANCH   4   7
TORSDOF 1
ENDMDL
