MODEL 1
REMARK minimizedAffinity -5.20413113
REMARK minimizedRMSD -1
REMARK  1 active torsions:
REMARK  status: ('A' for Active; 'I' for Inactive)
REMARK    1  A    between atoms: C3_4  and  O_7 
ROOT
ATOM      1  C   UNL d   1      -0.020   1.310   3.398  0.00  0.00    -0.033 A 
ATOM      2  C1  UNL d   1       1.223   0.676   3.361  0.00  0.00     0.039 A 
ATOM      3  C2  UNL d   1       1.673   0.084   2.179  0.00  0.00    -0.080 A 
ATOM      4  C3  UNL d   1       0.871   0.134   1.042  0.00  0.00     0.150 A 
ATOM      5  C4  UNL d   1      -0.367   0.767   1.070  0.00  0.00    -0.007 A 
ATOM      6  C5  UNL d   1      -0.815   1.357   2.252  0.00  0.00     0.039 A 
ENDROOT
BRANCH   4   7
ATOM      7  O   UNL d   1       1.265  -0.434  -0.133  0.00  0.00    -0.526 OA
ATOM      8  H5  UNL d   1       2.128  -0.859   0.005  0.00  0.00     0.418 HD
ENDBRANCH   4   7
TORSDOF 1
ENDMDL
