MODEL 1
REMARK minimizedAffinity -1.29532981
REMARK minimizedRMSD -1
REMARK  1 active torsions:
REMARK  status: ('A' for Active; 'I' for Inactive)
REMARK    1  A    between atoms: C3_4  and  O_7 
ROOT
ATOM      1  C   UNL d   1       0.267  -1.020  -1.002  0.00  0.00    -0.033 A 
ATOM      2  C1  UNL d   1      -1.119  -1.104  -1.148  0.00  0.00     0.039 A 
ATOM      3  C2  UNL d   1      -1.959  -0.485  -0.220  0.00  0.00    -0.080 A 
ATOM      4  C3  UNL d   1      -1.401   0.215   0.847  0.00  0.00     0.150 A 
ATOM      5  C4  UNL d   1      -0.021   0.306   0.996  0.00  0.00    -0.007 A 
ATOM      6  C5  UNL d   1       0.816  -0.314   0.069  0.00  0.00     0.039 A 
ENDROOT
BRANCH   4   7
ATOM      7  O   UNL d   1      -2.180   0.831   1.780  0.00  0.00    -0.526 OA
ATOM      8  H5  UNL d   1      -3.112   0.659   1.565  0.00  0.00     0.418 HD
ENDBRANCH   4   7
TORSDOF 1
ENDMDL
