MODEL 1
REMARK minimizedAffinity -4.52785206
REMARK minimizedRMSD -1
REMARK  1 active torsions:
REMARK  status: ('A' for Active; 'I' for Inactive)
REMARK    1  A    between atoms: C3_4  and  O_7 
ROOT
ATOM      1  C   UNL d   1      -1.364   1.057   2.365  0.00  0.00    -0.033 A 
ATOM      2  C1  UNL d   1      -1.148   0.767   1.017  0.00  0.00     0.039 A 
ATOM      3  C2  UNL d   1       0.022   0.117   0.620  0.00  0.00    -0.080 A 
ATOM      4  C3  UNL d   1       0.966  -0.237   1.580  0.00  0.00     0.150 A 
ATOM      5  C4  UNL d   1       0.755   0.045   2.925  0.00  0.00    -0.007 A 
ATOM      6  C5  UNL d   1      -0.413   0.695   3.320  0.00  0.00     0.039 A 
ENDROOT
BRANCH   4   7
ATOM      7  O   UNL d   1       2.126  -0.869   1.240  0.00  0.00    -0.526 OA
ATOM      8  H5  UNL d   1       2.148  -0.973   0.274  0.00  0.00     0.418 HD
ENDBRANCH   4   7
TORSDOF 1
ENDMDL
