MODEL 1
REMARK minimizedAffinity 9.02098274
REMARK minimizedRMSD -1
REMARK  1 active torsions:
REMARK  status: ('A' for Active; 'I' for Inactive)
REMARK    1  A    between atoms: N_2  and  C1_3 
ROOT
ATOM      1  C1  UNL d   1       5.312   1.989   1.145  0.00  0.00     0.143 A 
ATOM      2  C2  UNL d   1       5.705   0.706   1.541  0.00  0.00    -0.057 A 
ATOM      3  C3  UNL d   1       4.919  -0.416   1.250  0.00  0.00     0.033 A 
ATOM      4  C4  UNL d   1       3.709  -0.270   0.580  0.00  0.00    -0.042 A 
ATOM      5  C5  UNL d   1       3.286   0.999   0.199  0.00  0.00     0.033 A 
ATOM      6  C6  UNL d   1       4.078   2.115   0.487  0.00  0.00    -0.057 A 
ENDROOT
BRANCH   1   7
ATOM      7  N   UNL d   1       6.000   3.155   1.491  0.00  0.00    -0.732 N 
ATOM      8  C   UNL d   1       5.535   4.448   1.036  0.00  0.00     0.284 C 
ATOM      9  H3  UNL d   1       6.321   3.145   2.457  0.00  0.00     0.395 HD
ENDBRANCH   1   7
TORSDOF 1
ENDMDL
