MODEL 1
REMARK minimizedAffinity 11.7190094
REMARK minimizedRMSD -1
REMARK  1 active torsions:
REMARK  status: ('A' for Active; 'I' for Inactive)
REMARK    1  A    between atoms: N_2  and  C1_3 
ROOT
ATOM      1  C1  UNL d   1       3.808   0.073   1.021  0.00  0.00     0.143 A 
ATOM      2  C2  UNL d   1       2.536  -0.438   0.742  0.00  0.00    -0.057 A 
ATOM      3  C3  UNL d   1       1.463   0.410   0.440  0.00  0.00     0.033 A 
ATOM      4  C4  UNL d   1       1.638   1.790   0.441  0.00  0.00    -0.042 A 
ATOM      5  C5  UNL d   1       2.887   2.321   0.741  0.00  0.00     0.033 A 
ATOM      6  C6  UNL d   1       3.956   1.469   1.035  0.00  0.00    -0.057 A 
ENDROOT
BRANCH   1   7
ATOM      7  N   UNL d   1       4.890  -0.712   1.425  0.00  0.00    -0.732 N 
ATOM      8  C   UNL d   1       5.999  -0.125   2.147  0.00  0.00     0.284 C 
ATOM      9  H3  UNL d   1       4.600  -1.622   1.777  0.00  0.00     0.395 HD
ENDBRANCH   1   7
TORSDOF 1
ENDMDL
