MODEL 1
REMARK minimizedAffinity 6.02623606
REMARK minimizedRMSD -1
REMARK  1 active torsions:
REMARK  status: ('A' for Active; 'I' for Inactive)
REMARK    1  A    between atoms: N_2  and  C1_3 
ROOT
ATOM      1  C1  UNL d   1       2.081   0.843   1.871  0.00  0.00     0.143 A 
ATOM      2  C2  UNL d   1       3.155  -0.046   1.993  0.00  0.00    -0.057 A 
ATOM      3  C3  UNL d   1       3.937  -0.396   0.885  0.00  0.00     0.033 A 
ATOM      4  C4  UNL d   1       3.639   0.115  -0.374  0.00  0.00    -0.042 A 
ATOM      5  C5  UNL d   1       2.561   0.980  -0.523  0.00  0.00     0.033 A 
ATOM      6  C6  UNL d   1       1.788   1.331   0.588  0.00  0.00    -0.057 A 
ENDROOT
BRANCH   1   7
ATOM      7  N   UNL d   1       1.206   1.153   2.915  0.00  0.00    -0.732 N 
ATOM      8  C   UNL d   1       0.861   0.159   3.908  0.00  0.00     0.284 C 
ATOM      9  H3  UNL d   1       1.371   2.082   3.296  0.00  0.00     0.395 HD
ENDBRANCH   1   7
TORSDOF 1
ENDMDL
