MODEL 1
REMARK minimizedAffinity 16.6247311
REMARK minimizedRMSD -1
REMARK  1 active torsions:
REMARK  status: ('A' for Active; 'I' for Inactive)
REMARK    1  A    between atoms: N_2  and  C1_3 
ROOT
ATOM      1  C1  UNL d   1      -1.119  -3.033  -1.274  0.00  0.00     0.143 A 
ATOM      2  C2  UNL d   1      -0.888  -3.938  -2.315  0.00  0.00    -0.057 A 
ATOM      3  C3  UNL d   1      -1.595  -3.854  -3.521  0.00  0.00     0.033 A 
ATOM      4  C4  UNL d   1      -2.571  -2.878  -3.695  0.00  0.00    -0.042 A 
ATOM      5  C5  UNL d   1      -2.835  -1.983  -2.664  0.00  0.00     0.033 A 
ATOM      6  C6  UNL d   1      -2.121  -2.068  -1.466  0.00  0.00    -0.057 A 
ENDROOT
BRANCH   1   7
ATOM      7  N   UNL d   1      -0.519  -3.125  -0.016  0.00  0.00    -0.732 N 
ATOM      8  C   UNL d   1      -1.307  -3.443   1.155  0.00  0.00     0.284 C 
ATOM      9  H3  UNL d   1       0.384  -3.593  -0.050  0.00  0.00     0.395 HD
ENDBRANCH   1   7
TORSDOF 1
ENDMDL
