MODEL 1
REMARK minimizedAffinity 3.76287985
REMARK minimizedRMSD -1
REMARK  1 active torsions:
REMARK  status: ('A' for Active; 'I' for Inactive)
REMARK    1  A    between atoms: N_2  and  C1_3 
ROOT
ATOM      1  C1  UNL d   1       3.157   0.096   0.894  0.00  0.00     0.143 A 
ATOM      2  C2  UNL d   1       1.948  -0.029   1.587  0.00  0.00    -0.057 A 
ATOM      3  C3  UNL d   1       0.986   0.988   1.560  0.00  0.00     0.033 A 
ATOM      4  C4  UNL d   1       1.229   2.165   0.860  0.00  0.00    -0.042 A 
ATOM      5  C5  UNL d   1       2.434   2.322   0.184  0.00  0.00     0.033 A 
ATOM      6  C6  UNL d   1       3.388   1.300   0.209  0.00  0.00    -0.057 A 
ENDROOT
BRANCH   1   7
ATOM      7  N   UNL d   1       4.194  -0.837   0.963  0.00  0.00    -0.732 N 
ATOM      8  C   UNL d   1       5.212  -0.733   1.985  0.00  0.00     0.284 C 
ATOM      9  H3  UNL d   1       3.873  -1.787   0.790  0.00  0.00     0.395 HD
ENDBRANCH   1   7
TORSDOF 1
ENDMDL
