MODEL 1
REMARK minimizedAffinity 4.96836901
REMARK minimizedRMSD -1
REMARK  1 active torsions:
REMARK  status: ('A' for Active; 'I' for Inactive)
REMARK    1  A    between atoms: N_2  and  C1_3 
ROOT
ATOM      1  C1  UNL d   1      -2.393  -2.508  -1.934  0.00  0.00     0.143 A 
ATOM      2  C2  UNL d   1      -1.490  -3.010  -2.877  0.00  0.00    -0.057 A 
ATOM      3  C3  UNL d   1      -1.846  -4.054  -3.739  0.00  0.00     0.033 A 
ATOM      4  C4  UNL d   1      -3.106  -4.636  -3.653  0.00  0.00    -0.042 A 
ATOM      5  C5  UNL d   1      -4.011  -4.170  -2.706  0.00  0.00     0.033 A 
ATOM      6  C6  UNL d   1      -3.652  -3.122  -1.852  0.00  0.00    -0.057 A 
ENDROOT
BRANCH   1   7
ATOM      7  N   UNL d   1      -2.065  -1.538  -0.983  0.00  0.00    -0.732 N 
ATOM      8  C   UNL d   1      -1.455  -1.915   0.274  0.00  0.00     0.284 C 
ATOM      9  H3  UNL d   1      -1.669  -0.700  -1.403  0.00  0.00     0.395 HD
ENDBRANCH   1   7
TORSDOF 1
ENDMDL
