MODEL 1
REMARK minimizedAffinity 0.460150093
REMARK minimizedRMSD -1
REMARK  1 active torsions:
REMARK  status: ('A' for Active; 'I' for Inactive)
REMARK    1  A    between atoms: N_2  and  C1_3 
ROOT
ATOM      1  C1  UNL d   1       1.735   0.874   2.361  0.00  0.00     0.143 A 
ATOM      2  C2  UNL d   1       2.403  -0.317   2.060  0.00  0.00    -0.057 A 
ATOM      3  C3  UNL d   1       3.151  -0.453   0.884  0.00  0.00     0.033 A 
ATOM      4  C4  UNL d   1       3.220   0.594  -0.028  0.00  0.00    -0.042 A 
ATOM      5  C5  UNL d   1       2.543   1.779   0.239  0.00  0.00     0.033 A 
ATOM      6  C6  UNL d   1       1.804   1.911   1.418  0.00  0.00    -0.057 A 
ENDROOT
BRANCH   1   7
ATOM      7  N   UNL d   1       0.896   1.037   3.466  0.00  0.00    -0.732 N 
ATOM      8  C   UNL d   1       0.754  -0.018   4.447  0.00  0.00     0.284 C 
ATOM      9  H3  UNL d   1       0.956   1.971   3.866  0.00  0.00     0.395 HD
ENDBRANCH   1   7
TORSDOF 1
ENDMDL
