MODEL 1
REMARK minimizedAffinity 0.738894939
REMARK minimizedRMSD -1
REMARK  1 active torsions:
REMARK  status: ('A' for Active; 'I' for Inactive)
REMARK    1  A    between atoms: N_2  and  C1_3 
ROOT
ATOM      1  C1  UNL d   1       3.025  -0.439   1.303  0.00  0.00     0.143 A 
ATOM      2  C2  UNL d   1       2.415   0.749   0.886  0.00  0.00    -0.057 A 
ATOM      3  C3  UNL d   1       1.603   1.491   1.752  0.00  0.00     0.033 A 
ATOM      4  C4  UNL d   1       1.361   1.041   3.045  0.00  0.00    -0.042 A 
ATOM      5  C5  UNL d   1       1.936  -0.150   3.473  0.00  0.00     0.033 A 
ATOM      6  C6  UNL d   1       2.752  -0.883   2.606  0.00  0.00    -0.057 A 
ENDROOT
BRANCH   1   7
ATOM      7  N   UNL d   1       3.763  -1.272   0.460  0.00  0.00    -0.732 N 
ATOM      8  C   UNL d   1       5.210  -1.268   0.501  0.00  0.00     0.284 C 
ATOM      9  H3  UNL d   1       3.353  -2.199   0.372  0.00  0.00     0.395 HD
ENDBRANCH   1   7
TORSDOF 1
ENDMDL
