MODEL 1
REMARK minimizedAffinity 5.81374025
REMARK minimizedRMSD -1
REMARK  1 active torsions:
REMARK  status: ('A' for Active; 'I' for Inactive)
REMARK    1  A    between atoms: N_2  and  C1_3 
ROOT
ATOM      1  C1  UNL d   1       3.675   0.107   1.163  0.00  0.00     0.143 A 
ATOM      2  C2  UNL d   1       2.292   0.301   1.249  0.00  0.00    -0.057 A 
ATOM      3  C3  UNL d   1       1.715   1.545   0.965  0.00  0.00     0.033 A 
ATOM      4  C4  UNL d   1       2.516   2.627   0.617  0.00  0.00    -0.042 A 
ATOM      5  C5  UNL d   1       3.895   2.464   0.550  0.00  0.00     0.033 A 
ATOM      6  C6  UNL d   1       4.465   1.218   0.828  0.00  0.00    -0.057 A 
ENDROOT
BRANCH   1   7
ATOM      7  N   UNL d   1       4.318  -1.078   1.528  0.00  0.00    -0.732 N 
ATOM      8  C   UNL d   1       4.996  -1.187   2.802  0.00  0.00     0.284 C 
ATOM      9  H3  UNL d   1       3.785  -1.905   1.269  0.00  0.00     0.395 HD
ENDBRANCH   1   7
TORSDOF 1
ENDMDL
