MODEL 1
REMARK minimizedAffinity 5.26329184
REMARK minimizedRMSD -1
REMARK  1 active torsions:
REMARK  status: ('A' for Active; 'I' for Inactive)
REMARK    1  A    between atoms: N_2  and  C1_3 
ROOT
ATOM      1  C1  UNL d   1       3.904  -0.349   0.618  0.00  0.00     0.143 A 
ATOM      2  C2  UNL d   1       2.650  -0.940   0.805  0.00  0.00    -0.057 A 
ATOM      3  C3  UNL d   1       1.475  -0.180   0.758  0.00  0.00     0.033 A 
ATOM      4  C4  UNL d   1       1.537   1.195   0.551  0.00  0.00    -0.042 A 
ATOM      5  C5  UNL d   1       2.774   1.807   0.388  0.00  0.00     0.033 A 
ATOM      6  C6  UNL d   1       3.944   1.041   0.430  0.00  0.00    -0.057 A 
ENDROOT
BRANCH   1   7
ATOM      7  N   UNL d   1       5.115  -1.034   0.752  0.00  0.00    -0.732 N 
ATOM      8  C   UNL d   1       5.999  -0.758   1.863  0.00  0.00     0.284 C 
ATOM      9  H3  UNL d   1       5.029  -2.022   0.524  0.00  0.00     0.395 HD
ENDBRANCH   1   7
TORSDOF 1
ENDMDL
