MODEL 1
REMARK minimizedAffinity 9.32751942
REMARK minimizedRMSD -1
REMARK  1 active torsions:
REMARK  status: ('A' for Active; 'I' for Inactive)
REMARK    1  A    between atoms: N_2  and  C1_3 
ROOT
ATOM      1  C1  UNL d   1      -2.611  -3.671   0.628  0.00  0.00     0.143 A 
ATOM      2  C2  UNL d   1      -3.351  -4.851   0.502  0.00  0.00    -0.057 A 
ATOM      3  C3  UNL d   1      -3.016  -6.000   1.229  0.00  0.00     0.033 A 
ATOM      4  C4  UNL d   1      -1.913  -5.996   2.077  0.00  0.00    -0.042 A 
ATOM      5  C5  UNL d   1      -1.149  -4.841   2.200  0.00  0.00     0.033 A 
ATOM      6  C6  UNL d   1      -1.493  -3.695   1.476  0.00  0.00    -0.057 A 
ENDROOT
BRANCH   1   7
ATOM      7  N   UNL d   1      -2.835  -2.526  -0.141  0.00  0.00    -0.732 N 
ATOM      8  C   UNL d   1      -2.179  -2.359  -1.420  0.00  0.00     0.284 C 
ATOM      9  H3  UNL d   1      -3.811  -2.237  -0.133  0.00  0.00     0.395 HD
ENDBRANCH   1   7
TORSDOF 1
ENDMDL
