MODEL 1
REMARK minimizedAffinity 3.2246449
REMARK minimizedRMSD -1
REMARK  1 active torsions:
REMARK  status: ('A' for Active; 'I' for Inactive)
REMARK    1  A    between atoms: N_2  and  C1_3 
ROOT
ATOM      1  C1  UNL d   1      -1.473  -3.316  -1.571  0.00  0.00     0.143 A 
ATOM      2  C2  UNL d   1      -2.759  -3.245  -2.117  0.00  0.00    -0.057 A 
ATOM      3  C3  UNL d   1      -3.011  -3.646  -3.435  0.00  0.00     0.033 A 
ATOM      4  C4  UNL d   1      -1.972  -4.099  -4.241  0.00  0.00    -0.042 A 
ATOM      5  C5  UNL d   1      -0.682  -4.154  -3.727  0.00  0.00     0.033 A 
ATOM      6  C6  UNL d   1      -0.437  -3.759  -2.409  0.00  0.00    -0.057 A 
ENDROOT
BRANCH   1   7
ATOM      7  N   UNL d   1      -1.140  -2.840  -0.300  0.00  0.00    -0.732 N 
ATOM      8  C   UNL d   1      -1.150  -3.725   0.844  0.00  0.00     0.284 C 
ATOM      9  H3  UNL d   1      -0.353  -2.196  -0.321  0.00  0.00     0.395 HD
ENDBRANCH   1   7
TORSDOF 1
ENDMDL
