MODEL 1
REMARK minimizedAffinity 4.48000908
REMARK minimizedRMSD -1
REMARK  1 active torsions:
REMARK  status: ('A' for Active; 'I' for Inactive)
REMARK    1  A    between atoms: N_2  and  C1_3 
ROOT
ATOM      1  C1  UNL d   1      -1.921  -3.678   0.436  0.00  0.00     0.143 A 
ATOM      2  C2  UNL d   1      -1.459  -2.394   0.130  0.00  0.00    -0.057 A 
ATOM      3  C3  UNL d   1      -1.840  -1.748  -1.053  0.00  0.00     0.033 A 
ATOM      4  C4  UNL d   1      -2.670  -2.390  -1.966  0.00  0.00    -0.042 A 
ATOM      5  C5  UNL d   1      -3.120  -3.677  -1.694  0.00  0.00     0.033 A 
ATOM      6  C6  UNL d   1      -2.741  -4.314  -0.509  0.00  0.00    -0.057 A 
ENDROOT
BRANCH   1   7
ATOM      7  N   UNL d   1      -1.499  -4.412   1.548  0.00  0.00    -0.732 N 
ATOM      8  C   UNL d   1      -1.841  -5.812   1.681  0.00  0.00     0.284 C 
ATOM      9  H3  UNL d   1      -0.545  -4.189   1.821  0.00  0.00     0.395 HD
ENDBRANCH   1   7
TORSDOF 1
ENDMDL
