MODEL 1
REMARK minimizedAffinity 9.72549629
REMARK minimizedRMSD -1
REMARK  1 active torsions:
REMARK  status: ('A' for Active; 'I' for Inactive)
REMARK    1  A    between atoms: N_2  and  C1_3 
ROOT
ATOM      1  C1  UNL d   1      -4.704   3.500   3.273  0.00  0.00     0.143 A 
ATOM      2  C2  UNL d   1      -4.538   4.046   4.550  0.00  0.00    -0.057 A 
ATOM      3  C3  UNL d   1      -5.114   5.276   4.894  0.00  0.00     0.033 A 
ATOM      4  C4  UNL d   1      -5.844   5.996   3.954  0.00  0.00    -0.042 A 
ATOM      5  C5  UNL d   1      -6.000   5.483   2.671  0.00  0.00     0.033 A 
ATOM      6  C6  UNL d   1      -5.428   4.252   2.336  0.00  0.00    -0.057 A 
ENDROOT
BRANCH   1   7
ATOM      7  N   UNL d   1      -4.074   2.330   2.841  0.00  0.00    -0.732 N 
ATOM      8  C   UNL d   1      -2.630   2.244   2.792  0.00  0.00     0.284 C 
ATOM      9  H3  UNL d   1      -4.529   1.491   3.194  0.00  0.00     0.395 HD
ENDBRANCH   1   7
TORSDOF 1
ENDMDL
