MODEL 1
REMARK minimizedAffinity 6.0135994
REMARK minimizedRMSD -1
REMARK  1 active torsions:
REMARK  status: ('A' for Active; 'I' for Inactive)
REMARK    1  A    between atoms: N_2  and  C1_3 
ROOT
ATOM      1  C1  UNL d   1      -4.902   3.285   3.990  0.00  0.00     0.143 A 
ATOM      2  C2  UNL d   1      -5.619   3.849   2.929  0.00  0.00    -0.057 A 
ATOM      3  C3  UNL d   1      -5.999   5.196   2.945  0.00  0.00     0.033 A 
ATOM      4  C4  UNL d   1      -5.694   5.998   4.040  0.00  0.00    -0.042 A 
ATOM      5  C5  UNL d   1      -5.004   5.453   5.117  0.00  0.00     0.033 A 
ATOM      6  C6  UNL d   1      -4.621   4.108   5.092  0.00  0.00    -0.057 A 
ENDROOT
BRANCH   1   7
ATOM      7  N   UNL d   1      -4.581   1.928   4.078  0.00  0.00    -0.732 N 
ATOM      8  C   UNL d   1      -3.837   1.277   3.020  0.00  0.00     0.284 C 
ATOM      9  H3  UNL d   1      -4.294   1.656   5.015  0.00  0.00     0.395 HD
ENDBRANCH   1   7
TORSDOF 1
ENDMDL
