MODEL 1
REMARK minimizedAffinity 2.48100734
REMARK minimizedRMSD -1
REMARK  1 active torsions:
REMARK  status: ('A' for Active; 'I' for Inactive)
REMARK    1  A    between atoms: N_2  and  C1_3 
ROOT
ATOM      1  C1  UNL d   1       3.640  -0.063   2.456  0.00  0.00     0.143 A 
ATOM      2  C2  UNL d   1       3.932  -0.337   1.116  0.00  0.00    -0.057 A 
ATOM      3  C3  UNL d   1       3.187   0.236   0.078  0.00  0.00     0.033 A 
ATOM      4  C4  UNL d   1       2.114   1.074   0.365  0.00  0.00    -0.042 A 
ATOM      5  C5  UNL d   1       1.790   1.341   1.691  0.00  0.00     0.033 A 
ATOM      6  C6  UNL d   1       2.543   0.771   2.722  0.00  0.00    -0.057 A 
ENDROOT
BRANCH   1   7
ATOM      7  N   UNL d   1       4.282  -0.679   3.533  0.00  0.00    -0.732 N 
ATOM      8  C   UNL d   1       5.249   0.046   4.328  0.00  0.00     0.284 C 
ATOM      9  H3  UNL d   1       3.652  -1.264   4.077  0.00  0.00     0.395 HD
ENDBRANCH   1   7
TORSDOF 1
ENDMDL
