MODEL 1
REMARK minimizedAffinity -3.29722381
REMARK minimizedRMSD -1
REMARK  1 active torsions:
REMARK  status: ('A' for Active; 'I' for Inactive)
REMARK    1  A    between atoms: C1_2  and  C2_3 
ROOT
ATOM      1  C2  UNL d   1      -0.161  -0.565  -0.547  0.00  0.00    -0.073 A 
ATOM      2  C3  UNL d   1       1.013  -1.175  -1.003  0.00  0.00    -0.002 A 
ATOM      3  C4  UNL d   1       2.239  -0.518  -0.890  0.00  0.00     0.004 A 
ATOM      4  C5  UNL d   1       2.305   0.752  -0.316  0.00  0.00    -0.004 A 
ATOM      5  C6  UNL d   1       1.144   1.373   0.156  0.00  0.00    -0.075 A 
ATOM      6  C7  UNL d   1       1.197   2.740   0.774  0.00  0.00     0.076 C 
ATOM      7  C8  UNL d   1      -0.083   0.708   0.037  0.00  0.00     0.001 A 
ENDROOT
BRANCH   1   8
ATOM      8  C1  UNL d   1      -1.486  -1.273  -0.661  0.00  0.00     0.053 C 
ATOM      9  C   UNL d   1      -1.914  -1.452  -2.109  0.00  0.00     0.018 C 
ENDBRANCH   1   8
TORSDOF 1
ENDMDL
