MODEL 1
REMARK minimizedAffinity -3.91331697
REMARK minimizedRMSD -1
REMARK  1 active torsions:
REMARK  status: ('A' for Active; 'I' for Inactive)
REMARK    1  A    between atoms: C1_2  and  C2_3 
ROOT
ATOM      1  C2  UNL d   1       0.143   0.966   0.698  0.00  0.00    -0.073 A 
ATOM      2  C3  UNL d   1      -0.717  -0.124   0.526  0.00  0.00    -0.002 A 
ATOM      3  C4  UNL d   1      -0.289  -1.256  -0.169  0.00  0.00     0.004 A 
ATOM      4  C5  UNL d   1       1.002  -1.313  -0.692  0.00  0.00    -0.004 A 
ATOM      5  C6  UNL d   1       1.881  -0.238  -0.520  0.00  0.00    -0.075 A 
ATOM      6  C7  UNL d   1       3.273  -0.281  -1.079  0.00  0.00     0.076 C 
ATOM      7  C8  UNL d   1       1.443   0.897   0.176  0.00  0.00     0.001 A 
ENDROOT
BRANCH   1   8
ATOM      8  C1  UNL d   1      -0.312   2.188   1.454  0.00  0.00     0.053 C 
ATOM      9  C   UNL d   1       0.034   3.474   0.720  0.00  0.00     0.018 C 
ENDBRANCH   1   8
TORSDOF 1
ENDMDL
