MODEL 1
REMARK minimizedAffinity -3.97308588
REMARK minimizedRMSD -1
REMARK  1 active torsions:
REMARK  status: ('A' for Active; 'I' for Inactive)
REMARK    1  A    between atoms: C1_2  and  C2_3 
ROOT
ATOM      1  C2  UNL d   1      -0.142  -0.203  -0.261  0.00  0.00    -0.073 A 
ATOM      2  C3  UNL d   1      -0.940  -0.541   0.838  0.00  0.00    -0.002 A 
ATOM      3  C4  UNL d   1      -0.998   0.298   1.951  0.00  0.00     0.004 A 
ATOM      4  C5  UNL d   1      -0.265   1.484   1.976  0.00  0.00    -0.004 A 
ATOM      5  C6  UNL d   1       0.529   1.845   0.883  0.00  0.00    -0.075 A 
ATOM      6  C7  UNL d   1       1.325   3.117   0.894  0.00  0.00     0.076 C 
ATOM      7  C8  UNL d   1       0.584   0.997  -0.231  0.00  0.00     0.001 A 
ENDROOT
BRANCH   1   8
ATOM      8  C1  UNL d   1      -0.081  -1.102  -1.469  0.00  0.00     0.053 C 
ATOM      9  C   UNL d   1      -1.431  -1.222  -2.159  0.00  0.00     0.018 C 
ENDBRANCH   1   8
TORSDOF 1
ENDMDL
