MODEL 1
REMARK minimizedAffinity -4.23066902
REMARK minimizedRMSD -1
REMARK  1 active torsions:
REMARK  status: ('A' for Active; 'I' for Inactive)
REMARK    1  A    between atoms: C1_2  and  C2_3 
ROOT
ATOM      1  C2  UNL d   1      -0.282  -0.320  -0.071  0.00  0.00    -0.073 A 
ATOM      2  C3  UNL d   1      -0.927  -0.581   1.143  0.00  0.00    -0.002 A 
ATOM      3  C4  UNL d   1      -0.707   0.241   2.249  0.00  0.00     0.004 A 
ATOM      4  C5  UNL d   1       0.154   1.334   2.151  0.00  0.00    -0.004 A 
ATOM      5  C6  UNL d   1       0.798   1.618   0.943  0.00  0.00    -0.075 A 
ATOM      6  C7  UNL d   1       1.729   2.789   0.822  0.00  0.00     0.076 C 
ATOM      7  C8  UNL d   1       0.574   0.787  -0.162  0.00  0.00     0.001 A 
ENDROOT
BRANCH   1   8
ATOM      8  C1  UNL d   1      -0.522  -1.201  -1.270  0.00  0.00     0.053 C 
ATOM      9  C   UNL d   1      -1.978  -1.621  -1.387  0.00  0.00     0.018 C 
ENDBRANCH   1   8
TORSDOF 1
ENDMDL
