MODEL 1
REMARK minimizedAffinity -5.93560505
REMARK minimizedRMSD -1
REMARK  1 active torsions:
REMARK  status: ('A' for Active; 'I' for Inactive)
REMARK    1  A    between atoms: C1_2  and  C2_3 
ROOT
ATOM      1  C2  UNL d   1       0.009  -0.286   0.093  0.00  0.00    -0.073 A 
ATOM      2  C3  UNL d   1      -1.114  -0.271   0.928  0.00  0.00    -0.002 A 
ATOM      3  C4  UNL d   1      -1.305   0.774   1.834  0.00  0.00     0.004 A 
ATOM      4  C5  UNL d   1      -0.381   1.816   1.908  0.00  0.00    -0.004 A 
ATOM      5  C6  UNL d   1       0.741   1.825   1.074  0.00  0.00    -0.075 A 
ATOM      6  C7  UNL d   1       1.746   2.937   1.144  0.00  0.00     0.076 C 
ATOM      7  C8  UNL d   1       0.928   0.771   0.170  0.00  0.00     0.001 A 
ENDROOT
BRANCH   1   8
ATOM      8  C1  UNL d   1       0.216  -1.409  -0.890  0.00  0.00     0.053 C 
ATOM      9  C   UNL d   1      -1.096  -1.894  -1.486  0.00  0.00     0.018 C 
ENDBRANCH   1   8
TORSDOF 1
ENDMDL
