MODEL 1
REMARK minimizedAffinity -5.02846289
REMARK minimizedRMSD -1
REMARK  1 active torsions:
REMARK  status: ('A' for Active; 'I' for Inactive)
REMARK    1  A    between atoms: C1_2  and  C2_3 
ROOT
ATOM      1  C2  UNL d   1      -0.317  -0.371  -0.587  0.00  0.00    -0.073 A 
ATOM      2  C3  UNL d   1      -1.022  -0.792   0.546  0.00  0.00    -0.002 A 
ATOM      3  C4  UNL d   1      -1.068   0.010   1.687  0.00  0.00     0.004 A 
ATOM      4  C5  UNL d   1      -0.416   1.243   1.705  0.00  0.00    -0.004 A 
ATOM      5  C6  UNL d   1       0.284   1.687   0.579  0.00  0.00    -0.075 A 
ATOM      6  C7  UNL d   1       0.992   3.010   0.583  0.00  0.00     0.076 C 
ATOM      7  C8  UNL d   1       0.328   0.875  -0.562  0.00  0.00     0.001 A 
ENDROOT
BRANCH   1   8
ATOM      8  C1  UNL d   1      -0.270  -1.230  -1.824  0.00  0.00     0.053 C 
ATOM      9  C   UNL d   1      -1.558  -1.145  -2.626  0.00  0.00     0.018 C 
ENDBRANCH   1   8
TORSDOF 1
ENDMDL
