MODEL 1
REMARK minimizedAffinity -3.48458147
REMARK minimizedRMSD -1
REMARK  1 active torsions:
REMARK  status: ('A' for Active; 'I' for Inactive)
REMARK    1  A    between atoms: C1_2  and  C2_3 
ROOT
ATOM      1  C2  UNL d   1      -0.077  -0.883  -0.764  0.00  0.00    -0.073 A 
ATOM      2  C3  UNL d   1       1.222  -1.243  -1.139  0.00  0.00    -0.002 A 
ATOM      3  C4  UNL d   1       2.309  -0.456  -0.757  0.00  0.00     0.004 A 
ATOM      4  C5  UNL d   1       2.110   0.693   0.009  0.00  0.00    -0.004 A 
ATOM      5  C6  UNL d   1       0.820   1.062   0.403  0.00  0.00    -0.075 A 
ATOM      6  C7  UNL d   1       0.588   2.296   1.225  0.00  0.00     0.076 C 
ATOM      7  C8  UNL d   1      -0.267   0.268   0.013  0.00  0.00     0.001 A 
ENDROOT
BRANCH   1   8
ATOM      8  C1  UNL d   1      -1.254  -1.734  -1.169  0.00  0.00     0.053 C 
ATOM      9  C   UNL d   1      -1.719  -1.426  -2.584  0.00  0.00     0.018 C 
ENDBRANCH   1   8
TORSDOF 1
ENDMDL
