MODEL 1
REMARK minimizedAffinity -3.51522994
REMARK minimizedRMSD -1
REMARK  1 active torsions:
REMARK  status: ('A' for Active; 'I' for Inactive)
REMARK    1  A    between atoms: C1_2  and  C2_3 
ROOT
ATOM      1  C2  UNL d   1      -0.454  -0.437  -0.127  0.00  0.00    -0.073 A 
ATOM      2  C3  UNL d   1       0.799  -1.027  -0.323  0.00  0.00    -0.002 A 
ATOM      3  C4  UNL d   1       1.966  -0.312  -0.050  0.00  0.00     0.004 A 
ATOM      4  C5  UNL d   1       1.892   0.997   0.427  0.00  0.00    -0.004 A 
ATOM      5  C6  UNL d   1       0.648   1.600   0.641  0.00  0.00    -0.075 A 
ATOM      6  C7  UNL d   1       0.551   3.007   1.152  0.00  0.00     0.076 C 
ATOM      7  C8  UNL d   1      -0.519   0.876   0.362  0.00  0.00     0.001 A 
ENDROOT
BRANCH   1   8
ATOM      8  C1  UNL d   1      -1.717  -1.208  -0.414  0.00  0.00     0.053 C 
ATOM      9  C   UNL d   1      -1.891  -1.484  -1.899  0.00  0.00     0.018 C 
ENDBRANCH   1   8
TORSDOF 1
ENDMDL
