MODEL 1
REMARK minimizedAffinity -5.82733774
REMARK minimizedRMSD -1
REMARK  1 active torsions:
REMARK  status: ('A' for Active; 'I' for Inactive)
REMARK    1  A    between atoms: C1_2  and  C2_3 
ROOT
ATOM      1  C2  UNL d   1       2.437   1.275   0.204  0.00  0.00    -0.073 A 
ATOM      2  C3  UNL d   1       2.894   2.415   0.875  0.00  0.00    -0.002 A 
ATOM      3  C4  UNL d   1       2.022   3.163   1.667  0.00  0.00     0.004 A 
ATOM      4  C5  UNL d   1       0.689   2.777   1.801  0.00  0.00    -0.004 A 
ATOM      5  C6  UNL d   1       0.216   1.634   1.148  0.00  0.00    -0.075 A 
ATOM      6  C7  UNL d   1      -1.216   1.206   1.280  0.00  0.00     0.076 C 
ATOM      7  C8  UNL d   1       1.097   0.889   0.353  0.00  0.00     0.001 A 
ENDROOT
BRANCH   1   8
ATOM      8  C1  UNL d   1       3.376   0.459  -0.647  0.00  0.00     0.053 C 
ATOM      9  C   UNL d   1       2.867  -0.957  -0.862  0.00  0.00     0.018 C 
ENDBRANCH   1   8
TORSDOF 1
ENDMDL
