MODEL 1
REMARK minimizedAffinity -4.32689285
REMARK minimizedRMSD -1
REMARK  1 active torsions:
REMARK  status: ('A' for Active; 'I' for Inactive)
REMARK    1  A    between atoms: C1_2  and  C2_3 
ROOT
ATOM      1  C2  UNL d   1      -0.140  -0.006  -0.193  0.00  0.00    -0.073 A 
ATOM      2  C3  UNL d   1      -1.137   0.010   0.789  0.00  0.00    -0.002 A 
ATOM      3  C4  UNL d   1      -1.062   0.906   1.855  0.00  0.00     0.004 A 
ATOM      4  C5  UNL d   1       0.004   1.800   1.948  0.00  0.00    -0.004 A 
ATOM      5  C6  UNL d   1       1.004   1.808   0.970  0.00  0.00    -0.075 A 
ATOM      6  C7  UNL d   1       2.160   2.762   1.056  0.00  0.00     0.076 C 
ATOM      7  C8  UNL d   1       0.924   0.903  -0.097  0.00  0.00     0.001 A 
ENDROOT
BRANCH   1   8
ATOM      8  C1  UNL d   1      -0.220  -0.968  -1.350  0.00  0.00     0.053 C 
ATOM      9  C   UNL d   1      -1.656  -1.234  -1.772  0.00  0.00     0.018 C 
ENDBRANCH   1   8
TORSDOF 1
ENDMDL
