MODEL 1
REMARK minimizedAffinity -4.3465786
REMARK minimizedRMSD -1
REMARK  1 active torsions:
REMARK  status: ('A' for Active; 'I' for Inactive)
REMARK    1  A    between atoms: C1_2  and  C2_3 
ROOT
ATOM      1  C2  UNL d   1      -0.084   0.040  -0.065  0.00  0.00    -0.073 A 
ATOM      2  C3  UNL d   1      -0.919  -0.249   1.021  0.00  0.00    -0.002 A 
ATOM      3  C4  UNL d   1      -0.910   0.566   2.153  0.00  0.00     0.004 A 
ATOM      4  C5  UNL d   1      -0.074   1.680   2.210  0.00  0.00    -0.004 A 
ATOM      5  C6  UNL d   1       0.759   1.993   1.131  0.00  0.00    -0.075 A 
ATOM      6  C7  UNL d   1       1.666   3.187   1.177  0.00  0.00     0.076 C 
ATOM      7  C8  UNL d   1       0.747   1.168  -0.002  0.00  0.00     0.001 A 
ENDROOT
BRANCH   1   8
ATOM      8  C1  UNL d   1      -0.094  -0.833  -1.293  0.00  0.00     0.053 C 
ATOM      9  C   UNL d   1      -1.466  -0.881  -1.947  0.00  0.00     0.018 C 
ENDBRANCH   1   8
TORSDOF 1
ENDMDL
