MODEL 1
REMARK minimizedAffinity -5.8216176
REMARK minimizedRMSD -1
REMARK  0 active torsions:
REMARK  status: ('A' for Active; 'I' for Inactive)
ROOT
ATOM      1  C   UNL d   1      -1.762  -0.516  -1.929  0.00  0.00     0.124 A 
ATOM      2  C1  UNL d   1      -2.068  -1.090  -0.703  0.00  0.00     0.062 A 
ATOM      3  C2  UNL d   1      -1.061  -1.331   0.228  0.00  0.00     0.162 A 
ATOM      4  C3  UNL d   1       0.261  -0.997  -0.063  0.00  0.00    -0.034 A 
ATOM      5  C4  UNL d   1       0.561  -0.420  -1.298  0.00  0.00     0.162 A 
ATOM      6  C5  UNL d   1      -0.448  -0.181  -2.225  0.00  0.00     0.062 A 
ATOM      7  F   UNL d   1      -0.150   0.374  -3.409  0.00  0.00    -0.097 F 
ATOM      8  F1  UNL d   1       1.822  -0.086  -1.610  0.00  0.00    -0.096 F 
ATOM      9  I   UNL d   1       1.769  -1.355   1.327  0.00  0.00    -0.060 I 
ATOM     10  F2  UNL d   1      -1.386  -1.887   1.405  0.00  0.00    -0.096 F 
ATOM     11  F3  UNL d   1      -3.336  -1.415  -0.414  0.00  0.00    -0.097 F 
ATOM     12  F4  UNL d   1      -2.732  -0.286  -2.823  0.00  0.00    -0.092 F 
ENDROOT
TORSDOF 0
ENDMDL
