MODEL 1
REMARK minimizedAffinity 0.467984557
REMARK minimizedRMSD -1
REMARK  0 active torsions:
REMARK  status: ('A' for Active; 'I' for Inactive)
ROOT
ATOM      1  C   UNL d   1      -2.514  -0.803  -1.743  0.00  0.00     0.124 A 
ATOM      2  C1  UNL d   1      -1.928   0.421  -2.037  0.00  0.00     0.062 A 
ATOM      3  C2  UNL d   1      -0.990   0.974  -1.171  0.00  0.00     0.162 A 
ATOM      4  C3  UNL d   1      -0.630   0.304  -0.002  0.00  0.00    -0.034 A 
ATOM      5  C4  UNL d   1      -1.225  -0.926   0.288  0.00  0.00     0.162 A 
ATOM      6  C5  UNL d   1      -2.162  -1.474  -0.581  0.00  0.00     0.062 A 
ATOM      7  F   UNL d   1      -2.727  -2.656  -0.295  0.00  0.00    -0.097 F 
ATOM      8  F1  UNL d   1      -0.902  -1.597   1.404  0.00  0.00    -0.096 F 
ATOM      9  I   UNL d   1       0.772   1.127   1.296  0.00  0.00    -0.060 I 
ATOM     10  F2  UNL d   1      -0.439   2.157  -1.481  0.00  0.00    -0.096 F 
ATOM     11  F3  UNL d   1      -2.267   1.072  -3.159  0.00  0.00    -0.097 F 
ATOM     12  F4  UNL d   1      -3.417  -1.332  -2.578  0.00  0.00    -0.092 F 
ENDROOT
TORSDOF 0
ENDMDL
