MODEL 1
REMARK minimizedAffinity 0.453079104
REMARK minimizedRMSD -1
REMARK  0 active torsions:
REMARK  status: ('A' for Active; 'I' for Inactive)
ROOT
ATOM      1  C   UNL d   1      -2.408  -1.176  -0.405  0.00  0.00     0.124 A 
ATOM      2  C1  UNL d   1      -1.911  -0.868   0.854  0.00  0.00     0.062 A 
ATOM      3  C2  UNL d   1      -0.715  -0.166   0.982  0.00  0.00     0.162 A 
ATOM      4  C3  UNL d   1      -0.008   0.233  -0.153  0.00  0.00    -0.034 A 
ATOM      5  C4  UNL d   1      -0.514  -0.081  -1.415  0.00  0.00     0.162 A 
ATOM      6  C5  UNL d   1      -1.709  -0.782  -1.538  0.00  0.00     0.062 A 
ATOM      7  F   UNL d   1      -2.188  -1.079  -2.755  0.00  0.00    -0.097 F 
ATOM      8  F1  UNL d   1       0.140   0.287  -2.527  0.00  0.00    -0.096 F 
ATOM      9  I   UNL d   1       1.780   1.281   0.035  0.00  0.00    -0.060 I 
ATOM     10  F2  UNL d   1      -0.259   0.118   2.211  0.00  0.00    -0.096 F 
ATOM     11  F3  UNL d   1      -2.583  -1.247   1.950  0.00  0.00    -0.097 F 
ATOM     12  F4  UNL d   1      -3.558  -1.851  -0.526  0.00  0.00    -0.092 F 
ENDROOT
TORSDOF 0
ENDMDL
