MODEL 1
REMARK minimizedAffinity -2.17654276
REMARK minimizedRMSD -1
REMARK  0 active torsions:
REMARK  status: ('A' for Active; 'I' for Inactive)
ROOT
ATOM      1  C   UNL d   1      -2.401  -0.750  -0.391  0.00  0.00     0.124 A 
ATOM      2  C1  UNL d   1      -1.839  -0.320   0.803  0.00  0.00     0.062 A 
ATOM      3  C2  UNL d   1      -0.691   0.466   0.793  0.00  0.00     0.162 A 
ATOM      4  C3  UNL d   1      -0.096   0.828  -0.415  0.00  0.00    -0.034 A 
ATOM      5  C4  UNL d   1      -0.665   0.391  -1.612  0.00  0.00     0.162 A 
ATOM      6  C5  UNL d   1      -1.814  -0.395  -1.597  0.00  0.00     0.062 A 
ATOM      7  F   UNL d   1      -2.354  -0.810  -2.752  0.00  0.00    -0.097 F 
ATOM      8  F1  UNL d   1      -0.119   0.720  -2.792  0.00  0.00    -0.096 F 
ATOM      9  I   UNL d   1       1.622   2.003  -0.434  0.00  0.00    -0.060 I 
ATOM     10  F2  UNL d   1      -0.170   0.868   1.962  0.00  0.00    -0.096 F 
ATOM     11  F3  UNL d   1      -2.404  -0.662   1.970  0.00  0.00    -0.097 F 
ATOM     12  F4  UNL d   1      -3.505  -1.507  -0.379  0.00  0.00    -0.092 F 
ENDROOT
TORSDOF 0
ENDMDL
