MODEL 1
REMARK minimizedAffinity -1.81476581
REMARK minimizedRMSD -1
REMARK  0 active torsions:
REMARK  status: ('A' for Active; 'I' for Inactive)
ROOT
ATOM      1  C   UNL d   1      -1.163  -1.836   0.920  0.00  0.00     0.124 A 
ATOM      2  C1  UNL d   1      -2.093  -1.589  -0.080  0.00  0.00     0.062 A 
ATOM      3  C2  UNL d   1      -1.711  -0.929  -1.244  0.00  0.00     0.162 A 
ATOM      4  C3  UNL d   1      -0.391  -0.511  -1.415  0.00  0.00    -0.034 A 
ATOM      5  C4  UNL d   1       0.539  -0.762  -0.404  0.00  0.00     0.162 A 
ATOM      6  C5  UNL d   1       0.151  -1.422   0.758  0.00  0.00     0.062 A 
ATOM      7  F   UNL d   1       1.051  -1.660   1.723  0.00  0.00    -0.097 F 
ATOM      8  F1  UNL d   1       1.816  -0.374  -0.535  0.00  0.00    -0.096 F 
ATOM      9  I   UNL d   1       0.186   0.477  -3.154  0.00  0.00    -0.060 I 
ATOM     10  F2  UNL d   1      -2.630  -0.704  -2.195  0.00  0.00    -0.096 F 
ATOM     11  F3  UNL d   1      -3.364  -1.987   0.075  0.00  0.00    -0.097 F 
ATOM     12  F4  UNL d   1      -1.535  -2.471   2.039  0.00  0.00    -0.092 F 
ENDROOT
TORSDOF 0
ENDMDL
