MODEL 1
REMARK minimizedAffinity 0.474367023
REMARK minimizedRMSD -1
REMARK  0 active torsions:
REMARK  status: ('A' for Active; 'I' for Inactive)
ROOT
ATOM      1  C   UNL d   1      -1.376   0.518  -1.739  0.00  0.00     0.124 A 
ATOM      2  C1  UNL d   1      -1.082   1.065  -0.497  0.00  0.00     0.062 A 
ATOM      3  C2  UNL d   1      -1.053   0.256   0.635  0.00  0.00     0.162 A 
ATOM      4  C3  UNL d   1      -1.319  -1.110   0.531  0.00  0.00    -0.034 A 
ATOM      5  C4  UNL d   1      -1.615  -1.652  -0.720  0.00  0.00     0.162 A 
ATOM      6  C5  UNL d   1      -1.642  -0.840  -1.849  0.00  0.00     0.062 A 
ATOM      7  F   UNL d   1      -1.927  -1.370  -3.048  0.00  0.00    -0.097 F 
ATOM      8  F1  UNL d   1      -1.875  -2.961  -0.856  0.00  0.00    -0.096 F 
ATOM      9  I   UNL d   1      -1.277  -2.323   2.222  0.00  0.00    -0.060 I 
ATOM     10  F2  UNL d   1      -0.766   0.811   1.822  0.00  0.00    -0.096 F 
ATOM     11  F3  UNL d   1      -0.826   2.376  -0.388  0.00  0.00    -0.097 F 
ATOM     12  F4  UNL d   1      -1.404   1.299  -2.826  0.00  0.00    -0.092 F 
ENDROOT
TORSDOF 0
ENDMDL
