MODEL 1
REMARK minimizedAffinity -3.90633869
REMARK minimizedRMSD -1
REMARK  0 active torsions:
REMARK  status: ('A' for Active; 'I' for Inactive)
ROOT
ATOM      1  C   UNL d   1      -1.562  -0.773   0.542  0.00  0.00     0.124 A 
ATOM      2  C1  UNL d   1      -2.247  -1.975   0.425  0.00  0.00     0.062 A 
ATOM      3  C2  UNL d   1      -2.515  -2.508  -0.833  0.00  0.00     0.162 A 
ATOM      4  C3  UNL d   1      -2.096  -1.841  -1.984  0.00  0.00    -0.034 A 
ATOM      5  C4  UNL d   1      -1.409  -0.632  -1.858  0.00  0.00     0.162 A 
ATOM      6  C5  UNL d   1      -1.144  -0.103  -0.599  0.00  0.00     0.062 A 
ATOM      7  F   UNL d   1      -0.482   1.058  -0.488  0.00  0.00    -0.097 F 
ATOM      8  F1  UNL d   1      -0.993   0.036  -2.944  0.00  0.00    -0.096 F 
ATOM      9  I   UNL d   1      -2.495  -2.635  -3.866  0.00  0.00    -0.060 I 
ATOM     10  F2  UNL d   1      -3.178  -3.671  -0.916  0.00  0.00    -0.096 F 
ATOM     11  F3  UNL d   1      -2.653  -2.624   1.525  0.00  0.00    -0.097 F 
ATOM     12  F4  UNL d   1      -1.307  -0.262   1.753  0.00  0.00    -0.092 F 
ENDROOT
TORSDOF 0
ENDMDL
