MODEL 1
REMARK minimizedAffinity -3.93647933
REMARK minimizedRMSD -1
REMARK  0 active torsions:
REMARK  status: ('A' for Active; 'I' for Inactive)
ROOT
ATOM      1  C   UNL d   1       2.086   1.823   0.875  0.00  0.00     0.124 A 
ATOM      2  C1  UNL d   1       1.238   2.635   0.133  0.00  0.00     0.062 A 
ATOM      3  C2  UNL d   1       0.007   2.151  -0.298  0.00  0.00     0.162 A 
ATOM      4  C3  UNL d   1      -0.386   0.849   0.013  0.00  0.00    -0.034 A 
ATOM      5  C4  UNL d   1       0.471   0.039   0.758  0.00  0.00     0.162 A 
ATOM      6  C5  UNL d   1       1.702   0.527   1.187  0.00  0.00     0.062 A 
ATOM      7  F   UNL d   1       2.519  -0.258   1.904  0.00  0.00    -0.097 F 
ATOM      8  F1  UNL d   1       0.125  -1.218   1.075  0.00  0.00    -0.096 F 
ATOM      9  I   UNL d   1      -2.228   0.123  -0.631  0.00  0.00    -0.060 I 
ATOM     10  F2  UNL d   1      -0.792   2.957  -1.014  0.00  0.00    -0.096 F 
ATOM     11  F3  UNL d   1       1.608   3.887  -0.170  0.00  0.00    -0.097 F 
ATOM     12  F4  UNL d   1       3.271   2.291   1.288  0.00  0.00    -0.092 F 
ENDROOT
TORSDOF 0
ENDMDL
