MODEL 1
REMARK minimizedAffinity -3.02030754
REMARK minimizedRMSD -1
REMARK  0 active torsions:
REMARK  status: ('A' for Active; 'I' for Inactive)
ROOT
ATOM      1  C   UNL d   1      -0.935   0.659  -1.620  0.00  0.00     0.124 A 
ATOM      2  C1  UNL d   1      -2.063  -0.148  -1.556  0.00  0.00     0.062 A 
ATOM      3  C2  UNL d   1      -2.144  -1.163  -0.607  0.00  0.00     0.162 A 
ATOM      4  C3  UNL d   1      -1.095  -1.376   0.287  0.00  0.00    -0.034 A 
ATOM      5  C4  UNL d   1       0.036  -0.561   0.216  0.00  0.00     0.162 A 
ATOM      6  C5  UNL d   1       0.112   0.452  -0.734  0.00  0.00     0.062 A 
ATOM      7  F   UNL d   1       1.202   1.231  -0.794  0.00  0.00    -0.097 F 
ATOM      8  F1  UNL d   1       1.063  -0.738   1.061  0.00  0.00    -0.096 F 
ATOM      9  I   UNL d   1      -1.213  -2.893   1.708  0.00  0.00    -0.060 I 
ATOM     10  F2  UNL d   1      -3.245  -1.928  -0.569  0.00  0.00    -0.096 F 
ATOM     11  F3  UNL d   1      -3.076   0.049  -2.412  0.00  0.00    -0.097 F 
ATOM     12  F4  UNL d   1      -0.859   1.634  -2.535  0.00  0.00    -0.092 F 
ENDROOT
TORSDOF 0
ENDMDL
