MODEL 1
REMARK minimizedAffinity -4.37918711
REMARK minimizedRMSD -1
REMARK  0 active torsions:
REMARK  status: ('A' for Active; 'I' for Inactive)
ROOT
ATOM      1  C   UNL d   1      -2.697  -1.380  -0.726  0.00  0.00     0.124 A 
ATOM      2  C1  UNL d   1      -1.966  -1.665   0.419  0.00  0.00     0.062 A 
ATOM      3  C2  UNL d   1      -0.755  -1.020   0.655  0.00  0.00     0.162 A 
ATOM      4  C3  UNL d   1      -0.268  -0.082  -0.256  0.00  0.00    -0.034 A 
ATOM      5  C4  UNL d   1      -1.008   0.198  -1.406  0.00  0.00     0.162 A 
ATOM      6  C5  UNL d   1      -2.218  -0.450  -1.637  0.00  0.00     0.062 A 
ATOM      7  F   UNL d   1      -2.923  -0.173  -2.744  0.00  0.00    -0.097 F 
ATOM      8  F1  UNL d   1      -0.569   1.094  -2.302  0.00  0.00    -0.096 F 
ATOM      9  I   UNL d   1       1.542   0.885   0.093  0.00  0.00    -0.060 I 
ATOM     10  F2  UNL d   1      -0.070  -1.315   1.770  0.00  0.00    -0.096 F 
ATOM     11  F3  UNL d   1      -2.426  -2.565   1.300  0.00  0.00    -0.097 F 
ATOM     12  F4  UNL d   1      -3.861  -2.003  -0.951  0.00  0.00    -0.092 F 
ENDROOT
TORSDOF 0
ENDMDL
