MODEL 1
REMARK minimizedAffinity 0.560259759
REMARK minimizedRMSD -1
REMARK  0 active torsions:
REMARK  status: ('A' for Active; 'I' for Inactive)
ROOT
ATOM      1  C   UNL d   1      -2.721  -0.936  -0.556  0.00  0.00     0.124 A 
ATOM      2  C1  UNL d   1      -2.326  -0.400   0.662  0.00  0.00     0.062 A 
ATOM      3  C2  UNL d   1      -1.074   0.194   0.792  0.00  0.00     0.162 A 
ATOM      4  C3  UNL d   1      -0.208   0.256  -0.300  0.00  0.00    -0.034 A 
ATOM      5  C4  UNL d   1      -0.612  -0.286  -1.521  0.00  0.00     0.162 A 
ATOM      6  C5  UNL d   1      -1.865  -0.878  -1.646  0.00  0.00     0.062 A 
ATOM      7  F   UNL d   1      -2.245  -1.395  -2.823  0.00  0.00    -0.097 F 
ATOM      8  F1  UNL d   1       0.196  -0.243  -2.591  0.00  0.00    -0.096 F 
ATOM      9  I   UNL d   1       1.665   1.143  -0.110  0.00  0.00    -0.060 I 
ATOM     10  F2  UNL d   1      -0.718   0.703   1.980  0.00  0.00    -0.096 F 
ATOM     11  F3  UNL d   1      -3.151  -0.455   1.717  0.00  0.00    -0.097 F 
ATOM     12  F4  UNL d   1      -3.926  -1.507  -0.678  0.00  0.00    -0.092 F 
ENDROOT
TORSDOF 0
ENDMDL
