MODEL 1
REMARK minimizedAffinity 3.38197327
REMARK minimizedRMSD -1
REMARK  0 active torsions:
REMARK  status: ('A' for Active; 'I' for Inactive)
ROOT
ATOM      1  C   UNL d   1       0.565  -0.936   0.463  0.00  0.00     0.124 A 
ATOM      2  C1  UNL d   1       0.488   0.342  -0.072  0.00  0.00     0.062 A 
ATOM      3  C2  UNL d   1      -0.594   1.164   0.232  0.00  0.00     0.162 A 
ATOM      4  C3  UNL d   1      -1.607   0.710   1.076  0.00  0.00    -0.034 A 
ATOM      5  C4  UNL d   1      -1.523  -0.578   1.609  0.00  0.00     0.162 A 
ATOM      6  C5  UNL d   1      -0.440  -1.395   1.303  0.00  0.00     0.062 A 
ATOM      7  F   UNL d   1      -0.367  -2.630   1.820  0.00  0.00    -0.097 F 
ATOM      8  F1  UNL d   1      -2.480  -1.046   2.424  0.00  0.00    -0.096 F 
ATOM      9  I   UNL d   1      -3.226   1.935   1.532  0.00  0.00    -0.060 I 
ATOM     10  F2  UNL d   1      -0.642   2.395  -0.299  0.00  0.00    -0.096 F 
ATOM     11  F3  UNL d   1       1.457   0.787  -0.884  0.00  0.00    -0.097 F 
ATOM     12  F4  UNL d   1       1.607  -1.725   0.169  0.00  0.00    -0.092 F 
ENDROOT
TORSDOF 0
ENDMDL
