MODEL 1
REMARK minimizedAffinity -2.89586043
REMARK minimizedRMSD -1
REMARK  0 active torsions:
REMARK  status: ('A' for Active; 'I' for Inactive)
ROOT
ATOM      1  C   UNL d   1       4.355   3.553  -0.145  0.00  0.00     0.124 A 
ATOM      2  C1  UNL d   1       3.941   2.801  -1.235  0.00  0.00     0.062 A 
ATOM      3  C2  UNL d   1       3.034   1.759  -1.064  0.00  0.00     0.162 A 
ATOM      4  C3  UNL d   1       2.534   1.463   0.205  0.00  0.00    -0.034 A 
ATOM      5  C4  UNL d   1       2.956   2.223   1.297  0.00  0.00     0.162 A 
ATOM      6  C5  UNL d   1       3.862   3.263   1.120  0.00  0.00     0.062 A 
ATOM      7  F   UNL d   1       4.261   3.988   2.175  0.00  0.00    -0.097 F 
ATOM      8  F1  UNL d   1       2.495   1.965   2.530  0.00  0.00    -0.096 F 
ATOM      9  I   UNL d   1       1.178  -0.094   0.466  0.00  0.00    -0.060 I 
ATOM     10  F2  UNL d   1       2.651   1.049  -2.135  0.00  0.00    -0.096 F 
ATOM     11  F3  UNL d   1       4.416   3.078  -2.458  0.00  0.00    -0.097 F 
ATOM     12  F4  UNL d   1       5.228   4.554  -0.312  0.00  0.00    -0.092 F 
ENDROOT
TORSDOF 0
ENDMDL
