MODEL 1
REMARK minimizedAffinity 0.658033848
REMARK minimizedRMSD -1
REMARK  0 active torsions:
REMARK  status: ('A' for Active; 'I' for Inactive)
ROOT
ATOM      1  C   UNL d   1      -1.220  -0.715   0.760  0.00  0.00     0.124 A 
ATOM      2  C1  UNL d   1      -2.086  -0.975  -0.293  0.00  0.00     0.062 A 
ATOM      3  C2  UNL d   1      -1.701  -0.697  -1.601  0.00  0.00     0.162 A 
ATOM      4  C3  UNL d   1      -0.443  -0.157  -1.865  0.00  0.00    -0.034 A 
ATOM      5  C4  UNL d   1       0.423   0.103  -0.801  0.00  0.00     0.162 A 
ATOM      6  C5  UNL d   1       0.034  -0.177   0.505  0.00  0.00     0.062 A 
ATOM      7  F   UNL d   1       0.872   0.075   1.521  0.00  0.00    -0.097 F 
ATOM      8  F1  UNL d   1       1.641   0.622  -1.019  0.00  0.00    -0.096 F 
ATOM      9  I   UNL d   1       0.137   0.260  -3.820  0.00  0.00    -0.060 I 
ATOM     10  F2  UNL d   1      -2.559  -0.959  -2.599  0.00  0.00    -0.096 F 
ATOM     11  F3  UNL d   1      -3.298  -1.494  -0.049  0.00  0.00    -0.097 F 
ATOM     12  F4  UNL d   1      -1.593  -0.982   2.018  0.00  0.00    -0.092 F 
ENDROOT
TORSDOF 0
ENDMDL
