MODEL 1
REMARK minimizedAffinity -0.507795513
REMARK minimizedRMSD -1
REMARK  0 active torsions:
REMARK  status: ('A' for Active; 'I' for Inactive)
ROOT
ATOM      1  C   UNL d   1      -2.072  -0.261  -1.846  0.00  0.00     0.124 A 
ATOM      2  C1  UNL d   1      -0.826   0.168  -2.281  0.00  0.00     0.062 A 
ATOM      3  C2  UNL d   1       0.239   0.248  -1.388  0.00  0.00     0.162 A 
ATOM      4  C3  UNL d   1       0.062  -0.105  -0.050  0.00  0.00    -0.034 A 
ATOM      5  C4  UNL d   1      -1.194  -0.534   0.381  0.00  0.00     0.162 A 
ATOM      6  C5  UNL d   1      -2.255  -0.612  -0.516  0.00  0.00     0.062 A 
ATOM      7  F   UNL d   1      -3.458  -1.027  -0.094  0.00  0.00    -0.097 F 
ATOM      8  F1  UNL d   1      -1.399  -0.881   1.660  0.00  0.00    -0.096 F 
ATOM      9  I   UNL d   1       1.652   0.012   1.289  0.00  0.00    -0.060 I 
ATOM     10  F2  UNL d   1       1.432   0.666  -1.837  0.00  0.00    -0.096 F 
ATOM     11  F3  UNL d   1      -0.646   0.509  -3.566  0.00  0.00    -0.097 F 
ATOM     12  F4  UNL d   1      -3.095  -0.335  -2.708  0.00  0.00    -0.092 F 
ENDROOT
TORSDOF 0
ENDMDL
