MODEL 1
REMARK minimizedAffinity -2.01864052
REMARK minimizedRMSD -1
REMARK  0 active torsions:
REMARK  status: ('A' for Active; 'I' for Inactive)
ROOT
ATOM      1  C   UNL d   1      -2.682  -0.423  -0.672  0.00  0.00     0.124 A 
ATOM      2  C1  UNL d   1      -1.678  -0.834  -1.538  0.00  0.00     0.062 A 
ATOM      3  C2  UNL d   1      -0.341  -0.633  -1.205  0.00  0.00     0.162 A 
ATOM      4  C3  UNL d   1      -0.000  -0.019   0.000  0.00  0.00    -0.034 A 
ATOM      5  C4  UNL d   1      -1.016   0.392   0.865  0.00  0.00     0.162 A 
ATOM      6  C5  UNL d   1      -2.350   0.189   0.528  0.00  0.00     0.062 A 
ATOM      7  F   UNL d   1      -3.319   0.587   1.366  0.00  0.00    -0.097 F 
ATOM      8  F1  UNL d   1      -0.724   0.985   2.032  0.00  0.00    -0.096 F 
ATOM      9  I   UNL d   1       1.997   0.282   0.501  0.00  0.00    -0.060 I 
ATOM     10  F2  UNL d   1       0.608  -1.040  -2.061  0.00  0.00    -0.096 F 
ATOM     11  F3  UNL d   1      -1.996  -1.425  -2.699  0.00  0.00    -0.097 F 
ATOM     12  F4  UNL d   1      -3.967  -0.616  -0.995  0.00  0.00    -0.092 F 
ENDROOT
TORSDOF 0
ENDMDL
