MODEL 1
REMARK minimizedAffinity -3.18416667
REMARK minimizedRMSD -1
REMARK  0 active torsions:
REMARK  status: ('A' for Active; 'I' for Inactive)
ROOT
ATOM      1  C   UNL d   1      -0.596   0.157  -1.604  0.00  0.00     0.172 C 
ATOM      2  N   UNL d   1       0.274  -0.050  -0.471  0.00  0.00    -0.070 N 
ATOM      3  C1  UNL d   1       1.490  -0.679  -0.503  0.00  0.00    -0.004 A 
ATOM      4  C2  UNL d   1       2.003  -0.671   0.777  0.00  0.00    -0.047 A 
ATOM      5  C3  UNL d   1       1.062  -0.015   1.606  0.00  0.00    -0.047 A 
ATOM      6  C4  UNL d   1       0.002   0.359   0.808  0.00  0.00    -0.004 A 
ENDROOT
TORSDOF 0
ENDMDL
