MODEL 1
REMARK minimizedAffinity -3.75782466
REMARK minimizedRMSD -1
REMARK  0 active torsions:
REMARK  status: ('A' for Active; 'I' for Inactive)
ROOT
ATOM      1  C   UNL d   1      -0.032   0.705  -0.737  0.00  0.00     0.172 C 
ATOM      2  N   UNL d   1       0.202   0.308   0.631  0.00  0.00    -0.070 N 
ATOM      3  C1  UNL d   1       1.413  -0.045   1.164  0.00  0.00    -0.004 A 
ATOM      4  C2  UNL d   1       1.216  -0.354   2.492  0.00  0.00    -0.047 A 
ATOM      5  C3  UNL d   1      -0.162  -0.183   2.767  0.00  0.00    -0.047 A 
ATOM      6  C4  UNL d   1      -0.766   0.228   1.598  0.00  0.00    -0.004 A 
ENDROOT
TORSDOF 0
ENDMDL
