MODEL 1
REMARK minimizedAffinity -3.20355487
REMARK minimizedRMSD -1
REMARK  0 active torsions:
REMARK  status: ('A' for Active; 'I' for Inactive)
ROOT
ATOM      1  C   UNL d   1      -0.332   0.085  -0.697  0.00  0.00     0.172 C 
ATOM      2  N   UNL d   1       0.150  -0.177   0.639  0.00  0.00    -0.070 N 
ATOM      3  C1  UNL d   1      -0.613  -0.597   1.695  0.00  0.00    -0.004 A 
ATOM      4  C2  UNL d   1       0.216  -0.732   2.788  0.00  0.00    -0.047 A 
ATOM      5  C3  UNL d   1       1.523  -0.380   2.374  0.00  0.00    -0.047 A 
ATOM      6  C4  UNL d   1       1.453  -0.041   1.039  0.00  0.00    -0.004 A 
ENDROOT
TORSDOF 0
ENDMDL
