MODEL 1
REMARK minimizedAffinity -2.30950785
REMARK minimizedRMSD -1
REMARK  0 active torsions:
REMARK  status: ('A' for Active; 'I' for Inactive)
ROOT
ATOM      1  C   UNL d   1      -0.422  -0.407   0.701  0.00  0.00     0.172 C 
ATOM      2  N   UNL d   1       0.645  -1.320   1.039  0.00  0.00    -0.070 N 
ATOM      3  C1  UNL d   1       1.548  -1.852   0.158  0.00  0.00    -0.004 A 
ATOM      4  C2  UNL d   1       2.399  -2.671   0.870  0.00  0.00    -0.047 A 
ATOM      5  C3  UNL d   1       1.992  -2.629   2.225  0.00  0.00    -0.047 A 
ATOM      6  C4  UNL d   1       0.904  -1.785   2.301  0.00  0.00    -0.004 A 
ENDROOT
TORSDOF 0
ENDMDL
