MODEL 1
REMARK minimizedAffinity -3.32317519
REMARK minimizedRMSD -1
REMARK  0 active torsions:
REMARK  status: ('A' for Active; 'I' for Inactive)
ROOT
ATOM      1  C   UNL d   1      -0.362  -0.036  -1.388  0.00  0.00     0.172 C 
ATOM      2  N   UNL d   1       0.094  -0.221  -0.030  0.00  0.00    -0.070 N 
ATOM      3  C1  UNL d   1      -0.681  -0.113   1.094  0.00  0.00    -0.004 A 
ATOM      4  C2  UNL d   1       0.123  -0.362   2.185  0.00  0.00    -0.047 A 
ATOM      5  C3  UNL d   1       1.426  -0.627   1.701  0.00  0.00    -0.047 A 
ATOM      6  C4  UNL d   1       1.379  -0.533   0.326  0.00  0.00    -0.004 A 
ENDROOT
TORSDOF 0
ENDMDL
