MODEL 1
REMARK minimizedAffinity -3.1767695
REMARK minimizedRMSD -1
REMARK  0 active torsions:
REMARK  status: ('A' for Active; 'I' for Inactive)
ROOT
ATOM      1  C   UNL d   1       0.774  -0.895   2.386  0.00  0.00     0.172 C 
ATOM      2  N   UNL d   1       0.477  -0.789   0.977  0.00  0.00    -0.070 N 
ATOM      3  C1  UNL d   1      -0.634  -0.198   0.437  0.00  0.00    -0.004 A 
ATOM      4  C2  UNL d   1      -0.545  -0.303  -0.934  0.00  0.00    -0.047 A 
ATOM      5  C3  UNL d   1       0.662  -0.981  -1.229  0.00  0.00    -0.047 A 
ATOM      6  C4  UNL d   1       1.275  -1.270  -0.028  0.00  0.00    -0.004 A 
ENDROOT
TORSDOF 0
ENDMDL
