MODEL 1
REMARK minimizedAffinity -4.0572772
REMARK minimizedRMSD -1
REMARK  0 active torsions:
REMARK  status: ('A' for Active; 'I' for Inactive)
ROOT
ATOM      1  C   UNL d   1      -1.567  -0.763   0.846  0.00  0.00     0.172 C 
ATOM      2  N   UNL d   1      -0.335  -0.534   1.564  0.00  0.00    -0.070 N 
ATOM      3  C1  UNL d   1       0.091  -1.234   2.661  0.00  0.00    -0.004 A 
ATOM      4  C2  UNL d   1       1.307  -0.714   3.047  0.00  0.00    -0.047 A 
ATOM      5  C3  UNL d   1       1.622   0.336   2.152  0.00  0.00    -0.047 A 
ATOM      6  C4  UNL d   1       0.589   0.426   1.244  0.00  0.00    -0.004 A 
ENDROOT
TORSDOF 0
ENDMDL
