MODEL 1
REMARK minimizedAffinity -1.20890617
REMARK minimizedRMSD -1
REMARK  0 active torsions:
REMARK  status: ('A' for Active; 'I' for Inactive)
ROOT
ATOM      1  C1  BNZ d   1      -1.424   1.976   2.787  0.00  0.00     0.000 A 
ATOM      2  C2  BNZ d   1      -1.573   0.653   2.464  0.00  0.00     0.000 A 
ATOM      3  C3  BNZ d   1      -1.776   0.267   1.169  0.00  0.00     0.000 A 
ATOM      4  C4  BNZ d   1      -1.871   1.205   0.205  0.00  0.00     0.000 A 
ATOM      5  C5  BNZ d   1      -1.733   2.543   0.515  0.00  0.00     0.000 A 
ATOM      6  C6  BNZ d   1      -1.489   2.925   1.814  0.00  0.00     0.000 A 
ENDROOT
TORSDOF 0
ENDMDL
