MODEL 1
REMARK minimizedAffinity 4.31962967
REMARK minimizedRMSD -1
REMARK  0 active torsions:
REMARK  status: ('A' for Active; 'I' for Inactive)
ROOT
ATOM      1  C1  BNZ d   1       3.278  -0.889  -1.912  0.00  0.00     0.000 A 
ATOM      2  C2  BNZ d   1       3.150  -1.702  -0.817  0.00  0.00     0.000 A 
ATOM      3  C3  BNZ d   1       2.539  -1.254   0.320  0.00  0.00     0.000 A 
ATOM      4  C4  BNZ d   1       2.093   0.018   0.376  0.00  0.00     0.000 A 
ATOM      5  C5  BNZ d   1       2.224   0.853  -0.716  0.00  0.00     0.000 A 
ATOM      6  C6  BNZ d   1       2.804   0.386  -1.873  0.00  0.00     0.000 A 
ENDROOT
TORSDOF 0
ENDMDL
