MODEL 1
REMARK minimizedAffinity -3.89723587
REMARK minimizedRMSD -1
REMARK  0 active torsions:
REMARK  status: ('A' for Active; 'I' for Inactive)
ROOT
ATOM      1  C1  BNZ d   1      -0.158   0.535   0.547  0.00  0.00     0.000 A 
ATOM      2  C2  BNZ d   1      -1.482   0.190   0.481  0.00  0.00     0.000 A 
ATOM      3  C3  BNZ d   1      -2.459   1.133   0.634  0.00  0.00     0.000 A 
ATOM      4  C4  BNZ d   1      -2.113   2.410   0.892  0.00  0.00     0.000 A 
ATOM      5  C5  BNZ d   1      -0.783   2.772   0.971  0.00  0.00     0.000 A 
ATOM      6  C6  BNZ d   1       0.198   1.827   0.778  0.00  0.00     0.000 A 
ENDROOT
TORSDOF 0
ENDMDL
