MODEL 1
REMARK minimizedAffinity -2.28054214
REMARK minimizedRMSD -1
REMARK  0 active torsions:
REMARK  status: ('A' for Active; 'I' for Inactive)
ROOT
ATOM      1  C1  BNZ d   1       3.181   1.861  -5.155  0.00  0.00     0.000 A 
ATOM      2  C2  BNZ d   1       3.004   0.805  -4.301  0.00  0.00     0.000 A 
ATOM      3  C3  BNZ d   1       1.767   0.254  -4.117  0.00  0.00     0.000 A 
ATOM      4  C4  BNZ d   1       0.703   0.783  -4.755  0.00  0.00     0.000 A 
ATOM      5  C5  BNZ d   1       0.863   1.853  -5.612  0.00  0.00     0.000 A 
ATOM      6  C6  BNZ d   1       2.116   2.381  -5.825  0.00  0.00     0.000 A 
ENDROOT
TORSDOF 0
ENDMDL
