MODEL 1
REMARK minimizedAffinity 6.01870728
REMARK minimizedRMSD -1
REMARK  0 active torsions:
REMARK  status: ('A' for Active; 'I' for Inactive)
ROOT
ATOM      1  C1  BNZ d   1      -4.140   2.253  -6.000  0.00  0.00     0.000 A 
ATOM      2  C2  BNZ d   1      -2.809   1.931  -6.000  0.00  0.00     0.000 A 
ATOM      3  C3  BNZ d   1      -1.853   2.908  -5.975  0.00  0.00     0.000 A 
ATOM      4  C4  BNZ d   1      -2.228   4.203  -5.990  0.00  0.00     0.000 A 
ATOM      5  C5  BNZ d   1      -3.566   4.544  -6.000  0.00  0.00     0.000 A 
ATOM      6  C6  BNZ d   1      -4.526   3.558  -5.986  0.00  0.00     0.000 A 
ENDROOT
TORSDOF 0
ENDMDL
