MODEL 1
REMARK minimizedAffinity 0.825888932
REMARK minimizedRMSD -1
REMARK  0 active torsions:
REMARK  status: ('A' for Active; 'I' for Inactive)
ROOT
ATOM      1  C1  BNZ d   1      -5.436   3.014  -5.961  0.00  0.00     0.000 A 
ATOM      2  C2  BNZ d   1      -5.307   4.378  -5.960  0.00  0.00     0.000 A 
ATOM      3  C3  BNZ d   1      -4.073   4.964  -5.998  0.00  0.00     0.000 A 
ATOM      4  C4  BNZ d   1      -2.970   4.188  -5.997  0.00  0.00     0.000 A 
ATOM      5  C5  BNZ d   1      -3.083   2.812  -5.989  0.00  0.00     0.000 A 
ATOM      6  C6  BNZ d   1      -4.327   2.225  -5.991  0.00  0.00     0.000 A 
ENDROOT
TORSDOF 0
ENDMDL
