MODEL 1
REMARK minimizedAffinity -4.12910223
REMARK minimizedRMSD -1
REMARK  0 active torsions:
REMARK  status: ('A' for Active; 'I' for Inactive)
ROOT
ATOM      1  C1  BNZ d   1       1.494   4.103   0.191  0.00  0.00     0.000 A 
ATOM      2  C2  BNZ d   1       0.182   3.937  -0.163  0.00  0.00     0.000 A 
ATOM      3  C3  BNZ d   1      -0.390   2.695  -0.167  0.00  0.00     0.000 A 
ATOM      4  C4  BNZ d   1       0.361   1.618   0.143  0.00  0.00     0.000 A 
ATOM      5  C5  BNZ d   1       1.688   1.769   0.492  0.00  0.00     0.000 A 
ATOM      6  C6  BNZ d   1       2.250   3.024   0.533  0.00  0.00     0.000 A 
ENDROOT
TORSDOF 0
ENDMDL
