MODEL 1
REMARK minimizedAffinity -3.90614486
REMARK minimizedRMSD -1
REMARK  0 active torsions:
REMARK  status: ('A' for Active; 'I' for Inactive)
ROOT
ATOM      1  C1  BNZ d   1       1.315   0.165   0.563  0.00  0.00     0.000 A 
ATOM      2  C2  BNZ d   1       1.500   1.441   1.025  0.00  0.00     0.000 A 
ATOM      3  C3  BNZ d   1       0.485   2.355   0.984  0.00  0.00     0.000 A 
ATOM      4  C4  BNZ d   1      -0.701   2.005   0.445  0.00  0.00     0.000 A 
ATOM      5  C5  BNZ d   1      -0.901   0.725  -0.033  0.00  0.00     0.000 A 
ATOM      6  C6  BNZ d   1       0.112  -0.203   0.045  0.00  0.00     0.000 A 
ENDROOT
TORSDOF 0
ENDMDL
