MODEL 1
REMARK minimizedAffinity 2.14861488
REMARK minimizedRMSD -1
REMARK  0 active torsions:
REMARK  status: ('A' for Active; 'I' for Inactive)
ROOT
ATOM      1  C1  BNZ d   1      -0.252   0.275   0.824  0.00  0.00     0.000 A 
ATOM      2  C2  BNZ d   1      -0.462   1.583   1.169  0.00  0.00     0.000 A 
ATOM      3  C3  BNZ d   1      -1.601   2.234   0.783  0.00  0.00     0.000 A 
ATOM      4  C4  BNZ d   1      -2.507   1.589   0.020  0.00  0.00     0.000 A 
ATOM      5  C5  BNZ d   1      -2.305   0.273  -0.344  0.00  0.00     0.000 A 
ATOM      6  C6  BNZ d   1      -1.176  -0.391   0.080  0.00  0.00     0.000 A 
ENDROOT
TORSDOF 0
ENDMDL
