MODEL 1
REMARK minimizedAffinity -3.85799837
REMARK minimizedRMSD -1
REMARK  0 active torsions:
REMARK  status: ('A' for Active; 'I' for Inactive)
ROOT
ATOM      1  C1  BNZ d   1      -0.099  -3.014  -2.186  0.00  0.00     0.000 A 
ATOM      2  C2  BNZ d   1      -0.757  -4.199  -2.379  0.00  0.00     0.000 A 
ATOM      3  C3  BNZ d   1      -1.599  -4.695  -1.424  0.00  0.00     0.000 A 
ATOM      4  C4  BNZ d   1      -1.750  -4.028  -0.262  0.00  0.00     0.000 A 
ATOM      5  C5  BNZ d   1      -1.086  -2.836  -0.048  0.00  0.00     0.000 A 
ATOM      6  C6  BNZ d   1      -0.269  -2.320  -1.028  0.00  0.00     0.000 A 
ENDROOT
TORSDOF 0
ENDMDL
