MODEL 1
REMARK minimizedAffinity -3.35733747
REMARK minimizedRMSD -1
REMARK  0 active torsions:
REMARK  status: ('A' for Active; 'I' for Inactive)
ROOT
ATOM      1  C1  BNZ d   1       0.016   2.555   0.890  0.00  0.00     0.000 A 
ATOM      2  C2  BNZ d   1       0.677   1.682   0.067  0.00  0.00     0.000 A 
ATOM      3  C3  BNZ d   1       0.317   0.364   0.011  0.00  0.00     0.000 A 
ATOM      4  C4  BNZ d   1      -0.675  -0.086   0.806  0.00  0.00     0.000 A 
ATOM      5  C5  BNZ d   1      -1.344   0.779   1.648  0.00  0.00     0.000 A 
ATOM      6  C6  BNZ d   1      -1.005   2.113   1.673  0.00  0.00     0.000 A 
ENDROOT
TORSDOF 0
ENDMDL
