MODEL 1
REMARK minimizedAffinity 5.62392616
REMARK minimizedRMSD -1
REMARK  0 active torsions:
REMARK  status: ('A' for Active; 'I' for Inactive)
ROOT
ATOM      1  C1  BNZ d   1       2.629  -1.382  -3.910  0.00  0.00     0.000 A 
ATOM      2  C2  BNZ d   1       2.291  -1.483  -5.233  0.00  0.00     0.000 A 
ATOM      3  C3  BNZ d   1       2.036  -0.365  -5.977  0.00  0.00     0.000 A 
ATOM      4  C4  BNZ d   1       2.079   0.848  -5.388  0.00  0.00     0.000 A 
ATOM      5  C5  BNZ d   1       2.409   0.965  -4.052  0.00  0.00     0.000 A 
ATOM      6  C6  BNZ d   1       2.704  -0.160  -3.316  0.00  0.00     0.000 A 
ENDROOT
TORSDOF 0
ENDMDL
