MODEL 1
REMARK minimizedAffinity -3.98826122
REMARK minimizedRMSD -1
REMARK  0 active torsions:
REMARK  status: ('A' for Active; 'I' for Inactive)
ROOT
ATOM      1  C1  BNZ d   1      -0.225   0.065  -0.034  0.00  0.00     0.000 A 
ATOM      2  C2  BNZ d   1       0.118  -1.261  -0.036  0.00  0.00     0.000 A 
ATOM      3  C3  BNZ d   1      -0.636  -2.177  -0.714  0.00  0.00     0.000 A 
ATOM      4  C4  BNZ d   1      -1.752  -1.774  -1.354  0.00  0.00     0.000 A 
ATOM      5  C5  BNZ d   1      -2.116  -0.442  -1.353  0.00  0.00     0.000 A 
ATOM      6  C6  BNZ d   1      -1.334   0.483  -0.702  0.00  0.00     0.000 A 
ENDROOT
TORSDOF 0
ENDMDL
