MODEL 1
REMARK minimizedAffinity -3.73554087
REMARK minimizedRMSD -1
REMARK  0 active torsions:
REMARK  status: ('A' for Active; 'I' for Inactive)
ROOT
ATOM      1  C1  BNZ d   1      -0.836  -1.676  -0.897  0.00  0.00     0.000 A 
ATOM      2  C2  BNZ d   1      -1.815  -2.616  -1.081  0.00  0.00     0.000 A 
ATOM      3  C3  BNZ d   1      -1.551  -3.779  -1.751  0.00  0.00     0.000 A 
ATOM      4  C4  BNZ d   1      -0.323  -3.982  -2.269  0.00  0.00     0.000 A 
ATOM      5  C5  BNZ d   1       0.672  -3.039  -2.099  0.00  0.00     0.000 A 
ATOM      6  C6  BNZ d   1       0.414  -1.888  -1.392  0.00  0.00     0.000 A 
ENDROOT
TORSDOF 0
ENDMDL
