MODEL 1
REMARK minimizedAffinity -1.58088374
REMARK minimizedRMSD -1
REMARK  0 active torsions:
REMARK  status: ('A' for Active; 'I' for Inactive)
ROOT
ATOM      1  C1  BNZ d   1      -0.095  -2.006  -0.868  0.00  0.00     0.000 A 
ATOM      2  C2  BNZ d   1      -1.168  -2.815  -0.608  0.00  0.00     0.000 A 
ATOM      3  C3  BNZ d   1      -1.506  -3.827  -1.463  0.00  0.00     0.000 A 
ATOM      4  C4  BNZ d   1      -0.796  -4.001  -2.596  0.00  0.00     0.000 A 
ATOM      5  C5  BNZ d   1       0.284  -3.188  -2.877  0.00  0.00     0.000 A 
ATOM      6  C6  BNZ d   1       0.645  -2.196  -1.994  0.00  0.00     0.000 A 
ENDROOT
TORSDOF 0
ENDMDL
