MODEL 1
REMARK minimizedAffinity -3.23999047
REMARK minimizedRMSD -1
REMARK  0 active torsions:
REMARK  status: ('A' for Active; 'I' for Inactive)
ROOT
ATOM      1  C1  BNZ d   1      -4.029   1.640  -1.664  0.00  0.00     0.000 A 
ATOM      2  C2  BNZ d   1      -4.529   1.339  -0.424  0.00  0.00     0.000 A 
ATOM      3  C3  BNZ d   1      -5.354   2.211   0.228  0.00  0.00     0.000 A 
ATOM      4  C4  BNZ d   1      -5.648   3.398  -0.341  0.00  0.00     0.000 A 
ATOM      5  C5  BNZ d   1      -5.145   3.720  -1.586  0.00  0.00     0.000 A 
ATOM      6  C6  BNZ d   1      -4.345   2.823  -2.257  0.00  0.00     0.000 A 
ENDROOT
TORSDOF 0
ENDMDL
