MODEL 1
REMARK minimizedAffinity -1.94356811
REMARK minimizedRMSD -1
REMARK  0 active torsions:
REMARK  status: ('A' for Active; 'I' for Inactive)
ROOT
ATOM      1  C1  BNZ d   1       1.551   1.690   0.817  0.00  0.00     0.000 A 
ATOM      2  C2  BNZ d   1       2.101   1.457  -0.416  0.00  0.00     0.000 A 
ATOM      3  C3  BNZ d   1       2.488   2.494  -1.217  0.00  0.00     0.000 A 
ATOM      4  C4  BNZ d   1       2.290   3.762  -0.803  0.00  0.00     0.000 A 
ATOM      5  C5  BNZ d   1       1.729   4.014   0.434  0.00  0.00     0.000 A 
ATOM      6  C6  BNZ d   1       1.375   2.967   1.254  0.00  0.00     0.000 A 
ENDROOT
TORSDOF 0
ENDMDL
