MODEL 1
REMARK minimizedAffinity -1.43113708
REMARK minimizedRMSD -1
REMARK  0 active torsions:
REMARK  status: ('A' for Active; 'I' for Inactive)
ROOT
ATOM      1  C1  BNZ d   1       1.474   3.876   0.596  0.00  0.00     0.000 A 
ATOM      2  C2  BNZ d   1       2.053   3.435  -0.564  0.00  0.00     0.000 A 
ATOM      3  C3  BNZ d   1       2.576   2.175  -0.652  0.00  0.00     0.000 A 
ATOM      4  C4  BNZ d   1       2.554   1.372   0.432  0.00  0.00     0.000 A 
ATOM      5  C5  BNZ d   1       1.983   1.805   1.612  0.00  0.00     0.000 A 
ATOM      6  C6  BNZ d   1       1.423   3.060   1.684  0.00  0.00     0.000 A 
ENDROOT
TORSDOF 0
ENDMDL
