MODEL 1
REMARK minimizedAffinity 23.4318657
REMARK minimizedRMSD -1
REMARK  0 active torsions:
REMARK  status: ('A' for Active; 'I' for Inactive)
ROOT
ATOM      1  C   UNL d   1       0.748  -1.800   2.013  0.00  0.00    -0.002 A 
ATOM      2  C1  UNL d   1       0.940  -0.669   1.232  0.00  0.00     0.010 A 
ATOM      3  C2  UNL d   1       2.217  -0.323   0.787  0.00  0.00     0.041 A 
ATOM      4  C3  UNL d   1       3.308  -1.140   1.141  0.00  0.00    -0.075 A 
ATOM      5  S   UNL d   1       4.962  -0.913   0.710  0.00  0.00     0.015 SA
ATOM      6  C4  UNL d   1       5.452  -2.311   1.551  0.00  0.00     0.022 A 
ATOM      7  C5  UNL d   1       4.393  -2.948   2.153  0.00  0.00     0.026 A 
ATOM      8  C6  UNL d   1       3.140  -2.285   1.927  0.00  0.00    -0.082 A 
ATOM      9  C7  UNL d   1       1.833  -2.609   2.363  0.00  0.00     0.045 A 
ENDROOT
TORSDOF 0
ENDMDL
