MODEL 1
REMARK minimizedAffinity 20.7625618
REMARK minimizedRMSD -1
REMARK  0 active torsions:
REMARK  status: ('A' for Active; 'I' for Inactive)
ROOT
ATOM      1  C   UNL d   1      -5.300  -5.985  -5.480  0.00  0.00    -0.002 A 
ATOM      2  C1  UNL d   1      -4.247  -5.871  -4.584  0.00  0.00     0.010 A 
ATOM      3  C2  UNL d   1      -3.802  -4.615  -4.167  0.00  0.00     0.041 A 
ATOM      4  C3  UNL d   1      -4.441  -3.464  -4.670  0.00  0.00    -0.075 A 
ATOM      5  S   UNL d   1      -4.067  -1.822  -4.300  0.00  0.00     0.015 SA
ATOM      6  C4  UNL d   1      -5.297  -1.234  -5.322  0.00  0.00     0.022 A 
ATOM      7  C5  UNL d   1      -5.986  -2.251  -5.938  0.00  0.00     0.026 A 
ATOM      8  C6  UNL d   1      -5.504  -3.553  -5.572  0.00  0.00    -0.082 A 
ATOM      9  C7  UNL d   1      -5.932  -4.841  -5.976  0.00  0.00     0.045 A 
ENDROOT
TORSDOF 0
ENDMDL
