MODEL 1
REMARK minimizedAffinity 6.67629099
REMARK minimizedRMSD -1
REMARK  0 active torsions:
REMARK  status: ('A' for Active; 'I' for Inactive)
ROOT
ATOM      1  C   UNL d   1       1.563  -3.903   1.260  0.00  0.00    -0.002 A 
ATOM      2  C1  UNL d   1       1.778  -5.274   1.231  0.00  0.00     0.010 A 
ATOM      3  C2  UNL d   1       1.894  -5.999   2.419  0.00  0.00     0.041 A 
ATOM      4  C3  UNL d   1       1.787  -5.318   3.647  0.00  0.00    -0.075 A 
ATOM      5  S   UNL d   1       1.895  -5.999   5.227  0.00  0.00     0.015 SA
ATOM      6  C4  UNL d   1       1.658  -4.487   5.977  0.00  0.00     0.022 A 
ATOM      7  C5  UNL d   1       1.499  -3.476   5.059  0.00  0.00     0.026 A 
ATOM      8  C6  UNL d   1       1.570  -3.938   3.701  0.00  0.00    -0.082 A 
ATOM      9  C7  UNL d   1       1.458  -3.231   2.480  0.00  0.00     0.045 A 
ENDROOT
TORSDOF 0
ENDMDL
