MODEL 1
REMARK minimizedAffinity 10.7872972
REMARK minimizedRMSD -1
REMARK  0 active torsions:
REMARK  status: ('A' for Active; 'I' for Inactive)
ROOT
ATOM      1  C   UNL d   1      -1.567   3.171   1.871  0.00  0.00    -0.002 A 
ATOM      2  C1  UNL d   1      -1.812   2.952   0.523  0.00  0.00     0.010 A 
ATOM      3  C2  UNL d   1      -3.042   3.296  -0.040  0.00  0.00     0.041 A 
ATOM      4  C3  UNL d   1      -4.031   3.871   0.782  0.00  0.00    -0.075 A 
ATOM      5  S   UNL d   1      -5.612   4.374   0.311  0.00  0.00     0.015 SA
ATOM      6  C4  UNL d   1      -5.999   4.891   1.888  0.00  0.00     0.022 A 
ATOM      7  C5  UNL d   1      -4.959   4.692   2.765  0.00  0.00     0.026 A 
ATOM      8  C6  UNL d   1      -3.808   4.102   2.142  0.00  0.00    -0.082 A 
ATOM      9  C7  UNL d   1      -2.551   3.741   2.684  0.00  0.00     0.045 A 
ENDROOT
TORSDOF 0
ENDMDL
