MODEL 1
REMARK minimizedAffinity 20.8772068
REMARK minimizedRMSD -1
REMARK  0 active torsions:
REMARK  status: ('A' for Active; 'I' for Inactive)
ROOT
ATOM      1  C   UNL d   1       3.012  -5.251   1.143  0.00  0.00    -0.002 A 
ATOM      2  C1  UNL d   1       2.219  -4.985   2.251  0.00  0.00     0.010 A 
ATOM      3  C2  UNL d   1       0.828  -5.054   2.161  0.00  0.00     0.041 A 
ATOM      4  C3  UNL d   1       0.241  -5.400   0.928  0.00  0.00    -0.075 A 
ATOM      5  S   UNL d   1      -1.442  -5.547   0.582  0.00  0.00     0.015 SA
ATOM      6  C4  UNL d   1      -1.148  -5.968  -1.043  0.00  0.00     0.022 A 
ATOM      7  C5  UNL d   1       0.196  -5.999  -1.332  0.00  0.00     0.026 A 
ATOM      8  C6  UNL d   1       1.018  -5.673  -0.201  0.00  0.00    -0.082 A 
ATOM      9  C7  UNL d   1       2.427  -5.594  -0.078  0.00  0.00     0.045 A 
ENDROOT
TORSDOF 0
ENDMDL
