MODEL 1
REMARK minimizedAffinity 17.2686882
REMARK minimizedRMSD -1
REMARK  0 active torsions:
REMARK  status: ('A' for Active; 'I' for Inactive)
ROOT
ATOM      1  C   UNL d   1      -2.109   1.581   0.607  0.00  0.00    -0.002 A 
ATOM      2  C1  UNL d   1      -2.672   2.808   0.286  0.00  0.00     0.010 A 
ATOM      3  C2  UNL d   1      -3.471   2.947  -0.850  0.00  0.00     0.041 A 
ATOM      4  C3  UNL d   1      -3.698   1.822  -1.666  0.00  0.00    -0.075 A 
ATOM      5  S   UNL d   1      -4.643   1.755  -3.107  0.00  0.00     0.015 SA
ATOM      6  C4  UNL d   1      -4.323   0.096  -3.330  0.00  0.00     0.022 A 
ATOM      7  C5  UNL d   1      -3.516  -0.411  -2.339  0.00  0.00     0.026 A 
ATOM      8  C6  UNL d   1      -3.143   0.575  -1.363  0.00  0.00    -0.082 A 
ATOM      9  C7  UNL d   1      -2.337   0.466  -0.205  0.00  0.00     0.045 A 
ENDROOT
TORSDOF 0
ENDMDL
