MODEL 1
REMARK minimizedAffinity 13.3065672
REMARK minimizedRMSD -1
REMARK  0 active torsions:
REMARK  status: ('A' for Active; 'I' for Inactive)
ROOT
ATOM      1  C   UNL d   1       0.606  -1.827   2.718  0.00  0.00    -0.002 A 
ATOM      2  C1  UNL d   1       0.564  -0.823   1.761  0.00  0.00     0.010 A 
ATOM      3  C2  UNL d   1       1.708  -0.483   1.038  0.00  0.00     0.041 A 
ATOM      4  C3  UNL d   1       2.907  -1.176   1.293  0.00  0.00    -0.075 A 
ATOM      5  S   UNL d   1       4.433  -0.931   0.528  0.00  0.00     0.015 SA
ATOM      6  C4  UNL d   1       5.177  -2.154   1.452  0.00  0.00     0.022 A 
ATOM      7  C5  UNL d   1       4.298  -2.745   2.328  0.00  0.00     0.026 A 
ATOM      8  C6  UNL d   1       2.975  -2.192   2.250  0.00  0.00    -0.082 A 
ATOM      9  C7  UNL d   1       1.798  -2.513   2.968  0.00  0.00     0.045 A 
ENDROOT
TORSDOF 0
ENDMDL
