MODEL 1
REMARK minimizedAffinity 17.2849026
REMARK minimizedRMSD -1
REMARK  0 active torsions:
REMARK  status: ('A' for Active; 'I' for Inactive)
ROOT
ATOM      1  C   UNL d   1       0.873  -3.771  -0.891  0.00  0.00    -0.002 A 
ATOM      2  C1  UNL d   1       1.641  -2.994  -1.748  0.00  0.00     0.010 A 
ATOM      3  C2  UNL d   1       2.286  -1.848  -1.281  0.00  0.00     0.041 A 
ATOM      4  C3  UNL d   1       2.147  -1.492   0.075  0.00  0.00    -0.075 A 
ATOM      5  S   UNL d   1       2.847  -0.131   0.870  0.00  0.00     0.015 SA
ATOM      6  C4  UNL d   1       2.145  -0.549   2.365  0.00  0.00     0.022 A 
ATOM      7  C5  UNL d   1       1.391  -1.695   2.279  0.00  0.00     0.026 A 
ATOM      8  C6  UNL d   1       1.381  -2.258   0.958  0.00  0.00    -0.082 A 
ATOM      9  C7  UNL d   1       0.738  -3.415   0.454  0.00  0.00     0.045 A 
ENDROOT
TORSDOF 0
ENDMDL
