MODEL 1
REMARK minimizedAffinity 7.06603098
REMARK minimizedRMSD -1
REMARK  0 active torsions:
REMARK  status: ('A' for Active; 'I' for Inactive)
ROOT
ATOM      1  C   UNL d   1       1.423  -1.706   3.706  0.00  0.00    -0.002 A 
ATOM      2  C1  UNL d   1       2.302  -2.587   3.092  0.00  0.00     0.010 A 
ATOM      3  C2  UNL d   1       3.081  -2.173   2.009  0.00  0.00     0.041 A 
ATOM      4  C3  UNL d   1       2.961  -0.847   1.550  0.00  0.00    -0.075 A 
ATOM      5  S   UNL d   1       3.814  -0.119   0.241  0.00  0.00     0.015 SA
ATOM      6  C4  UNL d   1       3.032   1.379   0.466  0.00  0.00     0.022 A 
ATOM      7  C5  UNL d   1       2.138   1.342   1.510  0.00  0.00     0.026 A 
ATOM      8  C6  UNL d   1       2.083   0.059   2.153  0.00  0.00    -0.082 A 
ATOM      9  C7  UNL d   1       1.306  -0.391   3.248  0.00  0.00     0.045 A 
ENDROOT
TORSDOF 0
ENDMDL
