MODEL 1
REMARK minimizedAffinity 9.1466341
REMARK minimizedRMSD -1
REMARK  0 active torsions:
REMARK  status: ('A' for Active; 'I' for Inactive)
ROOT
ATOM      1  C   UNL d   1       5.491  -3.851   5.991  0.00  0.00     0.020 A 
ATOM      2  C1  UNL d   1       6.000  -2.560   5.857  0.00  0.00     0.020 A 
ATOM      3  C2  UNL d   1       5.199  -1.545   5.329  0.00  0.00     0.034 A 
ATOM      4  C3  UNL d   1       3.885  -1.820   4.933  0.00  0.00     0.017 A 
ATOM      5  C4  UNL d   1       3.375  -3.116   5.068  0.00  0.00     0.017 A 
ATOM      6  C5  UNL d   1       4.181  -4.129   5.597  0.00  0.00     0.034 A 
ATOM      7 Cl   UNL d   1       1.763  -3.531   4.601  0.00  0.00    -0.070 Cl
ATOM      8 Cl1  UNL d   1       2.951  -0.516   4.289  0.00  0.00    -0.070 Cl
ENDROOT
TORSDOF 0
ENDMDL
