MODEL 1
REMARK minimizedAffinity 7.75678825
REMARK minimizedRMSD -1
REMARK  0 active torsions:
REMARK  status: ('A' for Active; 'I' for Inactive)
ROOT
ATOM      1  C   UNL d   1       3.032   0.028   2.392  0.00  0.00     0.020 A 
ATOM      2  C1  UNL d   1       1.733  -0.429   2.169  0.00  0.00     0.020 A 
ATOM      3  C2  UNL d   1       1.219  -1.473   2.941  0.00  0.00     0.034 A 
ATOM      4  C3  UNL d   1       2.003  -2.063   3.940  0.00  0.00     0.017 A 
ATOM      5  C4  UNL d   1       3.306  -1.604   4.162  0.00  0.00     0.017 A 
ATOM      6  C5  UNL d   1       3.816  -0.558   3.386  0.00  0.00     0.034 A 
ATOM      7 Cl   UNL d   1       4.333  -2.282   5.375  0.00  0.00    -0.070 Cl
ATOM      8 Cl1  UNL d   1       1.302  -3.349   4.856  0.00  0.00    -0.070 Cl
ENDROOT
TORSDOF 0
ENDMDL
