MODEL 1
REMARK minimizedAffinity 12.4929171
REMARK minimizedRMSD -1
REMARK  0 active torsions:
REMARK  status: ('A' for Active; 'I' for Inactive)
ROOT
ATOM      1  C   UNL d   1       2.850   0.174   1.611  0.00  0.00     0.020 A 
ATOM      2  C1  UNL d   1       2.225  -0.891   2.260  0.00  0.00     0.020 A 
ATOM      3  C2  UNL d   1       1.904  -0.792   3.615  0.00  0.00     0.034 A 
ATOM      4  C3  UNL d   1       2.206   0.375   4.326  0.00  0.00     0.017 A 
ATOM      5  C4  UNL d   1       2.832   1.444   3.674  0.00  0.00     0.017 A 
ATOM      6  C5  UNL d   1       3.152   1.339   2.317  0.00  0.00     0.034 A 
ATOM      7 Cl   UNL d   1       3.236   2.915   4.485  0.00  0.00    -0.070 Cl
ATOM      8 Cl1  UNL d   1       1.779   0.429   6.000  0.00  0.00    -0.070 Cl
ENDROOT
TORSDOF 0
ENDMDL
