MODEL 1
REMARK minimizedAffinity 14.6586628
REMARK minimizedRMSD -1
REMARK  0 active torsions:
REMARK  status: ('A' for Active; 'I' for Inactive)
ROOT
ATOM      1  C   UNL d   1       2.100  -2.263   5.219  0.00  0.00     0.020 A 
ATOM      2  C1  UNL d   1       2.068  -1.896   3.874  0.00  0.00     0.020 A 
ATOM      3  C2  UNL d   1       3.261  -1.740   3.164  0.00  0.00     0.034 A 
ATOM      4  C3  UNL d   1       4.490  -1.951   3.799  0.00  0.00     0.017 A 
ATOM      5  C4  UNL d   1       4.521  -2.319   5.149  0.00  0.00     0.017 A 
ATOM      6  C5  UNL d   1       3.324  -2.474   5.855  0.00  0.00     0.034 A 
ATOM      7 Cl   UNL d   1       6.000  -2.596   6.000  0.00  0.00    -0.070 Cl
ATOM      8 Cl1  UNL d   1       5.925  -1.741   2.860  0.00  0.00    -0.070 Cl
ENDROOT
TORSDOF 0
ENDMDL
