MODEL 1
REMARK minimizedAffinity 3.22404861
REMARK minimizedRMSD -1
REMARK  0 active torsions:
REMARK  status: ('A' for Active; 'I' for Inactive)
ROOT
ATOM      1  C   UNL d   1       0.444   3.536   0.351  0.00  0.00     0.020 A 
ATOM      2  C1  UNL d   1       1.495   4.044  -0.412  0.00  0.00     0.020 A 
ATOM      3  C2  UNL d   1       2.708   3.355  -0.476  0.00  0.00     0.034 A 
ATOM      4  C3  UNL d   1       2.873   2.154   0.223  0.00  0.00     0.017 A 
ATOM      5  C4  UNL d   1       1.817   1.644   0.988  0.00  0.00     0.017 A 
ATOM      6  C5  UNL d   1       0.605   2.338   1.049  0.00  0.00     0.034 A 
ATOM      7 Cl   UNL d   1       1.946   0.168   1.877  0.00  0.00    -0.070 Cl
ATOM      8 Cl1  UNL d   1       4.399   1.354   0.097  0.00  0.00    -0.070 Cl
ENDROOT
TORSDOF 0
ENDMDL
