MODEL 1
REMARK minimizedAffinity 6.690835
REMARK minimizedRMSD -1
REMARK  0 active torsions:
REMARK  status: ('A' for Active; 'I' for Inactive)
ROOT
ATOM      1  C   UNL d   1       2.269  -2.980   4.904  0.00  0.00     0.020 A 
ATOM      2  C1  UNL d   1       1.378  -2.224   4.142  0.00  0.00     0.020 A 
ATOM      3  C2  UNL d   1       1.863  -1.300   3.214  0.00  0.00     0.034 A 
ATOM      4  C3  UNL d   1       3.242  -1.129   3.045  0.00  0.00     0.017 A 
ATOM      5  C4  UNL d   1       4.135  -1.889   3.810  0.00  0.00     0.017 A 
ATOM      6  C5  UNL d   1       3.644  -2.812   4.738  0.00  0.00     0.034 A 
ATOM      7 Cl   UNL d   1       5.850  -1.734   3.658  0.00  0.00    -0.070 Cl
ATOM      8 Cl1  UNL d   1       3.772   0.031   1.879  0.00  0.00    -0.070 Cl
ENDROOT
TORSDOF 0
ENDMDL
