MODEL 1
REMARK minimizedAffinity 0.828606009
REMARK minimizedRMSD -1
REMARK  0 active torsions:
REMARK  status: ('A' for Active; 'I' for Inactive)
ROOT
ATOM      1  C   UNL d   1       1.562  -1.607   3.883  0.00  0.00     0.020 A 
ATOM      2  C1  UNL d   1       2.225  -1.125   2.755  0.00  0.00     0.020 A 
ATOM      3  C2  UNL d   1       3.595  -1.347   2.602  0.00  0.00     0.034 A 
ATOM      4  C3  UNL d   1       4.307  -2.052   3.579  0.00  0.00     0.017 A 
ATOM      5  C4  UNL d   1       3.641  -2.535   4.712  0.00  0.00     0.017 A 
ATOM      6  C5  UNL d   1       2.269  -2.310   4.859  0.00  0.00     0.034 A 
ATOM      7 Cl   UNL d   1       4.452  -3.414   5.959  0.00  0.00    -0.070 Cl
ATOM      8 Cl1  UNL d   1       6.000  -2.289   3.325  0.00  0.00    -0.070 Cl
ENDROOT
TORSDOF 0
ENDMDL
