MODEL 1
REMARK minimizedAffinity 8.07802773
REMARK minimizedRMSD -1
REMARK  0 active torsions:
REMARK  status: ('A' for Active; 'I' for Inactive)
ROOT
ATOM      1  C   UNL d   1       2.219  -3.061   4.680  0.00  0.00     0.020 A 
ATOM      2  C1  UNL d   1       1.392  -2.268   3.886  0.00  0.00     0.020 A 
ATOM      3  C2  UNL d   1       1.942  -1.251   3.103  0.00  0.00     0.034 A 
ATOM      4  C3  UNL d   1       3.323  -1.024   3.113  0.00  0.00     0.017 A 
ATOM      5  C4  UNL d   1       4.152  -1.820   3.911  0.00  0.00     0.017 A 
ATOM      6  C5  UNL d   1       3.596  -2.837   4.693  0.00  0.00     0.034 A 
ATOM      7 Cl   UNL d   1       5.865  -1.599   3.976  0.00  0.00    -0.070 Cl
ATOM      8 Cl1  UNL d   1       3.934   0.251   2.120  0.00  0.00    -0.070 Cl
ENDROOT
TORSDOF 0
ENDMDL
