MODEL 1
REMARK minimizedAffinity 1.57118499
REMARK minimizedRMSD -1
REMARK  0 active torsions:
REMARK  status: ('A' for Active; 'I' for Inactive)
ROOT
ATOM      1  C   UNL d   1       2.123  -1.096   3.058  0.00  0.00     0.020 A 
ATOM      2  C1  UNL d   1       1.486  -1.912   3.992  0.00  0.00     0.020 A 
ATOM      3  C2  UNL d   1       2.242  -2.667   4.891  0.00  0.00     0.034 A 
ATOM      4  C3  UNL d   1       3.640  -2.608   4.858  0.00  0.00     0.017 A 
ATOM      5  C4  UNL d   1       4.279  -1.788   3.921  0.00  0.00     0.017 A 
ATOM      6  C5  UNL d   1       3.517  -1.034   3.023  0.00  0.00     0.034 A 
ATOM      7 Cl   UNL d   1       6.000  -1.663   3.820  0.00  0.00    -0.070 Cl
ATOM      8 Cl1  UNL d   1       4.511  -3.568   6.000  0.00  0.00    -0.070 Cl
ENDROOT
TORSDOF 0
ENDMDL
