MODEL 1
REMARK minimizedAffinity 5.98019838
REMARK minimizedRMSD -1
REMARK  0 active torsions:
REMARK  status: ('A' for Active; 'I' for Inactive)
ROOT
ATOM      1  C1  DEN d   1       2.704   0.706  -1.297  0.00  0.00     0.130 A 
ATOM      2  C2  DEN d   1       3.889   0.742  -0.445  0.00  0.00    -0.031 A 
ATOM      3  C3  DEN d   1       3.457   1.087   0.924  0.00  0.00     0.027 A 
ATOM      4  C4  DEN d   1       1.079   1.563   1.804  0.00  0.00     0.027 A 
ATOM      5  C5  DEN d   1      -0.249   1.662   1.452  0.00  0.00    -0.003 A 
ATOM      6  C6  DEN d   1      -0.678   1.486   0.163  0.00  0.00     0.001 A 
ATOM      7  C7  DEN d   1       0.224   1.155  -0.813  0.00  0.00     0.017 A 
ATOM      8  C8  DEN d   1       1.566   1.059  -0.468  0.00  0.00    -0.094 A 
ATOM      9  C9  DEN d   1       1.978   1.230   0.843  0.00  0.00    -0.072 A 
ENDROOT
TORSDOF 0
ENDMDL
