MODEL 1
REMARK minimizedAffinity 14.2536831
REMARK minimizedRMSD -1
REMARK  0 active torsions:
REMARK  status: ('A' for Active; 'I' for Inactive)
ROOT
ATOM      1  C1  DEN d   1       3.403  -0.568   0.470  0.00  0.00     0.130 A 
ATOM      2  C2  DEN d   1       2.771  -1.057  -0.753  0.00  0.00    -0.031 A 
ATOM      3  C3  DEN d   1       3.356  -0.323  -1.894  0.00  0.00     0.027 A 
ATOM      4  C4  DEN d   1       5.171   1.508  -1.886  0.00  0.00     0.027 A 
ATOM      5  C5  DEN d   1       6.000   2.264  -1.087  0.00  0.00    -0.003 A 
ATOM      6  C6  DEN d   1       5.997   2.154   0.279  0.00  0.00     0.001 A 
ATOM      7  C7  DEN d   1       5.180   1.236   0.884  0.00  0.00     0.017 A 
ATOM      8  C8  DEN d   1       4.337   0.475   0.085  0.00  0.00    -0.094 A 
ATOM      9  C9  DEN d   1       4.363   0.592  -1.294  0.00  0.00    -0.072 A 
ENDROOT
TORSDOF 0
ENDMDL
