MODEL 1
REMARK minimizedAffinity 7.09586525
REMARK minimizedRMSD -1
REMARK  0 active torsions:
REMARK  status: ('A' for Active; 'I' for Inactive)
ROOT
ATOM      1  C1  DEN d   1      -3.063   2.080  -5.839  0.00  0.00     0.130 A 
ATOM      2  C2  DEN d   1      -2.606   0.749  -5.450  0.00  0.00    -0.031 A 
ATOM      3  C3  DEN d   1      -3.392   0.321  -4.275  0.00  0.00     0.027 A 
ATOM      4  C4  DEN d   1      -5.266   1.582  -3.030  0.00  0.00     0.027 A 
ATOM      5  C5  DEN d   1      -5.995   2.749  -2.985  0.00  0.00    -0.003 A 
ATOM      6  C6  DEN d   1      -5.777   3.781  -3.859  0.00  0.00     0.001 A 
ATOM      7  C7  DEN d   1      -4.836   3.647  -4.846  0.00  0.00     0.017 A 
ATOM      8  C8  DEN d   1      -4.092   2.476  -4.893  0.00  0.00    -0.094 A 
ATOM      9  C9  DEN d   1      -4.336   1.439  -4.008  0.00  0.00    -0.072 A 
ENDROOT
TORSDOF 0
ENDMDL
