MODEL 1
REMARK minimizedAffinity 3.89460802
REMARK minimizedRMSD -1
REMARK  0 active torsions:
REMARK  status: ('A' for Active; 'I' for Inactive)
ROOT
ATOM      1  C1  DEN d   1      -2.941  -0.754  -2.407  0.00  0.00     0.130 A 
ATOM      2  C2  DEN d   1      -1.646  -0.091  -2.279  0.00  0.00    -0.031 A 
ATOM      3  C3  DEN d   1      -1.474   0.803  -3.441  0.00  0.00     0.027 A 
ATOM      4  C4  DEN d   1      -3.080   1.227  -5.414  0.00  0.00     0.027 A 
ATOM      5  C5  DEN d   1      -4.295   0.886  -5.965  0.00  0.00    -0.003 A 
ATOM      6  C6  DEN d   1      -5.122  -0.044  -5.392  0.00  0.00     0.001 A 
ATOM      7  C7  DEN d   1      -4.764  -0.632  -4.208  0.00  0.00     0.017 A 
ATOM      8  C8  DEN d   1      -3.537  -0.298  -3.649  0.00  0.00    -0.094 A 
ATOM      9  C9  DEN d   1      -2.721   0.654  -4.237  0.00  0.00    -0.072 A 
ENDROOT
TORSDOF 0
ENDMDL
