MODEL 1
REMARK minimizedAffinity 6.5004344
REMARK minimizedRMSD -1
REMARK  0 active torsions:
REMARK  status: ('A' for Active; 'I' for Inactive)
ROOT
ATOM      1  C1  DEN d   1       4.207  -0.263   0.210  0.00  0.00     0.130 A 
ATOM      2  C2  DEN d   1       3.749  -0.636  -1.125  0.00  0.00    -0.031 A 
ATOM      3  C3  DEN d   1       4.143   0.438  -2.060  0.00  0.00     0.027 A 
ATOM      4  C4  DEN d   1       5.414   2.628  -1.572  0.00  0.00     0.027 A 
ATOM      5  C5  DEN d   1       6.000   3.390  -0.585  0.00  0.00    -0.003 A 
ATOM      6  C6  DEN d   1       6.000   3.007   0.730  0.00  0.00     0.001 A 
ATOM      7  C7  DEN d   1       5.441   1.809   1.088  0.00  0.00     0.017 A 
ATOM      8  C8  DEN d   1       4.842   1.039   0.100  0.00  0.00    -0.094 A 
ATOM      9  C9  DEN d   1       4.863   1.437  -1.226  0.00  0.00    -0.072 A 
ENDROOT
TORSDOF 0
ENDMDL
