MODEL 1
REMARK minimizedAffinity 6.83995676
REMARK minimizedRMSD -1
REMARK  0 active torsions:
REMARK  status: ('A' for Active; 'I' for Inactive)
ROOT
ATOM      1  C1  DEN d   1       2.608  -2.837   0.705  0.00  0.00     0.130 A 
ATOM      2  C2  DEN d   1       3.278  -1.719   0.047  0.00  0.00    -0.031 A 
ATOM      3  C3  DEN d   1       2.537  -1.409  -1.192  0.00  0.00     0.027 A 
ATOM      4  C4  DEN d   1       0.427  -2.543  -2.148  0.00  0.00     0.027 A 
ATOM      5  C5  DEN d   1      -0.497  -3.545  -1.949  0.00  0.00    -0.003 A 
ATOM      6  C6  DEN d   1      -0.431  -4.396  -0.878  0.00  0.00     0.001 A 
ATOM      7  C7  DEN d   1       0.554  -4.233   0.060  0.00  0.00     0.017 A 
ATOM      8  C8  DEN d   1       1.493  -3.229  -0.138  0.00  0.00    -0.094 A 
ATOM      9  C9  DEN d   1       1.402  -2.371  -1.221  0.00  0.00    -0.072 A 
ENDROOT
TORSDOF 0
ENDMDL
