MODEL 1
REMARK minimizedAffinity 14.3342667
REMARK minimizedRMSD -1
REMARK  0 active torsions:
REMARK  status: ('A' for Active; 'I' for Inactive)
ROOT
ATOM      1  C1  DEN d   1       2.972   0.697   0.657  0.00  0.00     0.130 A 
ATOM      2  C2  DEN d   1       3.224  -0.084  -0.551  0.00  0.00    -0.031 A 
ATOM      3  C3  DEN d   1       1.991  -0.078  -1.363  0.00  0.00     0.027 A 
ATOM      4  C4  DEN d   1      -0.271   1.061  -0.872  0.00  0.00     0.027 A 
ATOM      5  C5  DEN d   1      -0.968   1.826   0.036  0.00  0.00    -0.003 A 
ATOM      6  C6  DEN d   1      -0.417   2.237   1.221  0.00  0.00     0.001 A 
ATOM      7  C7  DEN d   1       0.885   1.922   1.509  0.00  0.00     0.017 A 
ATOM      8  C8  DEN d   1       1.592   1.145   0.601  0.00  0.00    -0.094 A 
ATOM      9  C9  DEN d   1       1.021   0.749  -0.596  0.00  0.00    -0.072 A 
ENDROOT
TORSDOF 0
ENDMDL
