MODEL 1
REMARK minimizedAffinity 11.0800591
REMARK minimizedRMSD -1
REMARK  0 active torsions:
REMARK  status: ('A' for Active; 'I' for Inactive)
ROOT
ATOM      1  C1  DEN d   1      -2.395  -0.343  -2.010  0.00  0.00     0.130 A 
ATOM      2  C2  DEN d   1      -1.701   0.184  -3.181  0.00  0.00    -0.031 A 
ATOM      3  C3  DEN d   1      -2.599   1.148  -3.849  0.00  0.00     0.027 A 
ATOM      4  C4  DEN d   1      -4.983   1.873  -3.183  0.00  0.00     0.027 A 
ATOM      5  C5  DEN d   1      -5.998   1.690  -2.270  0.00  0.00    -0.003 A 
ATOM      6  C6  DEN d   1      -5.897   0.799  -1.235  0.00  0.00     0.001 A 
ATOM      7  C7  DEN d   1      -4.739   0.090  -1.060  0.00  0.00     0.017 A 
ATOM      8  C8  DEN d   1      -3.714   0.263  -1.981  0.00  0.00    -0.094 A 
ATOM      9  C9  DEN d   1      -3.830   1.178  -3.013  0.00  0.00    -0.072 A 
ENDROOT
TORSDOF 0
ENDMDL
