MODEL 1
REMARK minimizedAffinity 6.39155626
REMARK minimizedRMSD -1
REMARK  0 active torsions:
REMARK  status: ('A' for Active; 'I' for Inactive)
ROOT
ATOM      1  C1  DEN d   1       3.417  -0.449  -0.279  0.00  0.00     0.130 A 
ATOM      2  C2  DEN d   1       4.364   0.301  -1.100  0.00  0.00    -0.031 A 
ATOM      3  C3  DEN d   1       4.557  -0.436  -2.364  0.00  0.00     0.027 A 
ATOM      4  C4  DEN d   1       3.484  -2.653  -3.130  0.00  0.00     0.027 A 
ATOM      5  C5  DEN d   1       2.624  -3.667  -2.770  0.00  0.00    -0.003 A 
ATOM      6  C6  DEN d   1       2.000  -3.698  -1.551  0.00  0.00     0.001 A 
ATOM      7  C7  DEN d   1       2.192  -2.670  -0.665  0.00  0.00     0.017 A 
ATOM      8  C8  DEN d   1       3.062  -1.648  -1.018  0.00  0.00    -0.094 A 
ATOM      9  C9  DEN d   1       3.674  -1.629  -2.260  0.00  0.00    -0.072 A 
ENDROOT
TORSDOF 0
ENDMDL
