MODEL 1
REMARK minimizedAffinity -3.25282502
REMARK minimizedRMSD -1
REMARK  2 active torsions:
REMARK  status: ('A' for Active; 'I' for Inactive)
REMARK    1  A    between atoms: C1_2  and  C2_3 
REMARK    2  A    between atoms: C2_3  and  C3_4 
ROOT
ATOM      1  C3  UNL d   1      -5.101   2.944  -3.750  0.00  0.00    -0.075 A 
ATOM      2  C4  UNL d   1      -4.715   1.847  -2.967  0.00  0.00     0.002 A 
ATOM      3  C5  UNL d   1      -4.879   1.873  -1.581  0.00  0.00     0.002 A 
ATOM      4  C6  UNL d   1      -5.420   2.997  -0.962  0.00  0.00    -0.004 A 
ATOM      5  C7  UNL d   1      -5.792   4.100  -1.728  0.00  0.00     0.002 A 
ATOM      6  C8  UNL d   1      -5.633   4.075  -3.115  0.00  0.00     0.002 A 
ENDROOT
BRANCH   1   7
ATOM      7  C2  UNL d   1      -4.954   2.911  -5.252  0.00  0.00     0.056 C 
BRANCH   7   8
ATOM      8  C1  UNL d   1      -5.491   4.160  -5.960  0.00  0.00     0.007 C 
ATOM      9  C   UNL d   1      -4.489   5.306  -5.999  0.00  0.00     0.009 C 
ENDBRANCH   7   8
ENDBRANCH   1   7
TORSDOF 2
ENDMDL
