MODEL 1
REMARK minimizedAffinity 6.86390352
REMARK minimizedRMSD -1
REMARK  2 active torsions:
REMARK  status: ('A' for Active; 'I' for Inactive)
REMARK    1  A    between atoms: C1_2  and  C2_3 
REMARK    2  A    between atoms: C2_3  and  C3_4 
ROOT
ATOM      1  C3  UNL d   1      -5.451   2.732  -4.989  0.00  0.00    -0.075 A 
ATOM      2  C4  UNL d   1      -4.399   3.159  -4.165  0.00  0.00     0.002 A 
ATOM      3  C5  UNL d   1      -3.921   4.467  -4.249  0.00  0.00     0.002 A 
ATOM      4  C6  UNL d   1      -4.479   5.360  -5.161  0.00  0.00    -0.004 A 
ATOM      5  C7  UNL d   1      -5.513   4.941  -5.997  0.00  0.00     0.002 A 
ATOM      6  C8  UNL d   1      -5.996   3.634  -5.912  0.00  0.00     0.002 A 
ENDROOT
BRANCH   1   7
ATOM      7  C2  UNL d   1      -5.993   1.326  -4.883  0.00  0.00     0.056 C 
BRANCH   7   8
ATOM      8  C1  UNL d   1      -4.981   0.306  -4.350  0.00  0.00     0.007 C 
ATOM      9  C   UNL d   1      -5.626  -0.815  -3.547  0.00  0.00     0.009 C 
ENDBRANCH   7   8
ENDBRANCH   1   7
TORSDOF 2
ENDMDL
