MODEL 1
REMARK minimizedAffinity 5.47301102
REMARK minimizedRMSD -1
REMARK  2 active torsions:
REMARK  status: ('A' for Active; 'I' for Inactive)
REMARK    1  A    between atoms: C1_2  and  C2_3 
REMARK    2  A    between atoms: C2_3  and  C3_4 
ROOT
ATOM      1  C3  UNL d   1      -3.547   3.611  -4.626  0.00  0.00    -0.075 A 
ATOM      2  C4  UNL d   1      -4.408   2.504  -4.608  0.00  0.00     0.002 A 
ATOM      3  C5  UNL d   1      -5.624   2.541  -5.289  0.00  0.00     0.002 A 
ATOM      4  C6  UNL d   1      -6.000   3.686  -5.988  0.00  0.00    -0.004 A 
ATOM      5  C7  UNL d   1      -5.160   4.798  -5.999  0.00  0.00     0.002 A 
ATOM      6  C8  UNL d   1      -3.940   4.762  -5.322  0.00  0.00     0.002 A 
ENDROOT
BRANCH   1   7
ATOM      7  C2  UNL d   1      -2.216   3.566  -3.915  0.00  0.00     0.056 C 
BRANCH   7   8
ATOM      8  C1  UNL d   1      -1.852   2.186  -3.357  0.00  0.00     0.007 C 
ATOM      9  C   UNL d   1      -0.385   2.063  -2.967  0.00  0.00     0.009 C 
ENDBRANCH   7   8
ENDBRANCH   1   7
TORSDOF 2
ENDMDL
