MODEL 1
REMARK minimizedAffinity -2.13850236
REMARK minimizedRMSD -1
REMARK  2 active torsions:
REMARK  status: ('A' for Active; 'I' for Inactive)
REMARK    1  A    between atoms: C1_2  and  C2_3 
REMARK    2  A    between atoms: C2_3  and  C3_4 
ROOT
ATOM      1  C3  UNL d   1      -4.819   2.036  -3.041  0.00  0.00    -0.075 A 
ATOM      2  C4  UNL d   1      -4.728   1.000  -3.982  0.00  0.00     0.002 A 
ATOM      3  C5  UNL d   1      -5.254   1.160  -5.264  0.00  0.00     0.002 A 
ATOM      4  C6  UNL d   1      -5.886   2.351  -5.618  0.00  0.00    -0.004 A 
ATOM      5  C7  UNL d   1      -5.997   3.380  -4.685  0.00  0.00     0.002 A 
ATOM      6  C8  UNL d   1      -5.467   3.224  -3.403  0.00  0.00     0.002 A 
ENDROOT
BRANCH   1   7
ATOM      7  C2  UNL d   1      -4.225   1.880  -1.661  0.00  0.00     0.056 C 
BRANCH   7   8
ATOM      8  C1  UNL d   1      -5.257   1.583  -0.568  0.00  0.00     0.007 C 
ATOM      9  C   UNL d   1      -4.892   0.379   0.291  0.00  0.00     0.009 C 
ENDBRANCH   7   8
ENDBRANCH   1   7
TORSDOF 2
ENDMDL
