MODEL 1
REMARK minimizedAffinity -0.385539442
REMARK minimizedRMSD -1
REMARK  2 active torsions:
REMARK  status: ('A' for Active; 'I' for Inactive)
REMARK    1  A    between atoms: C1_2  and  C2_3 
REMARK    2  A    between atoms: C2_3  and  C3_4 
ROOT
ATOM      1  C3  UNL d   1       0.312   1.961   3.342  0.00  0.00    -0.075 A 
ATOM      2  C4  UNL d   1      -0.012   2.507   4.593  0.00  0.00     0.002 A 
ATOM      3  C5  UNL d   1       0.237   3.852   4.864  0.00  0.00     0.002 A 
ATOM      4  C6  UNL d   1       0.821   4.665   3.895  0.00  0.00    -0.004 A 
ATOM      5  C7  UNL d   1       1.162   4.129   2.655  0.00  0.00     0.002 A 
ATOM      6  C8  UNL d   1       0.910   2.784   2.379  0.00  0.00     0.002 A 
ENDROOT
BRANCH   1   7
ATOM      7  C2  UNL d   1       0.018   0.513   3.032  0.00  0.00     0.056 C 
BRANCH   7   8
ATOM      8  C1  UNL d   1      -0.111   0.209   1.535  0.00  0.00     0.007 C 
ATOM      9  C   UNL d   1      -1.220  -0.785   1.218  0.00  0.00     0.009 C 
ENDBRANCH   7   8
ENDBRANCH   1   7
TORSDOF 2
ENDMDL
