MODEL 1
REMARK minimizedAffinity -0.442068189
REMARK minimizedRMSD -1
REMARK  2 active torsions:
REMARK  status: ('A' for Active; 'I' for Inactive)
REMARK    1  A    between atoms: C1_2  and  C2_3 
REMARK    2  A    between atoms: C2_3  and  C3_4 
ROOT
ATOM      1  C3  UNL d   1      -5.482   2.131  -5.476  0.00  0.00    -0.075 A 
ATOM      2  C4  UNL d   1      -4.485   2.084  -4.491  0.00  0.00     0.002 A 
ATOM      3  C5  UNL d   1      -4.002   0.859  -4.030  0.00  0.00     0.002 A 
ATOM      4  C6  UNL d   1      -4.515  -0.332  -4.539  0.00  0.00    -0.004 A 
ATOM      5  C7  UNL d   1      -5.517  -0.297  -5.506  0.00  0.00     0.002 A 
ATOM      6  C8  UNL d   1      -6.000   0.927  -5.972  0.00  0.00     0.002 A 
ENDROOT
BRANCH   1   7
ATOM      7  C2  UNL d   1      -5.989   3.453  -6.000  0.00  0.00     0.056 C 
BRANCH   7   8
ATOM      8  C1  UNL d   1      -5.699   4.642  -5.077  0.00  0.00     0.007 C 
ATOM      9  C   UNL d   1      -5.669   5.977  -5.810  0.00  0.00     0.009 C 
ENDBRANCH   7   8
ENDBRANCH   1   7
TORSDOF 2
ENDMDL
