MODEL 1
REMARK minimizedAffinity 2.15682793
REMARK minimizedRMSD -1
REMARK  2 active torsions:
REMARK  status: ('A' for Active; 'I' for Inactive)
REMARK    1  A    between atoms: C1_2  and  C2_3 
REMARK    2  A    between atoms: C2_3  and  C3_4 
ROOT
ATOM      1  C3  UNL d   1      -5.477   2.955  -3.197  0.00  0.00    -0.075 A 
ATOM      2  C4  UNL d   1      -5.185   1.790  -3.921  0.00  0.00     0.002 A 
ATOM      3  C5  UNL d   1      -5.285   1.777  -5.312  0.00  0.00     0.002 A 
ATOM      4  C6  UNL d   1      -5.688   2.922  -5.995  0.00  0.00    -0.004 A 
ATOM      5  C7  UNL d   1      -5.997   4.080  -5.285  0.00  0.00     0.002 A 
ATOM      6  C8  UNL d   1      -5.893   4.098  -3.893  0.00  0.00     0.002 A 
ENDROOT
BRANCH   1   7
ATOM      7  C2  UNL d   1      -5.343   2.985  -1.693  0.00  0.00     0.056 C 
BRANCH   7   8
ATOM      8  C1  UNL d   1      -4.075   2.303  -1.167  0.00  0.00     0.007 C 
ATOM      9  C   UNL d   1      -4.044   2.182   0.351  0.00  0.00     0.009 C 
ENDBRANCH   7   8
ENDBRANCH   1   7
TORSDOF 2
ENDMDL
