MODEL 1
REMARK minimizedAffinity 1.43904924
REMARK minimizedRMSD -1
REMARK  2 active torsions:
REMARK  status: ('A' for Active; 'I' for Inactive)
REMARK    1  A    between atoms: C1_2  and  C2_3 
REMARK    2  A    between atoms: C2_3  and  C3_4 
ROOT
ATOM      1  C3  UNL d   1       3.136  -3.992  -2.433  0.00  0.00    -0.075 A 
ATOM      2  C4  UNL d   1       3.361  -3.746  -3.795  0.00  0.00     0.002 A 
ATOM      3  C5  UNL d   1       2.290  -3.530  -4.663  0.00  0.00     0.002 A 
ATOM      4  C6  UNL d   1       0.983  -3.568  -4.183  0.00  0.00    -0.004 A 
ATOM      5  C7  UNL d   1       0.746  -3.828  -2.835  0.00  0.00     0.002 A 
ATOM      6  C8  UNL d   1       1.816  -4.040  -1.964  0.00  0.00     0.002 A 
ENDROOT
BRANCH   1   7
ATOM      7  C2  UNL d   1       4.292  -4.197  -1.483  0.00  0.00     0.056 C 
BRANCH   7   8
ATOM      8  C1  UNL d   1       5.487  -3.275  -1.747  0.00  0.00     0.007 C 
ATOM      9  C   UNL d   1       5.835  -2.388  -0.560  0.00  0.00     0.009 C 
ENDBRANCH   7   8
ENDBRANCH   1   7
TORSDOF 2
ENDMDL
