MODEL 1
REMARK minimizedAffinity -1.03362012
REMARK minimizedRMSD -1
REMARK  2 active torsions:
REMARK  status: ('A' for Active; 'I' for Inactive)
REMARK    1  A    between atoms: C1_2  and  C2_3 
REMARK    2  A    between atoms: C2_3  and  C3_4 
ROOT
ATOM      1  C3  UNL d   1      -0.489  -2.290   4.009  0.00  0.00    -0.075 A 
ATOM      2  C4  UNL d   1       0.428  -2.987   4.809  0.00  0.00     0.002 A 
ATOM      3  C5  UNL d   1       1.790  -2.966   4.507  0.00  0.00     0.002 A 
ATOM      4  C6  UNL d   1       2.251  -2.258   3.399  0.00  0.00    -0.004 A 
ATOM      5  C7  UNL d   1       1.347  -1.576   2.588  0.00  0.00     0.002 A 
ATOM      6  C8  UNL d   1      -0.016  -1.591   2.890  0.00  0.00     0.002 A 
ENDROOT
BRANCH   1   7
ATOM      7  C2  UNL d   1      -1.961  -2.284   4.347  0.00  0.00     0.056 C 
BRANCH   7   8
ATOM      8  C1  UNL d   1      -2.263  -1.949   5.811  0.00  0.00     0.007 C 
ATOM      9  C   UNL d   1      -3.592  -1.228   6.000  0.00  0.00     0.009 C 
ENDBRANCH   7   8
ENDBRANCH   1   7
TORSDOF 2
ENDMDL
