MODEL 1
REMARK minimizedAffinity -1.02887666
REMARK minimizedRMSD -1
REMARK  2 active torsions:
REMARK  status: ('A' for Active; 'I' for Inactive)
REMARK    1  A    between atoms: C1_2  and  C2_3 
REMARK    2  A    between atoms: C2_3  and  C3_4 
ROOT
ATOM      1  C3  UNL d   1       0.130  -1.249  -2.209  0.00  0.00    -0.075 A 
ATOM      2  C4  UNL d   1      -0.042   0.031  -2.755  0.00  0.00     0.002 A 
ATOM      3  C5  UNL d   1       0.150   1.168  -1.970  0.00  0.00     0.002 A 
ATOM      4  C6  UNL d   1       0.505   1.040  -0.629  0.00  0.00    -0.004 A 
ATOM      5  C7  UNL d   1       0.661  -0.227  -0.071  0.00  0.00     0.002 A 
ATOM      6  C8  UNL d   1       0.474  -1.366  -0.855  0.00  0.00     0.002 A 
ENDROOT
BRANCH   1   7
ATOM      7  C2  UNL d   1      -0.048  -2.483  -3.061  0.00  0.00     0.056 C 
BRANCH   7   8
ATOM      8  C1  UNL d   1       0.221  -3.797  -2.319  0.00  0.00     0.007 C 
ATOM      9  C   UNL d   1       1.702  -4.141  -2.224  0.00  0.00     0.009 C 
ENDBRANCH   7   8
ENDBRANCH   1   7
TORSDOF 2
ENDMDL
