MODEL 1
REMARK minimizedAffinity -1.78477097
REMARK minimizedRMSD -1
REMARK  2 active torsions:
REMARK  status: ('A' for Active; 'I' for Inactive)
REMARK    1  A    between atoms: C1_2  and  C2_3 
REMARK    2  A    between atoms: C2_3  and  C3_4 
ROOT
ATOM      1  C3  UNL d   1       0.489   2.958   0.584  0.00  0.00    -0.075 A 
ATOM      2  C4  UNL d   1       0.250   2.897   1.965  0.00  0.00     0.002 A 
ATOM      3  C5  UNL d   1       0.267   4.058   2.738  0.00  0.00     0.002 A 
ATOM      4  C6  UNL d   1       0.533   5.290   2.145  0.00  0.00    -0.004 A 
ATOM      5  C7  UNL d   1       0.789   5.360   0.777  0.00  0.00     0.002 A 
ATOM      6  C8  UNL d   1       0.768   4.201   0.000  0.00  0.00     0.002 A 
ENDROOT
BRANCH   1   7
ATOM      7  C2  UNL d   1       0.443   1.709  -0.263  0.00  0.00     0.056 C 
BRANCH   7   8
ATOM      8  C1  UNL d   1       0.540   1.974  -1.770  0.00  0.00     0.007 C 
ATOM      9  C   UNL d   1       1.276   0.875  -2.526  0.00  0.00     0.009 C 
ENDBRANCH   7   8
ENDBRANCH   1   7
TORSDOF 2
ENDMDL
