MODEL 1
REMARK minimizedAffinity 2.49632478
REMARK minimizedRMSD -1
REMARK  2 active torsions:
REMARK  status: ('A' for Active; 'I' for Inactive)
REMARK    1  A    between atoms: C1_2  and  C2_3 
REMARK    2  A    between atoms: C2_3  and  C3_4 
ROOT
ATOM      1  C3  UNL d   1      -4.293   2.675  -3.816  0.00  0.00    -0.075 A 
ATOM      2  C4  UNL d   1      -5.149   3.785  -3.836  0.00  0.00     0.002 A 
ATOM      3  C5  UNL d   1      -6.000   4.003  -4.920  0.00  0.00     0.002 A 
ATOM      4  C6  UNL d   1      -5.998   3.122  -6.000  0.00  0.00    -0.004 A 
ATOM      5  C7  UNL d   1      -5.139   2.025  -5.997  0.00  0.00     0.002 A 
ATOM      6  C8  UNL d   1      -4.290   1.802  -4.912  0.00  0.00     0.002 A 
ENDROOT
BRANCH   1   7
ATOM      7  C2  UNL d   1      -3.391   2.416  -2.633  0.00  0.00     0.056 C 
BRANCH   7   8
ATOM      8  C1  UNL d   1      -4.135   2.264  -1.302  0.00  0.00     0.007 C 
ATOM      9  C   UNL d   1      -3.357   1.464  -0.267  0.00  0.00     0.009 C 
ENDBRANCH   7   8
ENDBRANCH   1   7
TORSDOF 2
ENDMDL
