MODEL 1
REMARK minimizedAffinity 0.909750402
REMARK minimizedRMSD -1
REMARK  2 active torsions:
REMARK  status: ('A' for Active; 'I' for Inactive)
REMARK    1  A    between atoms: C1_2  and  C2_3 
REMARK    2  A    between atoms: C2_3  and  C3_4 
ROOT
ATOM      1  C3  UNL d   1       0.215   2.944   0.636  0.00  0.00    -0.075 A 
ATOM      2  C4  UNL d   1      -0.005   2.593   1.976  0.00  0.00     0.002 A 
ATOM      3  C5  UNL d   1       0.379   3.452   3.006  0.00  0.00     0.002 A 
ATOM      4  C6  UNL d   1       0.997   4.665   2.711  0.00  0.00    -0.004 A 
ATOM      5  C7  UNL d   1       1.236   5.017   1.384  0.00  0.00     0.002 A 
ATOM      6  C8  UNL d   1       0.848   4.161   0.352  0.00  0.00     0.002 A 
ENDROOT
BRANCH   1   7
ATOM      7  C2  UNL d   1      -0.225   2.032  -0.484  0.00  0.00     0.056 C 
BRANCH   7   8
ATOM      8  C1  UNL d   1       0.864   1.070  -0.969  0.00  0.00     0.007 C 
ATOM      9  C   UNL d   1       0.745  -0.324  -0.368  0.00  0.00     0.009 C 
ENDBRANCH   7   8
ENDBRANCH   1   7
TORSDOF 2
ENDMDL
