MODEL 1
REMARK minimizedAffinity 2.50850797
REMARK minimizedRMSD -1
REMARK  2 active torsions:
REMARK  status: ('A' for Active; 'I' for Inactive)
REMARK    1  A    between atoms: C1_2  and  C2_3 
REMARK    2  A    between atoms: C2_3  and  C3_4 
ROOT
ATOM      1  C3  UNL d   1       0.228   4.409   2.633  0.00  0.00    -0.075 A 
ATOM      2  C4  UNL d   1       0.889   4.132   3.839  0.00  0.00     0.002 A 
ATOM      3  C5  UNL d   1       1.097   2.814   4.246  0.00  0.00     0.002 A 
ATOM      4  C6  UNL d   1       0.639   1.758   3.460  0.00  0.00    -0.004 A 
ATOM      5  C7  UNL d   1      -0.033   2.022   2.269  0.00  0.00     0.002 A 
ATOM      6  C8  UNL d   1      -0.239   3.340   1.857  0.00  0.00     0.002 A 
ENDROOT
BRANCH   1   7
ATOM      7  C2  UNL d   1       0.025   5.832   2.173  0.00  0.00     0.056 C 
BRANCH   7   8
ATOM      8  C1  UNL d   1      -0.001   5.998   0.650  0.00  0.00     0.007 C 
ATOM      9  C   UNL d   1       1.305   5.594  -0.020  0.00  0.00     0.009 C 
ENDBRANCH   7   8
ENDBRANCH   1   7
TORSDOF 2
ENDMDL
