MODEL 1
REMARK minimizedAffinity 4.31178904
REMARK minimizedRMSD -1
REMARK  2 active torsions:
REMARK  status: ('A' for Active; 'I' for Inactive)
REMARK    1  A    between atoms: C1_2  and  C2_3 
REMARK    2  A    between atoms: C2_3  and  C3_4 
ROOT
ATOM      1  C3  UNL d   1       0.032   0.513   0.403  0.00  0.00    -0.075 A 
ATOM      2  C4  UNL d   1      -1.188   1.089   0.788  0.00  0.00     0.002 A 
ATOM      3  C5  UNL d   1      -1.525   1.195   2.138  0.00  0.00     0.002 A 
ATOM      4  C6  UNL d   1      -0.656   0.720   3.116  0.00  0.00    -0.004 A 
ATOM      5  C7  UNL d   1       0.551   0.131   2.744  0.00  0.00     0.002 A 
ATOM      6  C8  UNL d   1       0.894   0.027   1.395  0.00  0.00     0.002 A 
ENDROOT
BRANCH   1   7
ATOM      7  C2  UNL d   1       0.416   0.422  -1.055  0.00  0.00     0.056 C 
BRANCH   7   8
ATOM      8  C1  UNL d   1       1.612   1.299  -1.440  0.00  0.00     0.007 C 
ATOM      9  C   UNL d   1       1.213   2.708  -1.859  0.00  0.00     0.009 C 
ENDBRANCH   7   8
ENDBRANCH   1   7
TORSDOF 2
ENDMDL
