MODEL 1
REMARK minimizedAffinity 12.2321272
REMARK minimizedRMSD -1
REMARK  0 active torsions:
REMARK  status: ('A' for Active; 'I' for Inactive)
ROOT
ATOM      1  C2' OXE d   1       0.994  -0.325   3.203  0.00  0.00     0.078 C 
ATOM      2  C1' OXE d   1       3.084  -0.433   1.331  0.00  0.00     0.078 C 
ATOM      3  C1  OXE d   1       2.158   0.757   1.284  0.00  0.00    -0.078 A 
ATOM      4  C2  OXE d   1       1.110   0.778   2.173  0.00  0.00    -0.078 A 
ATOM      5  C3  OXE d   1       0.259   1.879   2.208  0.00  0.00     0.003 A 
ATOM      6  C4  OXE d   1       0.367   2.890   1.246  0.00  0.00    -0.002 A 
ATOM      7  C5  OXE d   1       1.403   2.867   0.306  0.00  0.00    -0.002 A 
ATOM      8  C6  OXE d   1       2.330   1.832   0.339  0.00  0.00     0.003 A 
ENDROOT
TORSDOF 0
ENDMDL
