MODEL 1
REMARK minimizedAffinity 14.0993214
REMARK minimizedRMSD -1
REMARK  0 active torsions:
REMARK  status: ('A' for Active; 'I' for Inactive)
ROOT
ATOM      1  C2' OXE d   1       3.058   5.483  -6.000  0.00  0.00     0.078 C 
ATOM      2  C1' OXE d   1       1.855   3.280  -4.743  0.00  0.00     0.078 C 
ATOM      3  C1  OXE d   1       3.308   3.553  -4.445  0.00  0.00    -0.078 A 
ATOM      4  C2  OXE d   1       3.901   4.605  -5.101  0.00  0.00    -0.078 A 
ATOM      5  C3  OXE d   1       5.224   4.934  -4.821  0.00  0.00     0.003 A 
ATOM      6  C4  OXE d   1       6.000   4.110  -3.996  0.00  0.00    -0.002 A 
ATOM      7  C5  OXE d   1       5.426   3.010  -3.349  0.00  0.00    -0.002 A 
ATOM      8  C6  OXE d   1       4.073   2.743  -3.530  0.00  0.00     0.003 A 
ENDROOT
TORSDOF 0
ENDMDL
