MODEL 1
REMARK minimizedAffinity 20.7431335
REMARK minimizedRMSD -1
REMARK  0 active torsions:
REMARK  status: ('A' for Active; 'I' for Inactive)
ROOT
ATOM      1  C2' OXE d   1      -5.999  -3.424  -2.988  0.00  0.00     0.078 C 
ATOM      2  C1' OXE d   1      -5.956  -5.858  -1.590  0.00  0.00     0.078 C 
ATOM      3  C1  OXE d   1      -4.645  -5.322  -2.110  0.00  0.00    -0.078 A 
ATOM      4  C2  OXE d   1      -4.683  -4.154  -2.833  0.00  0.00    -0.078 A 
ATOM      5  C3  OXE d   1      -3.496  -3.587  -3.288  0.00  0.00     0.003 A 
ATOM      6  C4  OXE d   1      -2.283  -4.273  -3.149  0.00  0.00    -0.002 A 
ATOM      7  C5  OXE d   1      -2.229  -5.484  -2.451  0.00  0.00    -0.002 A 
ATOM      8  C6  OXE d   1      -3.392  -6.000  -1.889  0.00  0.00     0.003 A 
ENDROOT
TORSDOF 0
ENDMDL
