MODEL 1
REMARK minimizedAffinity 6.76400805
REMARK minimizedRMSD -1
REMARK  0 active torsions:
REMARK  status: ('A' for Active; 'I' for Inactive)
ROOT
ATOM      1  C2' OXE d   1       1.112   1.170  -1.535  0.00  0.00     0.078 C 
ATOM      2  C1' OXE d   1       0.999  -1.268  -0.149  0.00  0.00     0.078 C 
ATOM      3  C1  OXE d   1       1.827  -0.158   0.448  0.00  0.00    -0.078 A 
ATOM      4  C2  OXE d   1       1.915   1.016  -0.261  0.00  0.00    -0.078 A 
ATOM      5  C3  OXE d   1       2.621   2.091   0.270  0.00  0.00     0.003 A 
ATOM      6  C4  OXE d   1       3.369   1.937   1.444  0.00  0.00    -0.002 A 
ATOM      7  C5  OXE d   1       3.325   0.737   2.161  0.00  0.00    -0.002 A 
ATOM      8  C6  OXE d   1       2.527  -0.304   1.700  0.00  0.00     0.003 A 
ENDROOT
TORSDOF 0
ENDMDL
