MODEL 1
REMARK minimizedAffinity 19.6333389
REMARK minimizedRMSD -1
REMARK  0 active torsions:
REMARK  status: ('A' for Active; 'I' for Inactive)
ROOT
ATOM      1  C2' OXE d   1      -2.400  -2.578  -4.042  0.00  0.00     0.078 C 
ATOM      2  C1' OXE d   1      -4.646  -3.570  -2.681  0.00  0.00     0.078 C 
ATOM      3  C1  OXE d   1      -3.437  -3.191  -1.862  0.00  0.00    -0.078 A 
ATOM      4  C2  OXE d   1      -2.326  -2.750  -2.540  0.00  0.00    -0.078 A 
ATOM      5  C3  OXE d   1      -1.204  -2.336  -1.829  0.00  0.00     0.003 A 
ATOM      6  C4  OXE d   1      -1.140  -2.508  -0.441  0.00  0.00    -0.002 A 
ATOM      7  C5  OXE d   1      -2.246  -2.993   0.265  0.00  0.00    -0.002 A 
ATOM      8  C6  OXE d   1      -3.415  -3.298  -0.424  0.00  0.00     0.003 A 
ENDROOT
TORSDOF 0
ENDMDL
