MODEL 1
REMARK minimizedAffinity 9.32984447
REMARK minimizedRMSD -1
REMARK  0 active torsions:
REMARK  status: ('A' for Active; 'I' for Inactive)
ROOT
ATOM      1  C2' OXE d   1       0.573   4.308   1.036  0.00  0.00     0.078 C 
ATOM      2  C1' OXE d   1       2.741   3.109  -0.283  0.00  0.00     0.078 C 
ATOM      3  C1  OXE d   1       2.096   2.346   0.847  0.00  0.00    -0.078 A 
ATOM      4  C2  OXE d   1       1.065   2.961   1.517  0.00  0.00    -0.078 A 
ATOM      5  C3  OXE d   1       0.399   2.279   2.532  0.00  0.00     0.003 A 
ATOM      6  C4  OXE d   1       0.868   1.037   2.977  0.00  0.00    -0.002 A 
ATOM      7  C5  OXE d   1       1.941   0.411   2.335  0.00  0.00    -0.002 A 
ATOM      8  C6  OXE d   1       2.538   1.032   1.243  0.00  0.00     0.003 A 
ENDROOT
TORSDOF 0
ENDMDL
