MODEL 1
REMARK minimizedAffinity 17.2564659
REMARK minimizedRMSD -1
REMARK  0 active torsions:
REMARK  status: ('A' for Active; 'I' for Inactive)
ROOT
ATOM      1  C2' OXE d   1       5.821   0.731  -2.307  0.00  0.00     0.078 C 
ATOM      2  C1' OXE d   1       4.664   3.288  -2.364  0.00  0.00     0.078 C 
ATOM      3  C1  OXE d   1       4.321   2.335  -3.482  0.00  0.00    -0.078 A 
ATOM      4  C2  OXE d   1       4.928   1.103  -3.471  0.00  0.00    -0.078 A 
ATOM      5  C3  OXE d   1       4.605   0.166  -4.448  0.00  0.00     0.003 A 
ATOM      6  C4  OXE d   1       3.786   0.521  -5.527  0.00  0.00    -0.002 A 
ATOM      7  C5  OXE d   1       3.189   1.785  -5.579  0.00  0.00    -0.002 A 
ATOM      8  C6  OXE d   1       3.411   2.687  -4.544  0.00  0.00     0.003 A 
ENDROOT
TORSDOF 0
ENDMDL
