MODEL 1
REMARK minimizedAffinity 7.69308472
REMARK minimizedRMSD -1
REMARK  0 active torsions:
REMARK  status: ('A' for Active; 'I' for Inactive)
ROOT
ATOM      1  C2' OXE d   1      -2.063  -4.497  -1.605  0.00  0.00     0.078 C 
ATOM      2  C1' OXE d   1      -3.069  -2.415  -3.195  0.00  0.00     0.078 C 
ATOM      3  C1  OXE d   1      -3.945  -3.624  -2.983  0.00  0.00    -0.078 A 
ATOM      4  C2  OXE d   1      -3.426  -4.658  -2.242  0.00  0.00    -0.078 A 
ATOM      5  C3  OXE d   1      -4.213  -5.774  -1.970  0.00  0.00     0.003 A 
ATOM      6  C4  OXE d   1      -5.469  -5.919  -2.572  0.00  0.00    -0.002 A 
ATOM      7  C5  OXE d   1      -6.000  -4.895  -3.363  0.00  0.00    -0.002 A 
ATOM      8  C6  OXE d   1      -5.270  -3.725  -3.543  0.00  0.00     0.003 A 
ENDROOT
TORSDOF 0
ENDMDL
