MODEL 1
REMARK minimizedAffinity 10.4897766
REMARK minimizedRMSD -1
REMARK  0 active torsions:
REMARK  status: ('A' for Active; 'I' for Inactive)
ROOT
ATOM      1  C2' OXE d   1       2.888   1.968   0.981  0.00  0.00     0.078 C 
ATOM      2  C1' OXE d   1       4.228   0.280   2.780  0.00  0.00     0.078 C 
ATOM      3  C1  OXE d   1       2.827   0.714   3.132  0.00  0.00    -0.078 A 
ATOM      4  C2  OXE d   1       2.196   1.577   2.269  0.00  0.00    -0.078 A 
ATOM      5  C3  OXE d   1       0.883   1.965   2.519  0.00  0.00     0.003 A 
ATOM      6  C4  OXE d   1       0.254   1.607   3.718  0.00  0.00    -0.002 A 
ATOM      7  C5  OXE d   1       0.893   0.760   4.630  0.00  0.00    -0.002 A 
ATOM      8  C6  OXE d   1       2.161   0.271   4.333  0.00  0.00     0.003 A 
ENDROOT
TORSDOF 0
ENDMDL
