MODEL 1
REMARK minimizedAffinity 0.18326883
REMARK minimizedRMSD -1
REMARK  0 active torsions:
REMARK  status: ('A' for Active; 'I' for Inactive)
ROOT
ATOM      1  C2' OXE d   1       1.787   2.854  -3.096  0.00  0.00     0.078 C 
ATOM      2  C1' OXE d   1       3.718   1.867  -4.878  0.00  0.00     0.078 C 
ATOM      3  C1  OXE d   1       3.354   3.327  -4.974  0.00  0.00    -0.078 A 
ATOM      4  C2  OXE d   1       2.374   3.791  -4.129  0.00  0.00    -0.078 A 
ATOM      5  C3  OXE d   1       2.039   5.142  -4.139  0.00  0.00     0.003 A 
ATOM      6  C4  OXE d   1       2.580   6.000  -5.104  0.00  0.00    -0.002 A 
ATOM      7  C5  OXE d   1       3.550   5.539  -6.000  0.00  0.00    -0.002 A 
ATOM      8  C6  OXE d   1       3.979   4.218  -5.920  0.00  0.00     0.003 A 
ENDROOT
TORSDOF 0
ENDMDL
