MODEL 1
REMARK minimizedAffinity 13.9063597
REMARK minimizedRMSD -1
REMARK  0 active torsions:
REMARK  status: ('A' for Active; 'I' for Inactive)
ROOT
ATOM      1  C2' OXE d   1       0.524   2.900  -2.440  0.00  0.00     0.078 C 
ATOM      2  C1' OXE d   1       2.305   1.980  -0.475  0.00  0.00     0.078 C 
ATOM      3  C1  OXE d   1       2.744   1.900  -1.916  0.00  0.00    -0.078 A 
ATOM      4  C2  OXE d   1       1.848   2.309  -2.873  0.00  0.00    -0.078 A 
ATOM      5  C3  OXE d   1       2.222   2.307  -4.214  0.00  0.00     0.003 A 
ATOM      6  C4  OXE d   1       3.445   1.749  -4.608  0.00  0.00    -0.002 A 
ATOM      7  C5  OXE d   1       4.356   1.289  -3.651  0.00  0.00    -0.002 A 
ATOM      8  C6  OXE d   1       4.039   1.397  -2.301  0.00  0.00     0.003 A 
ENDROOT
TORSDOF 0
ENDMDL
