MODEL 1
REMARK minimizedAffinity 9.6673317
REMARK minimizedRMSD -1
REMARK  0 active torsions:
REMARK  status: ('A' for Active; 'I' for Inactive)
ROOT
ATOM      1  C2' OXE d   1      -5.998  -0.069   5.767  0.00  0.00     0.078 C 
ATOM      2  C1' OXE d   1      -4.722   0.192   3.280  0.00  0.00     0.078 C 
ATOM      3  C1  OXE d   1      -5.050   1.454   4.038  0.00  0.00    -0.078 A 
ATOM      4  C2  OXE d   1      -5.717   1.319   5.233  0.00  0.00    -0.078 A 
ATOM      5  C3  OXE d   1      -5.995   2.448   5.998  0.00  0.00     0.003 A 
ATOM      6  C4  OXE d   1      -5.740   3.728   5.492  0.00  0.00    -0.002 A 
ATOM      7  C5  OXE d   1      -5.098   3.890   4.259  0.00  0.00    -0.002 A 
ATOM      8  C6  OXE d   1      -4.709   2.764   3.541  0.00  0.00     0.003 A 
ENDROOT
TORSDOF 0
ENDMDL
