MODEL 1
REMARK minimizedAffinity 13.3890724
REMARK minimizedRMSD -1
REMARK  0 active torsions:
REMARK  status: ('A' for Active; 'I' for Inactive)
ROOT
ATOM      1  C2' OXE d   1       0.083   1.376   2.894  0.00  0.00     0.078 C 
ATOM      2  C1' OXE d   1       0.256  -0.800   1.130  0.00  0.00     0.078 C 
ATOM      3  C1  OXE d   1       1.336   0.251   1.059  0.00  0.00    -0.078 A 
ATOM      4  C2  OXE d   1       1.217   1.336   1.893  0.00  0.00    -0.078 A 
ATOM      5  C3  OXE d   1       2.214   2.307   1.906  0.00  0.00     0.003 A 
ATOM      6  C4  OXE d   1       3.255   2.268   0.971  0.00  0.00    -0.002 A 
ATOM      7  C5  OXE d   1       3.372   1.192   0.084  0.00  0.00    -0.002 A 
ATOM      8  C6  OXE d   1       2.447   0.156   0.144  0.00  0.00     0.003 A 
ENDROOT
TORSDOF 0
ENDMDL
