MODEL 1
REMARK minimizedAffinity 7.37116337
REMARK minimizedRMSD -1
REMARK  0 active torsions:
REMARK  status: ('A' for Active; 'I' for Inactive)
ROOT
ATOM      1  C2' OXE d   1      -5.149   3.085   2.616  0.00  0.00     0.078 C 
ATOM      2  C1' OXE d   1      -5.994   3.950   5.150  0.00  0.00     0.078 C 
ATOM      3  C1  OXE d   1      -5.796   2.470   4.942  0.00  0.00    -0.078 A 
ATOM      4  C2  OXE d   1      -5.428   2.051   3.686  0.00  0.00    -0.078 A 
ATOM      5  C3  OXE d   1      -5.179   0.701   3.455  0.00  0.00     0.003 A 
ATOM      6  C4  OXE d   1      -5.449  -0.250   4.447  0.00  0.00    -0.002 A 
ATOM      7  C5  OXE d   1      -5.863   0.152   5.721  0.00  0.00    -0.002 A 
ATOM      8  C6  OXE d   1      -6.000   1.508   5.997  0.00  0.00     0.003 A 
ENDROOT
TORSDOF 0
ENDMDL
