MODEL 1
REMARK minimizedAffinity 8.8213253
REMARK minimizedRMSD -1
REMARK  0 active torsions:
REMARK  status: ('A' for Active; 'I' for Inactive)
ROOT
ATOM      1  C2' OXE d   1      -4.996   4.748   5.593  0.00  0.00     0.078 C 
ATOM      2  C1' OXE d   1      -2.724   3.518   4.496  0.00  0.00     0.078 C 
ATOM      3  C1  OXE d   1      -3.834   2.627   4.995  0.00  0.00    -0.078 A 
ATOM      4  C2  OXE d   1      -4.922   3.236   5.573  0.00  0.00    -0.078 A 
ATOM      5  C3  OXE d   1      -5.998   2.464   6.000  0.00  0.00     0.003 A 
ATOM      6  C4  OXE d   1      -5.917   1.066   5.987  0.00  0.00    -0.002 A 
ATOM      7  C5  OXE d   1      -4.801   0.425   5.439  0.00  0.00    -0.002 A 
ATOM      8  C6  OXE d   1      -3.772   1.189   4.901  0.00  0.00     0.003 A 
ENDROOT
TORSDOF 0
ENDMDL
