MODEL 1
REMARK minimizedAffinity 7.9203701
REMARK minimizedRMSD -1
REMARK  0 active torsions:
REMARK  status: ('A' for Active; 'I' for Inactive)
ROOT
ATOM      1  C2' OXE d   1      -1.772  -4.950   1.784  0.00  0.00     0.078 C 
ATOM      2  C1' OXE d   1      -1.359  -2.182   2.005  0.00  0.00     0.078 C 
ATOM      3  C1  OXE d   1      -1.919  -2.709   0.707  0.00  0.00    -0.078 A 
ATOM      4  C2  OXE d   1      -2.073  -4.069   0.591  0.00  0.00    -0.078 A 
ATOM      5  C3  OXE d   1      -2.636  -4.603  -0.565  0.00  0.00     0.003 A 
ATOM      6  C4  OXE d   1      -2.903  -3.783  -1.667  0.00  0.00    -0.002 A 
ATOM      7  C5  OXE d   1      -2.715  -2.399  -1.585  0.00  0.00    -0.002 A 
ATOM      8  C6  OXE d   1      -2.265  -1.843  -0.392  0.00  0.00     0.003 A 
ENDROOT
TORSDOF 0
ENDMDL
