MODEL 1
REMARK minimizedAffinity 4.0633812
REMARK minimizedRMSD -1
REMARK  0 active torsions:
REMARK  status: ('A' for Active; 'I' for Inactive)
ROOT
ATOM      1  C2' OXE d   1      -2.363   2.229   2.095  0.00  0.00     0.078 C 
ATOM      2  C1' OXE d   1      -1.774  -0.498   2.403  0.00  0.00     0.078 C 
ATOM      3  C1  OXE d   1      -0.683   0.402   1.879  0.00  0.00    -0.078 A 
ATOM      4  C2  OXE d   1      -0.995   1.727   1.687  0.00  0.00    -0.078 A 
ATOM      5  C3  OXE d   1      -0.009   2.611   1.258  0.00  0.00     0.003 A 
ATOM      6  C4  OXE d   1       1.251   2.137   0.874  0.00  0.00    -0.002 A 
ATOM      7  C5  OXE d   1       1.576   0.784   1.023  0.00  0.00    -0.002 A 
ATOM      8  C6  OXE d   1       0.636  -0.087   1.563  0.00  0.00     0.003 A 
ENDROOT
TORSDOF 0
ENDMDL
