MODEL 1
REMARK minimizedAffinity 6.46156597
REMARK minimizedRMSD -1
REMARK  0 active torsions:
REMARK  status: ('A' for Active; 'I' for Inactive)
ROOT
ATOM      1  C2' OXE d   1      -3.984  -0.965   3.577  0.00  0.00     0.078 C 
ATOM      2  C1' OXE d   1      -4.751   1.682   4.111  0.00  0.00     0.078 C 
ATOM      3  C1  OXE d   1      -3.473   1.462   3.341  0.00  0.00    -0.078 A 
ATOM      4  C2  OXE d   1      -3.081   0.162   3.125  0.00  0.00    -0.078 A 
ATOM      5  C3  OXE d   1      -1.939  -0.097   2.373  0.00  0.00     0.003 A 
ATOM      6  C4  OXE d   1      -1.104   0.951   1.967  0.00  0.00    -0.002 A 
ATOM      7  C5  OXE d   1      -1.464   2.280   2.211  0.00  0.00    -0.002 A 
ATOM      8  C6  OXE d   1      -2.664   2.554   2.858  0.00  0.00     0.003 A 
ENDROOT
TORSDOF 0
ENDMDL
