MODEL 1
REMARK minimizedAffinity 12.3912582
REMARK minimizedRMSD -1
REMARK  0 active torsions:
REMARK  status: ('A' for Active; 'I' for Inactive)
ROOT
ATOM      1  C2' OXE d   1      -3.174  -2.905  -2.825  0.00  0.00     0.078 C 
ATOM      2  C1' OXE d   1      -3.262  -2.626  -5.616  0.00  0.00     0.078 C 
ATOM      3  C1  OXE d   1      -2.003  -3.188  -5.005  0.00  0.00    -0.078 A 
ATOM      4  C2  OXE d   1      -1.951  -3.277  -3.635  0.00  0.00    -0.078 A 
ATOM      5  C3  OXE d   1      -0.834  -3.838  -3.022  0.00  0.00     0.003 A 
ATOM      6  C4  OXE d   1       0.296  -4.171  -3.778  0.00  0.00    -0.002 A 
ATOM      7  C5  OXE d   1       0.279  -4.051  -5.172  0.00  0.00    -0.002 A 
ATOM      8  C6  OXE d   1      -0.876  -3.602  -5.803  0.00  0.00     0.003 A 
ENDROOT
TORSDOF 0
ENDMDL
