MODEL 1
REMARK minimizedAffinity 4.4661603
REMARK minimizedRMSD -1
REMARK  0 active torsions:
REMARK  status: ('A' for Active; 'I' for Inactive)
ROOT
ATOM      1  C   UNL d   1       1.382   4.522   0.053  0.00  0.00     0.172 C 
ATOM      2  N   UNL d   1       0.336   4.886  -0.874  0.00  0.00    -0.070 N 
ATOM      3  C1  UNL d   1      -0.008   4.190  -2.002  0.00  0.00    -0.004 A 
ATOM      4  C2  UNL d   1      -1.047   4.861  -2.611  0.00  0.00    -0.047 A 
ATOM      5  C3  UNL d   1      -1.336   6.000  -1.822  0.00  0.00    -0.047 A 
ATOM      6  C4  UNL d   1      -0.465   5.991  -0.753  0.00  0.00    -0.004 A 
ENDROOT
TORSDOF 0
ENDMDL
