MODEL 1
REMARK minimizedAffinity 2.84131265
REMARK minimizedRMSD -1
REMARK  0 active torsions:
REMARK  status: ('A' for Active; 'I' for Inactive)
ROOT
ATOM      1  C   UNL d   1       0.735   4.052  -0.162  0.00  0.00     0.172 C 
ATOM      2  N   UNL d   1       0.499   3.362   1.084  0.00  0.00    -0.070 N 
ATOM      3  C1  UNL d   1       1.394   2.550   1.729  0.00  0.00    -0.004 A 
ATOM      4  C2  UNL d   1       0.791   2.087   2.879  0.00  0.00    -0.047 A 
ATOM      5  C3  UNL d   1      -0.511   2.639   2.926  0.00  0.00    -0.047 A 
ATOM      6  C4  UNL d   1      -0.666   3.424   1.803  0.00  0.00    -0.004 A 
ENDROOT
TORSDOF 0
ENDMDL
