MODEL 1
REMARK minimizedAffinity -0.96265018
REMARK minimizedRMSD -1
REMARK  0 active torsions:
REMARK  status: ('A' for Active; 'I' for Inactive)
ROOT
ATOM      1  C   UNL d   1      -5.999   3.631  -5.947  0.00  0.00     0.172 C 
ATOM      2  N   UNL d   1      -5.423   3.381  -4.646  0.00  0.00    -0.070 N 
ATOM      3  C1  UNL d   1      -6.000   2.645  -3.646  0.00  0.00    -0.004 A 
ATOM      4  C2  UNL d   1      -5.137   2.644  -2.571  0.00  0.00    -0.047 A 
ATOM      5  C3  UNL d   1      -4.003   3.407  -2.938  0.00  0.00    -0.047 A 
ATOM      6  C4  UNL d   1      -4.206   3.851  -4.227  0.00  0.00    -0.004 A 
ENDROOT
TORSDOF 0
ENDMDL
