MODEL 1
REMARK minimizedAffinity -0.26317659
REMARK minimizedRMSD -1
REMARK  0 active torsions:
REMARK  status: ('A' for Active; 'I' for Inactive)
ROOT
ATOM      1  C   UNL d   1       0.015   1.965   2.644  0.00  0.00     0.172 C 
ATOM      2  N   UNL d   1       0.142   3.105   1.767  0.00  0.00    -0.070 N 
ATOM      3  C1  UNL d   1       1.272   3.462   1.080  0.00  0.00    -0.004 A 
ATOM      4  C2  UNL d   1       0.986   4.601   0.359  0.00  0.00    -0.047 A 
ATOM      5  C3  UNL d   1      -0.363   4.941   0.622  0.00  0.00    -0.047 A 
ATOM      6  C4  UNL d   1      -0.861   3.999   1.497  0.00  0.00    -0.004 A 
ENDROOT
TORSDOF 0
ENDMDL
