MODEL 1
REMARK minimizedAffinity -0.732967734
REMARK minimizedRMSD -1
REMARK  0 active torsions:
REMARK  status: ('A' for Active; 'I' for Inactive)
ROOT
ATOM      1  C   UNL d   1       0.510   0.411  -1.119  0.00  0.00     0.172 C 
ATOM      2  N   UNL d   1       0.069   1.771  -0.918  0.00  0.00    -0.070 N 
ATOM      3  C1  UNL d   1       0.154   2.782  -1.838  0.00  0.00    -0.004 A 
ATOM      4  C2  UNL d   1      -0.372   3.919  -1.265  0.00  0.00    -0.047 A 
ATOM      5  C3  UNL d   1      -0.788   3.580   0.045  0.00  0.00    -0.047 A 
ATOM      6  C4  UNL d   1      -0.503   2.244   0.233  0.00  0.00    -0.004 A 
ENDROOT
TORSDOF 0
ENDMDL
