MODEL 1
REMARK minimizedAffinity 3.36375856
REMARK minimizedRMSD -1
REMARK  0 active torsions:
REMARK  status: ('A' for Active; 'I' for Inactive)
ROOT
ATOM      1  C   UNL d   1       1.836   5.257  -0.821  0.00  0.00     0.172 C 
ATOM      2  N   UNL d   1       0.869   4.462  -0.101  0.00  0.00    -0.070 N 
ATOM      3  C1  UNL d   1       1.029   3.154   0.271  0.00  0.00    -0.004 A 
ATOM      4  C2  UNL d   1      -0.113   2.760   0.934  0.00  0.00    -0.047 A 
ATOM      5  C3  UNL d   1      -0.991   3.870   0.961  0.00  0.00    -0.047 A 
ATOM      6  C4  UNL d   1      -0.358   4.910   0.313  0.00  0.00    -0.004 A 
ENDROOT
TORSDOF 0
ENDMDL
