MODEL 1
REMARK minimizedAffinity -0.0638784021
REMARK minimizedRMSD -1
REMARK  0 active torsions:
REMARK  status: ('A' for Active; 'I' for Inactive)
ROOT
ATOM      1  C   UNL d   1      -6.000   1.162  -1.511  0.00  0.00     0.172 C 
ATOM      2  N   UNL d   1      -5.544   2.246  -2.349  0.00  0.00    -0.070 N 
ATOM      3  C1  UNL d   1      -5.999   3.537  -2.302  0.00  0.00    -0.004 A 
ATOM      4  C2  UNL d   1      -5.316   4.260  -3.257  0.00  0.00    -0.047 A 
ATOM      5  C3  UNL d   1      -4.422   3.372  -3.901  0.00  0.00    -0.047 A 
ATOM      6  C4  UNL d   1      -4.584   2.133  -3.319  0.00  0.00    -0.004 A 
ENDROOT
TORSDOF 0
ENDMDL
