MODEL 1
REMARK minimizedAffinity 2.34343767
REMARK minimizedRMSD -1
REMARK  0 active torsions:
REMARK  status: ('A' for Active; 'I' for Inactive)
ROOT
ATOM      1  C   UNL d   1       0.932  -0.461  -1.512  0.00  0.00     0.172 C 
ATOM      2  N   UNL d   1       0.550  -1.822  -1.808  0.00  0.00    -0.070 N 
ATOM      3  C1  UNL d   1       0.144  -2.290  -3.029  0.00  0.00    -0.004 A 
ATOM      4  C2  UNL d   1      -0.129  -3.634  -2.897  0.00  0.00    -0.047 A 
ATOM      5  C3  UNL d   1       0.121  -3.986  -1.549  0.00  0.00    -0.047 A 
ATOM      6  C4  UNL d   1       0.540  -2.846  -0.898  0.00  0.00    -0.004 A 
ENDROOT
TORSDOF 0
ENDMDL
