MODEL 1
REMARK minimizedAffinity -0.74901849
REMARK minimizedRMSD -1
REMARK  0 active torsions:
REMARK  status: ('A' for Active; 'I' for Inactive)
ROOT
ATOM      1  C   UNL d   1      -4.416   3.968  -5.989  0.00  0.00     0.172 C 
ATOM      2  N   UNL d   1      -4.823   3.381  -4.734  0.00  0.00    -0.070 N 
ATOM      3  C1  UNL d   1      -5.983   2.688  -4.516  0.00  0.00    -0.004 A 
ATOM      4  C2  UNL d   1      -5.998   2.294  -3.196  0.00  0.00    -0.047 A 
ATOM      5  C3  UNL d   1      -4.805   2.768  -2.599  0.00  0.00    -0.047 A 
ATOM      6  C4  UNL d   1      -4.096   3.437  -3.574  0.00  0.00    -0.004 A 
ENDROOT
TORSDOF 0
ENDMDL
