MODEL 1
REMARK minimizedAffinity -2.40728879
REMARK minimizedRMSD -1
REMARK  0 active torsions:
REMARK  status: ('A' for Active; 'I' for Inactive)
ROOT
ATOM      1  C   UNL d   1       1.910  -1.870  -2.111  0.00  0.00     0.172 C 
ATOM      2  N   UNL d   1       1.636  -1.003  -0.988  0.00  0.00    -0.070 N 
ATOM      3  C1  UNL d   1       1.435  -1.410   0.304  0.00  0.00    -0.004 A 
ATOM      4  C2  UNL d   1       1.204  -0.287   1.069  0.00  0.00    -0.047 A 
ATOM      5  C3  UNL d   1       1.268   0.833   0.207  0.00  0.00    -0.047 A 
ATOM      6  C4  UNL d   1       1.537   0.361  -1.061  0.00  0.00    -0.004 A 
ENDROOT
TORSDOF 0
ENDMDL
