MODEL 1
REMARK minimizedAffinity -1.74344707
REMARK minimizedRMSD -1
REMARK  0 active torsions:
REMARK  status: ('A' for Active; 'I' for Inactive)
ROOT
ATOM      1  C   UNL d   1      -5.771   3.213  -4.665  0.00  0.00     0.172 C 
ATOM      2  N   UNL d   1      -4.346   3.422  -4.563  0.00  0.00    -0.070 N 
ATOM      3  C1  UNL d   1      -3.517   2.837  -3.643  0.00  0.00    -0.004 A 
ATOM      4  C2  UNL d   1      -2.238   3.292  -3.878  0.00  0.00    -0.047 A 
ATOM      5  C3  UNL d   1      -2.300   4.182  -4.976  0.00  0.00    -0.047 A 
ATOM      6  C4  UNL d   1      -3.617   4.244  -5.381  0.00  0.00    -0.004 A 
ENDROOT
TORSDOF 0
ENDMDL
