MODEL 1
REMARK minimizedAffinity -1.88901186
REMARK minimizedRMSD -1
REMARK  0 active torsions:
REMARK  status: ('A' for Active; 'I' for Inactive)
ROOT
ATOM      1  C   UNL d   1       3.314  -1.188  -1.399  0.00  0.00     0.172 C 
ATOM      2  N   UNL d   1       2.268  -0.729  -0.516  0.00  0.00    -0.070 N 
ATOM      3  C1  UNL d   1       1.315  -1.518   0.070  0.00  0.00    -0.004 A 
ATOM      4  C2  UNL d   1       0.506  -0.706   0.836  0.00  0.00    -0.047 A 
ATOM      5  C3  UNL d   1       0.990   0.618   0.704  0.00  0.00    -0.047 A 
ATOM      6  C4  UNL d   1       2.081   0.574  -0.138  0.00  0.00    -0.004 A 
ENDROOT
TORSDOF 0
ENDMDL
