MODEL 1
REMARK minimizedAffinity -0.0896782875
REMARK minimizedRMSD -1
REMARK  0 active torsions:
REMARK  status: ('A' for Active; 'I' for Inactive)
ROOT
ATOM      1  C   UNL d   1       0.651  -0.382   1.801  0.00  0.00     0.172 C 
ATOM      2  N   UNL d   1       1.389  -0.316   0.561  0.00  0.00    -0.070 N 
ATOM      3  C1  UNL d   1       2.334  -1.216   0.146  0.00  0.00    -0.004 A 
ATOM      4  C2  UNL d   1       2.800  -0.802  -1.083  0.00  0.00    -0.047 A 
ATOM      5  C3  UNL d   1       2.112   0.389  -1.417  0.00  0.00    -0.047 A 
ATOM      6  C4  UNL d   1       1.245   0.667  -0.382  0.00  0.00    -0.004 A 
ENDROOT
TORSDOF 0
ENDMDL
