MODEL 1
REMARK minimizedAffinity 1.55332673
REMARK minimizedRMSD -1
REMARK  0 active torsions:
REMARK  status: ('A' for Active; 'I' for Inactive)
ROOT
ATOM      1  C   UNL d   1      -3.509  -2.227   1.947  0.00  0.00     0.172 C 
ATOM      2  N   UNL d   1      -2.272  -1.516   2.173  0.00  0.00    -0.070 N 
ATOM      3  C1  UNL d   1      -2.163  -0.222   2.607  0.00  0.00    -0.004 A 
ATOM      4  C2  UNL d   1      -0.822   0.082   2.696  0.00  0.00    -0.047 A 
ATOM      5  C3  UNL d   1      -0.100  -1.069   2.301  0.00  0.00    -0.047 A 
ATOM      6  C4  UNL d   1      -1.022  -2.044   1.983  0.00  0.00    -0.004 A 
ENDROOT
TORSDOF 0
ENDMDL
