MODEL 1
REMARK minimizedAffinity 0.205989823
REMARK minimizedRMSD -1
REMARK  0 active torsions:
REMARK  status: ('A' for Active; 'I' for Inactive)
ROOT
ATOM      1  C   UNL d   1       3.363   0.671  -1.789  0.00  0.00     0.172 C 
ATOM      2  N   UNL d   1       2.641   0.024  -0.719  0.00  0.00    -0.070 N 
ATOM      3  C1  UNL d   1       2.174   0.637   0.413  0.00  0.00    -0.004 A 
ATOM      4  C2  UNL d   1       1.543  -0.318   1.180  0.00  0.00    -0.047 A 
ATOM      5  C3  UNL d   1       1.634  -1.548   0.486  0.00  0.00    -0.047 A 
ATOM      6  C4  UNL d   1       2.319  -1.307  -0.687  0.00  0.00    -0.004 A 
ENDROOT
TORSDOF 0
ENDMDL
