MODEL 1
REMARK minimizedAffinity 0.739356041
REMARK minimizedRMSD -1
REMARK  0 active torsions:
REMARK  status: ('A' for Active; 'I' for Inactive)
ROOT
ATOM      1  C   UNL d   1       4.005  -0.531  -1.241  0.00  0.00     0.172 C 
ATOM      2  N   UNL d   1       2.760  -0.468  -0.513  0.00  0.00    -0.070 N 
ATOM      3  C1  UNL d   1       2.287   0.622   0.168  0.00  0.00    -0.004 A 
ATOM      4  C2  UNL d   1       1.073   0.279   0.723  0.00  0.00    -0.047 A 
ATOM      5  C3  UNL d   1       0.808  -1.064   0.365  0.00  0.00    -0.047 A 
ATOM      6  C4  UNL d   1       1.868  -1.502  -0.400  0.00  0.00    -0.004 A 
ENDROOT
TORSDOF 0
ENDMDL
