MODEL 1
REMARK minimizedAffinity -0.235281512
REMARK minimizedRMSD -1
REMARK  0 active torsions:
REMARK  status: ('A' for Active; 'I' for Inactive)
ROOT
ATOM      1  C   UNL d   1      -0.659  -1.537   1.620  0.00  0.00     0.172 C 
ATOM      2  N   UNL d   1       0.404  -0.903   0.876  0.00  0.00    -0.070 N 
ATOM      3  C1  UNL d   1       0.662   0.441   0.842  0.00  0.00    -0.004 A 
ATOM      4  C2  UNL d   1       1.753   0.640   0.023  0.00  0.00    -0.047 A 
ATOM      5  C3  UNL d   1       2.164  -0.628  -0.451  0.00  0.00    -0.047 A 
ATOM      6  C4  UNL d   1       1.311  -1.566   0.093  0.00  0.00    -0.004 A 
ENDROOT
TORSDOF 0
ENDMDL
