MODEL 1
REMARK minimizedAffinity 0.290893495
REMARK minimizedRMSD -1
REMARK  0 active torsions:
REMARK  status: ('A' for Active; 'I' for Inactive)
ROOT
ATOM      1  C   UNL d   1      -0.048  -0.864   2.408  0.00  0.00     0.172 C 
ATOM      2  N   UNL d   1       0.736  -0.422   1.280  0.00  0.00    -0.070 N 
ATOM      3  C1  UNL d   1       1.142  -1.207   0.233  0.00  0.00    -0.004 A 
ATOM      4  C2  UNL d   1       1.865  -0.415  -0.633  0.00  0.00    -0.047 A 
ATOM      5  C3  UNL d   1       1.896   0.890  -0.087  0.00  0.00    -0.047 A 
ATOM      6  C4  UNL d   1       1.189   0.858   1.097  0.00  0.00    -0.004 A 
ENDROOT
TORSDOF 0
ENDMDL
