MODEL 1
REMARK minimizedAffinity 3.3469255
REMARK minimizedRMSD -1
REMARK  0 active torsions:
REMARK  status: ('A' for Active; 'I' for Inactive)
ROOT
ATOM      1  C   UNL d   1      -0.694   5.040  -2.814  0.00  0.00     0.172 C 
ATOM      2  N   UNL d   1      -0.855   3.709  -3.349  0.00  0.00    -0.070 N 
ATOM      3  C1  UNL d   1      -2.047   3.117  -3.670  0.00  0.00    -0.004 A 
ATOM      4  C2  UNL d   1      -1.776   1.853  -4.147  0.00  0.00    -0.047 A 
ATOM      5  C3  UNL d   1      -0.372   1.679  -4.111  0.00  0.00    -0.047 A 
ATOM      6  C4  UNL d   1       0.173   2.843  -3.613  0.00  0.00    -0.004 A 
ENDROOT
TORSDOF 0
ENDMDL
