MODEL 1
REMARK minimizedAffinity 2.6372714
REMARK minimizedRMSD -1
REMARK  0 active torsions:
REMARK  status: ('A' for Active; 'I' for Inactive)
ROOT
ATOM      1  C   UNL d   1       2.233  -1.515  -1.189  0.00  0.00     0.172 C 
ATOM      2  N   UNL d   1       1.466  -1.067  -0.049  0.00  0.00    -0.070 N 
ATOM      3  C1  UNL d   1       0.518  -1.801   0.612  0.00  0.00    -0.004 A 
ATOM      4  C2  UNL d   1       0.021  -1.023   1.635  0.00  0.00    -0.047 A 
ATOM      5  C3  UNL d   1       0.693   0.222   1.586  0.00  0.00    -0.047 A 
ATOM      6  C4  UNL d   1       1.582   0.167   0.534  0.00  0.00    -0.004 A 
ENDROOT
TORSDOF 0
ENDMDL
