MODEL 1
REMARK minimizedAffinity -2.72591043
REMARK minimizedRMSD -1
REMARK  0 active torsions:
REMARK  status: ('A' for Active; 'I' for Inactive)
ROOT
ATOM      1  C   UNL d   1      -0.493  -1.102   2.334  0.00  0.00     0.172 C 
ATOM      2  N   UNL d   1       0.345  -0.764   1.208  0.00  0.00    -0.070 N 
ATOM      3  C1  UNL d   1       0.702   0.502   0.829  0.00  0.00    -0.004 A 
ATOM      4  C2  UNL d   1       1.504   0.399  -0.286  0.00  0.00    -0.047 A 
ATOM      5  C3  UNL d   1       1.633  -0.977  -0.590  0.00  0.00    -0.047 A 
ATOM      6  C4  UNL d   1       0.905  -1.675   0.351  0.00  0.00    -0.004 A 
ENDROOT
TORSDOF 0
ENDMDL
