MODEL 1
REMARK minimizedAffinity -0.714332759
REMARK minimizedRMSD -1
REMARK  0 active torsions:
REMARK  status: ('A' for Active; 'I' for Inactive)
ROOT
ATOM      1  C   UNL d   1       2.789  -1.796  -1.368  0.00  0.00     0.172 C 
ATOM      2  N   UNL d   1       1.940  -0.974  -0.539  0.00  0.00    -0.070 N 
ATOM      3  C1  UNL d   1       0.899  -1.422   0.230  0.00  0.00    -0.004 A 
ATOM      4  C2  UNL d   1       0.344  -0.333   0.866  0.00  0.00    -0.047 A 
ATOM      5  C3  UNL d   1       1.077   0.810   0.466  0.00  0.00    -0.047 A 
ATOM      6  C4  UNL d   1       2.058   0.384  -0.404  0.00  0.00    -0.004 A 
ENDROOT
TORSDOF 0
ENDMDL
