MODEL 1
REMARK minimizedAffinity 3.47058463
REMARK minimizedRMSD -1
REMARK  0 active torsions:
REMARK  status: ('A' for Active; 'I' for Inactive)
ROOT
ATOM      1  C   UNL d   1      -1.208   5.015  -2.551  0.00  0.00     0.172 C 
ATOM      2  N   UNL d   1      -0.984   3.720  -3.148  0.00  0.00    -0.070 N 
ATOM      3  C1  UNL d   1      -1.941   2.766  -3.371  0.00  0.00    -0.004 A 
ATOM      4  C2  UNL d   1      -1.327   1.679  -3.955  0.00  0.00    -0.047 A 
ATOM      5  C3  UNL d   1       0.047   1.990  -4.087  0.00  0.00    -0.047 A 
ATOM      6  C4  UNL d   1       0.232   3.259  -3.580  0.00  0.00    -0.004 A 
ENDROOT
TORSDOF 0
ENDMDL
