MODEL 1
REMARK minimizedAffinity -0.902327061
REMARK minimizedRMSD -1
REMARK  0 active torsions:
REMARK  status: ('A' for Active; 'I' for Inactive)
ROOT
ATOM      1  C   UNL d   1      -0.779   4.629  -3.123  0.00  0.00     0.172 C 
ATOM      2  N   UNL d   1      -0.949   3.327  -3.723  0.00  0.00    -0.070 N 
ATOM      3  C1  UNL d   1      -2.140   2.670  -3.881  0.00  0.00    -0.004 A 
ATOM      4  C2  UNL d   1      -1.879   1.463  -4.493  0.00  0.00    -0.047 A 
ATOM      5  C3  UNL d   1      -0.482   1.392  -4.710  0.00  0.00    -0.047 A 
ATOM      6  C4  UNL d   1       0.069   2.559  -4.224  0.00  0.00    -0.004 A 
ENDROOT
TORSDOF 0
ENDMDL
