MODEL 1
REMARK minimizedAffinity 1.37965226
REMARK minimizedRMSD -1
REMARK  0 active torsions:
REMARK  status: ('A' for Active; 'I' for Inactive)
ROOT
ATOM      1  C   UNL d   1       2.694   1.367   1.266  0.00  0.00     0.172 C 
ATOM      2  N   UNL d   1       2.182   0.177   0.627  0.00  0.00    -0.070 N 
ATOM      3  C1  UNL d   1       2.793  -0.509  -0.388  0.00  0.00    -0.004 A 
ATOM      4  C2  UNL d   1       1.989  -1.579  -0.717  0.00  0.00    -0.047 A 
ATOM      5  C3  UNL d   1       0.856  -1.534   0.130  0.00  0.00    -0.047 A 
ATOM      6  C4  UNL d   1       1.001  -0.437   0.952  0.00  0.00    -0.004 A 
ENDROOT
TORSDOF 0
ENDMDL
