MODEL 1
REMARK minimizedAffinity -1.19573367
REMARK minimizedRMSD -1
REMARK  0 active torsions:
REMARK  status: ('A' for Active; 'I' for Inactive)
ROOT
ATOM      1  C   UNL d   1       0.762  -1.139   0.833  0.00  0.00     0.172 C 
ATOM      2  N   UNL d   1       1.720  -0.660  -0.135  0.00  0.00    -0.070 N 
ATOM      3  C1  UNL d   1       1.891   0.645  -0.511  0.00  0.00    -0.004 A 
ATOM      4  C2  UNL d   1       2.898   0.685  -1.451  0.00  0.00    -0.047 A 
ATOM      5  C3  UNL d   1       3.347  -0.642  -1.648  0.00  0.00    -0.047 A 
ATOM      6  C4  UNL d   1       2.600  -1.455  -0.821  0.00  0.00    -0.004 A 
ENDROOT
TORSDOF 0
ENDMDL
