MODEL 1
REMARK minimizedAffinity -0.00740962895
REMARK minimizedRMSD -1
REMARK  0 active torsions:
REMARK  status: ('A' for Active; 'I' for Inactive)
ROOT
ATOM      1  C   UNL d   1       2.831  -1.858  -1.582  0.00  0.00     0.172 C 
ATOM      2  N   UNL d   1       1.977  -1.096  -0.701  0.00  0.00    -0.070 N 
ATOM      3  C1  UNL d   1       0.978  -1.609   0.083  0.00  0.00    -0.004 A 
ATOM      4  C2  UNL d   1       0.403  -0.563   0.771  0.00  0.00    -0.047 A 
ATOM      5  C3  UNL d   1       1.078   0.620   0.386  0.00  0.00    -0.047 A 
ATOM      6  C4  UNL d   1       2.047   0.261  -0.526  0.00  0.00    -0.004 A 
ENDROOT
TORSDOF 0
ENDMDL
