MODEL 1
REMARK minimizedAffinity -0.611046016
REMARK minimizedRMSD -1
REMARK  1 active torsions:
REMARK  status: ('A' for Active; 'I' for Inactive)
REMARK    1  A    between atoms: C1_2  and  C2_3 
ROOT
ATOM      1  C2  UNL d   1       1.097  -2.149   1.694  0.00  0.00    -0.073 A 
ATOM      2  C3  UNL d   1      -0.008  -2.347   2.529  0.00  0.00    -0.002 A 
ATOM      3  C4  UNL d   1      -0.712  -1.255   3.039  0.00  0.00     0.004 A 
ATOM      4  C5  UNL d   1      -0.322   0.044   2.714  0.00  0.00    -0.004 A 
ATOM      5  C6  UNL d   1       0.773   0.263   1.872  0.00  0.00    -0.075 A 
ATOM      6  C7  UNL d   1       1.206   1.655   1.515  0.00  0.00     0.076 C 
ATOM      7  C8  UNL d   1       1.476  -0.839   1.366  0.00  0.00     0.001 A 
ENDROOT
BRANCH   1   8
ATOM      8  C1  UNL d   1       1.856  -3.325   1.136  0.00  0.00     0.053 C 
ATOM      9  C   UNL d   1       3.158  -3.569   1.881  0.00  0.00     0.018 C 
ENDBRANCH   1   8
TORSDOF 1
ENDMDL
