MODEL 1
REMARK minimizedAffinity -0.210921481
REMARK minimizedRMSD -1
REMARK  1 active torsions:
REMARK  status: ('A' for Active; 'I' for Inactive)
REMARK    1  A    between atoms: C1_2  and  C2_3 
ROOT
ATOM      1  C2  UNL d   1       0.652  -1.396   2.716  0.00  0.00    -0.073 A 
ATOM      2  C3  UNL d   1      -0.119  -2.365   2.064  0.00  0.00    -0.002 A 
ATOM      3  C4  UNL d   1       0.490  -3.315   1.243  0.00  0.00     0.004 A 
ATOM      4  C5  UNL d   1       1.875  -3.311   1.072  0.00  0.00    -0.004 A 
ATOM      5  C6  UNL d   1       2.663  -2.359   1.725  0.00  0.00    -0.075 A 
ATOM      6  C7  UNL d   1       4.153  -2.339   1.550  0.00  0.00     0.076 C 
ATOM      7  C8  UNL d   1       2.044  -1.406   2.546  0.00  0.00     0.001 A 
ENDROOT
BRANCH   1   8
ATOM      8  C1  UNL d   1      -0.001  -0.372   3.608  0.00  0.00     0.053 C 
ATOM      9  C   UNL d   1      -1.475  -0.191   3.284  0.00  0.00     0.018 C 
ENDBRANCH   1   8
TORSDOF 1
ENDMDL
