MODEL 1
REMARK minimizedAffinity 4.81251812
REMARK minimizedRMSD -1
REMARK  1 active torsions:
REMARK  status: ('A' for Active; 'I' for Inactive)
REMARK    1  A    between atoms: C1_2  and  C2_3 
ROOT
ATOM      1  C2  UNL d   1       0.235  -2.773   2.548  0.00  0.00    -0.073 A 
ATOM      2  C3  UNL d   1       0.936  -1.658   2.073  0.00  0.00    -0.002 A 
ATOM      3  C4  UNL d   1       2.076  -1.825   1.286  0.00  0.00     0.004 A 
ATOM      4  C5  UNL d   1       2.523  -3.105   0.960  0.00  0.00    -0.004 A 
ATOM      5  C6  UNL d   1       1.830  -4.231   1.415  0.00  0.00    -0.075 A 
ATOM      6  C7  UNL d   1       2.298  -5.616   1.075  0.00  0.00     0.076 C 
ATOM      7  C8  UNL d   1       0.687  -4.056   2.208  0.00  0.00     0.001 A 
ENDROOT
BRANCH   1   8
ATOM      8  C1  UNL d   1      -1.000  -2.597   3.393  0.00  0.00     0.053 C 
ATOM      9  C   UNL d   1      -1.736  -3.911   3.606  0.00  0.00     0.018 C 
ENDBRANCH   1   8
TORSDOF 1
ENDMDL
