MODEL 1
REMARK minimizedAffinity 7.69981241
REMARK minimizedRMSD -1
REMARK  1 active torsions:
REMARK  status: ('A' for Active; 'I' for Inactive)
REMARK    1  A    between atoms: C1_2  and  C2_3 
ROOT
ATOM      1  C2  UNL d   1       5.274  -1.172   0.204  0.00  0.00    -0.073 A 
ATOM      2  C3  UNL d   1       5.981  -2.324   0.566  0.00  0.00    -0.002 A 
ATOM      3  C4  UNL d   1       5.306  -3.436   1.071  0.00  0.00     0.004 A 
ATOM      4  C5  UNL d   1       3.918  -3.411   1.211  0.00  0.00    -0.004 A 
ATOM      5  C6  UNL d   1       3.193  -2.274   0.842  0.00  0.00    -0.075 A 
ATOM      6  C7  UNL d   1       1.700  -2.230   0.989  0.00  0.00     0.076 C 
ATOM      7  C8  UNL d   1       3.878  -1.160   0.339  0.00  0.00     0.001 A 
ENDROOT
BRANCH   1   8
ATOM      8  C1  UNL d   1       5.998   0.029  -0.348  0.00  0.00     0.053 C 
ATOM      9  C   UNL d   1       5.999   1.193   0.631  0.00  0.00     0.018 C 
ENDBRANCH   1   8
TORSDOF 1
ENDMDL
