MODEL 1
REMARK minimizedAffinity 8.88029003
REMARK minimizedRMSD -1
REMARK  1 active torsions:
REMARK  status: ('A' for Active; 'I' for Inactive)
REMARK    1  A    between atoms: C1_2  and  C2_3 
ROOT
ATOM      1  C2  UNL d   1      -0.036  -0.765  -1.719  0.00  0.00    -0.073 A 
ATOM      2  C3  UNL d   1      -1.371  -1.177  -1.637  0.00  0.00    -0.002 A 
ATOM      3  C4  UNL d   1      -2.401  -0.304  -1.990  0.00  0.00     0.004 A 
ATOM      4  C5  UNL d   1      -2.107   0.986  -2.433  0.00  0.00    -0.004 A 
ATOM      5  C6  UNL d   1      -0.779   1.412  -2.532  0.00  0.00    -0.075 A 
ATOM      6  C7  UNL d   1      -0.446   2.797  -3.005  0.00  0.00     0.076 C 
ATOM      7  C8  UNL d   1       0.249   0.530  -2.174  0.00  0.00     0.001 A 
ENDROOT
BRANCH   1   8
ATOM      8  C1  UNL d   1       1.079  -1.707  -1.346  0.00  0.00     0.053 C 
ATOM      9  C   UNL d   1       1.230  -1.843   0.161  0.00  0.00     0.018 C 
ENDBRANCH   1   8
TORSDOF 1
ENDMDL
