MODEL 1
REMARK minimizedAffinity 8.11466026
REMARK minimizedRMSD -1
REMARK  1 active torsions:
REMARK  status: ('A' for Active; 'I' for Inactive)
REMARK    1  A    between atoms: C1_2  and  C2_3 
ROOT
ATOM      1  C2  UNL d   1       5.814  -1.515   0.354  0.00  0.00    -0.073 A 
ATOM      2  C3  UNL d   1       5.868  -1.338  -1.033  0.00  0.00    -0.002 A 
ATOM      3  C4  UNL d   1       5.957  -0.057  -1.577  0.00  0.00     0.004 A 
ATOM      4  C5  UNL d   1       5.999   1.059  -0.741  0.00  0.00    -0.004 A 
ATOM      5  C6  UNL d   1       5.958   0.903   0.648  0.00  0.00    -0.075 A 
ATOM      6  C7  UNL d   1       6.000   2.093   1.560  0.00  0.00     0.076 C 
ATOM      7  C8  UNL d   1       5.866  -0.388   1.187  0.00  0.00     0.001 A 
ENDROOT
BRANCH   1   8
ATOM      8  C1  UNL d   1       5.724  -2.898   0.947  0.00  0.00     0.053 C 
ATOM      9  C   UNL d   1       4.324  -3.215   1.446  0.00  0.00     0.018 C 
ENDBRANCH   1   8
TORSDOF 1
ENDMDL
