MODEL 1
REMARK minimizedAffinity 9.06936359
REMARK minimizedRMSD -1
REMARK  1 active torsions:
REMARK  status: ('A' for Active; 'I' for Inactive)
REMARK    1  A    between atoms: C1_2  and  C2_3 
ROOT
ATOM      1  C2  UNL d   1       0.735  -1.999   2.147  0.00  0.00    -0.073 A 
ATOM      2  C3  UNL d   1       1.598  -1.020   1.641  0.00  0.00    -0.002 A 
ATOM      3  C4  UNL d   1       2.713  -1.386   0.887  0.00  0.00     0.004 A 
ATOM      4  C5  UNL d   1       2.974  -2.731   0.625  0.00  0.00    -0.004 A 
ATOM      5  C6  UNL d   1       2.117  -3.723   1.112  0.00  0.00    -0.075 A 
ATOM      6  C7  UNL d   1       2.384  -5.174   0.842  0.00  0.00     0.076 C 
ATOM      7  C8  UNL d   1       1.000  -3.348   1.871  0.00  0.00     0.001 A 
ENDROOT
BRANCH   1   8
ATOM      8  C1  UNL d   1      -0.475  -1.608   2.957  0.00  0.00     0.053 C 
ATOM      9  C   UNL d   1      -1.709  -2.400   2.555  0.00  0.00     0.018 C 
ENDBRANCH   1   8
TORSDOF 1
ENDMDL
