MODEL 1
REMARK minimizedAffinity 4.19970274
REMARK minimizedRMSD -1
REMARK  1 active torsions:
REMARK  status: ('A' for Active; 'I' for Inactive)
REMARK    1  A    between atoms: C1_2  and  C2_3 
ROOT
ATOM      1  C2  UNL d   1      -0.424  -0.190  -0.468  0.00  0.00    -0.073 A 
ATOM      2  C3  UNL d   1      -1.673  -0.636  -0.021  0.00  0.00    -0.002 A 
ATOM      3  C4  UNL d   1      -2.836   0.046  -0.381  0.00  0.00     0.004 A 
ATOM      4  C5  UNL d   1      -2.764   1.175  -1.198  0.00  0.00    -0.004 A 
ATOM      5  C6  UNL d   1      -1.526   1.629  -1.665  0.00  0.00    -0.075 A 
ATOM      6  C7  UNL d   1      -1.431   2.843  -2.542  0.00  0.00     0.076 C 
ATOM      7  C8  UNL d   1      -0.363   0.940  -1.296  0.00  0.00     0.001 A 
ENDROOT
BRANCH   1   8
ATOM      8  C1  UNL d   1       0.833  -0.926  -0.087  0.00  0.00     0.053 C 
ATOM      9  C   UNL d   1       0.707  -1.608   1.266  0.00  0.00     0.018 C 
ENDBRANCH   1   8
TORSDOF 1
ENDMDL
