MODEL 1
REMARK minimizedAffinity -0.504161835
REMARK minimizedRMSD -1
REMARK  1 active torsions:
REMARK  status: ('A' for Active; 'I' for Inactive)
REMARK    1  A    between atoms: C1_2  and  C2_3 
ROOT
ATOM      1  C2  UNL d   1      -1.050  -0.860   2.532  0.00  0.00    -0.073 A 
ATOM      2  C3  UNL d   1      -1.439  -1.232   1.240  0.00  0.00    -0.002 A 
ATOM      3  C4  UNL d   1      -2.682  -0.842   0.739  0.00  0.00     0.004 A 
ATOM      4  C5  UNL d   1      -3.544  -0.072   1.520  0.00  0.00    -0.004 A 
ATOM      5  C6  UNL d   1      -3.167   0.320   2.809  0.00  0.00    -0.075 A 
ATOM      6  C7  UNL d   1      -4.083   1.147   3.663  0.00  0.00     0.076 C 
ATOM      7  C8  UNL d   1      -1.919  -0.078   3.306  0.00  0.00     0.001 A 
ENDROOT
BRANCH   1   8
ATOM      8  C1  UNL d   1       0.294  -1.273   3.075  0.00  0.00     0.053 C 
ATOM      9  C   UNL d   1       1.111  -2.042   2.049  0.00  0.00     0.018 C 
ENDBRANCH   1   8
TORSDOF 1
ENDMDL
