MODEL 1
REMARK minimizedAffinity 6.28744268
REMARK minimizedRMSD -1
REMARK  1 active torsions:
REMARK  status: ('A' for Active; 'I' for Inactive)
REMARK    1  A    between atoms: C1_2  and  C2_3 
ROOT
ATOM      1  C2  UNL d   1       1.991  -2.684   1.343  0.00  0.00    -0.073 A 
ATOM      2  C3  UNL d   1       2.036  -3.797   0.494  0.00  0.00    -0.002 A 
ATOM      3  C4  UNL d   1       2.849  -4.888   0.805  0.00  0.00     0.004 A 
ATOM      4  C5  UNL d   1       3.618  -4.881   1.969  0.00  0.00    -0.004 A 
ATOM      5  C6  UNL d   1       3.578  -3.784   2.835  0.00  0.00    -0.075 A 
ATOM      6  C7  UNL d   1       4.401  -3.760   4.090  0.00  0.00     0.076 C 
ATOM      7  C8  UNL d   1       2.761  -2.691   2.515  0.00  0.00     0.001 A 
ENDROOT
BRANCH   1   8
ATOM      8  C1  UNL d   1       1.111  -1.507   1.014  0.00  0.00     0.053 C 
ATOM      9  C   UNL d   1       0.381  -0.981   2.240  0.00  0.00     0.018 C 
ENDBRANCH   1   8
TORSDOF 1
ENDMDL
