MODEL 1
REMARK minimizedAffinity -2.75424004
REMARK minimizedRMSD -1
REMARK  1 active torsions:
REMARK  status: ('A' for Active; 'I' for Inactive)
REMARK    1  A    between atoms: C1_2  and  C2_3 
ROOT
ATOM      1  C2  UNL d   1       0.584  -0.262  -0.724  0.00  0.00    -0.073 A 
ATOM      2  C3  UNL d   1       1.722  -0.855  -0.166  0.00  0.00    -0.002 A 
ATOM      3  C4  UNL d   1       1.980  -0.736   1.200  0.00  0.00     0.004 A 
ATOM      4  C5  UNL d   1       1.102  -0.030   2.022  0.00  0.00    -0.004 A 
ATOM      5  C6  UNL d   1      -0.047   0.560   1.485  0.00  0.00    -0.075 A 
ATOM      6  C7  UNL d   1      -1.000   1.325   2.355  0.00  0.00     0.076 C 
ATOM      7  C8  UNL d   1      -0.298   0.438   0.111  0.00  0.00     0.001 A 
ENDROOT
BRANCH   1   8
ATOM      8  C1  UNL d   1       0.297  -0.394  -2.198  0.00  0.00     0.053 C 
ATOM      9  C   UNL d   1       1.410   0.194  -3.050  0.00  0.00     0.018 C 
ENDBRANCH   1   8
TORSDOF 1
ENDMDL
