MODEL 1
REMARK minimizedAffinity -3.65322924
REMARK minimizedRMSD -1
REMARK  1 active torsions:
REMARK  status: ('A' for Active; 'I' for Inactive)
REMARK    1  A    between atoms: C1_2  and  C2_3 
ROOT
ATOM      1  C2  UNL d   1       0.128   0.056   0.058  0.00  0.00    -0.073 A 
ATOM      2  C3  UNL d   1       0.978   0.925   0.752  0.00  0.00    -0.002 A 
ATOM      3  C4  UNL d   1       0.525   1.594   1.890  0.00  0.00     0.004 A 
ATOM      4  C5  UNL d   1      -0.777   1.396   2.349  0.00  0.00    -0.004 A 
ATOM      5  C6  UNL d   1      -1.637   0.523   1.676  0.00  0.00    -0.075 A 
ATOM      6  C7  UNL d   1      -3.042   0.301   2.156  0.00  0.00     0.076 C 
ATOM      7  C8  UNL d   1      -1.176  -0.143   0.532  0.00  0.00     0.001 A 
ENDROOT
BRANCH   1   8
ATOM      8  C1  UNL d   1       0.614  -0.673  -1.168  0.00  0.00     0.053 C 
ATOM      9  C   UNL d   1       0.824   0.267  -2.345  0.00  0.00     0.018 C 
ENDBRANCH   1   8
TORSDOF 1
ENDMDL
