MODEL 1
REMARK minimizedAffinity -5.53655481
REMARK minimizedRMSD -1
REMARK  1 active torsions:
REMARK  status: ('A' for Active; 'I' for Inactive)
REMARK    1  A    between atoms: C1_2  and  C2_3 
ROOT
ATOM      1  C2  UNL d   1      -0.038  -0.098  -0.144  0.00  0.00    -0.073 A 
ATOM      2  C3  UNL d   1      -1.296  -0.570  -0.536  0.00  0.00    -0.002 A 
ATOM      3  C4  UNL d   1      -2.424  -0.298   0.239  0.00  0.00     0.004 A 
ATOM      4  C5  UNL d   1      -2.308   0.453   1.408  0.00  0.00    -0.004 A 
ATOM      5  C6  UNL d   1      -1.062   0.945   1.810  0.00  0.00    -0.075 A 
ATOM      6  C7  UNL d   1      -0.920   1.753   3.066  0.00  0.00     0.076 C 
ATOM      7  C8  UNL d   1       0.067   0.665   1.028  0.00  0.00     0.001 A 
ENDROOT
BRANCH   1   8
ATOM      8  C1  UNL d   1       1.182  -0.383  -0.981  0.00  0.00     0.053 C 
ATOM      9  C   UNL d   1       0.992   0.041  -2.429  0.00  0.00     0.018 C 
ENDBRANCH   1   8
TORSDOF 1
ENDMDL
