MODEL 1
REMARK minimizedAffinity -4.30540323
REMARK minimizedRMSD -1
REMARK  1 active torsions:
REMARK  status: ('A' for Active; 'I' for Inactive)
REMARK    1  A    between atoms: C1_2  and  C2_3 
ROOT
ATOM      1  C2  UNL d   1      -0.225  -0.126  -0.188  0.00  0.00    -0.073 A 
ATOM      2  C3  UNL d   1      -1.577  -0.170  -0.547  0.00  0.00    -0.002 A 
ATOM      3  C4  UNL d   1      -2.565   0.140   0.389  0.00  0.00     0.004 A 
ATOM      4  C5  UNL d   1      -2.212   0.504   1.688  0.00  0.00    -0.004 A 
ATOM      5  C6  UNL d   1      -0.866   0.565   2.063  0.00  0.00    -0.075 A 
ATOM      6  C7  UNL d   1      -0.470   0.952   3.457  0.00  0.00     0.076 C 
ATOM      7  C8  UNL d   1       0.120   0.249   1.119  0.00  0.00     0.001 A 
ENDROOT
BRANCH   1   8
ATOM      8  C1  UNL d   1       0.846  -0.454  -1.196  0.00  0.00     0.053 C 
ATOM      9  C   UNL d   1       0.478   0.021  -2.593  0.00  0.00     0.018 C 
ENDBRANCH   1   8
TORSDOF 1
ENDMDL
