MODEL 1
REMARK minimizedAffinity 14.7833233
REMARK minimizedRMSD -1
REMARK  0 active torsions:
REMARK  status: ('A' for Active; 'I' for Inactive)
ROOT
ATOM      1  C   UNL d   1       5.973   4.921   4.939  0.00  0.00     0.077 C 
ATOM      2  C1  UNL d   1       5.153   4.861   3.685  0.00  0.00    -0.074 A 
ATOM      3  C2  UNL d   1       4.506   6.000   3.194  0.00  0.00    -0.005 A 
ATOM      4  C3  UNL d   1       3.754   5.931   2.021  0.00  0.00     0.006 A 
ATOM      5  C4  UNL d   1       3.642   4.726   1.328  0.00  0.00    -0.005 A 
ATOM      6  C5  UNL d   1       4.282   3.577   1.803  0.00  0.00    -0.074 A 
ATOM      7  C6  UNL d   1       4.180   2.275   1.065  0.00  0.00     0.077 C 
ATOM      8  C7  UNL d   1       5.041   3.655   2.978  0.00  0.00    -0.001 A 
ENDROOT
TORSDOF 0
ENDMDL
