MODEL 1
REMARK minimizedAffinity 5.23817062
REMARK minimizedRMSD -1
REMARK  0 active torsions:
REMARK  status: ('A' for Active; 'I' for Inactive)
ROOT
ATOM      1  C   UNL d   1       2.300  -5.505  -5.998  0.00  0.00     0.077 C 
ATOM      2  C1  UNL d   1       1.062  -4.659  -5.949  0.00  0.00    -0.074 A 
ATOM      3  C2  UNL d   1      -0.209  -5.240  -5.999  0.00  0.00    -0.005 A 
ATOM      4  C3  UNL d   1      -1.350  -4.441  -5.943  0.00  0.00     0.006 A 
ATOM      5  C4  UNL d   1      -1.233  -3.055  -5.836  0.00  0.00    -0.005 A 
ATOM      6  C5  UNL d   1       0.030  -2.456  -5.784  0.00  0.00    -0.074 A 
ATOM      7  C6  UNL d   1       0.174  -0.968  -5.659  0.00  0.00     0.077 C 
ATOM      8  C7  UNL d   1       1.172  -3.266  -5.833  0.00  0.00    -0.001 A 
ENDROOT
TORSDOF 0
ENDMDL
