MODEL 1
REMARK minimizedAffinity 14.4410067
REMARK minimizedRMSD -1
REMARK  0 active torsions:
REMARK  status: ('A' for Active; 'I' for Inactive)
ROOT
ATOM      1  C   UNL d   1       1.412  -2.850   4.991  0.00  0.00     0.077 C 
ATOM      2  C1  UNL d   1       0.858  -1.905   3.966  0.00  0.00    -0.074 A 
ATOM      3  C2  UNL d   1       1.688  -0.993   3.306  0.00  0.00    -0.005 A 
ATOM      4  C3  UNL d   1       1.160  -0.127   2.348  0.00  0.00     0.006 A 
ATOM      5  C4  UNL d   1      -0.201  -0.164   2.041  0.00  0.00    -0.005 A 
ATOM      6  C5  UNL d   1      -1.046  -1.070   2.690  0.00  0.00    -0.074 A 
ATOM      7  C6  UNL d   1      -2.509  -1.130   2.366  0.00  0.00     0.077 C 
ATOM      8  C7  UNL d   1      -0.507  -1.942   3.646  0.00  0.00    -0.001 A 
ENDROOT
TORSDOF 0
ENDMDL
