MODEL 1
REMARK minimizedAffinity 7.78016043
REMARK minimizedRMSD -1
REMARK  0 active torsions:
REMARK  status: ('A' for Active; 'I' for Inactive)
ROOT
ATOM      1  C   UNL d   1      -3.296  -1.710   2.889  0.00  0.00     0.077 C 
ATOM      2  C1  UNL d   1      -1.931  -1.091   2.939  0.00  0.00    -0.074 A 
ATOM      3  C2  UNL d   1      -1.722   0.224   2.512  0.00  0.00    -0.005 A 
ATOM      4  C3  UNL d   1      -0.448   0.789   2.573  0.00  0.00     0.006 A 
ATOM      5  C4  UNL d   1       0.628   0.046   3.060  0.00  0.00    -0.005 A 
ATOM      6  C5  UNL d   1       0.438  -1.271   3.492  0.00  0.00    -0.074 A 
ATOM      7  C6  UNL d   1       1.581  -2.080   4.027  0.00  0.00     0.077 C 
ATOM      8  C7  UNL d   1      -0.847  -1.829   3.434  0.00  0.00    -0.001 A 
ENDROOT
TORSDOF 0
ENDMDL
