MODEL 1
REMARK minimizedAffinity 15.0396585
REMARK minimizedRMSD -1
REMARK  0 active torsions:
REMARK  status: ('A' for Active; 'I' for Inactive)
ROOT
ATOM      1  C   UNL d   1       1.576  -1.670   4.908  0.00  0.00     0.077 C 
ATOM      2  C1  UNL d   1       0.955  -0.983   3.729  0.00  0.00    -0.074 A 
ATOM      3  C2  UNL d   1       1.748  -0.368   2.755  0.00  0.00    -0.005 A 
ATOM      4  C3  UNL d   1       1.156   0.260   1.659  0.00  0.00     0.006 A 
ATOM      5  C4  UNL d   1      -0.233   0.279   1.526  0.00  0.00    -0.005 A 
ATOM      6  C5  UNL d   1      -1.042  -0.332   2.489  0.00  0.00    -0.074 A 
ATOM      7  C6  UNL d   1      -2.536  -0.329   2.356  0.00  0.00     0.077 C 
ATOM      8  C7  UNL d   1      -0.439  -0.966   3.584  0.00  0.00    -0.001 A 
ENDROOT
TORSDOF 0
ENDMDL
