MODEL 1
REMARK minimizedAffinity 9.0178957
REMARK minimizedRMSD -1
REMARK  0 active torsions:
REMARK  status: ('A' for Active; 'I' for Inactive)
ROOT
ATOM      1  C   UNL d   1       1.127  -1.443   3.000  0.00  0.00     0.077 C 
ATOM      2  C1  UNL d   1       0.556  -0.079   3.250  0.00  0.00    -0.074 A 
ATOM      3  C2  UNL d   1      -0.277   0.535   2.309  0.00  0.00    -0.005 A 
ATOM      4  C3  UNL d   1      -0.809   1.800   2.560  0.00  0.00     0.006 A 
ATOM      5  C4  UNL d   1      -0.514   2.462   3.752  0.00  0.00    -0.005 A 
ATOM      6  C5  UNL d   1       0.316   1.863   4.705  0.00  0.00    -0.074 A 
ATOM      7  C6  UNL d   1       0.635   2.557   5.996  0.00  0.00     0.077 C 
ATOM      8  C7  UNL d   1       0.841   0.589   4.449  0.00  0.00    -0.001 A 
ENDROOT
TORSDOF 0
ENDMDL
