MODEL 1
REMARK minimizedAffinity 10.6559153
REMARK minimizedRMSD -1
REMARK  0 active torsions:
REMARK  status: ('A' for Active; 'I' for Inactive)
ROOT
ATOM      1  C   UNL d   1       4.060   0.731   3.758  0.00  0.00     0.077 C 
ATOM      2  C1  UNL d   1       2.666   0.245   3.493  0.00  0.00    -0.074 A 
ATOM      3  C2  UNL d   1       2.381  -1.123   3.433  0.00  0.00    -0.005 A 
ATOM      4  C3  UNL d   1       1.078  -1.560   3.195  0.00  0.00     0.006 A 
ATOM      5  C4  UNL d   1       0.048  -0.636   3.015  0.00  0.00    -0.005 A 
ATOM      6  C5  UNL d   1       0.314   0.736   3.073  0.00  0.00    -0.074 A 
ATOM      7  C6  UNL d   1      -0.783   1.743   2.892  0.00  0.00     0.077 C 
ATOM      8  C7  UNL d   1       1.625   1.168   3.319  0.00  0.00    -0.001 A 
ENDROOT
TORSDOF 0
ENDMDL
