MODEL 1
REMARK minimizedAffinity 7.67438555
REMARK minimizedRMSD -1
REMARK  0 active torsions:
REMARK  status: ('A' for Active; 'I' for Inactive)
ROOT
ATOM      1  C   UNL d   1       0.261   2.322   6.000  0.00  0.00     0.077 C 
ATOM      2  C1  UNL d   1       0.222   1.362   4.848  0.00  0.00    -0.074 A 
ATOM      3  C2  UNL d   1      -0.382   1.717   3.637  0.00  0.00    -0.005 A 
ATOM      4  C3  UNL d   1      -0.403   0.817   2.572  0.00  0.00     0.006 A 
ATOM      5  C4  UNL d   1       0.180  -0.444   2.705  0.00  0.00    -0.005 A 
ATOM      6  C5  UNL d   1       0.790  -0.815   3.908  0.00  0.00    -0.074 A 
ATOM      7  C6  UNL d   1       1.430  -2.163   4.065  0.00  0.00     0.077 C 
ATOM      8  C7  UNL d   1       0.812   0.097   4.972  0.00  0.00    -0.001 A 
ENDROOT
TORSDOF 0
ENDMDL
