MODEL 1
REMARK minimizedAffinity 7.16093159
REMARK minimizedRMSD -1
REMARK  0 active torsions:
REMARK  status: ('A' for Active; 'I' for Inactive)
ROOT
ATOM      1  C   UNL d   1       4.001   1.242   4.136  0.00  0.00     0.077 C 
ATOM      2  C1  UNL d   1       2.903   0.220   4.101  0.00  0.00    -0.074 A 
ATOM      3  C2  UNL d   1       2.606  -0.554   5.227  0.00  0.00    -0.005 A 
ATOM      4  C3  UNL d   1       1.576  -1.494   5.182  0.00  0.00     0.006 A 
ATOM      5  C4  UNL d   1       0.834  -1.668   4.013  0.00  0.00    -0.005 A 
ATOM      6  C5  UNL d   1       1.117  -0.902   2.877  0.00  0.00    -0.074 A 
ATOM      7  C6  UNL d   1       0.323  -1.070   1.616  0.00  0.00     0.077 C 
ATOM      8  C7  UNL d   1       2.148   0.045   2.932  0.00  0.00    -0.001 A 
ENDROOT
TORSDOF 0
ENDMDL
