MODEL 1
REMARK minimizedAffinity 1.33822048
REMARK minimizedRMSD -1
REMARK  1 active torsions:
REMARK  status: ('A' for Active; 'I' for Inactive)
REMARK    1  A    between atoms: C3_4  and  O_7 
ROOT
ATOM      1  C   UNL d   1      -2.613   3.033  -5.991  0.00  0.00    -0.033 A 
ATOM      2  C1  UNL d   1      -1.831   1.877  -5.979  0.00  0.00     0.039 A 
ATOM      3  C2  UNL d   1      -2.439   0.620  -5.972  0.00  0.00    -0.080 A 
ATOM      4  C3  UNL d   1      -3.829   0.534  -5.978  0.00  0.00     0.150 A 
ATOM      5  C4  UNL d   1      -4.614   1.682  -5.994  0.00  0.00    -0.007 A 
ATOM      6  C5  UNL d   1      -4.004   2.936  -6.000  0.00  0.00     0.039 A 
ENDROOT
BRANCH   4   7
ATOM      7  O   UNL d   1      -4.468  -0.670  -5.967  0.00  0.00    -0.526 OA
ATOM      8  H5  UNL d   1      -3.799  -1.373  -5.927  0.00  0.00     0.418 HD
ENDBRANCH   4   7
TORSDOF 1
ENDMDL
