MODEL 1
REMARK minimizedAffinity -1.77478492
REMARK minimizedRMSD -1
REMARK  1 active torsions:
REMARK  status: ('A' for Active; 'I' for Inactive)
REMARK    1  A    between atoms: C3_4  and  O_7 
ROOT
ATOM      1  C   UNL d   1      -5.417  -3.793  -5.915  0.00  0.00    -0.033 A 
ATOM      2  C1  UNL d   1      -4.192  -3.128  -5.828  0.00  0.00     0.039 A 
ATOM      3  C2  UNL d   1      -3.000  -3.855  -5.821  0.00  0.00    -0.080 A 
ATOM      4  C3  UNL d   1      -3.046  -5.244  -5.902  0.00  0.00     0.150 A 
ATOM      5  C4  UNL d   1      -4.262  -5.913  -5.993  0.00  0.00    -0.007 A 
ATOM      6  C5  UNL d   1      -5.452  -5.185  -5.998  0.00  0.00     0.039 A 
ENDROOT
BRANCH   4   7
ATOM      7  O   UNL d   1      -1.909  -5.996  -5.895  0.00  0.00    -0.526 OA
ATOM      8  H5  UNL d   1      -1.147  -5.401  -5.799  0.00  0.00     0.418 HD
ENDBRANCH   4   7
TORSDOF 1
ENDMDL
