MODEL 1
REMARK minimizedAffinity -3.29419112
REMARK minimizedRMSD -1
REMARK  1 active torsions:
REMARK  status: ('A' for Active; 'I' for Inactive)
REMARK    1  A    between atoms: C3_4  and  O_7 
ROOT
ATOM      1  C   UNL d   1      -5.171   4.188  -6.000  0.00  0.00    -0.033 A 
ATOM      2  C1  UNL d   1      -5.944   3.026  -5.999  0.00  0.00     0.039 A 
ATOM      3  C2  UNL d   1      -5.326   1.774  -5.985  0.00  0.00    -0.080 A 
ATOM      4  C3  UNL d   1      -3.936   1.698  -5.972  0.00  0.00     0.150 A 
ATOM      5  C4  UNL d   1      -3.160   2.852  -5.969  0.00  0.00    -0.007 A 
ATOM      6  C5  UNL d   1      -3.779   4.102  -5.983  0.00  0.00     0.039 A 
ENDROOT
BRANCH   4   7
ATOM      7  O   UNL d   1      -3.288   0.499  -5.963  0.00  0.00    -0.526 OA
ATOM      8  H5  UNL d   1      -3.952  -0.210  -5.996  0.00  0.00     0.418 HD
ENDBRANCH   4   7
TORSDOF 1
ENDMDL
