MODEL 1
REMARK minimizedAffinity -3.57109261
REMARK minimizedRMSD -1
REMARK  1 active torsions:
REMARK  status: ('A' for Active; 'I' for Inactive)
REMARK    1  A    between atoms: C3_4  and  O_7 
ROOT
ATOM      1  C   UNL d   1      -3.153   1.686  -5.617  0.00  0.00    -0.033 A 
ATOM      2  C1  UNL d   1      -4.504   1.923  -5.877  0.00  0.00     0.039 A 
ATOM      3  C2  UNL d   1      -5.392   0.852  -5.998  0.00  0.00    -0.080 A 
ATOM      4  C3  UNL d   1      -4.917  -0.449  -5.856  0.00  0.00     0.150 A 
ATOM      5  C4  UNL d   1      -3.573  -0.692  -5.593  0.00  0.00    -0.007 A 
ATOM      6  C5  UNL d   1      -2.687   0.378  -5.474  0.00  0.00     0.039 A 
ENDROOT
BRANCH   4   7
ATOM      7  O   UNL d   1      -5.744  -1.526  -5.970  0.00  0.00    -0.526 OA
ATOM      8  H5  UNL d   1      -6.638  -1.207  -6.181  0.00  0.00     0.418 HD
ENDBRANCH   4   7
TORSDOF 1
ENDMDL
