MODEL 1
REMARK minimizedAffinity -2.60437012
REMARK minimizedRMSD -1
REMARK  1 active torsions:
REMARK  status: ('A' for Active; 'I' for Inactive)
REMARK    1  A    between atoms: C3_4  and  O_7 
ROOT
ATOM      1  C   UNL d   1      -4.373   0.536  -5.992  0.00  0.00    -0.033 A 
ATOM      2  C1  UNL d   1      -5.339   1.544  -6.000  0.00  0.00     0.039 A 
ATOM      3  C2  UNL d   1      -4.951   2.886  -5.998  0.00  0.00    -0.080 A 
ATOM      4  C3  UNL d   1      -3.595   3.205  -5.989  0.00  0.00     0.150 A 
ATOM      5  C4  UNL d   1      -2.628   2.205  -5.984  0.00  0.00    -0.007 A 
ATOM      6  C5  UNL d   1      -3.018   0.866  -5.985  0.00  0.00     0.039 A 
ENDROOT
BRANCH   4   7
ATOM      7  O   UNL d   1      -3.168   4.499  -5.982  0.00  0.00    -0.526 OA
ATOM      8  H5  UNL d   1      -3.947   5.080  -5.957  0.00  0.00     0.418 HD
ENDBRANCH   4   7
TORSDOF 1
ENDMDL
