MODEL 1
REMARK minimizedAffinity -2.94726324
REMARK minimizedRMSD -1
REMARK  1 active torsions:
REMARK  status: ('A' for Active; 'I' for Inactive)
REMARK    1  A    between atoms: C3_4  and  O_7 
ROOT
ATOM      1  C   UNL d   1      -3.698  -0.218  -6.000  0.00  0.00    -0.033 A 
ATOM      2  C1  UNL d   1      -2.636   0.654  -5.752  0.00  0.00     0.039 A 
ATOM      3  C2  UNL d   1      -2.884   2.006  -5.506  0.00  0.00    -0.080 A 
ATOM      4  C3  UNL d   1      -4.196   2.472  -5.510  0.00  0.00     0.150 A 
ATOM      5  C4  UNL d   1      -5.259   1.608  -5.752  0.00  0.00    -0.007 A 
ATOM      6  C5  UNL d   1      -5.009   0.259  -5.999  0.00  0.00     0.039 A 
ENDROOT
BRANCH   4   7
ATOM      7  O   UNL d   1      -4.487   3.784  -5.280  0.00  0.00    -0.526 OA
ATOM      8  H5  UNL d   1      -3.653   4.267  -5.156  0.00  0.00     0.418 HD
ENDBRANCH   4   7
TORSDOF 1
ENDMDL
