MODEL 1
REMARK minimizedAffinity -2.26848125
REMARK minimizedRMSD -1
REMARK  1 active torsions:
REMARK  status: ('A' for Active; 'I' for Inactive)
REMARK    1  A    between atoms: C3_4  and  O_7 
ROOT
ATOM      1  C   UNL d   1      -3.953   0.899  -5.996  0.00  0.00    -0.033 A 
ATOM      2  C1  UNL d   1      -2.679   1.469  -5.999  0.00  0.00     0.039 A 
ATOM      3  C2  UNL d   1      -2.534   2.858  -5.996  0.00  0.00    -0.080 A 
ATOM      4  C3  UNL d   1      -3.669   3.663  -5.987  0.00  0.00     0.150 A 
ATOM      5  C4  UNL d   1      -4.942   3.102  -5.980  0.00  0.00    -0.007 A 
ATOM      6  C5  UNL d   1      -5.084   1.715  -5.984  0.00  0.00     0.039 A 
ENDROOT
BRANCH   4   7
ATOM      7  O   UNL d   1      -3.578   5.024  -5.988  0.00  0.00    -0.526 OA
ATOM      8  H5  UNL d   1      -2.638   5.269  -6.023  0.00  0.00     0.418 HD
ENDBRANCH   4   7
TORSDOF 1
ENDMDL
