MODEL 1
REMARK minimizedAffinity -3.20607567
REMARK minimizedRMSD -1
REMARK  1 active torsions:
REMARK  status: ('A' for Active; 'I' for Inactive)
REMARK    1  A    between atoms: C3_4  and  O_7 
ROOT
ATOM      1  C   UNL d   1      -5.544   3.569  -5.990  0.00  0.00    -0.033 A 
ATOM      2  C1  UNL d   1      -5.877   2.213  -5.977  0.00  0.00     0.039 A 
ATOM      3  C2  UNL d   1      -4.870   1.246  -5.979  0.00  0.00    -0.080 A 
ATOM      4  C3  UNL d   1      -3.537   1.647  -5.992  0.00  0.00     0.150 A 
ATOM      5  C4  UNL d   1      -3.199   2.996  -6.000  0.00  0.00    -0.007 A 
ATOM      6  C5  UNL d   1      -4.205   3.960  -6.000  0.00  0.00     0.039 A 
ENDROOT
BRANCH   4   7
ATOM      7  O   UNL d   1      -2.520   0.739  -5.998  0.00  0.00    -0.526 OA
ATOM      8  H5  UNL d   1      -2.904  -0.153  -6.020  0.00  0.00     0.418 HD
ENDBRANCH   4   7
TORSDOF 1
ENDMDL
