MODEL 1
REMARK minimizedAffinity -0.934138119
REMARK minimizedRMSD -1
REMARK  1 active torsions:
REMARK  status: ('A' for Active; 'I' for Inactive)
REMARK    1  A    between atoms: C3_4  and  O_7 
ROOT
ATOM      1  C   UNL d   1      -4.380   1.493  -5.983  0.00  0.00    -0.033 A 
ATOM      2  C1  UNL d   1      -3.184   2.214  -5.979  0.00  0.00     0.039 A 
ATOM      3  C2  UNL d   1      -3.208   3.610  -5.983  0.00  0.00    -0.080 A 
ATOM      4  C3  UNL d   1      -4.433   4.272  -5.991  0.00  0.00     0.150 A 
ATOM      5  C4  UNL d   1      -5.628   3.561  -5.991  0.00  0.00    -0.007 A 
ATOM      6  C5  UNL d   1      -5.602   2.167  -5.987  0.00  0.00     0.039 A 
ENDROOT
BRANCH   4   7
ATOM      7  O   UNL d   1      -4.506   5.633  -6.000  0.00  0.00    -0.526 OA
ATOM      8  H5  UNL d   1      -3.603   5.990  -6.028  0.00  0.00     0.418 HD
ENDBRANCH   4   7
TORSDOF 1
ENDMDL
