MODEL 1
REMARK minimizedAffinity -2.57186532
REMARK minimizedRMSD -1
REMARK  1 active torsions:
REMARK  status: ('A' for Active; 'I' for Inactive)
REMARK    1  A    between atoms: C3_4  and  O_7 
ROOT
ATOM      1  C   UNL d   1      -4.985   3.099  -6.000  0.00  0.00    -0.033 A 
ATOM      2  C1  UNL d   1      -4.742   4.474  -6.000  0.00  0.00     0.039 A 
ATOM      3  C2  UNL d   1      -3.431   4.953  -5.995  0.00  0.00    -0.080 A 
ATOM      4  C3  UNL d   1      -2.373   4.048  -5.992  0.00  0.00     0.150 A 
ATOM      5  C4  UNL d   1      -2.608   2.677  -5.996  0.00  0.00    -0.007 A 
ATOM      6  C5  UNL d   1      -3.918   2.201  -5.999  0.00  0.00     0.039 A 
ENDROOT
BRANCH   4   7
ATOM      7  O   UNL d   1      -1.076   4.468  -5.982  0.00  0.00    -0.526 OA
ATOM      8  H5  UNL d   1      -1.067   5.440  -5.952  0.00  0.00     0.418 HD
ENDBRANCH   4   7
TORSDOF 1
ENDMDL
