MODEL 1
REMARK minimizedAffinity -3.18393445
REMARK minimizedRMSD -1
REMARK  1 active torsions:
REMARK  status: ('A' for Active; 'I' for Inactive)
REMARK    1  A    between atoms: C3_4  and  O_7 
ROOT
ATOM      1  C   UNL d   1      -4.393   0.218  -5.995  0.00  0.00    -0.033 A 
ATOM      2  C1  UNL d   1      -5.299   1.280  -6.000  0.00  0.00     0.039 A 
ATOM      3  C2  UNL d   1      -4.835   2.597  -5.980  0.00  0.00    -0.080 A 
ATOM      4  C3  UNL d   1      -3.464   2.837  -5.957  0.00  0.00     0.150 A 
ATOM      5  C4  UNL d   1      -2.555   1.784  -5.956  0.00  0.00    -0.007 A 
ATOM      6  C5  UNL d   1      -3.021   0.470  -5.975  0.00  0.00     0.039 A 
ENDROOT
BRANCH   4   7
ATOM      7  O   UNL d   1      -2.963   4.105  -5.932  0.00  0.00    -0.526 OA
ATOM      8  H5  UNL d   1      -3.708   4.729  -5.906  0.00  0.00     0.418 HD
ENDBRANCH   4   7
TORSDOF 1
ENDMDL
