MODEL 1
REMARK minimizedAffinity -1.04271901
REMARK minimizedRMSD -1
REMARK  1 active torsions:
REMARK  status: ('A' for Active; 'I' for Inactive)
REMARK    1  A    between atoms: C3_4  and  O_7 
ROOT
ATOM      1  C   UNL d   1      -2.730  -4.837  -5.070  0.00  0.00    -0.033 A 
ATOM      2  C1  UNL d   1      -2.667  -3.804  -4.133  0.00  0.00     0.039 A 
ATOM      3  C2  UNL d   1      -3.642  -2.804  -4.128  0.00  0.00    -0.080 A 
ATOM      4  C3  UNL d   1      -4.673  -2.849  -5.062  0.00  0.00     0.150 A 
ATOM      5  C4  UNL d   1      -4.744  -3.878  -5.996  0.00  0.00    -0.007 A 
ATOM      6  C5  UNL d   1      -3.769  -4.875  -6.000  0.00  0.00     0.039 A 
ENDROOT
BRANCH   4   7
ATOM      7  O   UNL d   1      -5.644  -1.893  -5.099  0.00  0.00    -0.526 OA
ATOM      8  H5  UNL d   1      -5.450  -1.231  -4.415  0.00  0.00     0.418 HD
ENDBRANCH   4   7
TORSDOF 1
ENDMDL
