MODEL 1
REMARK minimizedAffinity -0.716815352
REMARK minimizedRMSD -1
REMARK  1 active torsions:
REMARK  status: ('A' for Active; 'I' for Inactive)
REMARK    1  A    between atoms: C3_4  and  O_7 
ROOT
ATOM      1  C   UNL d   1      -4.326   1.925  -5.986  0.00  0.00    -0.033 A 
ATOM      2  C1  UNL d   1      -2.975   2.278  -5.975  0.00  0.00     0.039 A 
ATOM      3  C2  UNL d   1      -2.602   3.624  -5.976  0.00  0.00    -0.080 A 
ATOM      4  C3  UNL d   1      -3.589   4.606  -5.986  0.00  0.00     0.150 A 
ATOM      5  C4  UNL d   1      -4.937   4.262  -5.993  0.00  0.00    -0.007 A 
ATOM      6  C5  UNL d   1      -5.307   2.917  -5.994  0.00  0.00     0.039 A 
ENDROOT
BRANCH   4   7
ATOM      7  O   UNL d   1      -3.275   5.932  -5.992  0.00  0.00    -0.526 OA
ATOM      8  H5  UNL d   1      -2.307   6.019  -6.016  0.00  0.00     0.418 HD
ENDBRANCH   4   7
TORSDOF 1
ENDMDL
