MODEL 1
REMARK minimizedAffinity -2.48475289
REMARK minimizedRMSD -1
REMARK  1 active torsions:
REMARK  status: ('A' for Active; 'I' for Inactive)
REMARK    1  A    between atoms: C3_4  and  O_7 
ROOT
ATOM      1  C   UNL d   1      -5.788  -3.916  -5.953  0.00  0.00    -0.033 A 
ATOM      2  C1  UNL d   1      -4.589  -3.209  -5.851  0.00  0.00     0.039 A 
ATOM      3  C2  UNL d   1      -3.374  -3.895  -5.793  0.00  0.00    -0.080 A 
ATOM      4  C3  UNL d   1      -3.373  -5.286  -5.838  0.00  0.00     0.150 A 
ATOM      5  C4  UNL d   1      -4.564  -5.997  -5.943  0.00  0.00    -0.007 A 
ATOM      6  C5  UNL d   1      -5.776  -5.311  -6.000  0.00  0.00     0.039 A 
ENDROOT
BRANCH   4   7
ATOM      7  O   UNL d   1      -2.213  -6.000  -5.779  0.00  0.00    -0.526 OA
ATOM      8  H5  UNL d   1      -1.473  -5.377  -5.679  0.00  0.00     0.418 HD
ENDBRANCH   4   7
TORSDOF 1
ENDMDL
