MODEL 1
REMARK minimizedAffinity -2.79035354
REMARK minimizedRMSD -1
REMARK  1 active torsions:
REMARK  status: ('A' for Active; 'I' for Inactive)
REMARK    1  A    between atoms: C1_2  and  C2_3 
ROOT
ATOM      1  C2  UNL d   1      -0.164  -0.745   0.120  0.00  0.00    -0.081 A 
ATOM      2  C3  UNL d   1      -1.253   0.136   0.130  0.00  0.00     0.006 A 
ATOM      3  C4  UNL d   1      -1.048   1.515   0.204  0.00  0.00     0.002 A 
ATOM      4  C5  UNL d   1       0.249   2.038   0.260  0.00  0.00    -0.080 A 
ATOM      5  C6  UNL d   1       0.484   3.518   0.308  0.00  0.00     0.076 C 
ATOM      6  C7  UNL d   1       1.336   1.157   0.266  0.00  0.00     0.002 A 
ATOM      7  C8  UNL d   1       1.131  -0.222   0.194  0.00  0.00     0.006 A 
ENDROOT
BRANCH   1   8
ATOM      8  C1  UNL d   1      -0.381  -2.230  -0.025  0.00  0.00     0.054 C 
ATOM      9  C   UNL d   1      -1.154  -2.555  -1.295  0.00  0.00     0.018 C 
ENDBRANCH   1   8
TORSDOF 1
ENDMDL
