MODEL 1
REMARK minimizedAffinity -5.33985901
REMARK minimizedRMSD -1
REMARK  1 active torsions:
REMARK  status: ('A' for Active; 'I' for Inactive)
REMARK    1  A    between atoms: C1_2  and  C2_3 
ROOT
ATOM      1  C2  UNL d   1      -0.217   1.282   0.451  0.00  0.00    -0.081 A 
ATOM      2  C3  UNL d   1       0.824   0.643  -0.235  0.00  0.00     0.006 A 
ATOM      3  C4  UNL d   1       0.713  -0.701  -0.599  0.00  0.00     0.002 A 
ATOM      4  C5  UNL d   1      -0.443  -1.426  -0.289  0.00  0.00    -0.080 A 
ATOM      5  C6  UNL d   1      -0.587  -2.862  -0.700  0.00  0.00     0.076 C 
ATOM      6  C7  UNL d   1      -1.475  -0.794   0.412  0.00  0.00     0.002 A 
ATOM      7  C8  UNL d   1      -1.364   0.550   0.776  0.00  0.00     0.006 A 
ENDROOT
BRANCH   1   8
ATOM      8  C1  UNL d   1      -0.127   2.748   0.787  0.00  0.00     0.054 C 
ATOM      9  C   UNL d   1       0.645   3.514  -0.278  0.00  0.00     0.018 C 
ENDBRANCH   1   8
TORSDOF 1
ENDMDL
