MODEL 1
REMARK minimizedAffinity -5.33377457
REMARK minimizedRMSD -1
REMARK  1 active torsions:
REMARK  status: ('A' for Active; 'I' for Inactive)
REMARK    1  A    between atoms: C1_2  and  C2_3 
ROOT
ATOM      1  C2  UNL d   1       0.016  -0.794  -0.135  0.00  0.00    -0.081 A 
ATOM      2  C3  UNL d   1      -1.118  -0.055   0.225  0.00  0.00     0.006 A 
ATOM      3  C4  UNL d   1      -1.061   1.339   0.299  0.00  0.00     0.002 A 
ATOM      4  C5  UNL d   1       0.127   2.017   0.006  0.00  0.00    -0.080 A 
ATOM      5  C6  UNL d   1       0.193   3.515   0.052  0.00  0.00     0.076 C 
ATOM      6  C7  UNL d   1       1.264   1.278  -0.337  0.00  0.00     0.002 A 
ATOM      7  C8  UNL d   1       1.208  -0.115  -0.410  0.00  0.00     0.006 A 
ENDROOT
BRANCH   1   8
ATOM      8  C1  UNL d   1      -0.060  -2.292  -0.279  0.00  0.00     0.054 C 
ATOM      9  C   UNL d   1      -0.028  -2.711  -1.742  0.00  0.00     0.018 C 
ENDBRANCH   1   8
TORSDOF 1
ENDMDL
