MODEL 1
REMARK minimizedAffinity -3.84259081
REMARK minimizedRMSD -1
REMARK  1 active torsions:
REMARK  status: ('A' for Active; 'I' for Inactive)
REMARK    1  A    between atoms: C1_2  and  C2_3 
ROOT
ATOM      1  C2  UNL d   1       0.393  -0.847  -0.101  0.00  0.00    -0.081 A 
ATOM      2  C3  UNL d   1      -0.844  -0.284   0.238  0.00  0.00     0.006 A 
ATOM      3  C4  UNL d   1      -0.947   1.079   0.523  0.00  0.00     0.002 A 
ATOM      4  C5  UNL d   1       0.182   1.904   0.468  0.00  0.00    -0.080 A 
ATOM      5  C6  UNL d   1       0.079   3.375   0.743  0.00  0.00     0.076 C 
ATOM      6  C7  UNL d   1       1.421   1.338   0.147  0.00  0.00     0.002 A 
ATOM      7  C8  UNL d   1       1.524  -0.025  -0.138  0.00  0.00     0.006 A 
ENDROOT
BRANCH   1   8
ATOM      8  C1  UNL d   1       0.495  -2.304  -0.472  0.00  0.00     0.054 C 
ATOM      9  C   UNL d   1      -0.788  -2.802  -1.121  0.00  0.00     0.018 C 
ENDBRANCH   1   8
TORSDOF 1
ENDMDL
