MODEL 1
REMARK minimizedAffinity -4.18198776
REMARK minimizedRMSD -1
REMARK  1 active torsions:
REMARK  status: ('A' for Active; 'I' for Inactive)
REMARK    1  A    between atoms: C1_2  and  C2_3 
ROOT
ATOM      1  C2  UNL d   1      -0.053  -0.886  -0.056  0.00  0.00    -0.081 A 
ATOM      2  C3  UNL d   1      -0.704  -0.097   0.900  0.00  0.00     0.006 A 
ATOM      3  C4  UNL d   1      -0.430   1.269   0.996  0.00  0.00     0.002 A 
ATOM      4  C5  UNL d   1       0.492   1.871   0.133  0.00  0.00    -0.080 A 
ATOM      5  C6  UNL d   1       0.772   3.342   0.205  0.00  0.00     0.076 C 
ATOM      6  C7  UNL d   1       1.155   1.080  -0.811  0.00  0.00     0.002 A 
ATOM      7  C8  UNL d   1       0.883  -0.287  -0.907  0.00  0.00     0.006 A 
ENDROOT
BRANCH   1   8
ATOM      8  C1  UNL d   1      -0.393  -2.347  -0.205  0.00  0.00     0.054 C 
ATOM      9  C   UNL d   1      -0.636  -2.713  -1.662  0.00  0.00     0.018 C 
ENDBRANCH   1   8
TORSDOF 1
ENDMDL
