MODEL 1
REMARK minimizedAffinity -5.59123659
REMARK minimizedRMSD -1
REMARK  1 active torsions:
REMARK  status: ('A' for Active; 'I' for Inactive)
REMARK    1  A    between atoms: C1_2  and  C2_3 
ROOT
ATOM      1  C2  UNL d   1      -0.326  -1.284  -0.201  0.00  0.00    -0.081 A 
ATOM      2  C3  UNL d   1      -1.459  -0.609   0.269  0.00  0.00     0.006 A 
ATOM      3  C4  UNL d   1      -1.430   0.774   0.462  0.00  0.00     0.002 A 
ATOM      4  C5  UNL d   1      -0.271   1.506   0.181  0.00  0.00    -0.080 A 
ATOM      5  C6  UNL d   1      -0.237   2.995   0.356  0.00  0.00     0.076 C 
ATOM      6  C7  UNL d   1       0.866   0.829  -0.272  0.00  0.00     0.002 A 
ATOM      7  C8  UNL d   1       0.838  -0.554  -0.465  0.00  0.00     0.006 A 
ENDROOT
BRANCH   1   8
ATOM      8  C1  UNL d   1      -0.374  -2.766  -0.472  0.00  0.00     0.054 C 
ATOM      9  C   UNL d   1      -0.697  -3.052  -1.932  0.00  0.00     0.018 C 
ENDBRANCH   1   8
TORSDOF 1
ENDMDL
