MODEL 1
REMARK minimizedAffinity -5.17156363
REMARK minimizedRMSD -1
REMARK  1 active torsions:
REMARK  status: ('A' for Active; 'I' for Inactive)
REMARK    1  A    between atoms: C1_2  and  C2_3 
ROOT
ATOM      1  C2  UNL d   1      -0.087  -0.674   0.029  0.00  0.00    -0.081 A 
ATOM      2  C3  UNL d   1      -1.182   0.164   0.271  0.00  0.00     0.006 A 
ATOM      3  C4  UNL d   1      -1.024   1.552   0.279  0.00  0.00     0.002 A 
ATOM      4  C5  UNL d   1       0.229   2.125   0.036  0.00  0.00    -0.080 A 
ATOM      5  C6  UNL d   1       0.407   3.614   0.011  0.00  0.00     0.076 C 
ATOM      6  C7  UNL d   1       1.327   1.287  -0.189  0.00  0.00     0.002 A 
ATOM      7  C8  UNL d   1       1.169  -0.101  -0.196  0.00  0.00     0.006 A 
ENDROOT
BRANCH   1   8
ATOM      8  C1  UNL d   1      -0.268  -2.169  -0.043  0.00  0.00     0.054 C 
ATOM      9  C   UNL d   1      -0.436  -2.637  -1.482  0.00  0.00     0.018 C 
ENDBRANCH   1   8
TORSDOF 1
ENDMDL
