MODEL 1
REMARK minimizedAffinity -5.17646646
REMARK minimizedRMSD -1
REMARK  1 active torsions:
REMARK  status: ('A' for Active; 'I' for Inactive)
REMARK    1  A    between atoms: C1_2  and  C2_3 
ROOT
ATOM      1  C2  UNL d   1      -0.210  -1.046  -0.347  0.00  0.00    -0.081 A 
ATOM      2  C3  UNL d   1      -1.303  -0.293   0.098  0.00  0.00     0.006 A 
ATOM      3  C4  UNL d   1      -1.196   1.092   0.246  0.00  0.00     0.002 A 
ATOM      4  C5  UNL d   1       0.003   1.747  -0.056  0.00  0.00    -0.080 A 
ATOM      5  C6  UNL d   1       0.122   3.237   0.069  0.00  0.00     0.076 C 
ATOM      6  C7  UNL d   1       1.100   0.993  -0.484  0.00  0.00     0.002 A 
ATOM      7  C8  UNL d   1       0.994  -0.392  -0.632  0.00  0.00     0.006 A 
ENDROOT
BRANCH   1   8
ATOM      8  C1  UNL d   1      -0.342  -2.531  -0.569  0.00  0.00     0.054 C 
ATOM      9  C   UNL d   1      -0.438  -2.863  -2.052  0.00  0.00     0.018 C 
ENDBRANCH   1   8
TORSDOF 1
ENDMDL
