MODEL 1
REMARK minimizedAffinity -4.86645842
REMARK minimizedRMSD -1
REMARK  1 active torsions:
REMARK  status: ('A' for Active; 'I' for Inactive)
REMARK    1  A    between atoms: C1_2  and  C2_3 
ROOT
ATOM      1  C2  UNL d   1      -0.402   1.130   0.633  0.00  0.00    -0.081 A 
ATOM      2  C3  UNL d   1       0.748   0.366   0.401  0.00  0.00     0.006 A 
ATOM      3  C4  UNL d   1       0.645  -0.991   0.085  0.00  0.00     0.002 A 
ATOM      4  C5  UNL d   1      -0.609  -1.604  -0.011  0.00  0.00    -0.080 A 
ATOM      5  C6  UNL d   1      -0.736  -3.052  -0.379  0.00  0.00     0.076 C 
ATOM      6  C7  UNL d   1      -1.757  -0.844   0.238  0.00  0.00     0.002 A 
ATOM      7  C8  UNL d   1      -1.654   0.512   0.555  0.00  0.00     0.006 A 
ENDROOT
BRANCH   1   8
ATOM      8  C1  UNL d   1      -0.296   2.608   0.910  0.00  0.00     0.054 C 
ATOM      9  C   UNL d   1       0.287   3.354  -0.281  0.00  0.00     0.018 C 
ENDBRANCH   1   8
TORSDOF 1
ENDMDL
