MODEL 1
REMARK minimizedAffinity -4.37871265
REMARK minimizedRMSD -1
REMARK  1 active torsions:
REMARK  status: ('A' for Active; 'I' for Inactive)
REMARK    1  A    between atoms: C1_2  and  C2_3 
ROOT
ATOM      1  C2  UNL d   1      -0.186  -0.820  -0.066  0.00  0.00    -0.081 A 
ATOM      2  C3  UNL d   1      -1.306  -0.122   0.402  0.00  0.00     0.006 A 
ATOM      3  C4  UNL d   1      -1.283   1.271   0.496  0.00  0.00     0.002 A 
ATOM      4  C5  UNL d   1      -0.144   1.990   0.118  0.00  0.00    -0.080 A 
ATOM      5  C6  UNL d   1      -0.117   3.488   0.186  0.00  0.00     0.076 C 
ATOM      6  C7  UNL d   1       0.981   1.291  -0.333  0.00  0.00     0.002 A 
ATOM      7  C8  UNL d   1       0.959  -0.102  -0.428  0.00  0.00     0.006 A 
ENDROOT
BRANCH   1   8
ATOM      8  C1  UNL d   1      -0.231  -2.318  -0.231  0.00  0.00     0.054 C 
ATOM      9  C   UNL d   1      -0.382  -2.710  -1.693  0.00  0.00     0.018 C 
ENDBRANCH   1   8
TORSDOF 1
ENDMDL
