MODEL 1
REMARK minimizedAffinity -5.2446475
REMARK minimizedRMSD -1
REMARK  1 active torsions:
REMARK  status: ('A' for Active; 'I' for Inactive)
REMARK    1  A    between atoms: C1_2  and  C2_3 
ROOT
ATOM      1  C2  UNL d   1       0.090  -0.678  -0.209  0.00  0.00    -0.081 A 
ATOM      2  C3  UNL d   1      -1.110   0.008   0.015  0.00  0.00     0.006 A 
ATOM      3  C4  UNL d   1      -1.121   1.401   0.111  0.00  0.00     0.002 A 
ATOM      4  C5  UNL d   1       0.064   2.132  -0.023  0.00  0.00    -0.080 A 
ATOM      5  C6  UNL d   1       0.062   3.630   0.048  0.00  0.00     0.076 C 
ATOM      6  C7  UNL d   1       1.266   1.445  -0.229  0.00  0.00     0.002 A 
ATOM      7  C8  UNL d   1       1.278   0.052  -0.324  0.00  0.00     0.006 A 
ENDROOT
BRANCH   1   8
ATOM      8  C1  UNL d   1       0.096  -2.176  -0.378  0.00  0.00     0.054 C 
ATOM      9  C   UNL d   1      -0.437  -2.581  -1.745  0.00  0.00     0.018 C 
ENDBRANCH   1   8
TORSDOF 1
ENDMDL
