MODEL 1
REMARK minimizedAffinity -2.5411396
REMARK minimizedRMSD -1
REMARK  1 active torsions:
REMARK  status: ('A' for Active; 'I' for Inactive)
REMARK    1  A    between atoms: C1_2  and  C2_3 
ROOT
ATOM      1  C2  UNL d   1       0.005   2.140   0.507  0.00  0.00    -0.081 A 
ATOM      2  C3  UNL d   1       0.245   2.081  -0.871  0.00  0.00     0.006 A 
ATOM      3  C4  UNL d   1       0.032   0.894  -1.577  0.00  0.00     0.002 A 
ATOM      4  C5  UNL d   1      -0.432  -0.250  -0.918  0.00  0.00    -0.080 A 
ATOM      5  C6  UNL d   1      -0.694  -1.521  -1.669  0.00  0.00     0.076 C 
ATOM      6  C7  UNL d   1      -0.655  -0.195   0.462  0.00  0.00     0.002 A 
ATOM      7  C8  UNL d   1      -0.442   0.990   1.168  0.00  0.00     0.006 A 
ENDROOT
BRANCH   1   8
ATOM      8  C1  UNL d   1       0.172   3.435   1.259  0.00  0.00     0.054 C 
ATOM      9  C   UNL d   1      -0.302   3.304   2.700  0.00  0.00     0.018 C 
ENDBRANCH   1   8
TORSDOF 1
ENDMDL
