MODEL 1
REMARK minimizedAffinity 7.31233454
REMARK minimizedRMSD -1
REMARK  1 active torsions:
REMARK  status: ('A' for Active; 'I' for Inactive)
REMARK    1  A    between atoms: C1_2  and  C2_3 
ROOT
ATOM      1  C2  UNL d   1      -1.653  -5.764  -2.953  0.00  0.00    -0.076 A 
ATOM      2  C3  UNL d   1      -2.137  -5.960  -4.258  0.00  0.00     0.004 A 
ATOM      3  C4  UNL d   1      -1.322  -5.735  -5.367  0.00  0.00    -0.003 A 
ATOM      4  C5  UNL d   1      -0.010  -5.312  -5.188  0.00  0.00     0.000 A 
ATOM      5  C6  UNL d   1       0.492  -5.130  -3.900  0.00  0.00     0.000 A 
ATOM      6  C7  UNL d   1      -0.310  -5.368  -2.772  0.00  0.00    -0.073 A 
ATOM      7  C8  UNL d   1       0.281  -5.150  -1.406  0.00  0.00     0.078 C 
ENDROOT
BRANCH   1   8
ATOM      8  C1  UNL d   1      -2.590  -5.998  -1.790  0.00  0.00     0.053 C 
ATOM      9  C   UNL d   1      -4.052  -5.998  -2.211  0.00  0.00     0.018 C 
ENDBRANCH   1   8
TORSDOF 1
ENDMDL
