MODEL 1
REMARK minimizedAffinity 6.69905949
REMARK minimizedRMSD -1
REMARK  1 active torsions:
REMARK  status: ('A' for Active; 'I' for Inactive)
REMARK    1  A    between atoms: C1_2  and  C2_3 
ROOT
ATOM      1  C2  UNL d   1      -0.026  -5.980  -3.044  0.00  0.00    -0.076 A 
ATOM      2  C3  UNL d   1       1.074  -5.952  -3.918  0.00  0.00     0.004 A 
ATOM      3  C4  UNL d   1       0.893  -5.958  -5.300  0.00  0.00    -0.003 A 
ATOM      4  C5  UNL d   1      -0.392  -5.989  -5.830  0.00  0.00     0.000 A 
ATOM      5  C6  UNL d   1      -1.496  -5.999  -4.978  0.00  0.00     0.000 A 
ATOM      6  C7  UNL d   1      -1.331  -5.978  -3.582  0.00  0.00    -0.073 A 
ATOM      7  C8  UNL d   1      -2.556  -5.995  -2.710  0.00  0.00     0.078 C 
ENDROOT
BRANCH   1   8
ATOM      8  C1  UNL d   1       0.233  -6.000  -1.554  0.00  0.00     0.053 C 
ATOM      9  C   UNL d   1       0.030  -4.638  -0.909  0.00  0.00     0.018 C 
ENDBRANCH   1   8
TORSDOF 1
ENDMDL
