MODEL 1
REMARK minimizedAffinity 15.1459408
REMARK minimizedRMSD -1
REMARK  1 active torsions:
REMARK  status: ('A' for Active; 'I' for Inactive)
REMARK    1  A    between atoms: C1_2  and  C2_3 
ROOT
ATOM      1  C2  UNL d   1      -0.757  -5.227  -3.792  0.00  0.00    -0.076 A 
ATOM      2  C3  UNL d   1      -1.070  -5.635  -5.101  0.00  0.00     0.004 A 
ATOM      3  C4  UNL d   1      -0.067  -5.995  -6.000  0.00  0.00    -0.003 A 
ATOM      4  C5  UNL d   1       1.265  -5.953  -5.604  0.00  0.00     0.000 A 
ATOM      5  C6  UNL d   1       1.593  -5.568  -4.305  0.00  0.00     0.000 A 
ATOM      6  C7  UNL d   1       0.593  -5.218  -3.381  0.00  0.00    -0.073 A 
ATOM      7  C8  UNL d   1       1.004  -4.804  -1.995  0.00  0.00     0.078 C 
ENDROOT
BRANCH   1   8
ATOM      8  C1  UNL d   1      -1.885  -4.823  -2.870  0.00  0.00     0.053 C 
ATOM      9  C   UNL d   1      -2.940  -5.909  -2.729  0.00  0.00     0.018 C 
ENDBRANCH   1   8
TORSDOF 1
ENDMDL
