MODEL 1
REMARK minimizedAffinity -0.714595854
REMARK minimizedRMSD -1
REMARK  1 active torsions:
REMARK  status: ('A' for Active; 'I' for Inactive)
REMARK    1  A    between atoms: C1_2  and  C2_3 
ROOT
ATOM      1  C2  UNL d   1      -1.654  -5.982  -3.539  0.00  0.00    -0.076 A 
ATOM      2  C3  UNL d   1      -2.158  -5.994  -4.851  0.00  0.00     0.004 A 
ATOM      3  C4  UNL d   1      -1.300  -5.987  -5.949  0.00  0.00    -0.003 A 
ATOM      4  C5  UNL d   1       0.076  -5.968  -5.754  0.00  0.00     0.000 A 
ATOM      5  C6  UNL d   1       0.595  -5.974  -4.459  0.00  0.00     0.000 A 
ATOM      6  C7  UNL d   1      -0.256  -5.997  -3.341  0.00  0.00    -0.073 A 
ATOM      7  C8  UNL d   1       0.357  -5.996  -1.967  0.00  0.00     0.078 C 
ENDROOT
BRANCH   1   8
ATOM      8  C1  UNL d   1      -2.632  -5.963  -2.386  0.00  0.00     0.053 C 
ATOM      9  C   UNL d   1      -4.079  -5.911  -2.852  0.00  0.00     0.018 C 
ENDBRANCH   1   8
TORSDOF 1
ENDMDL
