MODEL 1
REMARK minimizedAffinity 7.98548555
REMARK minimizedRMSD -1
REMARK  1 active torsions:
REMARK  status: ('A' for Active; 'I' for Inactive)
REMARK    1  A    between atoms: C1_2  and  C2_3 
ROOT
ATOM      1  C2  UNL d   1       1.796  -0.495   0.991  0.00  0.00    -0.076 A 
ATOM      2  C3  UNL d   1       1.666   0.657   0.196  0.00  0.00     0.004 A 
ATOM      3  C4  UNL d   1       0.801   0.681  -0.896  0.00  0.00    -0.003 A 
ATOM      4  C5  UNL d   1       0.052  -0.446  -1.212  0.00  0.00     0.000 A 
ATOM      5  C6  UNL d   1       0.155  -1.592  -0.425  0.00  0.00     0.000 A 
ATOM      6  C7  UNL d   1       1.010  -1.628   0.690  0.00  0.00    -0.073 A 
ATOM      7  C8  UNL d   1       1.086  -2.893   1.501  0.00  0.00     0.078 C 
ENDROOT
BRANCH   1   8
ATOM      8  C1  UNL d   1       2.770  -0.472   2.147  0.00  0.00     0.053 C 
ATOM      9  C   UNL d   1       4.177  -0.086   1.716  0.00  0.00     0.018 C 
ENDBRANCH   1   8
TORSDOF 1
ENDMDL
