MODEL 1
REMARK minimizedAffinity -0.762664974
REMARK minimizedRMSD -1
REMARK  1 active torsions:
REMARK  status: ('A' for Active; 'I' for Inactive)
REMARK    1  A    between atoms: C1_2  and  C2_3 
ROOT
ATOM      1  C2  UNL d   1      -1.814  -5.947  -3.491  0.00  0.00    -0.076 A 
ATOM      2  C3  UNL d   1      -1.368  -5.908  -2.159  0.00  0.00     0.004 A 
ATOM      3  C4  UNL d   1      -0.007  -5.923  -1.858  0.00  0.00    -0.003 A 
ATOM      4  C5  UNL d   1       0.930  -5.977  -2.884  0.00  0.00     0.000 A 
ATOM      5  C6  UNL d   1       0.505  -5.999  -4.212  0.00  0.00     0.000 A 
ATOM      6  C7  UNL d   1      -0.863  -5.968  -4.533  0.00  0.00    -0.073 A 
ATOM      7  C8  UNL d   1      -1.266  -6.000  -5.982  0.00  0.00     0.078 C 
ENDROOT
BRANCH   1   8
ATOM      8  C1  UNL d   1      -3.303  -5.956  -3.755  0.00  0.00     0.053 C 
ATOM      9  C   UNL d   1      -4.123  -5.967  -2.474  0.00  0.00     0.018 C 
ENDBRANCH   1   8
TORSDOF 1
ENDMDL
