MODEL 1
REMARK minimizedAffinity 10.5137835
REMARK minimizedRMSD -1
REMARK  1 active torsions:
REMARK  status: ('A' for Active; 'I' for Inactive)
REMARK    1  A    between atoms: C1_2  and  C2_3 
ROOT
ATOM      1  C2  UNL d   1       0.094  -5.602  -3.530  0.00  0.00    -0.076 A 
ATOM      2  C3  UNL d   1       1.424  -5.258  -3.231  0.00  0.00     0.004 A 
ATOM      3  C4  UNL d   1       1.791  -4.860  -1.947  0.00  0.00    -0.003 A 
ATOM      4  C5  UNL d   1       0.834  -4.800  -0.940  0.00  0.00     0.000 A 
ATOM      5  C6  UNL d   1      -0.486  -5.154  -1.214  0.00  0.00     0.000 A 
ATOM      6  C7  UNL d   1      -0.870  -5.573  -2.500  0.00  0.00    -0.073 A 
ATOM      7  C8  UNL d   1      -2.309  -5.938  -2.741  0.00  0.00     0.078 C 
ENDROOT
BRANCH   1   8
ATOM      8  C1  UNL d   1      -0.250  -6.000  -4.947  0.00  0.00     0.053 C 
ATOM      9  C   UNL d   1       0.959  -5.976  -5.869  0.00  0.00     0.018 C 
ENDBRANCH   1   8
TORSDOF 1
ENDMDL
