MODEL 1
REMARK minimizedAffinity 6.08773184
REMARK minimizedRMSD -1
REMARK  1 active torsions:
REMARK  status: ('A' for Active; 'I' for Inactive)
REMARK    1  A    between atoms: C1_2  and  C2_3 
ROOT
ATOM      1  C2  UNL d   1       3.631   0.024   0.955  0.00  0.00    -0.076 A 
ATOM      2  C3  UNL d   1       2.575   0.003   1.883  0.00  0.00     0.004 A 
ATOM      3  C4  UNL d   1       1.262   0.245   1.482  0.00  0.00    -0.003 A 
ATOM      4  C5  UNL d   1       0.983   0.511   0.146  0.00  0.00     0.000 A 
ATOM      5  C6  UNL d   1       2.016   0.519  -0.791  0.00  0.00     0.000 A 
ATOM      6  C7  UNL d   1       3.343   0.260  -0.407  0.00  0.00    -0.073 A 
ATOM      7  C8  UNL d   1       4.417   0.287  -1.459  0.00  0.00     0.078 C 
ENDROOT
BRANCH   1   8
ATOM      8  C1  UNL d   1       5.037  -0.220   1.452  0.00  0.00     0.053 C 
ATOM      9  C   UNL d   1       5.289   0.403   2.817  0.00  0.00     0.018 C 
ENDBRANCH   1   8
TORSDOF 1
ENDMDL
