MODEL 1
REMARK minimizedAffinity 13.6936798
REMARK minimizedRMSD -1
REMARK  1 active torsions:
REMARK  status: ('A' for Active; 'I' for Inactive)
REMARK    1  A    between atoms: C1_2  and  C2_3 
ROOT
ATOM      1  C2  UNL d   1      -1.178  -5.927  -3.097  0.00  0.00    -0.076 A 
ATOM      2  C3  UNL d   1      -1.840  -5.876  -1.858  0.00  0.00     0.004 A 
ATOM      3  C4  UNL d   1      -3.229  -5.783  -1.790  0.00  0.00    -0.003 A 
ATOM      4  C5  UNL d   1      -3.979  -5.740  -2.960  0.00  0.00     0.000 A 
ATOM      5  C6  UNL d   1      -3.340  -5.807  -4.198  0.00  0.00     0.000 A 
ATOM      6  C7  UNL d   1      -1.942  -5.917  -4.284  0.00  0.00    -0.073 A 
ATOM      7  C8  UNL d   1      -1.305  -5.979  -5.646  0.00  0.00     0.078 C 
ENDROOT
BRANCH   1   8
ATOM      8  C1  UNL d   1       0.332  -6.000  -3.109  0.00  0.00     0.053 C 
ATOM      9  C   UNL d   1       0.945  -5.619  -1.770  0.00  0.00     0.018 C 
ENDBRANCH   1   8
TORSDOF 1
ENDMDL
