MODEL 1
REMARK minimizedAffinity 2.10527587
REMARK minimizedRMSD -1
REMARK  1 active torsions:
REMARK  status: ('A' for Active; 'I' for Inactive)
REMARK    1  A    between atoms: C1_2  and  C2_3 
ROOT
ATOM      1  C2  UNL d   1       0.333  -0.691  -0.860  0.00  0.00    -0.076 A 
ATOM      2  C3  UNL d   1       0.175  -2.082  -0.728  0.00  0.00     0.004 A 
ATOM      3  C4  UNL d   1       0.154  -2.686   0.528  0.00  0.00    -0.003 A 
ATOM      4  C5  UNL d   1       0.291  -1.908   1.673  0.00  0.00     0.000 A 
ATOM      5  C6  UNL d   1       0.431  -0.525   1.561  0.00  0.00     0.000 A 
ATOM      6  C7  UNL d   1       0.438   0.101   0.303  0.00  0.00    -0.073 A 
ATOM      7  C8  UNL d   1       0.598   1.595   0.241  0.00  0.00     0.078 C 
ENDROOT
BRANCH   1   8
ATOM      8  C1  UNL d   1       0.375  -0.096  -2.249  0.00  0.00     0.053 C 
ATOM      9  C   UNL d   1      -0.934   0.575  -2.636  0.00  0.00     0.018 C 
ENDBRANCH   1   8
TORSDOF 1
ENDMDL
