MODEL 1
REMARK minimizedAffinity -2.46283031
REMARK minimizedRMSD -1
REMARK  1 active torsions:
REMARK  status: ('A' for Active; 'I' for Inactive)
REMARK    1  A    between atoms: C1_2  and  C2_3 
ROOT
ATOM      1  C2  UNL d   1      -0.630  -0.086   0.601  0.00  0.00    -0.073 A 
ATOM      2  C3  UNL d   1      -0.044   1.112   0.176  0.00  0.00    -0.002 A 
ATOM      3  C4  UNL d   1       1.077   1.092  -0.656  0.00  0.00     0.004 A 
ATOM      4  C5  UNL d   1       1.618  -0.123  -1.075  0.00  0.00    -0.004 A 
ATOM      5  C6  UNL d   1       1.040  -1.330  -0.670  0.00  0.00    -0.075 A 
ATOM      6  C7  UNL d   1       1.612  -2.646  -1.110  0.00  0.00     0.076 C 
ATOM      7  C8  UNL d   1      -0.084  -1.302   0.167  0.00  0.00     0.001 A 
ENDROOT
BRANCH   1   8
ATOM      8  C1  UNL d   1      -1.844  -0.069   1.494  0.00  0.00     0.053 C 
ATOM      9  C   UNL d   1      -2.213   1.341   1.928  0.00  0.00     0.018 C 
ENDBRANCH   1   8
TORSDOF 1
ENDMDL
