MODEL 1
REMARK minimizedAffinity -4.15345955
REMARK minimizedRMSD -1
REMARK  1 active torsions:
REMARK  status: ('A' for Active; 'I' for Inactive)
REMARK    1  A    between atoms: C1_2  and  C2_3 
ROOT
ATOM      1  C2  UNL d   1      -0.713   0.221   0.896  0.00  0.00    -0.073 A 
ATOM      2  C3  UNL d   1      -0.129   1.393   0.401  0.00  0.00    -0.002 A 
ATOM      3  C4  UNL d   1       0.961   1.325  -0.468  0.00  0.00     0.004 A 
ATOM      4  C5  UNL d   1       1.473   0.087  -0.856  0.00  0.00    -0.004 A 
ATOM      5  C6  UNL d   1       0.895  -1.095  -0.383  0.00  0.00    -0.075 A 
ATOM      6  C7  UNL d   1       1.436  -2.435  -0.789  0.00  0.00     0.076 C 
ATOM      7  C8  UNL d   1      -0.197  -1.019   0.492  0.00  0.00     0.001 A 
ENDROOT
BRANCH   1   8
ATOM      8  C1  UNL d   1      -1.894   0.289   1.829  0.00  0.00     0.053 C 
ATOM      9  C   UNL d   1      -3.214   0.330   1.076  0.00  0.00     0.018 C 
ENDBRANCH   1   8
TORSDOF 1
ENDMDL
