MODEL 1
REMARK minimizedAffinity 7.30186749
REMARK minimizedRMSD -1
REMARK  1 active torsions:
REMARK  status: ('A' for Active; 'I' for Inactive)
REMARK    1  A    between atoms: C1_2  and  C2_3 
ROOT
ATOM      1  C2  UNL d   1      -3.118   3.114   3.706  0.00  0.00    -0.073 A 
ATOM      2  C3  UNL d   1      -2.024   2.261   3.890  0.00  0.00    -0.002 A 
ATOM      3  C4  UNL d   1      -1.897   1.102   3.122  0.00  0.00     0.004 A 
ATOM      4  C5  UNL d   1      -2.856   0.789   2.159  0.00  0.00    -0.004 A 
ATOM      5  C6  UNL d   1      -3.951   1.635   1.953  0.00  0.00    -0.075 A 
ATOM      6  C7  UNL d   1      -4.993   1.311   0.923  0.00  0.00     0.076 C 
ATOM      7  C8  UNL d   1      -4.073   2.795   2.730  0.00  0.00     0.001 A 
ENDROOT
BRANCH   1   8
ATOM      8  C1  UNL d   1      -3.257   4.369   4.528  0.00  0.00     0.053 C 
ATOM      9  C   UNL d   1      -2.363   4.346   5.758  0.00  0.00     0.018 C 
ENDBRANCH   1   8
TORSDOF 1
ENDMDL
