MODEL 1
REMARK minimizedAffinity -2.7008152
REMARK minimizedRMSD -1
REMARK  1 active torsions:
REMARK  status: ('A' for Active; 'I' for Inactive)
REMARK    1  A    between atoms: C1_2  and  C2_3 
ROOT
ATOM      1  C2  UNL d   1      -1.482   0.240   1.051  0.00  0.00    -0.073 A 
ATOM      2  C3  UNL d   1      -2.592  -0.292   0.387  0.00  0.00    -0.002 A 
ATOM      3  C4  UNL d   1      -3.869   0.217   0.629  0.00  0.00     0.004 A 
ATOM      4  C5  UNL d   1      -4.048   1.265   1.531  0.00  0.00    -0.004 A 
ATOM      5  C6  UNL d   1      -2.949   1.819   2.196  0.00  0.00    -0.075 A 
ATOM      6  C7  UNL d   1      -3.124   2.946   3.170  0.00  0.00     0.076 C 
ATOM      7  C8  UNL d   1      -1.670   1.301   1.949  0.00  0.00     0.001 A 
ENDROOT
BRANCH   1   8
ATOM      8  C1  UNL d   1      -0.100  -0.302   0.789  0.00  0.00     0.053 C 
ATOM      9  C   UNL d   1       0.720   0.630  -0.089  0.00  0.00     0.018 C 
ENDBRANCH   1   8
TORSDOF 1
ENDMDL
