MODEL 1
REMARK minimizedAffinity -3.75345016
REMARK minimizedRMSD -1
REMARK  1 active torsions:
REMARK  status: ('A' for Active; 'I' for Inactive)
REMARK    1  A    between atoms: C1_2  and  C2_3 
ROOT
ATOM      1  C2  UNL d   1      -1.573   0.253   1.117  0.00  0.00    -0.073 A 
ATOM      2  C3  UNL d   1      -2.743  -0.406   0.723  0.00  0.00    -0.002 A 
ATOM      3  C4  UNL d   1      -3.970  -0.068   1.296  0.00  0.00     0.004 A 
ATOM      4  C5  UNL d   1      -4.040   0.935   2.262  0.00  0.00    -0.004 A 
ATOM      5  C6  UNL d   1      -2.884   1.613   2.661  0.00  0.00    -0.075 A 
ATOM      6  C7  UNL d   1      -2.942   2.693   3.701  0.00  0.00     0.076 C 
ATOM      7  C8  UNL d   1      -1.655   1.266   2.082  0.00  0.00     0.001 A 
ENDROOT
BRANCH   1   8
ATOM      8  C1  UNL d   1      -0.247  -0.104   0.496  0.00  0.00     0.053 C 
ATOM      9  C   UNL d   1       0.558   1.130   0.121  0.00  0.00     0.018 C 
ENDBRANCH   1   8
TORSDOF 1
ENDMDL
