MODEL 1
REMARK minimizedAffinity -5.11405087
REMARK minimizedRMSD -1
REMARK  1 active torsions:
REMARK  status: ('A' for Active; 'I' for Inactive)
REMARK    1  A    between atoms: C1_2  and  C2_3 
ROOT
ATOM      1  C2  UNL d   1       1.709  -1.106  -1.194  0.00  0.00    -0.073 A 
ATOM      2  C3  UNL d   1       2.042   0.148  -1.719  0.00  0.00    -0.002 A 
ATOM      3  C4  UNL d   1       1.404   1.299  -1.255  0.00  0.00     0.004 A 
ATOM      4  C5  UNL d   1       0.432   1.209  -0.259  0.00  0.00    -0.004 A 
ATOM      5  C6  UNL d   1       0.094  -0.033   0.287  0.00  0.00    -0.075 A 
ATOM      6  C7  UNL d   1      -0.950  -0.147   1.358  0.00  0.00     0.076 C 
ATOM      7  C8  UNL d   1       0.738  -1.185  -0.186  0.00  0.00     0.001 A 
ENDROOT
BRANCH   1   8
ATOM      8  C1  UNL d   1       2.401  -2.350  -1.688  0.00  0.00     0.053 C 
ATOM      9  C   UNL d   1       1.874  -3.603  -1.006  0.00  0.00     0.018 C 
ENDBRANCH   1   8
TORSDOF 1
ENDMDL
