MODEL 1
REMARK minimizedAffinity -2.16001773
REMARK minimizedRMSD -1
REMARK  1 active torsions:
REMARK  status: ('A' for Active; 'I' for Inactive)
REMARK    1  A    between atoms: C1_2  and  C2_3 
ROOT
ATOM      1  C2  UNL d   1      -0.580   0.356   0.730  0.00  0.00    -0.073 A 
ATOM      2  C3  UNL d   1       0.113   1.362   0.046  0.00  0.00    -0.002 A 
ATOM      3  C4  UNL d   1       1.032   1.031  -0.951  0.00  0.00     0.004 A 
ATOM      4  C5  UNL d   1       1.262  -0.305  -1.279  0.00  0.00    -0.004 A 
ATOM      5  C6  UNL d   1       0.570  -1.323  -0.615  0.00  0.00    -0.075 A 
ATOM      6  C7  UNL d   1       0.807  -2.766  -0.955  0.00  0.00     0.076 C 
ATOM      7  C8  UNL d   1      -0.349  -0.983   0.387  0.00  0.00     0.001 A 
ENDROOT
BRANCH   1   8
ATOM      8  C1  UNL d   1      -1.578   0.709   1.802  0.00  0.00     0.053 C 
ATOM      9  C   UNL d   1      -3.009   0.448   1.358  0.00  0.00     0.018 C 
ENDBRANCH   1   8
TORSDOF 1
ENDMDL
