MODEL 1
REMARK minimizedAffinity -4.7459445
REMARK minimizedRMSD -1
REMARK  1 active torsions:
REMARK  status: ('A' for Active; 'I' for Inactive)
REMARK    1  A    between atoms: C1_2  and  C2_3 
ROOT
ATOM      1  C2  UNL d   1       0.217  -0.114  -0.389  0.00  0.00    -0.073 A 
ATOM      2  C3  UNL d   1       0.764   1.024  -0.993  0.00  0.00    -0.002 A 
ATOM      3  C4  UNL d   1       1.863   0.910  -1.845  0.00  0.00     0.004 A 
ATOM      4  C5  UNL d   1       2.421  -0.341  -2.108  0.00  0.00    -0.004 A 
ATOM      5  C6  UNL d   1       1.880  -1.491  -1.524  0.00  0.00    -0.075 A 
ATOM      6  C7  UNL d   1       2.470  -2.844  -1.794  0.00  0.00     0.076 C 
ATOM      7  C8  UNL d   1       0.778  -1.368  -0.667  0.00  0.00     0.001 A 
ENDROOT
BRANCH   1   8
ATOM      8  C1  UNL d   1      -0.974   0.003   0.527  0.00  0.00     0.053 C 
ATOM      9  C   UNL d   1      -0.760  -0.738   1.837  0.00  0.00     0.018 C 
ENDBRANCH   1   8
TORSDOF 1
ENDMDL
