MODEL 1
REMARK minimizedAffinity 8.28873539
REMARK minimizedRMSD -1
REMARK  1 active torsions:
REMARK  status: ('A' for Active; 'I' for Inactive)
REMARK    1  A    between atoms: C1_2  and  C2_3 
ROOT
ATOM      1  C2  UNL d   1      -2.858   1.268   4.919  0.00  0.00    -0.073 A 
ATOM      2  C3  UNL d   1      -2.877   1.873   3.657  0.00  0.00    -0.002 A 
ATOM      3  C4  UNL d   1      -3.753   1.418   2.671  0.00  0.00     0.004 A 
ATOM      4  C5  UNL d   1      -4.621   0.360   2.937  0.00  0.00    -0.004 A 
ATOM      5  C6  UNL d   1      -4.625  -0.250   4.195  0.00  0.00    -0.075 A 
ATOM      6  C7  UNL d   1      -5.552  -1.392   4.497  0.00  0.00     0.076 C 
ATOM      7  C8  UNL d   1      -3.741   0.211   5.180  0.00  0.00     0.001 A 
ENDROOT
BRANCH   1   8
ATOM      8  C1  UNL d   1      -1.919   1.761   5.990  0.00  0.00     0.053 C 
ATOM      9  C   UNL d   1      -0.610   0.987   6.000  0.00  0.00     0.018 C 
ENDBRANCH   1   8
TORSDOF 1
ENDMDL
