MODEL 1
REMARK minimizedAffinity -3.64840913
REMARK minimizedRMSD -1
REMARK  3 active torsions:
REMARK  status: ('A' for Active; 'I' for Inactive)
REMARK    1  A    between atoms: C3'_2  and  C2'_3 
REMARK    2  A    between atoms: C2'_3  and  C1'_4 
REMARK    3  A    between atoms: C1'_4  and  C1_5 
ROOT
ATOM      1  C1  N4B d   1       0.558   0.879   2.021  0.00  0.00    -0.075 A 
ATOM      2  C2  N4B d   1      -0.105   1.049   3.256  0.00  0.00     0.002 A 
ATOM      3  C3  N4B d   1       0.604   0.992   4.430  0.00  0.00     0.002 A 
ATOM      4  C4  N4B d   1       1.969   0.746   4.396  0.00  0.00    -0.004 A 
ATOM      5  C5  N4B d   1       2.607   0.608   3.198  0.00  0.00     0.002 A 
ATOM      6  C6  N4B d   1       1.907   0.668   2.009  0.00  0.00     0.002 A 
ENDROOT
BRANCH   1   7
ATOM      7  C1' N4B d   1      -0.189   0.848   0.716  0.00  0.00     0.057 C 
BRANCH   7   8
ATOM      8  C2' N4B d   1      -0.144  -0.567   0.146  0.00  0.00     0.009 C 
BRANCH   8   9
ATOM      9  C3' N4B d   1      -1.533  -1.161  -0.009  0.00  0.00     0.004 C 
ATOM     10  C4' N4B d   1      -2.550  -0.499   0.872  0.00  0.00     0.003 C 
ENDBRANCH   8   9
ENDBRANCH   7   8
ENDBRANCH   1   7
TORSDOF 3
ENDMDL
