MODEL 1
REMARK minimizedAffinity 13.8166246
REMARK minimizedRMSD -1
REMARK  3 active torsions:
REMARK  status: ('A' for Active; 'I' for Inactive)
REMARK    1  A    between atoms: C3'_2  and  C2'_3 
REMARK    2  A    between atoms: C2'_3  and  C1'_4 
REMARK    3  A    between atoms: C1'_4  and  C1_5 
ROOT
ATOM      1  C1  N4B d   1      -1.075  -2.106   0.990  0.00  0.00    -0.075 A 
ATOM      2  C2  N4B d   1      -1.130  -2.703  -0.288  0.00  0.00     0.002 A 
ATOM      3  C3  N4B d   1      -1.176  -1.916  -1.413  0.00  0.00     0.002 A 
ATOM      4  C4  N4B d   1      -1.188  -0.535  -1.283  0.00  0.00    -0.004 A 
ATOM      5  C5  N4B d   1      -1.109   0.034  -0.046  0.00  0.00     0.002 A 
ATOM      6  C6  N4B d   1      -1.058  -0.745   1.093  0.00  0.00     0.002 A 
ENDROOT
BRANCH   1   7
ATOM      7  C1' N4B d   1      -1.110  -2.925   2.252  0.00  0.00     0.057 C 
BRANCH   7   8
ATOM      8  C2' N4B d   1      -1.074  -4.406   1.888  0.00  0.00     0.009 C 
BRANCH   8   9
ATOM      9  C3' N4B d   1      -1.854  -5.254   2.878  0.00  0.00     0.004 C 
ATOM     10  C4' N4B d   1      -2.989  -5.996   2.239  0.00  0.00     0.003 C 
ENDBRANCH   8   9
ENDBRANCH   7   8
ENDBRANCH   1   7
TORSDOF 3
ENDMDL
