MODEL 1
REMARK minimizedAffinity -0.527870059
REMARK minimizedRMSD -1
REMARK  3 active torsions:
REMARK  status: ('A' for Active; 'I' for Inactive)
REMARK    1  A    between atoms: C3'_2  and  C2'_3 
REMARK    2  A    between atoms: C2'_3  and  C1'_4 
REMARK    3  A    between atoms: C1'_4  and  C1_5 
ROOT
ATOM      1  C1  N4B d   1      -3.818   4.882  -5.120  0.00  0.00    -0.075 A 
ATOM      2  C2  N4B d   1      -4.913   5.473  -5.786  0.00  0.00     0.002 A 
ATOM      3  C3  N4B d   1      -5.989   5.931  -5.066  0.00  0.00     0.002 A 
ATOM      4  C4  N4B d   1      -6.000   5.793  -3.686  0.00  0.00    -0.004 A 
ATOM      5  C5  N4B d   1      -4.926   5.244  -3.048  0.00  0.00     0.002 A 
ATOM      6  C6  N4B d   1      -3.837   4.783  -3.759  0.00  0.00     0.002 A 
ENDROOT
BRANCH   1   7
ATOM      7  C1' N4B d   1      -2.657   4.288  -5.871  0.00  0.00     0.057 C 
BRANCH   7   8
ATOM      8  C2' N4B d   1      -2.343   2.909  -5.299  0.00  0.00     0.009 C 
BRANCH   8   9
ATOM      9  C3' N4B d   1      -0.890   2.787  -4.874  0.00  0.00     0.004 C 
ATOM     10  C4' N4B d   1      -0.687   1.783  -3.780  0.00  0.00     0.003 C 
ENDBRANCH   8   9
ENDBRANCH   7   8
ENDBRANCH   1   7
TORSDOF 3
ENDMDL
