MODEL 1
REMARK minimizedAffinity 9.46951675
REMARK minimizedRMSD -1
REMARK  3 active torsions:
REMARK  status: ('A' for Active; 'I' for Inactive)
REMARK    1  A    between atoms: C3'_2  and  C2'_3 
REMARK    2  A    between atoms: C2'_3  and  C1'_4 
REMARK    3  A    between atoms: C1'_4  and  C1_5 
ROOT
ATOM      1  C1  N4B d   1      -4.534   3.665   3.674  0.00  0.00    -0.075 A 
ATOM      2  C2  N4B d   1      -5.262   3.946   4.851  0.00  0.00     0.002 A 
ATOM      3  C3  N4B d   1      -5.995   5.103   4.945  0.00  0.00     0.002 A 
ATOM      4  C4  N4B d   1      -6.000   6.000   3.887  0.00  0.00    -0.004 A 
ATOM      5  C5  N4B d   1      -5.315   5.709   2.744  0.00  0.00     0.002 A 
ATOM      6  C6  N4B d   1      -4.577   4.547   2.634  0.00  0.00     0.002 A 
ENDROOT
BRANCH   1   7
ATOM      7  C1' N4B d   1      -3.650   2.453   3.557  0.00  0.00     0.057 C 
BRANCH   7   8
ATOM      8  C2' N4B d   1      -2.960   2.466   2.196  0.00  0.00     0.009 C 
BRANCH   8   9
ATOM      9  C3' N4B d   1      -3.081   1.129   1.485  0.00  0.00     0.004 C 
ATOM     10  C4' N4B d   1      -1.803   0.704   0.826  0.00  0.00     0.003 C 
ENDBRANCH   8   9
ENDBRANCH   7   8
ENDBRANCH   1   7
TORSDOF 3
ENDMDL
