MODEL 1
REMARK minimizedAffinity 8.43140984
REMARK minimizedRMSD -1
REMARK  3 active torsions:
REMARK  status: ('A' for Active; 'I' for Inactive)
REMARK    1  A    between atoms: C3'_2  and  C2'_3 
REMARK    2  A    between atoms: C2'_3  and  C1'_4 
REMARK    3  A    between atoms: C1'_4  and  C1_5 
ROOT
ATOM      1  C1  N4B d   1      -0.068   1.492  -3.600  0.00  0.00    -0.075 A 
ATOM      2  C2  N4B d   1      -1.281   0.792  -3.779  0.00  0.00     0.002 A 
ATOM      3  C3  N4B d   1      -1.573  -0.291  -2.987  0.00  0.00     0.002 A 
ATOM      4  C4  N4B d   1      -0.662  -0.702  -2.025  0.00  0.00    -0.004 A 
ATOM      5  C5  N4B d   1       0.496  -0.005  -1.841  0.00  0.00     0.002 A 
ATOM      6  C6  N4B d   1       0.800   1.088  -2.627  0.00  0.00     0.002 A 
ENDROOT
BRANCH   1   7
ATOM      7  C1' N4B d   1       0.333   2.629  -4.499  0.00  0.00     0.057 C 
BRANCH   7   8
ATOM      8  C2' N4B d   1      -0.455   2.539  -5.803  0.00  0.00     0.009 C 
BRANCH   8   9
ATOM      9  C3' N4B d   1      -1.377   3.730  -5.993  0.00  0.00     0.004 C 
ATOM     10  C4' N4B d   1      -2.828   3.361  -5.906  0.00  0.00     0.003 C 
ENDBRANCH   8   9
ENDBRANCH   7   8
ENDBRANCH   1   7
TORSDOF 3
ENDMDL
