MODEL 1
REMARK minimizedAffinity -1.5107429
REMARK minimizedRMSD -1
REMARK  3 active torsions:
REMARK  status: ('A' for Active; 'I' for Inactive)
REMARK    1  A    between atoms: C3'_2  and  C2'_3 
REMARK    2  A    between atoms: C2'_3  and  C1'_4 
REMARK    3  A    between atoms: C1'_4  and  C1_5 
ROOT
ATOM      1  C1  N4B d   1      -3.663   5.337  -5.284  0.00  0.00    -0.075 A 
ATOM      2  C2  N4B d   1      -4.855   5.601  -5.993  0.00  0.00     0.002 A 
ATOM      3  C3  N4B d   1      -5.999   5.937  -5.312  0.00  0.00     0.002 A 
ATOM      4  C4  N4B d   1      -5.980   5.997  -3.926  0.00  0.00    -0.004 A 
ATOM      5  C5  N4B d   1      -4.818   5.766  -3.250  0.00  0.00     0.002 A 
ATOM      6  C6  N4B d   1      -3.660   5.431  -3.922  0.00  0.00     0.002 A 
ENDROOT
BRANCH   1   7
ATOM      7  C1' N4B d   1      -2.409   4.883  -5.979  0.00  0.00     0.057 C 
BRANCH   7   8
ATOM      8  C2' N4B d   1      -2.296   3.365  -5.866  0.00  0.00     0.009 C 
BRANCH   8   9
ATOM      9  C3' N4B d   1      -2.159   2.912  -4.422  0.00  0.00     0.004 C 
ATOM     10  C4' N4B d   1      -0.739   2.630  -4.034  0.00  0.00     0.003 C 
ENDBRANCH   8   9
ENDBRANCH   7   8
ENDBRANCH   1   7
TORSDOF 3
ENDMDL
