MODEL 1
REMARK minimizedAffinity -2.48199558
REMARK minimizedRMSD -1
REMARK  3 active torsions:
REMARK  status: ('A' for Active; 'I' for Inactive)
REMARK    1  A    between atoms: C3'_2  and  C2'_3 
REMARK    2  A    between atoms: C2'_3  and  C1'_4 
REMARK    3  A    between atoms: C1'_4  and  C1_5 
ROOT
ATOM      1  C1  N4B d   1      -4.706   5.186  -4.549  0.00  0.00    -0.075 A 
ATOM      2  C2  N4B d   1      -5.950   5.294  -3.889  0.00  0.00     0.002 A 
ATOM      3  C3  N4B d   1      -5.999   5.708  -2.581  0.00  0.00     0.002 A 
ATOM      4  C4  N4B d   1      -4.822   5.999  -1.909  0.00  0.00    -0.004 A 
ATOM      5  C5  N4B d   1      -3.626   5.917  -2.561  0.00  0.00     0.002 A 
ATOM      6  C6  N4B d   1      -3.562   5.506  -3.877  0.00  0.00     0.002 A 
ENDROOT
BRANCH   1   7
ATOM      7  C1' N4B d   1      -4.594   4.655  -5.952  0.00  0.00     0.057 C 
BRANCH   7   8
ATOM      8  C2' N4B d   1      -3.635   3.469  -5.965  0.00  0.00     0.009 C 
BRANCH   8   9
ATOM      9  C3' N4B d   1      -2.184   3.910  -5.885  0.00  0.00     0.004 C 
ATOM     10  C4' N4B d   1      -1.375   3.078  -4.935  0.00  0.00     0.003 C 
ENDBRANCH   8   9
ENDBRANCH   7   8
ENDBRANCH   1   7
TORSDOF 3
ENDMDL
