MODEL 1
REMARK minimizedAffinity 3.26350594
REMARK minimizedRMSD -1
REMARK  3 active torsions:
REMARK  status: ('A' for Active; 'I' for Inactive)
REMARK    1  A    between atoms: C3'_2  and  C2'_3 
REMARK    2  A    between atoms: C2'_3  and  C1'_4 
REMARK    3  A    between atoms: C1'_4  and  C1_5 
ROOT
ATOM      1  C1  N4B d   1       4.583   3.592   3.657  0.00  0.00    -0.075 A 
ATOM      2  C2  N4B d   1       5.065   4.881   3.974  0.00  0.00     0.002 A 
ATOM      3  C3  N4B d   1       5.776   5.083   5.131  0.00  0.00     0.002 A 
ATOM      4  C4  N4B d   1       6.000   4.019   5.993  0.00  0.00    -0.004 A 
ATOM      5  C5  N4B d   1       5.552   2.772   5.667  0.00  0.00     0.002 A 
ATOM      6  C6  N4B d   1       4.840   2.554   4.505  0.00  0.00     0.002 A 
ENDROOT
BRANCH   1   7
ATOM      7  C1' N4B d   1       3.727   3.340   2.446  0.00  0.00     0.057 C 
BRANCH   7   8
ATOM      8  C2' N4B d   1       4.118   4.320   1.343  0.00  0.00     0.009 C 
BRANCH   8   9
ATOM      9  C3' N4B d   1       3.296   4.116   0.083  0.00  0.00     0.004 C 
ATOM     10  C4' N4B d   1       4.134   4.088  -1.160  0.00  0.00     0.003 C 
ENDBRANCH   8   9
ENDBRANCH   7   8
ENDBRANCH   1   7
TORSDOF 3
ENDMDL
