MODEL 1
REMARK minimizedAffinity 4.19882441
REMARK minimizedRMSD -1
REMARK  3 active torsions:
REMARK  status: ('A' for Active; 'I' for Inactive)
REMARK    1  A    between atoms: C3'_2  and  C2'_3 
REMARK    2  A    between atoms: C2'_3  and  C1'_4 
REMARK    3  A    between atoms: C1'_4  and  C1_5 
ROOT
ATOM      1  C1  N4B d   1      -1.232  -2.634   2.233  0.00  0.00    -0.075 A 
ATOM      2  C2  N4B d   1      -1.897  -2.024   3.319  0.00  0.00     0.002 A 
ATOM      3  C3  N4B d   1      -2.505  -2.800   4.275  0.00  0.00     0.002 A 
ATOM      4  C4  N4B d   1      -2.477  -4.182   4.156  0.00  0.00    -0.004 A 
ATOM      5  C5  N4B d   1      -1.810  -4.763   3.118  0.00  0.00     0.002 A 
ATOM      6  C6  N4B d   1      -1.191  -3.996   2.152  0.00  0.00     0.002 A 
ENDROOT
BRANCH   1   7
ATOM      7  C1' N4B d   1      -0.626  -1.826   1.117  0.00  0.00     0.057 C 
BRANCH   7   8
ATOM      8  C2' N4B d   1      -1.721  -1.006   0.442  0.00  0.00     0.009 C 
BRANCH   8   9
ATOM      9  C3' N4B d   1      -1.231  -0.346  -0.835  0.00  0.00     0.004 C 
ATOM     10  C4' N4B d   1      -1.588  -1.125  -2.066  0.00  0.00     0.003 C 
ENDBRANCH   8   9
ENDBRANCH   7   8
ENDBRANCH   1   7
TORSDOF 3
ENDMDL
