MODEL 1
REMARK minimizedAffinity 20.8160038
REMARK minimizedRMSD -1
REMARK  3 active torsions:
REMARK  status: ('A' for Active; 'I' for Inactive)
REMARK    1  A    between atoms: C3'_2  and  C2'_3 
REMARK    2  A    between atoms: C2'_3  and  C1'_4 
REMARK    3  A    between atoms: C1'_4  and  C1_5 
ROOT
ATOM      1  C1  N4B d   1      -2.690   1.771   1.442  0.00  0.00    -0.075 A 
ATOM      2  C2  N4B d   1      -2.530   2.029   2.822  0.00  0.00     0.002 A 
ATOM      3  C3  N4B d   1      -1.735   3.068   3.239  0.00  0.00     0.002 A 
ATOM      4  C4  N4B d   1      -1.078   3.849   2.299  0.00  0.00    -0.004 A 
ATOM      5  C5  N4B d   1      -1.258   3.609   0.968  0.00  0.00     0.002 A 
ATOM      6  C6  N4B d   1      -2.057   2.571   0.535  0.00  0.00     0.002 A 
ENDROOT
BRANCH   1   7
ATOM      7  C1' N4B d   1      -3.480   0.594   0.941  0.00  0.00     0.057 C 
BRANCH   7   8
ATOM      8  C2' N4B d   1      -2.555  -0.613   0.814  0.00  0.00     0.009 C 
BRANCH   8   9
ATOM      9  C3' N4B d   1      -2.167  -1.177   2.171  0.00  0.00     0.004 C 
ATOM     10  C4' N4B d   1      -2.867  -2.465   2.485  0.00  0.00     0.003 C 
ENDBRANCH   8   9
ENDBRANCH   7   8
ENDBRANCH   1   7
TORSDOF 3
ENDMDL
