MODEL 1
REMARK minimizedAffinity 10.9273233
REMARK minimizedRMSD -1
REMARK  3 active torsions:
REMARK  status: ('A' for Active; 'I' for Inactive)
REMARK    1  A    between atoms: C3'_2  and  C2'_3 
REMARK    2  A    between atoms: C2'_3  and  C1'_4 
REMARK    3  A    between atoms: C1'_4  and  C1_5 
ROOT
ATOM      1  C1  N4B d   1      -1.131  -3.184   1.357  0.00  0.00    -0.075 A 
ATOM      2  C2  N4B d   1      -1.430  -2.014   2.089  0.00  0.00     0.002 A 
ATOM      3  C3  N4B d   1      -1.569  -0.814   1.437  0.00  0.00     0.002 A 
ATOM      4  C4  N4B d   1      -1.394  -0.755   0.063  0.00  0.00    -0.004 A 
ATOM      5  C5  N4B d   1      -1.130  -1.894  -0.640  0.00  0.00     0.002 A 
ATOM      6  C6  N4B d   1      -0.992  -3.109   0.002  0.00  0.00     0.002 A 
ENDROOT
BRANCH   1   7
ATOM      7  C1' N4B d   1      -0.885  -4.504   2.036  0.00  0.00     0.057 C 
BRANCH   7   8
ATOM      8  C2' N4B d   1      -2.169  -4.961   2.723  0.00  0.00     0.009 C 
BRANCH   8   9
ATOM      9  C3' N4B d   1      -2.808  -3.845   3.531  0.00  0.00     0.004 C 
ATOM     10  C4' N4B d   1      -2.860  -4.146   4.999  0.00  0.00     0.003 C 
ENDBRANCH   8   9
ENDBRANCH   7   8
ENDBRANCH   1   7
TORSDOF 3
ENDMDL
