MODEL 1
REMARK minimizedAffinity 3.85121274
REMARK minimizedRMSD -1
REMARK  3 active torsions:
REMARK  status: ('A' for Active; 'I' for Inactive)
REMARK    1  A    between atoms: C3'_2  and  C2'_3 
REMARK    2  A    between atoms: C2'_3  and  C1'_4 
REMARK    3  A    between atoms: C1'_4  and  C1_5 
ROOT
ATOM      1  C1  N4B d   1      -3.803   4.194   4.481  0.00  0.00    -0.075 A 
ATOM      2  C2  N4B d   1      -3.810   5.436   5.152  0.00  0.00     0.002 A 
ATOM      3  C3  N4B d   1      -4.901   5.807   5.900  0.00  0.00     0.002 A 
ATOM      4  C4  N4B d   1      -6.000   4.963   5.974  0.00  0.00    -0.004 A 
ATOM      5  C5  N4B d   1      -5.975   3.754   5.343  0.00  0.00     0.002 A 
ATOM      6  C6  N4B d   1      -4.883   3.367   4.592  0.00  0.00     0.002 A 
ENDROOT
BRANCH   1   7
ATOM      7  C1' N4B d   1      -2.668   3.783   3.582  0.00  0.00     0.057 C 
BRANCH   7   8
ATOM      8  C2' N4B d   1      -3.234   3.095   2.344  0.00  0.00     0.009 C 
BRANCH   8   9
ATOM      9  C3' N4B d   1      -2.579   3.594   1.067  0.00  0.00     0.004 C 
ATOM     10  C4' N4B d   1      -1.256   4.254   1.314  0.00  0.00     0.003 C 
ENDBRANCH   8   9
ENDBRANCH   7   8
ENDBRANCH   1   7
TORSDOF 3
ENDMDL
