MODEL 1
REMARK minimizedAffinity 1.57882071
REMARK minimizedRMSD -1
REMARK  0 active torsions:
REMARK  status: ('A' for Active; 'I' for Inactive)
ROOT
ATOM      1  C   UNL d   1      -3.422  -0.615  -1.042  0.00  0.00     0.078 C 
ATOM      2  C1  UNL d   1      -2.290   0.038  -1.777  0.00  0.00    -0.077 A 
ATOM      3  C2  UNL d   1      -1.495   1.012  -1.160  0.00  0.00    -0.001 A 
ATOM      4  C3  UNL d   1      -0.450   1.618  -1.861  0.00  0.00     0.003 A 
ATOM      5  C4  UNL d   1      -0.192   1.257  -3.182  0.00  0.00    -0.005 A 
ATOM      6  C5  UNL d   1      -0.979   0.291  -3.805  0.00  0.00     0.003 A 
ATOM      7  C6  UNL d   1      -2.024  -0.316  -3.106  0.00  0.00    -0.001 A 
ENDROOT
TORSDOF 0
ENDMDL
