MODEL 1
REMARK minimizedAffinity -3.00640416
REMARK minimizedRMSD -1
REMARK  0 active torsions:
REMARK  status: ('A' for Active; 'I' for Inactive)
ROOT
ATOM      1  C   UNL d   1      -0.490   3.058  -2.209  0.00  0.00     0.078 C 
ATOM      2  C1  UNL d   1      -0.957   2.990  -0.786  0.00  0.00    -0.077 A 
ATOM      3  C2  UNL d   1      -1.839   3.948  -0.270  0.00  0.00    -0.001 A 
ATOM      4  C3  UNL d   1      -2.258   3.878   1.059  0.00  0.00     0.003 A 
ATOM      5  C4  UNL d   1      -1.800   2.853   1.884  0.00  0.00    -0.005 A 
ATOM      6  C5  UNL d   1      -0.920   1.897   1.381  0.00  0.00     0.003 A 
ATOM      7  C6  UNL d   1      -0.500   1.965   0.051  0.00  0.00    -0.001 A 
ENDROOT
TORSDOF 0
ENDMDL
