MODEL 1
REMARK minimizedAffinity 2.91558242
REMARK minimizedRMSD -1
REMARK  0 active torsions:
REMARK  status: ('A' for Active; 'I' for Inactive)
ROOT
ATOM      1  C   UNL d   1      -0.101  -0.790   4.158  0.00  0.00     0.078 C 
ATOM      2  C1  UNL d   1      -0.102   0.187   3.021  0.00  0.00    -0.077 A 
ATOM      3  C2  UNL d   1       0.765   0.029   1.933  0.00  0.00    -0.001 A 
ATOM      4  C3  UNL d   1       0.760   0.952   0.886  0.00  0.00     0.003 A 
ATOM      5  C4  UNL d   1      -0.109   2.040   0.917  0.00  0.00    -0.005 A 
ATOM      6  C5  UNL d   1      -0.974   2.207   1.996  0.00  0.00     0.003 A 
ATOM      7  C6  UNL d   1      -0.971   1.285   3.044  0.00  0.00    -0.001 A 
ENDROOT
TORSDOF 0
ENDMDL
