MODEL 1
REMARK minimizedAffinity 5.29800606
REMARK minimizedRMSD -1
REMARK  0 active torsions:
REMARK  status: ('A' for Active; 'I' for Inactive)
ROOT
ATOM      1  C   UNL d   1      -1.970   2.784   0.382  0.00  0.00     0.078 C 
ATOM      2  C1  UNL d   1      -1.705   1.762  -0.683  0.00  0.00    -0.077 A 
ATOM      3  C2  UNL d   1      -2.272   0.484  -0.612  0.00  0.00    -0.001 A 
ATOM      4  C3  UNL d   1      -2.008  -0.461  -1.605  0.00  0.00     0.003 A 
ATOM      5  C4  UNL d   1      -1.177  -0.138  -2.676  0.00  0.00    -0.005 A 
ATOM      6  C5  UNL d   1      -0.607   1.131  -2.753  0.00  0.00     0.003 A 
ATOM      7  C6  UNL d   1      -0.869   2.077  -1.761  0.00  0.00    -0.001 A 
ENDROOT
TORSDOF 0
ENDMDL
