MODEL 1
REMARK minimizedAffinity 1.8231281
REMARK minimizedRMSD -1
REMARK  0 active torsions:
REMARK  status: ('A' for Active; 'I' for Inactive)
ROOT
ATOM      1  C   UNL d   1      -0.430   1.961   2.232  0.00  0.00     0.078 C 
ATOM      2  C1  UNL d   1      -0.505   2.532   0.848  0.00  0.00    -0.077 A 
ATOM      3  C2  UNL d   1      -0.762   3.893   0.642  0.00  0.00    -0.001 A 
ATOM      4  C3  UNL d   1      -0.839   4.409  -0.653  0.00  0.00     0.003 A 
ATOM      5  C4  UNL d   1      -0.662   3.571  -1.752  0.00  0.00    -0.005 A 
ATOM      6  C5  UNL d   1      -0.408   2.215  -1.557  0.00  0.00     0.003 A 
ATOM      7  C6  UNL d   1      -0.331   1.697  -0.263  0.00  0.00    -0.001 A 
ENDROOT
TORSDOF 0
ENDMDL
