MODEL 1
REMARK minimizedAffinity 2.94857287
REMARK minimizedRMSD -1
REMARK  0 active torsions:
REMARK  status: ('A' for Active; 'I' for Inactive)
ROOT
ATOM      1  C   UNL d   1      -0.135   1.250  -1.403  0.00  0.00     0.078 C 
ATOM      2  C1  UNL d   1      -0.120   1.453   0.083  0.00  0.00    -0.077 A 
ATOM      3  C2  UNL d   1      -0.026   0.365   0.959  0.00  0.00    -0.001 A 
ATOM      4  C3  UNL d   1      -0.022   0.569   2.340  0.00  0.00     0.003 A 
ATOM      5  C4  UNL d   1      -0.113   1.860   2.857  0.00  0.00    -0.005 A 
ATOM      6  C5  UNL d   1      -0.209   2.949   1.993  0.00  0.00     0.003 A 
ATOM      7  C6  UNL d   1      -0.213   2.747   0.611  0.00  0.00    -0.001 A 
ENDROOT
TORSDOF 0
ENDMDL
