MODEL 1
REMARK minimizedAffinity 1.29257727
REMARK minimizedRMSD -1
REMARK  0 active torsions:
REMARK  status: ('A' for Active; 'I' for Inactive)
ROOT
ATOM      1  C   UNL d   1      -0.445   0.895   2.788  0.00  0.00     0.078 C 
ATOM      2  C1  UNL d   1      -0.541   1.636   1.489  0.00  0.00    -0.077 A 
ATOM      3  C2  UNL d   1      -0.707   3.026   1.462  0.00  0.00    -0.001 A 
ATOM      4  C3  UNL d   1      -0.805   3.702   0.245  0.00  0.00     0.003 A 
ATOM      5  C4  UNL d   1      -0.738   2.996  -0.955  0.00  0.00    -0.005 A 
ATOM      6  C5  UNL d   1      -0.575   1.613  -0.938  0.00  0.00     0.003 A 
ATOM      7  C6  UNL d   1      -0.477   0.935   0.278  0.00  0.00    -0.001 A 
ENDROOT
TORSDOF 0
ENDMDL
