MODEL 1
REMARK minimizedAffinity 2.80963874
REMARK minimizedRMSD -1
REMARK  0 active torsions:
REMARK  status: ('A' for Active; 'I' for Inactive)
ROOT
ATOM      1  C   UNL d   1       1.781  -0.272  -0.200  0.00  0.00     0.078 C 
ATOM      2  C1  UNL d   1       2.756  -1.265  -0.759  0.00  0.00    -0.077 A 
ATOM      3  C2  UNL d   1       2.501  -2.640  -0.698  0.00  0.00    -0.001 A 
ATOM      4  C3  UNL d   1       3.422  -3.553  -1.214  0.00  0.00     0.003 A 
ATOM      5  C4  UNL d   1       4.606  -3.100  -1.793  0.00  0.00    -0.005 A 
ATOM      6  C5  UNL d   1       4.870  -1.734  -1.856  0.00  0.00     0.003 A 
ATOM      7  C6  UNL d   1       3.950  -0.819  -1.341  0.00  0.00    -0.001 A 
ENDROOT
TORSDOF 0
ENDMDL
