MODEL 1
REMARK minimizedAffinity 7.37814379
REMARK minimizedRMSD -1
REMARK  0 active torsions:
REMARK  status: ('A' for Active; 'I' for Inactive)
ROOT
ATOM      1  C   UNL d   1       2.173   0.140   0.818  0.00  0.00     0.078 C 
ATOM      2  C1  UNL d   1       1.044   0.880   1.470  0.00  0.00    -0.077 A 
ATOM      3  C2  UNL d   1       0.362   0.337   2.566  0.00  0.00    -0.001 A 
ATOM      4  C3  UNL d   1      -0.693   1.033   3.157  0.00  0.00     0.003 A 
ATOM      5  C4  UNL d   1      -1.077   2.277   2.659  0.00  0.00    -0.005 A 
ATOM      6  C5  UNL d   1      -0.406   2.825   1.567  0.00  0.00     0.003 A 
ATOM      7  C6  UNL d   1       0.649   2.130   0.975  0.00  0.00    -0.001 A 
ENDROOT
TORSDOF 0
ENDMDL
