MODEL 1
REMARK minimizedAffinity -3.20034647
REMARK minimizedRMSD -1
REMARK  0 active torsions:
REMARK  status: ('A' for Active; 'I' for Inactive)
ROOT
ATOM      1  C   UNL d   1       2.708  -1.587  -2.056  0.00  0.00    -0.002 A 
ATOM      2  C1  UNL d   1       1.994  -2.562  -1.374  0.00  0.00     0.010 A 
ATOM      3  C2  UNL d   1       0.919  -2.213  -0.555  0.00  0.00     0.041 A 
ATOM      4  C3  UNL d   1       0.567  -0.854  -0.434  0.00  0.00    -0.075 A 
ATOM      5  S   UNL d   1      -0.713  -0.191   0.511  0.00  0.00     0.015 SA
ATOM      6  C4  UNL d   1      -0.344   1.402   0.031  0.00  0.00     0.022 A 
ATOM      7  C5  UNL d   1       0.727   1.446  -0.829  0.00  0.00     0.026 A 
ATOM      8  C6  UNL d   1       1.270   0.146  -1.112  0.00  0.00    -0.082 A 
ATOM      9  C7  UNL d   1       2.356  -0.240  -1.934  0.00  0.00     0.045 A 
ENDROOT
TORSDOF 0
ENDMDL
