MODEL 1
REMARK minimizedAffinity 0.0370085686
REMARK minimizedRMSD -1
REMARK  0 active torsions:
REMARK  status: ('A' for Active; 'I' for Inactive)
ROOT
ATOM      1  C   UNL d   1       1.373   1.306  -1.884  0.00  0.00    -0.002 A 
ATOM      2  C1  UNL d   1       1.714  -0.036  -1.784  0.00  0.00     0.010 A 
ATOM      3  C2  UNL d   1       1.168  -0.835  -0.778  0.00  0.00     0.041 A 
ATOM      4  C3  UNL d   1       0.262  -0.258   0.134  0.00  0.00    -0.075 A 
ATOM      5  S   UNL d   1      -0.533  -1.043   1.447  0.00  0.00     0.015 SA
ATOM      6  C4  UNL d   1      -1.345   0.384   1.906  0.00  0.00     0.022 A 
ATOM      7  C5  UNL d   1      -1.028   1.443   1.089  0.00  0.00     0.026 A 
ATOM      8  C6  UNL d   1      -0.097   1.091   0.054  0.00  0.00    -0.082 A 
ATOM      9  C7  UNL d   1       0.474   1.874  -0.977  0.00  0.00     0.045 A 
ENDROOT
TORSDOF 0
ENDMDL
