MODEL 1
REMARK minimizedAffinity -1.73854852
REMARK minimizedRMSD -1
REMARK  0 active torsions:
REMARK  status: ('A' for Active; 'I' for Inactive)
ROOT
ATOM      1  C   UNL d   1       0.914   1.777  -1.667  0.00  0.00    -0.002 A 
ATOM      2  C1  UNL d   1       1.763   0.710  -1.412  0.00  0.00     0.010 A 
ATOM      3  C2  UNL d   1       1.466  -0.208  -0.402  0.00  0.00     0.041 A 
ATOM      4  C3  UNL d   1       0.289  -0.035   0.352  0.00  0.00    -0.075 A 
ATOM      5  S   UNL d   1      -0.279  -1.034   1.637  0.00  0.00     0.015 SA
ATOM      6  C4  UNL d   1      -1.663  -0.068   1.876  0.00  0.00     0.022 A 
ATOM      7  C5  UNL d   1      -1.706   0.995   1.006  0.00  0.00     0.026 A 
ATOM      8  C6  UNL d   1      -0.582   1.032   0.112  0.00  0.00    -0.082 A 
ATOM      9  C7  UNL d   1      -0.253   1.946  -0.917  0.00  0.00     0.045 A 
ENDROOT
TORSDOF 0
ENDMDL
