MODEL 1
REMARK minimizedAffinity -0.0160473399
REMARK minimizedRMSD -1
REMARK  0 active torsions:
REMARK  status: ('A' for Active; 'I' for Inactive)
ROOT
ATOM      1  C   UNL d   1       2.851  -1.719  -1.941  0.00  0.00    -0.002 A 
ATOM      2  C1  UNL d   1       2.118  -2.730  -1.335  0.00  0.00     0.010 A 
ATOM      3  C2  UNL d   1       1.042  -2.424  -0.499  0.00  0.00     0.041 A 
ATOM      4  C3  UNL d   1       0.711  -1.072  -0.281  0.00  0.00    -0.075 A 
ATOM      5  S   UNL d   1      -0.566  -0.459   0.702  0.00  0.00     0.015 SA
ATOM      6  C4  UNL d   1      -0.169   1.158   0.340  0.00  0.00     0.022 A 
ATOM      7  C5  UNL d   1       0.909   1.247  -0.508  0.00  0.00     0.026 A 
ATOM      8  C6  UNL d   1       1.433  -0.036  -0.881  0.00  0.00    -0.082 A 
ATOM      9  C7  UNL d   1       2.519  -0.379  -1.723  0.00  0.00     0.045 A 
ENDROOT
TORSDOF 0
ENDMDL
