MODEL 1
REMARK minimizedAffinity -0.900147796
REMARK minimizedRMSD -1
REMARK  0 active torsions:
REMARK  status: ('A' for Active; 'I' for Inactive)
ROOT
ATOM      1  C   UNL d   1       2.173   1.084  -1.615  0.00  0.00    -0.002 A 
ATOM      2  C1  UNL d   1       2.573  -0.239  -1.488  0.00  0.00     0.010 A 
ATOM      3  C2  UNL d   1       1.858  -1.122  -0.676  0.00  0.00     0.041 A 
ATOM      4  C3  UNL d   1       0.724  -0.649   0.012  0.00  0.00    -0.075 A 
ATOM      5  S   UNL d   1      -0.306  -1.549   1.062  0.00  0.00     0.015 SA
ATOM      6  C4  UNL d   1      -1.300  -0.199   1.366  0.00  0.00     0.022 A 
ATOM      7  C5  UNL d   1      -0.872   0.920   0.692  0.00  0.00     0.026 A 
ATOM      8  C6  UNL d   1       0.301   0.679  -0.100  0.00  0.00    -0.082 A 
ATOM      9  C7  UNL d   1       1.047   1.549  -0.931  0.00  0.00     0.045 A 
ENDROOT
TORSDOF 0
ENDMDL
