MODEL 1
REMARK minimizedAffinity -2.3390255
REMARK minimizedRMSD -1
REMARK  0 active torsions:
REMARK  status: ('A' for Active; 'I' for Inactive)
ROOT
ATOM      1  C   UNL d   1       2.953  -1.983  -2.186  0.00  0.00    -0.002 A 
ATOM      2  C1  UNL d   1       2.194  -2.916  -1.494  0.00  0.00     0.010 A 
ATOM      3  C2  UNL d   1       1.145  -2.507  -0.669  0.00  0.00     0.041 A 
ATOM      4  C3  UNL d   1       0.866  -1.131  -0.552  0.00  0.00    -0.075 A 
ATOM      5  S   UNL d   1      -0.371  -0.399   0.399  0.00  0.00     0.015 SA
ATOM      6  C4  UNL d   1       0.077   1.171  -0.091  0.00  0.00     0.022 A 
ATOM      7  C5  UNL d   1       1.143   1.155  -0.960  0.00  0.00     0.026 A 
ATOM      8  C6  UNL d   1       1.615  -0.172  -1.240  0.00  0.00    -0.082 A 
ATOM      9  C7  UNL d   1       2.673  -0.619  -2.068  0.00  0.00     0.045 A 
ENDROOT
TORSDOF 0
ENDMDL
