MODEL 1
REMARK minimizedAffinity -1.62213516
REMARK minimizedRMSD -1
REMARK  0 active torsions:
REMARK  status: ('A' for Active; 'I' for Inactive)
ROOT
ATOM      1  C   UNL d   1       0.654   0.375   0.011  0.00  0.00    -0.002 A 
ATOM      2  C1  UNL d   1      -0.107   0.710  -1.100  0.00  0.00     0.010 A 
ATOM      3  C2  UNL d   1      -1.473   0.969  -0.974  0.00  0.00     0.041 A 
ATOM      4  C3  UNL d   1      -2.067   0.886   0.300  0.00  0.00    -0.075 A 
ATOM      5  S   UNL d   1      -3.723   1.162   0.695  0.00  0.00     0.015 SA
ATOM      6  C4  UNL d   1      -3.459   0.843   2.348  0.00  0.00     0.022 A 
ATOM      7  C5  UNL d   1      -2.146   0.531   2.610  0.00  0.00     0.026 A 
ATOM      8  C6  UNL d   1      -1.322   0.552   1.435  0.00  0.00    -0.082 A 
ATOM      9  C7  UNL d   1       0.061   0.294   1.274  0.00  0.00     0.045 A 
ENDROOT
TORSDOF 0
ENDMDL
