MODEL 1
REMARK minimizedAffinity -3.521034
REMARK minimizedRMSD -1
REMARK  0 active torsions:
REMARK  status: ('A' for Active; 'I' for Inactive)
ROOT
ATOM      1  C   UNL d   1       2.748  -2.308  -2.175  0.00  0.00    -0.002 A 
ATOM      2  C1  UNL d   1       1.885  -2.909  -1.270  0.00  0.00     0.010 A 
ATOM      3  C2  UNL d   1       0.973  -2.142  -0.542  0.00  0.00     0.041 A 
ATOM      4  C3  UNL d   1       0.941  -0.748  -0.743  0.00  0.00    -0.075 A 
ATOM      5  S   UNL d   1      -0.093   0.391   0.035  0.00  0.00     0.015 SA
ATOM      6  C4  UNL d   1       0.585   1.702  -0.816  0.00  0.00     0.022 A 
ATOM      7  C5  UNL d   1       1.578   1.299  -1.677  0.00  0.00     0.026 A 
ATOM      8  C6  UNL d   1       1.799  -0.120  -1.650  0.00  0.00    -0.082 A 
ATOM      9  C7  UNL d   1       2.713  -0.925  -2.372  0.00  0.00     0.045 A 
ENDROOT
TORSDOF 0
ENDMDL
