MODEL 1
REMARK minimizedAffinity 0.0947741717
REMARK minimizedRMSD -1
REMARK  0 active torsions:
REMARK  status: ('A' for Active; 'I' for Inactive)
ROOT
ATOM      1  C   UNL d   1      -3.130   1.950   1.144  0.00  0.00    -0.002 A 
ATOM      2  C1  UNL d   1      -3.242   0.729   1.794  0.00  0.00     0.010 A 
ATOM      3  C2  UNL d   1      -2.241  -0.237   1.667  0.00  0.00     0.041 A 
ATOM      4  C3  UNL d   1      -1.114   0.050   0.872  0.00  0.00    -0.075 A 
ATOM      5  S   UNL d   1       0.236  -0.980   0.573  0.00  0.00     0.015 SA
ATOM      6  C4  UNL d   1       0.993   0.177  -0.423  0.00  0.00     0.022 A 
ATOM      7  C5  UNL d   1       0.248   1.327  -0.536  0.00  0.00     0.026 A 
ATOM      8  C6  UNL d   1      -0.979   1.273   0.209  0.00  0.00    -0.082 A 
ATOM      9  C7  UNL d   1      -2.011   2.230   0.356  0.00  0.00     0.045 A 
ENDROOT
TORSDOF 0
ENDMDL
