MODEL 1
REMARK minimizedAffinity -0.335231185
REMARK minimizedRMSD -1
REMARK  0 active torsions:
REMARK  status: ('A' for Active; 'I' for Inactive)
ROOT
ATOM      1  C   UNL d   1      -2.344  -0.146   2.296  0.00  0.00    -0.002 A 
ATOM      2  C1  UNL d   1      -3.228   0.732   1.685  0.00  0.00     0.010 A 
ATOM      3  C2  UNL d   1      -2.811   1.534   0.621  0.00  0.00     0.041 A 
ATOM      4  C3  UNL d   1      -1.478   1.437   0.176  0.00  0.00    -0.075 A 
ATOM      5  S   UNL d   1      -0.745   2.320  -1.111  0.00  0.00     0.015 SA
ATOM      6  C4  UNL d   1       0.759   1.552  -0.880  0.00  0.00     0.022 A 
ATOM      7  C5  UNL d   1       0.721   0.642   0.149  0.00  0.00     0.026 A 
ATOM      8  C6  UNL d   1      -0.569   0.560   0.775  0.00  0.00    -0.082 A 
ATOM      9  C7  UNL d   1      -1.022  -0.239   1.852  0.00  0.00     0.045 A 
ENDROOT
TORSDOF 0
ENDMDL
