MODEL 1
REMARK minimizedAffinity -0.850662351
REMARK minimizedRMSD -1
REMARK  0 active torsions:
REMARK  status: ('A' for Active; 'I' for Inactive)
ROOT
ATOM      1  C   UNL d   1       1.704   1.236  -1.786  0.00  0.00    -0.002 A 
ATOM      2  C1  UNL d   1       2.271   0.037  -1.380  0.00  0.00     0.010 A 
ATOM      3  C2  UNL d   1       1.617  -0.783  -0.458  0.00  0.00     0.041 A 
ATOM      4  C3  UNL d   1       0.369  -0.373   0.052  0.00  0.00    -0.075 A 
ATOM      5  S   UNL d   1      -0.615  -1.215   1.191  0.00  0.00     0.015 SA
ATOM      6  C4  UNL d   1      -1.813  -0.003   1.164  0.00  0.00     0.022 A 
ATOM      7  C5  UNL d   1      -1.486   1.026   0.313  0.00  0.00     0.026 A 
ATOM      8  C6  UNL d   1      -0.223   0.829  -0.342  0.00  0.00    -0.082 A 
ATOM      9  C7  UNL d   1       0.466   1.638  -1.278  0.00  0.00     0.045 A 
ENDROOT
TORSDOF 0
ENDMDL
