MODEL 1
REMARK minimizedAffinity 1.43580711
REMARK minimizedRMSD -1
REMARK  0 active torsions:
REMARK  status: ('A' for Active; 'I' for Inactive)
ROOT
ATOM      1  C   UNL d   1      -2.412   0.006   1.971  0.00  0.00    -0.002 A 
ATOM      2  C1  UNL d   1      -1.751  -1.194   2.194  0.00  0.00     0.010 A 
ATOM      3  C2  UNL d   1      -0.593  -1.511   1.481  0.00  0.00     0.041 A 
ATOM      4  C3  UNL d   1      -0.104  -0.591   0.532  0.00  0.00    -0.075 A 
ATOM      5  S   UNL d   1       1.297  -0.764  -0.458  0.00  0.00     0.015 SA
ATOM      6  C4  UNL d   1       1.052   0.751  -1.199  0.00  0.00     0.022 A 
ATOM      7  C5  UNL d   1      -0.067   1.387  -0.715  0.00  0.00     0.026 A 
ATOM      8  C6  UNL d   1      -0.751   0.624   0.291  0.00  0.00    -0.082 A 
ATOM      9  C7  UNL d   1      -1.924   0.915   1.029  0.00  0.00     0.045 A 
ENDROOT
TORSDOF 0
ENDMDL
