MODEL 1
REMARK minimizedAffinity 0.26464498
REMARK minimizedRMSD -1
REMARK  0 active torsions:
REMARK  status: ('A' for Active; 'I' for Inactive)
ROOT
ATOM      1  C   UNL d   1      -2.601  -0.080   2.444  0.00  0.00    -0.002 A 
ATOM      2  C1  UNL d   1      -3.184   1.068   1.927  0.00  0.00     0.010 A 
ATOM      3  C2  UNL d   1      -2.543   1.802   0.927  0.00  0.00     0.041 A 
ATOM      4  C3  UNL d   1      -1.294   1.358   0.450  0.00  0.00    -0.075 A 
ATOM      5  S   UNL d   1      -0.325   2.096  -0.770  0.00  0.00     0.015 SA
ATOM      6  C4  UNL d   1       0.886   0.904  -0.634  0.00  0.00     0.022 A 
ATOM      7  C5  UNL d   1       0.575  -0.041   0.314  0.00  0.00     0.026 A 
ATOM      8  C6  UNL d   1      -0.687   0.204   0.955  0.00  0.00    -0.082 A 
ATOM      9  C7  UNL d   1      -1.362  -0.518   1.968  0.00  0.00     0.045 A 
ENDROOT
TORSDOF 0
ENDMDL
