MODEL 1
REMARK minimizedAffinity -2.44453239
REMARK minimizedRMSD -1
REMARK  0 active torsions:
REMARK  status: ('A' for Active; 'I' for Inactive)
ROOT
ATOM      1  C   UNL d   1       4.019   4.448  -0.685  0.00  0.00     0.077 C 
ATOM      2  C1  UNL d   1       3.357   3.520   0.289  0.00  0.00    -0.074 A 
ATOM      3  C2  UNL d   1       2.135   2.911  -0.016  0.00  0.00    -0.005 A 
ATOM      4  C3  UNL d   1       1.536   2.042   0.896  0.00  0.00     0.006 A 
ATOM      5  C4  UNL d   1       2.151   1.773   2.119  0.00  0.00    -0.005 A 
ATOM      6  C5  UNL d   1       3.373   2.372   2.441  0.00  0.00    -0.074 A 
ATOM      7  C6  UNL d   1       4.053   2.087   3.747  0.00  0.00     0.077 C 
ATOM      8  C7  UNL d   1       3.972   3.239   1.516  0.00  0.00    -0.001 A 
ENDROOT
TORSDOF 0
ENDMDL
