MODEL 1
REMARK minimizedAffinity 2.07329488
REMARK minimizedRMSD -1
REMARK  0 active torsions:
REMARK  status: ('A' for Active; 'I' for Inactive)
ROOT
ATOM      1  C   UNL d   1       2.309   4.156  -5.999  0.00  0.00     0.077 C 
ATOM      2  C1  UNL d   1       3.600   3.434  -5.752  0.00  0.00    -0.074 A 
ATOM      3  C2  UNL d   1       4.802   4.136  -5.617  0.00  0.00    -0.005 A 
ATOM      4  C3  UNL d   1       5.993   3.451  -5.377  0.00  0.00     0.006 A 
ATOM      5  C4  UNL d   1       5.994   2.060  -5.270  0.00  0.00    -0.005 A 
ATOM      6  C5  UNL d   1       4.802   1.341  -5.402  0.00  0.00    -0.074 A 
ATOM      7  C6  UNL d   1       4.784  -0.154  -5.280  0.00  0.00     0.077 C 
ATOM      8  C7  UNL d   1       3.608   2.037  -5.635  0.00  0.00    -0.001 A 
ENDROOT
TORSDOF 0
ENDMDL
