MODEL 1
REMARK minimizedAffinity 4.82130384
REMARK minimizedRMSD -1
REMARK  0 active torsions:
REMARK  status: ('A' for Active; 'I' for Inactive)
ROOT
ATOM      1  C   UNL d   1       5.999   0.254  -6.000  0.00  0.00     0.077 C 
ATOM      2  C1  UNL d   1       5.296   1.521  -5.612  0.00  0.00    -0.074 A 
ATOM      3  C2  UNL d   1       6.000   2.588  -5.044  0.00  0.00    -0.005 A 
ATOM      4  C3  UNL d   1       5.334   3.764  -4.697  0.00  0.00     0.006 A 
ATOM      5  C4  UNL d   1       3.961   3.884  -4.914  0.00  0.00    -0.005 A 
ATOM      6  C5  UNL d   1       3.241   2.828  -5.482  0.00  0.00    -0.074 A 
ATOM      7  C6  UNL d   1       1.767   2.944  -5.731  0.00  0.00     0.077 C 
ATOM      8  C7  UNL d   1       3.918   1.653  -5.834  0.00  0.00    -0.001 A 
ENDROOT
TORSDOF 0
ENDMDL
