MODEL 1
REMARK minimizedAffinity 2.83475351
REMARK minimizedRMSD -1
REMARK  0 active torsions:
REMARK  status: ('A' for Active; 'I' for Inactive)
ROOT
ATOM      1  C   UNL d   1       1.775   3.094  -5.974  0.00  0.00     0.077 C 
ATOM      2  C1  UNL d   1       3.249   3.001  -5.715  0.00  0.00    -0.074 A 
ATOM      3  C2  UNL d   1       3.965   4.102  -5.233  0.00  0.00    -0.005 A 
ATOM      4  C3  UNL d   1       5.334   3.998  -4.988  0.00  0.00     0.006 A 
ATOM      5  C4  UNL d   1       6.000   2.794  -5.220  0.00  0.00    -0.005 A 
ATOM      6  C5  UNL d   1       5.301   1.682  -5.701  0.00  0.00    -0.074 A 
ATOM      7  C6  UNL d   1       5.999   0.378  -5.947  0.00  0.00     0.077 C 
ATOM      8  C7  UNL d   1       3.924   1.793  -5.938  0.00  0.00    -0.001 A 
ENDROOT
TORSDOF 0
ENDMDL
