MODEL 1
REMARK minimizedAffinity 1.50683653
REMARK minimizedRMSD -1
REMARK  0 active torsions:
REMARK  status: ('A' for Active; 'I' for Inactive)
ROOT
ATOM      1  C   UNL d   1       3.194   3.127  -5.999  0.00  0.00     0.077 C 
ATOM      2  C1  UNL d   1       4.126   2.194  -5.284  0.00  0.00    -0.074 A 
ATOM      3  C2  UNL d   1       4.999   1.365  -5.996  0.00  0.00    -0.005 A 
ATOM      4  C3  UNL d   1       5.867   0.510  -5.318  0.00  0.00     0.006 A 
ATOM      5  C4  UNL d   1       5.871   0.475  -3.923  0.00  0.00    -0.005 A 
ATOM      6  C5  UNL d   1       5.006   1.297  -3.194  0.00  0.00    -0.074 A 
ATOM      7  C6  UNL d   1       5.004   1.280  -1.694  0.00  0.00     0.077 C 
ATOM      8  C7  UNL d   1       4.142   2.159  -3.883  0.00  0.00    -0.001 A 
ENDROOT
TORSDOF 0
ENDMDL
