MODEL 1
REMARK minimizedAffinity 0.794063509
REMARK minimizedRMSD -1
REMARK  0 active torsions:
REMARK  status: ('A' for Active; 'I' for Inactive)
ROOT
ATOM      1  C   UNL d   1       0.878   0.997   1.002  0.00  0.00     0.077 C 
ATOM      2  C1  UNL d   1       2.085   1.874   1.150  0.00  0.00    -0.074 A 
ATOM      3  C2  UNL d   1       2.402   2.831   0.181  0.00  0.00    -0.005 A 
ATOM      4  C3  UNL d   1       3.523   3.647   0.337  0.00  0.00     0.006 A 
ATOM      5  C4  UNL d   1       4.337   3.513   1.462  0.00  0.00    -0.005 A 
ATOM      6  C5  UNL d   1       4.036   2.562   2.442  0.00  0.00    -0.074 A 
ATOM      7  C6  UNL d   1       4.895   2.413   3.663  0.00  0.00     0.077 C 
ATOM      8  C7  UNL d   1       2.904   1.752   2.282  0.00  0.00    -0.001 A 
ENDROOT
TORSDOF 0
ENDMDL
