MODEL 1
REMARK minimizedAffinity 0.121791378
REMARK minimizedRMSD -1
REMARK  0 active torsions:
REMARK  status: ('A' for Active; 'I' for Inactive)
ROOT
ATOM      1  C   UNL d   1      -1.375  -3.292  -2.231  0.00  0.00     0.077 C 
ATOM      2  C1  UNL d   1      -1.251  -2.773  -0.829  0.00  0.00    -0.074 A 
ATOM      3  C2  UNL d   1      -2.175  -3.136   0.156  0.00  0.00    -0.005 A 
ATOM      4  C3  UNL d   1      -2.042  -2.654   1.458  0.00  0.00     0.006 A 
ATOM      5  C4  UNL d   1      -0.984  -1.805   1.788  0.00  0.00    -0.005 A 
ATOM      6  C5  UNL d   1      -0.050  -1.432   0.817  0.00  0.00    -0.074 A 
ATOM      7  C6  UNL d   1       1.099  -0.529   1.157  0.00  0.00     0.077 C 
ATOM      8  C7  UNL d   1      -0.187  -1.927  -0.488  0.00  0.00    -0.001 A 
ENDROOT
TORSDOF 0
ENDMDL
