MODEL 1
REMARK minimizedAffinity 0.117261738
REMARK minimizedRMSD -1
REMARK  0 active torsions:
REMARK  status: ('A' for Active; 'I' for Inactive)
ROOT
ATOM      1  C   UNL d   1      -1.870  -3.001   3.750  0.00  0.00     0.077 C 
ATOM      2  C1  UNL d   1      -1.551  -3.891   2.586  0.00  0.00    -0.074 A 
ATOM      3  C2  UNL d   1      -1.046  -5.180   2.784  0.00  0.00    -0.005 A 
ATOM      4  C3  UNL d   1      -0.763  -6.000   1.691  0.00  0.00     0.006 A 
ATOM      5  C4  UNL d   1      -0.982  -5.540   0.392  0.00  0.00    -0.005 A 
ATOM      6  C5  UNL d   1      -1.487  -4.254   0.175  0.00  0.00    -0.074 A 
ATOM      7  C6  UNL d   1      -1.737  -3.748  -1.215  0.00  0.00     0.077 C 
ATOM      8  C7  UNL d   1      -1.775  -3.439   1.278  0.00  0.00    -0.001 A 
ENDROOT
TORSDOF 0
ENDMDL
