MODEL 1
REMARK minimizedAffinity 1.03520393
REMARK minimizedRMSD -1
REMARK  0 active torsions:
REMARK  status: ('A' for Active; 'I' for Inactive)
ROOT
ATOM      1  C   UNL d   1       1.553   1.552   1.126  0.00  0.00     0.077 C 
ATOM      2  C1  UNL d   1       2.724   2.374   1.578  0.00  0.00    -0.074 A 
ATOM      3  C2  UNL d   1       3.330   3.296   0.719  0.00  0.00    -0.005 A 
ATOM      4  C3  UNL d   1       4.411   4.060   1.157  0.00  0.00     0.006 A 
ATOM      5  C4  UNL d   1       4.898   3.909   2.456  0.00  0.00    -0.005 A 
ATOM      6  C5  UNL d   1       4.304   2.993   3.330  0.00  0.00    -0.074 A 
ATOM      7  C6  UNL d   1       4.808   2.825   4.733  0.00  0.00     0.077 C 
ATOM      8  C7  UNL d   1       3.213   2.234   2.885  0.00  0.00    -0.001 A 
ENDROOT
TORSDOF 0
ENDMDL
