MODEL 1
REMARK minimizedAffinity -1.00740695
REMARK minimizedRMSD -1
REMARK  0 active torsions:
REMARK  status: ('A' for Active; 'I' for Inactive)
ROOT
ATOM      1  C   UNL d   1       1.115   1.456   1.159  0.00  0.00     0.077 C 
ATOM      2  C1  UNL d   1       2.342   2.256   1.483  0.00  0.00    -0.074 A 
ATOM      3  C2  UNL d   1       2.949   3.066   0.518  0.00  0.00    -0.005 A 
ATOM      4  C3  UNL d   1       4.084   3.811   0.837  0.00  0.00     0.006 A 
ATOM      5  C4  UNL d   1       4.623   3.753   2.123  0.00  0.00    -0.005 A 
ATOM      6  C5  UNL d   1       4.029   2.950   3.102  0.00  0.00    -0.074 A 
ATOM      7  C6  UNL d   1       4.590   2.885   4.491  0.00  0.00     0.077 C 
ATOM      8  C7  UNL d   1       2.885   2.210   2.775  0.00  0.00    -0.001 A 
ENDROOT
TORSDOF 0
ENDMDL
