MODEL 1
REMARK minimizedAffinity -0.179366663
REMARK minimizedRMSD -1
REMARK  0 active torsions:
REMARK  status: ('A' for Active; 'I' for Inactive)
ROOT
ATOM      1  C   UNL d   1       0.882   1.547   1.174  0.00  0.00     0.077 C 
ATOM      2  C1  UNL d   1       2.138   2.302   1.495  0.00  0.00    -0.074 A 
ATOM      3  C2  UNL d   1       2.709   3.176   0.565  0.00  0.00    -0.005 A 
ATOM      4  C3  UNL d   1       3.872   3.878   0.882  0.00  0.00     0.006 A 
ATOM      5  C4  UNL d   1       4.475   3.713   2.130  0.00  0.00    -0.005 A 
ATOM      6  C5  UNL d   1       3.918   2.844   3.073  0.00  0.00    -0.074 A 
ATOM      7  C6  UNL d   1       4.547   2.663   4.422  0.00  0.00     0.077 C 
ATOM      8  C7  UNL d   1       2.745   2.148   2.750  0.00  0.00    -0.001 A 
ENDROOT
TORSDOF 0
ENDMDL
