MODEL 1
REMARK minimizedAffinity 4.59856367
REMARK minimizedRMSD -1
REMARK  0 active torsions:
REMARK  status: ('A' for Active; 'I' for Inactive)
ROOT
ATOM      1  C   UNL d   1       5.819   5.151  -5.405  0.00  0.00     0.077 C 
ATOM      2  C1  UNL d   1       5.113   3.828  -5.439  0.00  0.00    -0.074 A 
ATOM      3  C2  UNL d   1       3.821   3.716  -5.963  0.00  0.00    -0.005 A 
ATOM      4  C3  UNL d   1       3.181   2.477  -5.997  0.00  0.00     0.006 A 
ATOM      5  C4  UNL d   1       3.826   1.340  -5.508  0.00  0.00    -0.005 A 
ATOM      6  C5  UNL d   1       5.118   1.432  -4.982  0.00  0.00    -0.074 A 
ATOM      7  C6  UNL d   1       5.828   0.218  -4.462  0.00  0.00     0.077 C 
ATOM      8  C7  UNL d   1       5.757   2.680  -4.957  0.00  0.00    -0.001 A 
ENDROOT
TORSDOF 0
ENDMDL
