MODEL 1
REMARK minimizedAffinity 3.86421323
REMARK minimizedRMSD -1
REMARK  0 active torsions:
REMARK  status: ('A' for Active; 'I' for Inactive)
ROOT
ATOM      1  C   UNL d   1       1.209   0.134   1.531  0.00  0.00     0.077 C 
ATOM      2  C1  UNL d   1       1.954   1.404   1.247  0.00  0.00    -0.074 A 
ATOM      3  C2  UNL d   1       1.611   2.211   0.158  0.00  0.00    -0.005 A 
ATOM      4  C3  UNL d   1       2.307   3.395  -0.088  0.00  0.00     0.006 A 
ATOM      5  C4  UNL d   1       3.352   3.782   0.752  0.00  0.00    -0.005 A 
ATOM      6  C5  UNL d   1       3.709   2.988   1.846  0.00  0.00    -0.074 A 
ATOM      7  C6  UNL d   1       4.823   3.395   2.764  0.00  0.00     0.077 C 
ATOM      8  C7  UNL d   1       3.000   1.804   2.091  0.00  0.00    -0.001 A 
ENDROOT
TORSDOF 0
ENDMDL
