MODEL 1
REMARK minimizedAffinity 3.79558563
REMARK minimizedRMSD -1
REMARK  0 active torsions:
REMARK  status: ('A' for Active; 'I' for Inactive)
ROOT
ATOM      1  C   UNL d   1       1.599   2.617   0.289  0.00  0.00     0.077 C 
ATOM      2  C1  UNL d   1       2.844   3.097   0.976  0.00  0.00    -0.074 A 
ATOM      3  C2  UNL d   1       3.608   4.136   0.435  0.00  0.00    -0.005 A 
ATOM      4  C3  UNL d   1       4.758   4.578   1.090  0.00  0.00     0.006 A 
ATOM      5  C4  UNL d   1       5.154   3.987   2.290  0.00  0.00    -0.005 A 
ATOM      6  C5  UNL d   1       4.401   2.948   2.847  0.00  0.00    -0.074 A 
ATOM      7  C6  UNL d   1       4.807   2.309   4.142  0.00  0.00     0.077 C 
ATOM      8  C7  UNL d   1       3.243   2.514   2.187  0.00  0.00    -0.001 A 
ENDROOT
TORSDOF 0
ENDMDL
