MODEL 1
REMARK minimizedAffinity -0.405421346
REMARK minimizedRMSD -1
REMARK  0 active torsions:
REMARK  status: ('A' for Active; 'I' for Inactive)
ROOT
ATOM      1  C   UNL d   1       0.613   1.261   1.923  0.00  0.00     0.077 C 
ATOM      2  C1  UNL d   1       1.786   2.128   1.576  0.00  0.00    -0.074 A 
ATOM      3  C2  UNL d   1       1.748   2.979   0.467  0.00  0.00    -0.005 A 
ATOM      4  C3  UNL d   1       2.843   3.787   0.162  0.00  0.00     0.006 A 
ATOM      5  C4  UNL d   1       3.986   3.752   0.962  0.00  0.00    -0.005 A 
ATOM      6  C5  UNL d   1       4.042   2.908   2.076  0.00  0.00    -0.074 A 
ATOM      7  C6  UNL d   1       5.259   2.866   2.951  0.00  0.00     0.077 C 
ATOM      8  C7  UNL d   1       2.935   2.105   2.379  0.00  0.00    -0.001 A 
ENDROOT
TORSDOF 0
ENDMDL
