MODEL 1
REMARK minimizedAffinity -4.62747335
REMARK minimizedRMSD -1
REMARK  0 active torsions:
REMARK  status: ('A' for Active; 'I' for Inactive)
ROOT
ATOM      1  C   UNL d   1       0.338   3.256   0.160  0.00  0.00     0.077 C 
ATOM      2  C1  UNL d   1       0.810   1.845  -0.025  0.00  0.00    -0.074 A 
ATOM      3  C2  UNL d   1       2.171   1.529   0.030  0.00  0.00    -0.005 A 
ATOM      4  C3  UNL d   1       2.594   0.210  -0.134  0.00  0.00     0.006 A 
ATOM      5  C4  UNL d   1       1.662  -0.805  -0.354  0.00  0.00    -0.005 A 
ATOM      6  C5  UNL d   1       0.296  -0.508  -0.411  0.00  0.00    -0.074 A 
ATOM      7  C6  UNL d   1      -0.719  -1.588  -0.637  0.00  0.00     0.077 C 
ATOM      8  C7  UNL d   1      -0.121   0.819  -0.238  0.00  0.00    -0.001 A 
ENDROOT
TORSDOF 0
ENDMDL
