MODEL 1
REMARK minimizedAffinity -2.17181301
REMARK minimizedRMSD -1
REMARK  0 active torsions:
REMARK  status: ('A' for Active; 'I' for Inactive)
ROOT
ATOM      1  C   UNL d   1       0.452   0.432   2.003  0.00  0.00     0.020 A 
ATOM      2  C1  UNL d   1       1.514  -0.269   1.434  0.00  0.00     0.020 A 
ATOM      3  C2  UNL d   1       1.448  -0.674   0.100  0.00  0.00     0.034 A 
ATOM      4  C3  UNL d   1       0.318  -0.378  -0.671  0.00  0.00     0.017 A 
ATOM      5  C4  UNL d   1      -0.748   0.326  -0.099  0.00  0.00     0.017 A 
ATOM      6  C5  UNL d   1      -0.677   0.729   1.238  0.00  0.00     0.034 A 
ATOM      7 Cl   UNL d   1      -2.176   0.728  -0.986  0.00  0.00    -0.070 Cl
ATOM      8 Cl1  UNL d   1       0.304  -0.910  -2.315  0.00  0.00    -0.070 Cl
ENDROOT
TORSDOF 0
ENDMDL
