MODEL 1
REMARK minimizedAffinity 1.86192203
REMARK minimizedRMSD -1
REMARK  0 active torsions:
REMARK  status: ('A' for Active; 'I' for Inactive)
ROOT
ATOM      1  C   UNL d   1      -2.256   0.370  -0.508  0.00  0.00     0.020 A 
ATOM      2  C1  UNL d   1      -1.033   1.036  -0.456  0.00  0.00     0.020 A 
ATOM      3  C2  UNL d   1       0.049   0.571  -1.207  0.00  0.00     0.034 A 
ATOM      4  C3  UNL d   1      -0.091  -0.565  -2.014  0.00  0.00     0.017 A 
ATOM      5  C4  UNL d   1      -1.320  -1.233  -2.065  0.00  0.00     0.017 A 
ATOM      6  C5  UNL d   1      -2.399  -0.762  -1.311  0.00  0.00     0.034 A 
ATOM      7 Cl   UNL d   1      -1.569  -2.640  -3.037  0.00  0.00    -0.070 Cl
ATOM      8 Cl1  UNL d   1       1.287  -1.085  -2.916  0.00  0.00    -0.070 Cl
ENDROOT
TORSDOF 0
ENDMDL
