MODEL 1
REMARK minimizedAffinity -4.57190657
REMARK minimizedRMSD -1
REMARK  0 active torsions:
REMARK  status: ('A' for Active; 'I' for Inactive)
ROOT
ATOM      1  C   UNL d   1       0.899  -0.123   2.710  0.00  0.00     0.020 A 
ATOM      2  C1  UNL d   1      -0.277  -0.811   3.003  0.00  0.00     0.020 A 
ATOM      3  C2  UNL d   1      -1.268  -0.948   2.028  0.00  0.00     0.034 A 
ATOM      4  C3  UNL d   1      -1.084  -0.396   0.755  0.00  0.00     0.017 A 
ATOM      5  C4  UNL d   1       0.098   0.295   0.462  0.00  0.00     0.017 A 
ATOM      6  C5  UNL d   1       1.086   0.429   1.442  0.00  0.00     0.034 A 
ATOM      7 Cl   UNL d   1       0.397   1.003  -1.086  0.00  0.00    -0.070 Cl
ATOM      8 Cl1  UNL d   1      -2.350  -0.604  -0.402  0.00  0.00    -0.070 Cl
ENDROOT
TORSDOF 0
ENDMDL
