MODEL 1
REMARK minimizedAffinity -4.17166519
REMARK minimizedRMSD -1
REMARK  0 active torsions:
REMARK  status: ('A' for Active; 'I' for Inactive)
ROOT
ATOM      1  C   UNL d   1      -2.368  -0.631  -0.948  0.00  0.00     0.020 A 
ATOM      2  C1  UNL d   1      -2.062  -0.337   0.380  0.00  0.00     0.020 A 
ATOM      3  C2  UNL d   1      -0.788   0.123   0.718  0.00  0.00     0.034 A 
ATOM      4  C3  UNL d   1       0.186   0.291  -0.274  0.00  0.00     0.017 A 
ATOM      5  C4  UNL d   1      -0.122  -0.005  -1.607  0.00  0.00     0.017 A 
ATOM      6  C5  UNL d   1      -1.400  -0.465  -1.939  0.00  0.00     0.034 A 
ATOM      7 Cl   UNL d   1       1.026   0.177  -2.886  0.00  0.00    -0.070 Cl
ATOM      8 Cl1  UNL d   1       1.741   0.864   0.215  0.00  0.00    -0.070 Cl
ENDROOT
TORSDOF 0
ENDMDL
