MODEL 1
REMARK minimizedAffinity -6.04831886
REMARK minimizedRMSD -1
REMARK  0 active torsions:
REMARK  status: ('A' for Active; 'I' for Inactive)
ROOT
ATOM      1  C   UNL d   1      -3.243  -0.074   1.008  0.00  0.00     0.020 A 
ATOM      2  C1  UNL d   1      -2.613   0.207  -0.204  0.00  0.00     0.020 A 
ATOM      3  C2  UNL d   1      -1.220   0.279  -0.266  0.00  0.00     0.034 A 
ATOM      4  C3  UNL d   1      -0.452   0.069   0.886  0.00  0.00     0.017 A 
ATOM      5  C4  UNL d   1      -1.086  -0.214   2.101  0.00  0.00     0.017 A 
ATOM      6  C5  UNL d   1      -2.481  -0.284   2.158  0.00  0.00     0.034 A 
ATOM      7 Cl   UNL d   1      -0.206  -0.484   3.564  0.00  0.00    -0.070 Cl
ATOM      8 Cl1  UNL d   1       1.266   0.171   0.736  0.00  0.00    -0.070 Cl
ENDROOT
TORSDOF 0
ENDMDL
