MODEL 1
REMARK minimizedAffinity -5.91314745
REMARK minimizedRMSD -1
REMARK  0 active torsions:
REMARK  status: ('A' for Active; 'I' for Inactive)
ROOT
ATOM      1  C   UNL d   1      -0.110  -0.016   2.803  0.00  0.00     0.020 A 
ATOM      2  C1  UNL d   1       0.753  -0.146   1.716  0.00  0.00     0.020 A 
ATOM      3  C2  UNL d   1       0.237  -0.224   0.421  0.00  0.00     0.034 A 
ATOM      4  C3  UNL d   1      -1.146  -0.173   0.209  0.00  0.00     0.017 A 
ATOM      5  C4  UNL d   1      -2.011  -0.043   1.302  0.00  0.00     0.017 A 
ATOM      6  C5  UNL d   1      -1.489   0.035   2.597  0.00  0.00     0.034 A 
ATOM      7 Cl   UNL d   1      -3.729   0.028   1.120  0.00  0.00    -0.070 Cl
ATOM      8 Cl1  UNL d   1      -1.714  -0.275  -1.419  0.00  0.00    -0.070 Cl
ENDROOT
TORSDOF 0
ENDMDL
