MODEL 1
REMARK minimizedAffinity -4.24304152
REMARK minimizedRMSD -1
REMARK  0 active torsions:
REMARK  status: ('A' for Active; 'I' for Inactive)
ROOT
ATOM      1  C   UNL d   1      -1.778  -0.339   3.069  0.00  0.00     0.020 A 
ATOM      2  C1  UNL d   1      -0.387  -0.238   3.088  0.00  0.00     0.020 A 
ATOM      3  C2  UNL d   1       0.305   0.085   1.918  0.00  0.00     0.034 A 
ATOM      4  C3  UNL d   1      -0.393   0.309   0.726  0.00  0.00     0.017 A 
ATOM      5  C4  UNL d   1      -1.789   0.208   0.709  0.00  0.00     0.017 A 
ATOM      6  C5  UNL d   1      -2.477  -0.116   1.883  0.00  0.00     0.034 A 
ATOM      7 Cl   UNL d   1      -2.720   0.470  -0.724  0.00  0.00    -0.070 Cl
ATOM      8 Cl1  UNL d   1       0.527   0.705  -0.682  0.00  0.00    -0.070 Cl
ENDROOT
TORSDOF 0
ENDMDL
