MODEL 1
REMARK minimizedAffinity -5.8938756
REMARK minimizedRMSD -1
REMARK  0 active torsions:
REMARK  status: ('A' for Active; 'I' for Inactive)
ROOT
ATOM      1  C   UNL d   1      -2.983   0.145   1.862  0.00  0.00     0.020 A 
ATOM      2  C1  UNL d   1      -2.062   0.144   2.909  0.00  0.00     0.020 A 
ATOM      3  C2  UNL d   1      -0.695   0.048   2.637  0.00  0.00     0.034 A 
ATOM      4  C3  UNL d   1      -0.246  -0.048   1.315  0.00  0.00     0.017 A 
ATOM      5  C4  UNL d   1      -1.171  -0.046   0.265  0.00  0.00     0.017 A 
ATOM      6  C5  UNL d   1      -2.538   0.050   0.543  0.00  0.00     0.034 A 
ATOM      7 Cl   UNL d   1      -0.693  -0.161  -1.392  0.00  0.00    -0.070 Cl
ATOM      8 Cl1  UNL d   1       1.458  -0.164   1.052  0.00  0.00    -0.070 Cl
ENDROOT
TORSDOF 0
ENDMDL
