MODEL 1
REMARK minimizedAffinity -5.87738657
REMARK minimizedRMSD -1
REMARK  0 active torsions:
REMARK  status: ('A' for Active; 'I' for Inactive)
ROOT
ATOM      1  C   UNL d   1       0.368   0.121  -0.810  0.00  0.00     0.020 A 
ATOM      2  C1  UNL d   1      -0.822   0.391  -1.484  0.00  0.00     0.020 A 
ATOM      3  C2  UNL d   1      -2.036   0.364  -0.795  0.00  0.00     0.034 A 
ATOM      4  C3  UNL d   1      -2.063   0.066   0.573  0.00  0.00     0.017 A 
ATOM      5  C4  UNL d   1      -0.868  -0.205   1.249  0.00  0.00     0.017 A 
ATOM      6  C5  UNL d   1       0.345  -0.176   0.554  0.00  0.00     0.034 A 
ATOM      7 Cl   UNL d   1      -0.821  -0.580   2.935  0.00  0.00    -0.070 Cl
ATOM      8 Cl1  UNL d   1      -3.601   0.051   1.361  0.00  0.00    -0.070 Cl
ENDROOT
TORSDOF 0
ENDMDL
