MODEL 1
REMARK minimizedAffinity -6.07119417
REMARK minimizedRMSD -1
REMARK  0 active torsions:
REMARK  status: ('A' for Active; 'I' for Inactive)
ROOT
ATOM      1  C   UNL d   1      -3.165  -0.151   2.384  0.00  0.00     0.020 A 
ATOM      2  C1  UNL d   1      -2.139  -0.530   3.249  0.00  0.00     0.020 A 
ATOM      3  C2  UNL d   1      -0.816  -0.535   2.803  0.00  0.00     0.034 A 
ATOM      4  C3  UNL d   1      -0.515  -0.161   1.488  0.00  0.00     0.017 A 
ATOM      5  C4  UNL d   1      -1.546   0.219   0.621  0.00  0.00     0.017 A 
ATOM      6  C5  UNL d   1      -2.869   0.222   1.073  0.00  0.00     0.034 A 
ATOM      7 Cl   UNL d   1      -1.253   0.694  -1.015  0.00  0.00    -0.070 Cl
ATOM      8 Cl1  UNL d   1       1.143  -0.190   1.004  0.00  0.00    -0.070 Cl
ENDROOT
TORSDOF 0
ENDMDL
