MODEL 1
REMARK minimizedAffinity -2.27812028
REMARK minimizedRMSD -1
REMARK  0 active torsions:
REMARK  status: ('A' for Active; 'I' for Inactive)
ROOT
ATOM      1  C   UNL d   1      -1.809  -1.274  -1.767  0.00  0.00     0.020 A 
ATOM      2  C1  UNL d   1      -1.389  -1.735  -3.014  0.00  0.00     0.020 A 
ATOM      3  C2  UNL d   1      -0.113  -1.415  -3.483  0.00  0.00     0.034 A 
ATOM      4  C3  UNL d   1       0.747  -0.632  -2.704  0.00  0.00     0.017 A 
ATOM      5  C4  UNL d   1       0.324  -0.170  -1.452  0.00  0.00     0.017 A 
ATOM      6  C5  UNL d   1      -0.955  -0.493  -0.988  0.00  0.00     0.034 A 
ATOM      7 Cl   UNL d   1       1.329   0.801  -0.434  0.00  0.00    -0.070 Cl
ATOM      8 Cl1  UNL d   1       2.311  -0.275  -3.345  0.00  0.00    -0.070 Cl
ENDROOT
TORSDOF 0
ENDMDL
