MODEL 1
REMARK minimizedAffinity -3.3523705
REMARK minimizedRMSD -1
REMARK  0 active torsions:
REMARK  status: ('A' for Active; 'I' for Inactive)
ROOT
ATOM      1  C   UNL d   1      -1.413   0.472  -0.328  0.00  0.00     0.020 A 
ATOM      2  C1  UNL d   1      -0.102   0.935  -0.219  0.00  0.00     0.020 A 
ATOM      3  C2  UNL d   1       0.899   0.392  -1.027  0.00  0.00     0.034 A 
ATOM      4  C3  UNL d   1       0.592  -0.618  -1.946  0.00  0.00     0.017 A 
ATOM      5  C4  UNL d   1      -0.724  -1.082  -2.054  0.00  0.00     0.017 A 
ATOM      6  C5  UNL d   1      -1.723  -0.534  -1.243  0.00  0.00     0.034 A 
ATOM      7 Cl   UNL d   1      -1.181  -2.325  -3.165  0.00  0.00    -0.070 Cl
ATOM      8 Cl1  UNL d   1       1.880  -1.244  -2.913  0.00  0.00    -0.070 Cl
ENDROOT
TORSDOF 0
ENDMDL
