MODEL 1
REMARK minimizedAffinity -2.2167995
REMARK minimizedRMSD -1
REMARK  0 active torsions:
REMARK  status: ('A' for Active; 'I' for Inactive)
ROOT
ATOM      1  C   UNL d   1      -0.075   0.110  -1.445  0.00  0.00     0.020 A 
ATOM      2  C1  UNL d   1      -1.287   0.181  -0.760  0.00  0.00     0.020 A 
ATOM      3  C2  UNL d   1      -1.296   0.298   0.632  0.00  0.00     0.034 A 
ATOM      4  C3  UNL d   1      -0.091   0.344   1.342  0.00  0.00     0.017 A 
ATOM      5  C4  UNL d   1       1.125   0.273   0.653  0.00  0.00     0.017 A 
ATOM      6  C5  UNL d   1       1.128   0.156  -0.740  0.00  0.00     0.034 A 
ATOM      7 Cl   UNL d   1       2.652   0.323   1.461  0.00  0.00    -0.070 Cl
ATOM      8 Cl1  UNL d   1      -0.177   0.490   3.062  0.00  0.00    -0.070 Cl
ENDROOT
TORSDOF 0
ENDMDL
