MODEL 1
REMARK minimizedAffinity -4.28683376
REMARK minimizedRMSD -1
REMARK  0 active torsions:
REMARK  status: ('A' for Active; 'I' for Inactive)
ROOT
ATOM      1  C   UNL d   1       0.924  -1.476  -3.101  0.00  0.00     0.020 A 
ATOM      2  C1  UNL d   1      -0.400  -1.885  -3.254  0.00  0.00     0.020 A 
ATOM      3  C2  UNL d   1      -1.386  -1.397  -2.394  0.00  0.00     0.034 A 
ATOM      4  C3  UNL d   1      -1.049  -0.498  -1.375  0.00  0.00     0.017 A 
ATOM      5  C4  UNL d   1       0.281  -0.089  -1.222  0.00  0.00     0.017 A 
ATOM      6  C5  UNL d   1       1.263  -0.580  -2.086  0.00  0.00     0.034 A 
ATOM      7 Cl   UNL d   1       0.773   1.018   0.012  0.00  0.00    -0.070 Cl
ATOM      8 Cl1  UNL d   1      -2.319   0.065  -0.347  0.00  0.00    -0.070 Cl
ENDROOT
TORSDOF 0
ENDMDL
