MODEL 1
REMARK minimizedAffinity -3.51211762
REMARK minimizedRMSD -1
REMARK  0 active torsions:
REMARK  status: ('A' for Active; 'I' for Inactive)
ROOT
ATOM      1  C   UNL d   1      -0.590  -1.285  -1.307  0.00  0.00     0.020 A 
ATOM      2  C1  UNL d   1      -0.128  -0.223  -2.084  0.00  0.00     0.020 A 
ATOM      3  C2  UNL d   1       0.563   0.832  -1.484  0.00  0.00     0.034 A 
ATOM      4  C3  UNL d   1       0.794   0.828  -0.103  0.00  0.00     0.017 A 
ATOM      5  C4  UNL d   1       0.330  -0.239   0.675  0.00  0.00     0.017 A 
ATOM      6  C5  UNL d   1      -0.361  -1.293   0.069  0.00  0.00     0.034 A 
ATOM      7 Cl   UNL d   1       0.577  -0.315   2.384  0.00  0.00    -0.070 Cl
ATOM      8 Cl1  UNL d   1       1.655   2.165   0.572  0.00  0.00    -0.070 Cl
ENDROOT
TORSDOF 0
ENDMDL
