MODEL 1
REMARK minimizedAffinity -4.79298019
REMARK minimizedRMSD -1
REMARK  0 active torsions:
REMARK  status: ('A' for Active; 'I' for Inactive)
ROOT
ATOM      1  C   UNL d   1       0.689   0.108   3.119  0.00  0.00     0.020 A 
ATOM      2  C1  UNL d   1       1.507  -0.109   2.011  0.00  0.00     0.020 A 
ATOM      3  C2  UNL d   1       0.945  -0.207   0.736  0.00  0.00     0.034 A 
ATOM      4  C3  UNL d   1      -0.439  -0.088   0.567  0.00  0.00     0.017 A 
ATOM      5  C4  UNL d   1      -1.260   0.130   1.680  0.00  0.00     0.017 A 
ATOM      6  C5  UNL d   1      -0.691   0.228   2.953  0.00  0.00     0.034 A 
ATOM      7 Cl   UNL d   1      -2.976   0.288   1.549  0.00  0.00    -0.070 Cl
ATOM      8 Cl1  UNL d   1      -1.066  -0.220  -1.038  0.00  0.00    -0.070 Cl
ENDROOT
TORSDOF 0
ENDMDL
