MODEL 1
REMARK minimizedAffinity 1.61394978
REMARK minimizedRMSD -1
REMARK  0 active torsions:
REMARK  status: ('A' for Active; 'I' for Inactive)
ROOT
ATOM      1  C   UNL d   1      -2.415   2.193   2.338  0.00  0.00     0.172 C 
ATOM      2  N   UNL d   1      -1.087   1.882   1.866  0.00  0.00    -0.070 N 
ATOM      3  C1  UNL d   1      -0.374   2.610   0.951  0.00  0.00    -0.004 A 
ATOM      4  C2  UNL d   1       0.842   1.987   0.770  0.00  0.00    -0.047 A 
ATOM      5  C3  UNL d   1       0.860   0.844   1.605  0.00  0.00    -0.047 A 
ATOM      6  C4  UNL d   1      -0.346   0.804   2.271  0.00  0.00    -0.004 A 
ENDROOT
TORSDOF 0
ENDMDL
