MODEL 1
REMARK minimizedAffinity -3.83964562
REMARK minimizedRMSD -1
REMARK  0 active torsions:
REMARK  status: ('A' for Active; 'I' for Inactive)
ROOT
ATOM      1  C   UNL d   1      -2.798   2.206   2.308  0.00  0.00     0.172 C 
ATOM      2  N   UNL d   1      -1.831   1.219   1.886  0.00  0.00    -0.070 N 
ATOM      3  C1  UNL d   1      -2.028  -0.136   1.874  0.00  0.00    -0.004 A 
ATOM      4  C2  UNL d   1      -0.873  -0.725   1.407  0.00  0.00    -0.047 A 
ATOM      5  C3  UNL d   1       0.050   0.311   1.129  0.00  0.00    -0.047 A 
ATOM      6  C4  UNL d   1      -0.570   1.505   1.435  0.00  0.00    -0.004 A 
ENDROOT
TORSDOF 0
ENDMDL
