MODEL 1
REMARK minimizedAffinity -0.626588464
REMARK minimizedRMSD -1
REMARK  0 active torsions:
REMARK  status: ('A' for Active; 'I' for Inactive)
ROOT
ATOM      1  C   UNL d   1      -1.439  -1.069   2.165  0.00  0.00     0.172 C 
ATOM      2  N   UNL d   1      -0.903   0.245   1.901  0.00  0.00    -0.070 N 
ATOM      3  C1  UNL d   1      -1.588   1.425   2.019  0.00  0.00    -0.004 A 
ATOM      4  C2  UNL d   1      -0.729   2.447   1.679  0.00  0.00    -0.047 A 
ATOM      5  C3  UNL d   1       0.515   1.862   1.344  0.00  0.00    -0.047 A 
ATOM      6  C4  UNL d   1       0.379   0.497   1.490  0.00  0.00    -0.004 A 
ENDROOT
TORSDOF 0
ENDMDL
