MODEL 1
REMARK minimizedAffinity -1.13769293
REMARK minimizedRMSD -1
REMARK  0 active torsions:
REMARK  status: ('A' for Active; 'I' for Inactive)
ROOT
ATOM      1  C   UNL d   1      -5.284   5.769   3.753  0.00  0.00     0.172 C 
ATOM      2  N   UNL d   1      -5.280   4.522   4.481  0.00  0.00    -0.070 N 
ATOM      3  C1  UNL d   1      -6.000   4.258   5.616  0.00  0.00    -0.004 A 
ATOM      4  C2  UNL d   1      -5.723   2.964   6.000  0.00  0.00    -0.047 A 
ATOM      5  C3  UNL d   1      -4.804   2.432   5.064  0.00  0.00    -0.047 A 
ATOM      6  C4  UNL d   1      -4.547   3.418   4.135  0.00  0.00    -0.004 A 
ENDROOT
TORSDOF 0
ENDMDL
