MODEL 1
REMARK minimizedAffinity 3.09201264
REMARK minimizedRMSD -1
REMARK  0 active torsions:
REMARK  status: ('A' for Active; 'I' for Inactive)
ROOT
ATOM      1  C   UNL d   1      -1.724   1.962   2.882  0.00  0.00     0.172 C 
ATOM      2  N   UNL d   1      -0.595   1.476   2.124  0.00  0.00    -0.070 N 
ATOM      3  C1  UNL d   1       0.094   0.319   2.372  0.00  0.00    -0.004 A 
ATOM      4  C2  UNL d   1       1.095   0.214   1.430  0.00  0.00    -0.047 A 
ATOM      5  C3  UNL d   1       1.004   1.347   0.587  0.00  0.00    -0.047 A 
ATOM      6  C4  UNL d   1      -0.051   2.111   1.039  0.00  0.00    -0.004 A 
ENDROOT
TORSDOF 0
ENDMDL
