MODEL 1
REMARK minimizedAffinity -1.74174237
REMARK minimizedRMSD -1
REMARK  0 active torsions:
REMARK  status: ('A' for Active; 'I' for Inactive)
ROOT
ATOM      1  C   UNL d   1      -2.702   0.786   2.418  0.00  0.00     0.172 C 
ATOM      2  N   UNL d   1      -1.582   1.524   1.882  0.00  0.00    -0.070 N 
ATOM      3  C1  UNL d   1      -1.662   2.566   0.998  0.00  0.00    -0.004 A 
ATOM      4  C2  UNL d   1      -0.379   2.996   0.734  0.00  0.00    -0.047 A 
ATOM      5  C3  UNL d   1       0.502   2.183   1.485  0.00  0.00    -0.047 A 
ATOM      6  C4  UNL d   1      -0.269   1.280   2.187  0.00  0.00    -0.004 A 
ENDROOT
TORSDOF 0
ENDMDL
