MODEL 1
REMARK minimizedAffinity 1.35573328
REMARK minimizedRMSD -1
REMARK  0 active torsions:
REMARK  status: ('A' for Active; 'I' for Inactive)
ROOT
ATOM      1  C   UNL d   1      -5.997   5.120   5.064  0.00  0.00     0.172 C 
ATOM      2  N   UNL d   1      -5.562   3.743   5.054  0.00  0.00    -0.070 N 
ATOM      3  C1  UNL d   1      -4.757   3.167   4.107  0.00  0.00    -0.004 A 
ATOM      4  C2  UNL d   1      -4.576   1.846   4.455  0.00  0.00    -0.047 A 
ATOM      5  C3  UNL d   1      -5.297   1.620   5.651  0.00  0.00    -0.047 A 
ATOM      6  C4  UNL d   1      -5.898   2.811   6.000  0.00  0.00    -0.004 A 
ENDROOT
TORSDOF 0
ENDMDL
