MODEL 1
REMARK minimizedAffinity -1.54225123
REMARK minimizedRMSD -1
REMARK  0 active torsions:
REMARK  status: ('A' for Active; 'I' for Inactive)
ROOT
ATOM      1  C   UNL d   1      -2.064  -0.022   1.379  0.00  0.00     0.172 C 
ATOM      2  N   UNL d   1      -0.751   0.526   1.130  0.00  0.00    -0.070 N 
ATOM      3  C1  UNL d   1      -0.487   1.776   0.638  0.00  0.00    -0.004 A 
ATOM      4  C2  UNL d   1       0.881   1.914   0.547  0.00  0.00    -0.047 A 
ATOM      5  C3  UNL d   1       1.460   0.704   0.998  0.00  0.00    -0.047 A 
ATOM      6  C4  UNL d   1       0.427  -0.138   1.353  0.00  0.00    -0.004 A 
ENDROOT
TORSDOF 0
ENDMDL
