MODEL 1
REMARK minimizedAffinity 1.95146275
REMARK minimizedRMSD -1
REMARK  0 active torsions:
REMARK  status: ('A' for Active; 'I' for Inactive)
ROOT
ATOM      1  C   UNL d   1       0.076  -4.519  -0.366  0.00  0.00     0.172 C 
ATOM      2  N   UNL d   1      -1.104  -3.690  -0.284  0.00  0.00    -0.070 N 
ATOM      3  C1  UNL d   1      -1.170  -2.449   0.290  0.00  0.00    -0.004 A 
ATOM      4  C2  UNL d   1      -2.464  -1.993   0.164  0.00  0.00    -0.047 A 
ATOM      5  C3  UNL d   1      -3.203  -2.996  -0.508  0.00  0.00    -0.047 A 
ATOM      6  C4  UNL d   1      -2.336  -4.035  -0.774  0.00  0.00    -0.004 A 
ENDROOT
TORSDOF 0
ENDMDL
