MODEL 1
REMARK minimizedAffinity 0.515490115
REMARK minimizedRMSD -1
REMARK  0 active torsions:
REMARK  status: ('A' for Active; 'I' for Inactive)
ROOT
ATOM      1  C   UNL d   1      -2.216  -5.285  -0.379  0.00  0.00     0.172 C 
ATOM      2  N   UNL d   1      -2.749  -4.060  -0.927  0.00  0.00    -0.070 N 
ATOM      3  C1  UNL d   1      -2.153  -3.292  -1.891  0.00  0.00    -0.004 A 
ATOM      4  C2  UNL d   1      -2.974  -2.213  -2.139  0.00  0.00    -0.047 A 
ATOM      5  C3  UNL d   1      -4.102  -2.337  -1.293  0.00  0.00    -0.047 A 
ATOM      6  C4  UNL d   1      -3.937  -3.489  -0.553  0.00  0.00    -0.004 A 
ENDROOT
TORSDOF 0
ENDMDL
