MODEL 1
REMARK minimizedAffinity 3.48600793
REMARK minimizedRMSD -1
REMARK  0 active torsions:
REMARK  status: ('A' for Active; 'I' for Inactive)
ROOT
ATOM      1  C   UNL d   1      -3.747  -2.528  -1.466  0.00  0.00     0.172 C 
ATOM      2  N   UNL d   1      -3.722  -3.936  -1.147  0.00  0.00    -0.070 N 
ATOM      3  C1  UNL d   1      -4.803  -4.690  -0.776  0.00  0.00    -0.004 A 
ATOM      4  C2  UNL d   1      -4.365  -5.978  -0.560  0.00  0.00    -0.047 A 
ATOM      5  C3  UNL d   1      -2.972  -6.000  -0.810  0.00  0.00    -0.047 A 
ATOM      6  C4  UNL d   1      -2.600  -4.722  -1.171  0.00  0.00    -0.004 A 
ENDROOT
TORSDOF 0
ENDMDL
