MODEL 1
REMARK minimizedAffinity 3.92860365
REMARK minimizedRMSD -1
REMARK  0 active torsions:
REMARK  status: ('A' for Active; 'I' for Inactive)
ROOT
ATOM      1  C   UNL d   1      -5.998   5.163   4.620  0.00  0.00     0.172 C 
ATOM      2  N   UNL d   1      -5.633   3.791   4.883  0.00  0.00    -0.070 N 
ATOM      3  C1  UNL d   1      -4.875   2.996   4.065  0.00  0.00    -0.004 A 
ATOM      4  C2  UNL d   1      -4.754   1.763   4.669  0.00  0.00    -0.047 A 
ATOM      5  C3  UNL d   1      -5.465   1.819   5.892  0.00  0.00    -0.047 A 
ATOM      6  C4  UNL d   1      -5.999   3.085   5.999  0.00  0.00    -0.004 A 
ENDROOT
TORSDOF 0
ENDMDL
