MODEL 1
REMARK minimizedAffinity 1.73110163
REMARK minimizedRMSD -1
REMARK  0 active torsions:
REMARK  status: ('A' for Active; 'I' for Inactive)
ROOT
ATOM      1  C   UNL d   1      -3.483  -5.122  -1.374  0.00  0.00     0.172 C 
ATOM      2  N   UNL d   1      -3.520  -3.738  -1.784  0.00  0.00    -0.070 N 
ATOM      3  C1  UNL d   1      -3.110  -3.253  -2.997  0.00  0.00    -0.004 A 
ATOM      4  C2  UNL d   1      -3.309  -1.889  -2.995  0.00  0.00    -0.047 A 
ATOM      5  C3  UNL d   1      -3.856  -1.542  -1.737  0.00  0.00    -0.047 A 
ATOM      6  C4  UNL d   1      -3.976  -2.706  -1.007  0.00  0.00    -0.004 A 
ENDROOT
TORSDOF 0
ENDMDL
