MODEL 1
REMARK minimizedAffinity 2.44659781
REMARK minimizedRMSD -1
REMARK  0 active torsions:
REMARK  status: ('A' for Active; 'I' for Inactive)
ROOT
ATOM      1  C   UNL d   1       0.341   3.213   0.658  0.00  0.00     0.172 C 
ATOM      2  N   UNL d   1      -0.350   2.131   1.320  0.00  0.00    -0.070 N 
ATOM      3  C1  UNL d   1       0.180   0.900   1.603  0.00  0.00    -0.004 A 
ATOM      4  C2  UNL d   1      -0.793   0.157   2.236  0.00  0.00    -0.047 A 
ATOM      5  C3  UNL d   1      -1.948   0.968   2.335  0.00  0.00    -0.047 A 
ATOM      6  C4  UNL d   1      -1.646   2.185   1.760  0.00  0.00    -0.004 A 
ENDROOT
TORSDOF 0
ENDMDL
