MODEL 1
REMARK minimizedAffinity 3.54748797
REMARK minimizedRMSD -1
REMARK  0 active torsions:
REMARK  status: ('A' for Active; 'I' for Inactive)
ROOT
ATOM      1  C   UNL d   1       2.401   4.107  -3.760  0.00  0.00     0.172 C 
ATOM      2  N   UNL d   1       3.436   4.866  -4.422  0.00  0.00    -0.070 N 
ATOM      3  C1  UNL d   1       4.600   5.301  -3.846  0.00  0.00    -0.004 A 
ATOM      4  C2  UNL d   1       5.316   5.984  -4.805  0.00  0.00    -0.047 A 
ATOM      5  C3  UNL d   1       4.556   5.959  -5.999  0.00  0.00    -0.047 A 
ATOM      6  C4  UNL d   1       3.397   5.260  -5.734  0.00  0.00    -0.004 A 
ENDROOT
TORSDOF 0
ENDMDL
