MODEL 1
REMARK minimizedAffinity -2.83041525
REMARK minimizedRMSD -1
REMARK  0 active torsions:
REMARK  status: ('A' for Active; 'I' for Inactive)
ROOT
ATOM      1  C   UNL d   1       0.380   3.164   0.968  0.00  0.00     0.172 C 
ATOM      2  N   UNL d   1      -0.028   1.786   1.108  0.00  0.00    -0.070 N 
ATOM      3  C1  UNL d   1       0.814   0.716   1.256  0.00  0.00    -0.004 A 
ATOM      4  C2  UNL d   1       0.040  -0.420   1.358  0.00  0.00    -0.047 A 
ATOM      5  C3  UNL d   1      -1.314  -0.018   1.267  0.00  0.00    -0.047 A 
ATOM      6  C4  UNL d   1      -1.327   1.352   1.112  0.00  0.00    -0.004 A 
ENDROOT
TORSDOF 0
ENDMDL
