MODEL 1
REMARK minimizedAffinity -0.912739217
REMARK minimizedRMSD -1
REMARK  0 active torsions:
REMARK  status: ('A' for Active; 'I' for Inactive)
ROOT
ATOM      1  C   UNL d   1       0.782   1.524   1.120  0.00  0.00     0.172 C 
ATOM      2  N   UNL d   1       0.636   0.478   2.105  0.00  0.00    -0.070 N 
ATOM      3  C1  UNL d   1       1.571   0.129   3.043  0.00  0.00    -0.004 A 
ATOM      4  C2  UNL d   1       1.054  -0.908   3.788  0.00  0.00    -0.047 A 
ATOM      5  C3  UNL d   1      -0.235  -1.194   3.279  0.00  0.00    -0.047 A 
ATOM      6  C4  UNL d   1      -0.468  -0.321   2.238  0.00  0.00    -0.004 A 
ENDROOT
TORSDOF 0
ENDMDL
