MODEL 1
REMARK minimizedAffinity -1.78241515
REMARK minimizedRMSD -1
REMARK  0 active torsions:
REMARK  status: ('A' for Active; 'I' for Inactive)
ROOT
ATOM      1  C   UNL d   1       0.956  -2.082   1.114  0.00  0.00     0.124 A 
ATOM      2  C1  UNL d   1      -0.191  -1.348   1.383  0.00  0.00     0.062 A 
ATOM      3  C2  UNL d   1      -0.343  -0.069   0.856  0.00  0.00     0.162 A 
ATOM      4  C3  UNL d   1       0.655   0.485   0.054  0.00  0.00    -0.034 A 
ATOM      5  C4  UNL d   1       1.806  -0.258  -0.211  0.00  0.00     0.162 A 
ATOM      6  C5  UNL d   1       1.953  -1.537   0.317  0.00  0.00     0.062 A 
ATOM      7  F   UNL d   1       3.062  -2.244   0.056  0.00  0.00    -0.097 F 
ATOM      8  F1  UNL d   1       2.785   0.244  -0.978  0.00  0.00    -0.096 F 
ATOM      9  I   UNL d   1       0.431   2.398  -0.735  0.00  0.00    -0.060 I 
ATOM     10  F2  UNL d   1      -1.462   0.617   1.133  0.00  0.00    -0.096 F 
ATOM     11  F3  UNL d   1      -1.155  -1.873   2.152  0.00  0.00    -0.097 F 
ATOM     12  F4  UNL d   1       1.100  -3.313   1.622  0.00  0.00    -0.092 F 
ENDROOT
TORSDOF 0
ENDMDL
