MODEL 1
REMARK minimizedAffinity 0.161136791
REMARK minimizedRMSD -1
REMARK  0 active torsions:
REMARK  status: ('A' for Active; 'I' for Inactive)
ROOT
ATOM      1  C   UNL d   1      -1.689   0.943  -0.764  0.00  0.00     0.124 A 
ATOM      2  C1  UNL d   1      -1.712   0.536   0.563  0.00  0.00     0.062 A 
ATOM      3  C2  UNL d   1      -0.727  -0.318   1.050  0.00  0.00     0.162 A 
ATOM      4  C3  UNL d   1       0.290  -0.772   0.210  0.00  0.00    -0.034 A 
ATOM      5  C4  UNL d   1       0.305  -0.359  -1.124  0.00  0.00     0.162 A 
ATOM      6  C5  UNL d   1      -0.681   0.495  -1.606  0.00  0.00     0.062 A 
ATOM      7  F   UNL d   1      -0.658   0.887  -2.888  0.00  0.00    -0.097 F 
ATOM      8  F1  UNL d   1       1.268  -0.776  -1.959  0.00  0.00    -0.096 F 
ATOM      9  I   UNL d   1       1.764  -2.050   0.934  0.00  0.00    -0.060 I 
ATOM     10  F2  UNL d   1      -0.773  -0.695   2.337  0.00  0.00    -0.096 F 
ATOM     11  F3  UNL d   1      -2.685   0.967   1.379  0.00  0.00    -0.097 F 
ATOM     12  F4  UNL d   1      -2.638   1.765  -1.230  0.00  0.00    -0.092 F 
ENDROOT
TORSDOF 0
ENDMDL
