MODEL 1
REMARK minimizedAffinity -3.15085793
REMARK minimizedRMSD -1
REMARK  0 active torsions:
REMARK  status: ('A' for Active; 'I' for Inactive)
ROOT
ATOM      1  C   UNL d   1       0.345  -2.498   1.382  0.00  0.00     0.124 A 
ATOM      2  C1  UNL d   1       1.348  -2.051   0.533  0.00  0.00     0.062 A 
ATOM      3  C2  UNL d   1       1.249  -0.800  -0.069  0.00  0.00     0.162 A 
ATOM      4  C3  UNL d   1       0.143   0.014   0.177  0.00  0.00    -0.034 A 
ATOM      5  C4  UNL d   1      -0.862  -0.443   1.031  0.00  0.00     0.162 A 
ATOM      6  C5  UNL d   1      -0.759  -1.694   1.630  0.00  0.00     0.062 A 
ATOM      7  F   UNL d   1      -1.729  -2.125   2.450  0.00  0.00    -0.097 F 
ATOM      8  F1  UNL d   1      -1.939   0.313   1.289  0.00  0.00    -0.096 F 
ATOM      9  I   UNL d   1      -0.009   1.885  -0.722  0.00  0.00    -0.060 I 
ATOM     10  F2  UNL d   1       2.233  -0.394  -0.885  0.00  0.00    -0.096 F 
ATOM     11  F3  UNL d   1       2.415  -2.826   0.292  0.00  0.00    -0.097 F 
ATOM     12  F4  UNL d   1       0.442  -3.703   1.960  0.00  0.00    -0.092 F 
ENDROOT
TORSDOF 0
ENDMDL
