MODEL 1
REMARK minimizedAffinity 1.26623321
REMARK minimizedRMSD -1
REMARK  0 active torsions:
REMARK  status: ('A' for Active; 'I' for Inactive)
ROOT
ATOM      1  C   UNL d   1      -0.980   1.067  -1.347  0.00  0.00     0.124 A 
ATOM      2  C1  UNL d   1      -0.737   2.389  -1.693  0.00  0.00     0.062 A 
ATOM      3  C2  UNL d   1       0.329   3.078  -1.123  0.00  0.00     0.162 A 
ATOM      4  C3  UNL d   1       1.163   2.445  -0.200  0.00  0.00    -0.034 A 
ATOM      5  C4  UNL d   1       0.912   1.115   0.143  0.00  0.00     0.162 A 
ATOM      6  C5  UNL d   1      -0.156   0.431  -0.429  0.00  0.00     0.062 A 
ATOM      7  F   UNL d   1      -0.389  -0.846  -0.094  0.00  0.00    -0.097 F 
ATOM      8  F1  UNL d   1       1.693   0.476   1.027  0.00  0.00    -0.096 F 
ATOM      9  I   UNL d   1       2.759   3.470   0.655  0.00  0.00    -0.060 I 
ATOM     10  F2  UNL d   1       0.541   4.354  -1.475  0.00  0.00    -0.096 F 
ATOM     11  F3  UNL d   1      -1.533   3.006  -2.578  0.00  0.00    -0.097 F 
ATOM     12  F4  UNL d   1      -2.008   0.408  -1.896  0.00  0.00    -0.092 F 
ENDROOT
TORSDOF 0
ENDMDL
