MODEL 1
REMARK minimizedAffinity -0.590389609
REMARK minimizedRMSD -1
REMARK  0 active torsions:
REMARK  status: ('A' for Active; 'I' for Inactive)
ROOT
ATOM      1  C   UNL d   1       0.380  -2.142   0.995  0.00  0.00     0.124 A 
ATOM      2  C1  UNL d   1      -0.730  -1.321   1.142  0.00  0.00     0.062 A 
ATOM      3  C2  UNL d   1      -0.631   0.043   0.881  0.00  0.00     0.162 A 
ATOM      4  C3  UNL d   1       0.582   0.594   0.470  0.00  0.00    -0.034 A 
ATOM      5  C4  UNL d   1       1.694  -0.237   0.326  0.00  0.00     0.162 A 
ATOM      6  C5  UNL d   1       1.590  -1.600   0.588  0.00  0.00     0.062 A 
ATOM      7  F   UNL d   1       2.663  -2.391   0.446  0.00  0.00    -0.097 F 
ATOM      8  F1  UNL d   1       2.876   0.260  -0.068  0.00  0.00    -0.096 F 
ATOM      9  I   UNL d   1       0.734   2.633   0.079  0.00  0.00    -0.060 I 
ATOM     10  F2  UNL d   1      -1.719   0.812   1.031  0.00  0.00    -0.096 F 
ATOM     11  F3  UNL d   1      -1.900  -1.842   1.537  0.00  0.00    -0.097 F 
ATOM     12  F4  UNL d   1       0.282  -3.453   1.248  0.00  0.00    -0.092 F 
ENDROOT
TORSDOF 0
ENDMDL
