MODEL 1
REMARK minimizedAffinity 0.592008352
REMARK minimizedRMSD -1
REMARK  0 active torsions:
REMARK  status: ('A' for Active; 'I' for Inactive)
ROOT
ATOM      1  C   UNL d   1      -0.742  -1.536   0.737  0.00  0.00     0.124 A 
ATOM      2  C1  UNL d   1      -0.976  -0.212   0.393  0.00  0.00     0.062 A 
ATOM      3  C2  UNL d   1       0.088   0.628   0.078  0.00  0.00     0.162 A 
ATOM      4  C3  UNL d   1       1.397   0.146   0.104  0.00  0.00    -0.034 A 
ATOM      5  C4  UNL d   1       1.624  -1.186   0.453  0.00  0.00     0.162 A 
ATOM      6  C5  UNL d   1       0.557  -2.022   0.767  0.00  0.00     0.062 A 
ATOM      7  F   UNL d   1       0.785  -3.300   1.100  0.00  0.00    -0.097 F 
ATOM      8  F1  UNL d   1       2.870  -1.682   0.488  0.00  0.00    -0.096 F 
ATOM      9  I   UNL d   1       2.991   1.399  -0.366  0.00  0.00    -0.060 I 
ATOM     10  F2  UNL d   1      -0.168   1.903  -0.251  0.00  0.00    -0.096 F 
ATOM     11  F3  UNL d   1      -2.231   0.261   0.365  0.00  0.00    -0.097 F 
ATOM     12  F4  UNL d   1      -1.768  -2.341   1.041  0.00  0.00    -0.092 F 
ENDROOT
TORSDOF 0
ENDMDL
