MODEL 1
REMARK minimizedAffinity 1.42989516
REMARK minimizedRMSD -1
REMARK  0 active torsions:
REMARK  status: ('A' for Active; 'I' for Inactive)
ROOT
ATOM      1  C   UNL d   1      -0.348  -0.153   0.134  0.00  0.00     0.124 A 
ATOM      2  C1  UNL d   1      -0.648   1.105  -0.369  0.00  0.00     0.062 A 
ATOM      3  C2  UNL d   1       0.294   2.128  -0.304  0.00  0.00     0.162 A 
ATOM      4  C3  UNL d   1       1.546   1.897   0.265  0.00  0.00    -0.034 A 
ATOM      5  C4  UNL d   1       1.840   0.629   0.770  0.00  0.00     0.162 A 
ATOM      6  C5  UNL d   1       0.895  -0.390   0.703  0.00  0.00     0.062 A 
ATOM      7  F   UNL d   1       1.187  -1.605   1.190  0.00  0.00    -0.097 F 
ATOM      8  F1  UNL d   1       3.034   0.372   1.325  0.00  0.00    -0.096 F 
ATOM      9  I   UNL d   1       2.957   3.423   0.364  0.00  0.00    -0.060 I 
ATOM     10  F2  UNL d   1      -0.023   3.334  -0.799  0.00  0.00    -0.096 F 
ATOM     11  F3  UNL d   1      -1.849   1.337  -0.919  0.00  0.00    -0.097 F 
ATOM     12  F4  UNL d   1      -1.256  -1.135   0.072  0.00  0.00    -0.092 F 
ENDROOT
TORSDOF 0
ENDMDL
