MODEL 1
REMARK minimizedAffinity -1.70695531
REMARK minimizedRMSD -1
REMARK  0 active torsions:
REMARK  status: ('A' for Active; 'I' for Inactive)
ROOT
ATOM      1  C   UNL d   1       0.938   2.274   0.128  0.00  0.00     0.124 A 
ATOM      2  C1  UNL d   1       0.082   1.183   0.066  0.00  0.00     0.062 A 
ATOM      3  C2  UNL d   1      -0.866   1.094  -0.949  0.00  0.00     0.162 A 
ATOM      4  C3  UNL d   1      -0.963   2.098  -1.912  0.00  0.00    -0.034 A 
ATOM      5  C4  UNL d   1      -0.100   3.193  -1.842  0.00  0.00     0.162 A 
ATOM      6  C5  UNL d   1       0.846   3.278  -0.826  0.00  0.00     0.062 A 
ATOM      7  F   UNL d   1       1.672   4.333  -0.768  0.00  0.00    -0.097 F 
ATOM      8  F1  UNL d   1      -0.166   4.177  -2.752  0.00  0.00    -0.096 F 
ATOM      9  I   UNL d   1      -2.379   1.969  -3.431  0.00  0.00    -0.060 I 
ATOM     10  F2  UNL d   1      -1.680   0.028  -0.984  0.00  0.00    -0.096 F 
ATOM     11  F3  UNL d   1       0.168   0.212   0.987  0.00  0.00    -0.097 F 
ATOM     12  F4  UNL d   1       1.849   2.358   1.106  0.00  0.00    -0.092 F 
ENDROOT
TORSDOF 0
ENDMDL
