MODEL 1
REMARK minimizedAffinity 1.04625309
REMARK minimizedRMSD -1
REMARK  0 active torsions:
REMARK  status: ('A' for Active; 'I' for Inactive)
ROOT
ATOM      1  C   UNL d   1       0.559  -1.828   0.807  0.00  0.00     0.124 A 
ATOM      2  C1  UNL d   1      -0.610  -1.106   1.003  0.00  0.00     0.062 A 
ATOM      3  C2  UNL d   1      -0.639   0.261   0.745  0.00  0.00     0.162 A 
ATOM      4  C3  UNL d   1       0.504   0.916   0.287  0.00  0.00    -0.034 A 
ATOM      5  C4  UNL d   1       1.676   0.183   0.093  0.00  0.00     0.162 A 
ATOM      6  C5  UNL d   1       1.701  -1.184   0.353  0.00  0.00     0.062 A 
ATOM      7  F   UNL d   1       2.831  -1.880   0.163  0.00  0.00    -0.097 F 
ATOM      8  F1  UNL d   1       2.794   0.781  -0.347  0.00  0.00    -0.096 F 
ATOM      9  I   UNL d   1       0.464   2.960  -0.101  0.00  0.00    -0.060 I 
ATOM     10  F2  UNL d   1      -1.783   0.934   0.943  0.00  0.00    -0.096 F 
ATOM     11  F3  UNL d   1      -1.714  -1.727   1.443  0.00  0.00    -0.097 F 
ATOM     12  F4  UNL d   1       0.585  -3.144   1.058  0.00  0.00    -0.092 F 
ENDROOT
TORSDOF 0
ENDMDL
