MODEL 1
REMARK minimizedAffinity 0.591612637
REMARK minimizedRMSD -1
REMARK  0 active torsions:
REMARK  status: ('A' for Active; 'I' for Inactive)
ROOT
ATOM      1  C   UNL d   1       0.545  -1.919   1.079  0.00  0.00     0.124 A 
ATOM      2  C1  UNL d   1      -0.663  -1.260   1.260  0.00  0.00     0.062 A 
ATOM      3  C2  UNL d   1      -0.905  -0.052   0.613  0.00  0.00     0.162 A 
ATOM      4  C3  UNL d   1       0.063   0.505  -0.223  0.00  0.00    -0.034 A 
ATOM      5  C4  UNL d   1       1.276  -0.163  -0.400  0.00  0.00     0.162 A 
ATOM      6  C5  UNL d   1       1.513  -1.371   0.249  0.00  0.00     0.062 A 
ATOM      7  F   UNL d   1       2.680  -2.006   0.073  0.00  0.00    -0.097 F 
ATOM      8  F1  UNL d   1       2.228   0.344  -1.197  0.00  0.00    -0.096 F 
ATOM      9  I   UNL d   1      -0.295   2.312  -1.193  0.00  0.00    -0.060 I 
ATOM     10  F2  UNL d   1      -2.081   0.564   0.807  0.00  0.00    -0.096 F 
ATOM     11  F3  UNL d   1      -1.599  -1.787   2.062  0.00  0.00    -0.097 F 
ATOM     12  F4  UNL d   1       0.776  -3.081   1.704  0.00  0.00    -0.092 F 
ENDROOT
TORSDOF 0
ENDMDL
