MODEL 1
REMARK minimizedAffinity -3.70893335
REMARK minimizedRMSD -1
REMARK  0 active torsions:
REMARK  status: ('A' for Active; 'I' for Inactive)
ROOT
ATOM      1  C   UNL d   1       1.275   3.127   0.171  0.00  0.00     0.124 A 
ATOM      2  C1  UNL d   1       0.006   2.729   0.566  0.00  0.00     0.062 A 
ATOM      3  C2  UNL d   1      -0.318   1.376   0.620  0.00  0.00     0.162 A 
ATOM      4  C3  UNL d   1       0.630   0.412   0.279  0.00  0.00    -0.034 A 
ATOM      5  C4  UNL d   1       1.904   0.820  -0.118  0.00  0.00     0.162 A 
ATOM      6  C5  UNL d   1       2.223   2.173  -0.170  0.00  0.00     0.062 A 
ATOM      7  F   UNL d   1       3.450   2.556  -0.552  0.00  0.00    -0.097 F 
ATOM      8  F1  UNL d   1       2.840  -0.081  -0.452  0.00  0.00    -0.096 F 
ATOM      9  I   UNL d   1       0.149  -1.612   0.358  0.00  0.00    -0.060 I 
ATOM     10  F2  UNL d   1      -1.553   1.020   1.005  0.00  0.00    -0.096 F 
ATOM     11  F3  UNL d   1      -0.912   3.649   0.895  0.00  0.00    -0.097 F 
ATOM     12  F4  UNL d   1       1.584   4.430   0.120  0.00  0.00    -0.092 F 
ENDROOT
TORSDOF 0
ENDMDL
