MODEL 1
REMARK minimizedAffinity 2.38560963
REMARK minimizedRMSD -1
REMARK  0 active torsions:
REMARK  status: ('A' for Active; 'I' for Inactive)
ROOT
ATOM      1  C   UNL d   1      -0.254  -1.658   1.201  0.00  0.00     0.124 A 
ATOM      2  C1  UNL d   1       1.094  -1.959   1.065  0.00  0.00     0.062 A 
ATOM      3  C2  UNL d   1       2.009  -0.954   0.762  0.00  0.00     0.162 A 
ATOM      4  C3  UNL d   1       1.578   0.362   0.595  0.00  0.00    -0.034 A 
ATOM      5  C4  UNL d   1       0.221   0.657   0.733  0.00  0.00     0.162 A 
ATOM      6  C5  UNL d   1      -0.689  -0.351   1.035  0.00  0.00     0.062 A 
ATOM      7  F   UNL d   1      -1.991  -0.058   1.166  0.00  0.00    -0.097 F 
ATOM      8  F1  UNL d   1      -0.227   1.912   0.578  0.00  0.00    -0.096 F 
ATOM      9  I   UNL d   1       2.942   1.868   0.143  0.00  0.00    -0.060 I 
ATOM     10  F2  UNL d   1       3.305  -1.273   0.637  0.00  0.00    -0.096 F 
ATOM     11  F3  UNL d   1       1.518  -3.221   1.224  0.00  0.00    -0.097 F 
ATOM     12  F4  UNL d   1      -1.132  -2.627   1.491  0.00  0.00    -0.092 F 
ENDROOT
TORSDOF 0
ENDMDL
