MODEL 1
REMARK minimizedAffinity -2.19840717
REMARK minimizedRMSD -1
REMARK  0 active torsions:
REMARK  status: ('A' for Active; 'I' for Inactive)
ROOT
ATOM      1  C   UNL d   1      -0.479  -0.575  -0.270  0.00  0.00     0.124 A 
ATOM      2  C1  UNL d   1      -0.774   0.771  -0.434  0.00  0.00     0.062 A 
ATOM      3  C2  UNL d   1       0.243   1.721  -0.392  0.00  0.00     0.162 A 
ATOM      4  C3  UNL d   1       1.565   1.328  -0.185  0.00  0.00    -0.034 A 
ATOM      5  C4  UNL d   1       1.854  -0.028  -0.019  0.00  0.00     0.162 A 
ATOM      6  C5  UNL d   1       0.834  -0.973  -0.062  0.00  0.00     0.062 A 
ATOM      7  F   UNL d   1       1.121  -2.274   0.097  0.00  0.00    -0.097 F 
ATOM      8  F1  UNL d   1       3.114  -0.441   0.182  0.00  0.00    -0.096 F 
ATOM      9  I   UNL d   1       3.088   2.744  -0.121  0.00  0.00    -0.060 I 
ATOM     10  F2  UNL d   1      -0.071   3.015  -0.554  0.00  0.00    -0.096 F 
ATOM     11  F3  UNL d   1      -2.042   1.159  -0.634  0.00  0.00    -0.097 F 
ATOM     12  F4  UNL d   1      -1.459  -1.487  -0.310  0.00  0.00    -0.092 F 
ENDROOT
TORSDOF 0
ENDMDL
