MODEL 1
REMARK minimizedAffinity 0.0913961455
REMARK minimizedRMSD -1
REMARK  0 active torsions:
REMARK  status: ('A' for Active; 'I' for Inactive)
ROOT
ATOM      1  C   UNL d   1       0.095  -0.357   1.815  0.00  0.00    -0.002 A 
ATOM      2  C1  UNL d   1      -1.224  -0.066   1.499  0.00  0.00     0.010 A 
ATOM      3  C2  UNL d   1      -1.600   0.180   0.177  0.00  0.00     0.041 A 
ATOM      4  C3  UNL d   1      -0.618   0.126  -0.832  0.00  0.00    -0.075 A 
ATOM      5  S   UNL d   1      -0.846   0.391  -2.520  0.00  0.00     0.015 SA
ATOM      6  C4  UNL d   1       0.802   0.123  -2.861  0.00  0.00     0.022 A 
ATOM      7  C5  UNL d   1       1.523  -0.163  -1.726  0.00  0.00     0.026 A 
ATOM      8  C6  UNL d   1       0.717  -0.166  -0.538  0.00  0.00    -0.082 A 
ATOM      9  C7  UNL d   1       1.066  -0.410   0.812  0.00  0.00     0.045 A 
ENDROOT
TORSDOF 0
ENDMDL
