MODEL 1
REMARK minimizedAffinity -1.22646976
REMARK minimizedRMSD -1
REMARK  0 active torsions:
REMARK  status: ('A' for Active; 'I' for Inactive)
ROOT
ATOM      1  C   UNL d   1       0.381   0.412   2.908  0.00  0.00    -0.002 A 
ATOM      2  C1  UNL d   1      -0.653  -0.499   2.749  0.00  0.00     0.010 A 
ATOM      3  C2  UNL d   1      -1.011  -0.953   1.477  0.00  0.00     0.041 A 
ATOM      4  C3  UNL d   1      -0.304  -0.471   0.358  0.00  0.00    -0.075 A 
ATOM      5  S   UNL d   1      -0.566  -0.887  -1.294  0.00  0.00     0.015 SA
ATOM      6  C4  UNL d   1       0.689   0.135  -1.828  0.00  0.00     0.022 A 
ATOM      7  C5  UNL d   1       1.304   0.785  -0.784  0.00  0.00     0.026 A 
ATOM      8  C6  UNL d   1       0.742   0.446   0.493  0.00  0.00    -0.082 A 
ATOM      9  C7  UNL d   1       1.081   0.887   1.795  0.00  0.00     0.045 A 
ENDROOT
TORSDOF 0
ENDMDL
