MODEL 1
REMARK minimizedAffinity -2.45122766
REMARK minimizedRMSD -1
REMARK  0 active torsions:
REMARK  status: ('A' for Active; 'I' for Inactive)
ROOT
ATOM      1  C   UNL d   1      -1.071   0.517   3.221  0.00  0.00    -0.002 A 
ATOM      2  C1  UNL d   1      -1.986   0.391   2.186  0.00  0.00     0.010 A 
ATOM      3  C2  UNL d   1      -1.556   0.361   0.858  0.00  0.00     0.041 A 
ATOM      4  C3  UNL d   1      -0.177   0.459   0.585  0.00  0.00    -0.075 A 
ATOM      5  S   UNL d   1       0.580   0.444  -0.963  0.00  0.00     0.015 SA
ATOM      6  C4  UNL d   1       2.136   0.603  -0.286  0.00  0.00     0.022 A 
ATOM      7  C5  UNL d   1       2.098   0.668   1.086  0.00  0.00     0.026 A 
ATOM      8  C6  UNL d   1       0.764   0.585   1.611  0.00  0.00    -0.082 A 
ATOM      9  C7  UNL d   1       0.296   0.614   2.947  0.00  0.00     0.045 A 
ENDROOT
TORSDOF 0
ENDMDL
