MODEL 1
REMARK minimizedAffinity 5.2909627
REMARK minimizedRMSD -1
REMARK  0 active torsions:
REMARK  status: ('A' for Active; 'I' for Inactive)
ROOT
ATOM      1  C   UNL d   1      -1.112  -0.564   3.530  0.00  0.00    -0.002 A 
ATOM      2  C1  UNL d   1       0.112  -0.218   2.975  0.00  0.00     0.010 A 
ATOM      3  C2  UNL d   1       0.194   0.220   1.652  0.00  0.00     0.041 A 
ATOM      4  C3  UNL d   1      -0.987   0.308   0.889  0.00  0.00    -0.075 A 
ATOM      5  S   UNL d   1      -1.129   0.820  -0.751  0.00  0.00     0.015 SA
ATOM      6  C4  UNL d   1      -2.818   0.593  -0.754  0.00  0.00     0.022 A 
ATOM      7  C5  UNL d   1      -3.279   0.138   0.459  0.00  0.00     0.026 A 
ATOM      8  C6  UNL d   1      -2.231  -0.033   1.426  0.00  0.00    -0.082 A 
ATOM      9  C7  UNL d   1      -2.281  -0.475   2.770  0.00  0.00     0.045 A 
ENDROOT
TORSDOF 0
ENDMDL
