MODEL 1
REMARK minimizedAffinity 6.43452501
REMARK minimizedRMSD -1
REMARK  0 active torsions:
REMARK  status: ('A' for Active; 'I' for Inactive)
ROOT
ATOM      1  C   UNL d   1      -0.913  -0.683   2.444  0.00  0.00    -0.002 A 
ATOM      2  C1  UNL d   1       0.172  -0.328   3.232  0.00  0.00     0.010 A 
ATOM      3  C2  UNL d   1       1.116   0.590   2.769  0.00  0.00     0.041 A 
ATOM      4  C3  UNL d   1       0.949   1.152   1.488  0.00  0.00    -0.075 A 
ATOM      5  S   UNL d   1       1.979   2.298   0.713  0.00  0.00     0.015 SA
ATOM      6  C4  UNL d   1       1.002   2.343  -0.683  0.00  0.00     0.022 A 
ATOM      7  C5  UNL d   1      -0.087   1.510  -0.578  0.00  0.00     0.026 A 
ATOM      8  C6  UNL d   1      -0.136   0.810   0.675  0.00  0.00    -0.082 A 
ATOM      9  C7  UNL d   1      -1.075  -0.124   1.173  0.00  0.00     0.045 A 
ENDROOT
TORSDOF 0
ENDMDL
