MODEL 1
REMARK minimizedAffinity -4.71766758
REMARK minimizedRMSD -1
REMARK  0 active torsions:
REMARK  status: ('A' for Active; 'I' for Inactive)
ROOT
ATOM      1  C   UNL d   1      -1.663  -0.573   3.503  0.00  0.00    -0.002 A 
ATOM      2  C1  UNL d   1      -2.785  -0.445   2.697  0.00  0.00     0.010 A 
ATOM      3  C2  UNL d   1      -2.654  -0.154   1.337  0.00  0.00     0.041 A 
ATOM      4  C3  UNL d   1      -1.363   0.005   0.796  0.00  0.00    -0.075 A 
ATOM      5  S   UNL d   1      -0.959   0.362  -0.842  0.00  0.00     0.015 SA
ATOM      6  C4  UNL d   1       0.713   0.352  -0.510  0.00  0.00     0.022 A 
ATOM      7  C5  UNL d   1       0.974   0.084   0.813  0.00  0.00     0.026 A 
ATOM      8  C6  UNL d   1      -0.217  -0.121   1.587  0.00  0.00    -0.082 A 
ATOM      9  C7  UNL d   1      -0.384  -0.415   2.962  0.00  0.00     0.045 A 
ENDROOT
TORSDOF 0
ENDMDL
