MODEL 1
REMARK minimizedAffinity -2.26358104
REMARK minimizedRMSD -1
REMARK  0 active torsions:
REMARK  status: ('A' for Active; 'I' for Inactive)
ROOT
ATOM      1  C   UNL d   1       0.386   0.008   2.573  0.00  0.00    -0.002 A 
ATOM      2  C1  UNL d   1      -0.927   0.458   2.553  0.00  0.00     0.010 A 
ATOM      3  C2  UNL d   1      -1.560   0.749   1.343  0.00  0.00     0.041 A 
ATOM      4  C3  UNL d   1      -0.845   0.576   0.141  0.00  0.00    -0.075 A 
ATOM      5  S   UNL d   1      -1.416   0.869  -1.459  0.00  0.00     0.015 SA
ATOM      6  C4  UNL d   1       0.069   0.402  -2.154  0.00  0.00     0.022 A 
ATOM      7  C5  UNL d   1       0.989   0.030  -1.203  0.00  0.00     0.026 A 
ATOM      8  C6  UNL d   1       0.478   0.124   0.136  0.00  0.00    -0.082 A 
ATOM      9  C7  UNL d   1       1.092  -0.162   1.379  0.00  0.00     0.045 A 
ENDROOT
TORSDOF 0
ENDMDL
