MODEL 1
REMARK minimizedAffinity 5.98251295
REMARK minimizedRMSD -1
REMARK  0 active torsions:
REMARK  status: ('A' for Active; 'I' for Inactive)
ROOT
ATOM      1  C   UNL d   1      -2.903  -2.965   0.835  0.00  0.00    -0.002 A 
ATOM      2  C1  UNL d   1      -2.653  -2.341   2.049  0.00  0.00     0.010 A 
ATOM      3  C2  UNL d   1      -1.841  -1.207   2.110  0.00  0.00     0.041 A 
ATOM      4  C3  UNL d   1      -1.280  -0.704   0.919  0.00  0.00    -0.075 A 
ATOM      5  S   UNL d   1      -0.256   0.672   0.753  0.00  0.00     0.015 SA
ATOM      6  C4  UNL d   1      -0.127   0.465  -0.934  0.00  0.00     0.022 A 
ATOM      7  C5  UNL d   1      -0.841  -0.623  -1.376  0.00  0.00     0.026 A 
ATOM      8  C6  UNL d   1      -1.518  -1.315  -0.315  0.00  0.00    -0.082 A 
ATOM      9  C7  UNL d   1      -2.345  -2.464  -0.344  0.00  0.00     0.045 A 
ENDROOT
TORSDOF 0
ENDMDL
