MODEL 1
REMARK minimizedAffinity -1.19509256
REMARK minimizedRMSD -1
REMARK  0 active torsions:
REMARK  status: ('A' for Active; 'I' for Inactive)
ROOT
ATOM      1  C   UNL d   1      -0.651  -1.005   1.677  0.00  0.00    -0.002 A 
ATOM      2  C1  UNL d   1       0.024  -0.542   0.557  0.00  0.00     0.010 A 
ATOM      3  C2  UNL d   1       0.712   0.673   0.594  0.00  0.00     0.041 A 
ATOM      4  C3  UNL d   1       0.712   1.420   1.789  0.00  0.00    -0.075 A 
ATOM      5  S   UNL d   1       1.487   2.934   2.068  0.00  0.00     0.015 SA
ATOM      6  C4  UNL d   1       0.941   3.001   3.681  0.00  0.00     0.022 A 
ATOM      7  C5  UNL d   1       0.184   1.903   4.015  0.00  0.00     0.026 A 
ATOM      8  C6  UNL d   1       0.040   0.973   2.930  0.00  0.00    -0.082 A 
ATOM      9  C7  UNL d   1      -0.649  -0.262   2.860  0.00  0.00     0.045 A 
ENDROOT
TORSDOF 0
ENDMDL
