MODEL 1
REMARK minimizedAffinity -2.31487346
REMARK minimizedRMSD -1
REMARK  1 active torsions:
REMARK  status: ('A' for Active; 'I' for Inactive)
REMARK    1  A    between atoms: C1_2  and  C2_3 
ROOT
ATOM      1  C2  UNL d   1       0.608   0.879  -0.372  0.00  0.00    -0.077 A 
ATOM      2  C3  UNL d   1       1.328   0.298   0.682  0.00  0.00     0.002 A 
ATOM      3  C4  UNL d   1       1.180  -1.059   0.975  0.00  0.00     0.002 A 
ATOM      4  C5  UNL d   1       0.316  -1.847   0.217  0.00  0.00    -0.004 A 
ATOM      5  C6  UNL d   1      -0.405  -1.278  -0.832  0.00  0.00     0.002 A 
ATOM      6  C7  UNL d   1      -0.260   0.078  -1.126  0.00  0.00     0.002 A 
ENDROOT
BRANCH   1   7
ATOM      7  C1  UNL d   1       0.803   2.331  -0.721  0.00  0.00     0.055 C 
ATOM      8  C   UNL d   1       1.167   2.504  -2.188  0.00  0.00     0.019 C 
ENDBRANCH   1   7
TORSDOF 1
ENDMDL
