MODEL 1
REMARK minimizedAffinity -2.48623848
REMARK minimizedRMSD -1
REMARK  1 active torsions:
REMARK  status: ('A' for Active; 'I' for Inactive)
REMARK    1  A    between atoms: C1_2  and  C2_3 
ROOT
ATOM      1  C2  UNL d   1       0.120  -0.242   0.424  0.00  0.00    -0.077 A 
ATOM      2  C3  UNL d   1      -1.012  -0.308   1.249  0.00  0.00     0.002 A 
ATOM      3  C4  UNL d   1      -1.448  -1.536   1.751  0.00  0.00     0.002 A 
ATOM      4  C5  UNL d   1      -0.756  -2.704   1.438  0.00  0.00    -0.004 A 
ATOM      5  C6  UNL d   1       0.369  -2.649   0.617  0.00  0.00     0.002 A 
ATOM      6  C7  UNL d   1       0.806  -1.423   0.113  0.00  0.00     0.002 A 
ENDROOT
BRANCH   1   7
ATOM      7  C1  UNL d   1       0.621   1.087  -0.079  0.00  0.00     0.055 C 
ATOM      8  C   UNL d   1       0.388   1.236  -1.576  0.00  0.00     0.019 C 
ENDBRANCH   1   7
TORSDOF 1
ENDMDL
