MODEL 1
REMARK minimizedAffinity -2.18709731
REMARK minimizedRMSD -1
REMARK  1 active torsions:
REMARK  status: ('A' for Active; 'I' for Inactive)
REMARK    1  A    between atoms: C1_2  and  C2_3 
ROOT
ATOM      1  C2  UNL d   1       0.659   0.915  -1.028  0.00  0.00    -0.077 A 
ATOM      2  C3  UNL d   1       0.810   0.861   0.365  0.00  0.00     0.002 A 
ATOM      3  C4  UNL d   1       0.679  -0.352   1.043  0.00  0.00     0.002 A 
ATOM      4  C5  UNL d   1       0.400  -1.520   0.337  0.00  0.00    -0.004 A 
ATOM      5  C6  UNL d   1       0.246  -1.477  -1.048  0.00  0.00     0.002 A 
ATOM      6  C7  UNL d   1       0.376  -0.265  -1.728  0.00  0.00     0.002 A 
ENDROOT
BRANCH   1   7
ATOM      7  C1  UNL d   1       0.849   2.214  -1.766  0.00  0.00     0.055 C 
ATOM      8  C   UNL d   1       1.092   1.977  -3.250  0.00  0.00     0.019 C 
ENDBRANCH   1   7
TORSDOF 1
ENDMDL
