MODEL 1
REMARK minimizedAffinity -4.31833363
REMARK minimizedRMSD -1
REMARK  1 active torsions:
REMARK  status: ('A' for Active; 'I' for Inactive)
REMARK    1  A    between atoms: C1_2  and  C2_3 
ROOT
ATOM      1  C2  UNL d   1       0.274   0.930  -1.424  0.00  0.00    -0.077 A 
ATOM      2  C3  UNL d   1       0.451   1.032  -0.037  0.00  0.00     0.002 A 
ATOM      3  C4  UNL d   1       0.411  -0.109   0.766  0.00  0.00     0.002 A 
ATOM      4  C5  UNL d   1       0.198  -1.361   0.191  0.00  0.00    -0.004 A 
ATOM      5  C6  UNL d   1       0.019  -1.472  -1.187  0.00  0.00     0.002 A 
ATOM      6  C7  UNL d   1       0.058  -0.333  -1.991  0.00  0.00     0.002 A 
ENDROOT
BRANCH   1   7
ATOM      7  C1  UNL d   1       0.367   2.154  -2.298  0.00  0.00     0.055 C 
ATOM      8  C   UNL d   1       1.346   1.944  -3.443  0.00  0.00     0.019 C 
ENDBRANCH   1   7
TORSDOF 1
ENDMDL
