MODEL 1
REMARK minimizedAffinity -1.45636368
REMARK minimizedRMSD -1
REMARK  1 active torsions:
REMARK  status: ('A' for Active; 'I' for Inactive)
REMARK    1  A    between atoms: C1_2  and  C2_3 
ROOT
ATOM      1  C2  UNL d   1      -0.570  -0.408   0.643  0.00  0.00    -0.077 A 
ATOM      2  C3  UNL d   1      -0.070  -1.294   1.607  0.00  0.00     0.002 A 
ATOM      3  C4  UNL d   1      -0.758  -2.470   1.911  0.00  0.00     0.002 A 
ATOM      4  C5  UNL d   1      -1.947  -2.774   1.252  0.00  0.00    -0.004 A 
ATOM      5  C6  UNL d   1      -2.454  -1.898   0.292  0.00  0.00     0.002 A 
ATOM      6  C7  UNL d   1      -1.768  -0.722  -0.012  0.00  0.00     0.002 A 
ENDROOT
BRANCH   1   7
ATOM      7  C1  UNL d   1       0.196   0.837   0.279  0.00  0.00     0.055 C 
ATOM      8  C   UNL d   1       0.499   0.884  -1.212  0.00  0.00     0.019 C 
ENDBRANCH   1   7
TORSDOF 1
ENDMDL
