MODEL 1
REMARK minimizedAffinity -2.8085866
REMARK minimizedRMSD -1
REMARK  1 active torsions:
REMARK  status: ('A' for Active; 'I' for Inactive)
REMARK    1  A    between atoms: C1_2  and  C2_3 
ROOT
ATOM      1  C2  UNL d   1       0.410   0.835  -0.957  0.00  0.00    -0.077 A 
ATOM      2  C3  UNL d   1       1.310   0.754   0.115  0.00  0.00     0.002 A 
ATOM      3  C4  UNL d   1       1.539  -0.465   0.755  0.00  0.00     0.002 A 
ATOM      4  C5  UNL d   1       0.875  -1.613   0.328  0.00  0.00    -0.004 A 
ATOM      5  C6  UNL d   1      -0.023  -1.543  -0.736  0.00  0.00     0.002 A 
ATOM      6  C7  UNL d   1      -0.254  -0.325  -1.376  0.00  0.00     0.002 A 
ENDROOT
BRANCH   1   7
ATOM      7  C1  UNL d   1       0.200   2.140  -1.680  0.00  0.00     0.055 C 
ATOM      8  C   UNL d   1       1.141   2.272  -2.868  0.00  0.00     0.019 C 
ENDBRANCH   1   7
TORSDOF 1
ENDMDL
