MODEL 1
REMARK minimizedAffinity -4.63873434
REMARK minimizedRMSD -1
REMARK  1 active torsions:
REMARK  status: ('A' for Active; 'I' for Inactive)
REMARK    1  A    between atoms: C1_2  and  C2_3 
ROOT
ATOM      1  C2  UNL d   1       0.200   0.540  -1.817  0.00  0.00    -0.077 A 
ATOM      2  C3  UNL d   1      -0.130   0.151  -3.123  0.00  0.00     0.002 A 
ATOM      3  C4  UNL d   1       0.256   0.935  -4.212  0.00  0.00     0.002 A 
ATOM      4  C5  UNL d   1       0.977   2.109  -4.007  0.00  0.00    -0.004 A 
ATOM      5  C6  UNL d   1       1.307   2.506  -2.712  0.00  0.00     0.002 A 
ATOM      6  C7  UNL d   1       0.921   1.724  -1.622  0.00  0.00     0.002 A 
ENDROOT
BRANCH   1   7
ATOM      7  C1  UNL d   1      -0.173  -0.329  -0.644  0.00  0.00     0.055 C 
ATOM      8  C   UNL d   1       1.063  -0.892   0.042  0.00  0.00     0.019 C 
ENDBRANCH   1   7
TORSDOF 1
ENDMDL
