MODEL 1
REMARK minimizedAffinity -4.87004757
REMARK minimizedRMSD -1
REMARK  1 active torsions:
REMARK  status: ('A' for Active; 'I' for Inactive)
REMARK    1  A    between atoms: C1_2  and  C2_3 
ROOT
ATOM      1  C2  UNL d   1       0.587  -0.755  -0.302  0.00  0.00    -0.077 A 
ATOM      2  C3  UNL d   1       0.683  -1.080  -1.663  0.00  0.00     0.002 A 
ATOM      3  C4  UNL d   1       0.823  -0.074  -2.621  0.00  0.00     0.002 A 
ATOM      4  C5  UNL d   1       0.873   1.262  -2.229  0.00  0.00    -0.004 A 
ATOM      5  C6  UNL d   1       0.776   1.596  -0.878  0.00  0.00     0.002 A 
ATOM      6  C7  UNL d   1       0.635   0.592   0.081  0.00  0.00     0.002 A 
ENDROOT
BRANCH   1   7
ATOM      7  C1  UNL d   1       0.485  -1.841   0.737  0.00  0.00     0.055 C 
ATOM      8  C   UNL d   1      -0.897  -1.870   1.373  0.00  0.00     0.019 C 
ENDBRANCH   1   7
TORSDOF 1
ENDMDL
