MODEL 1
REMARK minimizedAffinity 1.42867327
REMARK minimizedRMSD -1
REMARK  1 active torsions:
REMARK  status: ('A' for Active; 'I' for Inactive)
REMARK    1  A    between atoms: C1_2  and  C2_3 
ROOT
ATOM      1  C2  UNL d   1       3.151  -5.999  -2.061  0.00  0.00    -0.077 A 
ATOM      2  C3  UNL d   1       1.760  -5.997  -1.889  0.00  0.00     0.002 A 
ATOM      3  C4  UNL d   1       1.207  -5.997  -0.607  0.00  0.00     0.002 A 
ATOM      4  C5  UNL d   1       2.037  -5.995   0.512  0.00  0.00    -0.004 A 
ATOM      5  C6  UNL d   1       3.422  -5.998   0.351  0.00  0.00     0.002 A 
ATOM      6  C7  UNL d   1       3.977  -6.000  -0.929  0.00  0.00     0.002 A 
ENDROOT
BRANCH   1   7
ATOM      7  C1  UNL d   1       3.749  -5.949  -3.443  0.00  0.00     0.055 C 
ATOM      8  C   UNL d   1       2.671  -5.992  -4.515  0.00  0.00     0.019 C 
ENDBRANCH   1   7
TORSDOF 1
ENDMDL
