MODEL 1
REMARK minimizedAffinity -2.02783942
REMARK minimizedRMSD -1
REMARK  1 active torsions:
REMARK  status: ('A' for Active; 'I' for Inactive)
REMARK    1  A    between atoms: C1_2  and  C2_3 
ROOT
ATOM      1  C2  UNL d   1       3.746  -0.026  -4.505  0.00  0.00    -0.077 A 
ATOM      2  C3  UNL d   1       3.213   1.271  -4.510  0.00  0.00     0.002 A 
ATOM      3  C4  UNL d   1       3.824   2.282  -5.253  0.00  0.00     0.002 A 
ATOM      4  C5  UNL d   1       4.967   2.007  -6.000  0.00  0.00    -0.004 A 
ATOM      5  C6  UNL d   1       5.506   0.721  -6.000  0.00  0.00     0.002 A 
ATOM      6  C7  UNL d   1       4.898  -0.291  -5.256  0.00  0.00     0.002 A 
ENDROOT
BRANCH   1   7
ATOM      7  C1  UNL d   1       3.061  -1.130  -3.743  0.00  0.00     0.055 C 
ATOM      8  C   UNL d   1       3.758  -1.404  -2.418  0.00  0.00     0.019 C 
ENDBRANCH   1   7
TORSDOF 1
ENDMDL
