MODEL 1
REMARK minimizedAffinity -1.46700239
REMARK minimizedRMSD -1
REMARK  1 active torsions:
REMARK  status: ('A' for Active; 'I' for Inactive)
REMARK    1  A    between atoms: C1_2  and  C2_3 
ROOT
ATOM      1  C2  UNL d   1       2.957  -5.964  -3.139  0.00  0.00    -0.077 A 
ATOM      2  C3  UNL d   1       2.024  -5.980  -4.185  0.00  0.00     0.002 A 
ATOM      3  C4  UNL d   1       2.453  -5.993  -5.514  0.00  0.00     0.002 A 
ATOM      4  C5  UNL d   1       3.815  -5.995  -5.808  0.00  0.00    -0.004 A 
ATOM      5  C6  UNL d   1       4.751  -5.977  -4.774  0.00  0.00     0.002 A 
ATOM      6  C7  UNL d   1       4.324  -5.963  -3.446  0.00  0.00     0.002 A 
ENDROOT
BRANCH   1   7
ATOM      7  C1  UNL d   1       2.497  -5.999  -1.705  0.00  0.00     0.055 C 
ATOM      8  C   UNL d   1       3.676  -5.962  -0.744  0.00  0.00     0.019 C 
ENDBRANCH   1   7
TORSDOF 1
ENDMDL
