MODEL 1
REMARK minimizedAffinity 1.57913744
REMARK minimizedRMSD -1
REMARK  1 active torsions:
REMARK  status: ('A' for Active; 'I' for Inactive)
REMARK    1  A    between atoms: C1_2  and  C2_3 
ROOT
ATOM      1  C2  UNL d   1      -1.528  -2.555  -0.780  0.00  0.00    -0.077 A 
ATOM      2  C3  UNL d   1      -1.913  -1.653  -1.782  0.00  0.00     0.002 A 
ATOM      3  C4  UNL d   1      -2.924  -1.989  -2.684  0.00  0.00     0.002 A 
ATOM      4  C5  UNL d   1      -3.562  -3.224  -2.590  0.00  0.00    -0.004 A 
ATOM      5  C6  UNL d   1      -3.185  -4.129  -1.598  0.00  0.00     0.002 A 
ATOM      6  C7  UNL d   1      -2.174  -3.795  -0.696  0.00  0.00     0.002 A 
ENDROOT
BRANCH   1   7
ATOM      7  C1  UNL d   1      -0.471  -2.175   0.224  0.00  0.00     0.055 C 
ATOM      8  C   UNL d   1       0.581  -3.266   0.360  0.00  0.00     0.019 C 
ENDBRANCH   1   7
TORSDOF 1
ENDMDL
