MODEL 1
REMARK minimizedAffinity -0.187375113
REMARK minimizedRMSD -1
REMARK  1 active torsions:
REMARK  status: ('A' for Active; 'I' for Inactive)
REMARK    1  A    between atoms: C1_2  and  C2_3 
ROOT
ATOM      1  C2  UNL d   1       1.310  -3.820   4.827  0.00  0.00    -0.077 A 
ATOM      2  C3  UNL d   1       2.137  -4.551   3.963  0.00  0.00     0.002 A 
ATOM      3  C4  UNL d   1       2.788  -3.915   2.904  0.00  0.00     0.002 A 
ATOM      4  C5  UNL d   1       2.622  -2.547   2.702  0.00  0.00    -0.004 A 
ATOM      5  C6  UNL d   1       1.800  -1.812   3.555  0.00  0.00     0.002 A 
ATOM      6  C7  UNL d   1       1.148  -2.445   4.614  0.00  0.00     0.002 A 
ENDROOT
BRANCH   1   7
ATOM      7  C1  UNL d   1       0.646  -4.494   6.000  0.00  0.00     0.055 C 
ATOM      8  C   UNL d   1       0.908  -5.993   5.998  0.00  0.00     0.019 C 
ENDBRANCH   1   7
TORSDOF 1
ENDMDL
