MODEL 1
REMARK minimizedAffinity 8.4946394
REMARK minimizedRMSD -1
REMARK  1 active torsions:
REMARK  status: ('A' for Active; 'I' for Inactive)
REMARK    1  A    between atoms: C1_2  and  C2_3 
ROOT
ATOM      1  C2  UNL d   1       0.896  -1.987  -1.833  0.00  0.00    -0.081 A 
ATOM      2  C3  UNL d   1       0.687  -3.064  -0.962  0.00  0.00     0.006 A 
ATOM      3  C4  UNL d   1       1.376  -3.137   0.251  0.00  0.00     0.002 A 
ATOM      4  C5  UNL d   1       2.278  -2.133   0.618  0.00  0.00    -0.080 A 
ATOM      5  C6  UNL d   1       3.000  -2.184   1.931  0.00  0.00     0.076 C 
ATOM      6  C7  UNL d   1       2.500  -1.066  -0.260  0.00  0.00     0.002 A 
ATOM      7  C8  UNL d   1       1.812  -0.992  -1.473  0.00  0.00     0.006 A 
ENDROOT
BRANCH   1   8
ATOM      8  C1  UNL d   1       0.108  -1.872  -3.112  0.00  0.00     0.054 C 
ATOM      9  C   UNL d   1      -0.670  -0.565  -3.167  0.00  0.00     0.018 C 
ENDBRANCH   1   8
TORSDOF 1
ENDMDL
