MODEL 1
REMARK minimizedAffinity 4.16037941
REMARK minimizedRMSD -1
REMARK  1 active torsions:
REMARK  status: ('A' for Active; 'I' for Inactive)
REMARK    1  A    between atoms: C1_2  and  C2_3 
ROOT
ATOM      1  C2  UNL d   1       2.541  -0.981  -0.035  0.00  0.00    -0.081 A 
ATOM      2  C3  UNL d   1       1.412  -0.152  -0.039  0.00  0.00     0.006 A 
ATOM      3  C4  UNL d   1       1.545   1.226   0.143  0.00  0.00     0.002 A 
ATOM      4  C5  UNL d   1       2.808   1.800   0.325  0.00  0.00    -0.080 A 
ATOM      5  C6  UNL d   1       2.968   3.282   0.492  0.00  0.00     0.076 C 
ATOM      6  C7  UNL d   1       3.934   0.970   0.348  0.00  0.00     0.002 A 
ATOM      7  C8  UNL d   1       3.802  -0.409   0.166  0.00  0.00     0.006 A 
ENDROOT
BRANCH   1   8
ATOM      8  C1  UNL d   1       2.407  -2.460  -0.296  0.00  0.00     0.054 C 
ATOM      9  C   UNL d   1       3.054  -2.849  -1.617  0.00  0.00     0.018 C 
ENDBRANCH   1   8
TORSDOF 1
ENDMDL
