MODEL 1
REMARK minimizedAffinity 8.70198345
REMARK minimizedRMSD -1
REMARK  1 active torsions:
REMARK  status: ('A' for Active; 'I' for Inactive)
REMARK    1  A    between atoms: C1_2  and  C2_3 
ROOT
ATOM      1  C2  UNL d   1       3.039   0.079   0.929  0.00  0.00    -0.081 A 
ATOM      2  C3  UNL d   1       1.645   0.164   1.030  0.00  0.00     0.006 A 
ATOM      3  C4  UNL d   1       1.002   1.399   0.921  0.00  0.00     0.002 A 
ATOM      4  C5  UNL d   1       1.740   2.567   0.701  0.00  0.00    -0.080 A 
ATOM      5  C6  UNL d   1       1.059   3.895   0.552  0.00  0.00     0.076 C 
ATOM      6  C7  UNL d   1       3.134   2.484   0.618  0.00  0.00     0.002 A 
ATOM      7  C8  UNL d   1       3.778   1.250   0.728  0.00  0.00     0.006 A 
ENDROOT
BRANCH   1   8
ATOM      8  C1  UNL d   1       3.731  -1.260   0.981  0.00  0.00     0.054 C 
ATOM      9  C   UNL d   1       2.901  -2.338   0.300  0.00  0.00     0.018 C 
ENDBRANCH   1   8
TORSDOF 1
ENDMDL
