MODEL 1
REMARK minimizedAffinity 10.7174349
REMARK minimizedRMSD -1
REMARK  1 active torsions:
REMARK  status: ('A' for Active; 'I' for Inactive)
REMARK    1  A    between atoms: C1_2  and  C2_3 
ROOT
ATOM      1  C2  UNL d   1       1.114   0.883   0.451  0.00  0.00    -0.081 A 
ATOM      2  C3  UNL d   1       1.307  -0.296  -0.278  0.00  0.00     0.006 A 
ATOM      3  C4  UNL d   1       2.347  -1.169   0.050  0.00  0.00     0.002 A 
ATOM      4  C5  UNL d   1       3.206  -0.882   1.116  0.00  0.00    -0.080 A 
ATOM      5  C6  UNL d   1       4.307  -1.826   1.497  0.00  0.00     0.076 C 
ATOM      6  C7  UNL d   1       3.023   0.305   1.834  0.00  0.00     0.002 A 
ATOM      7  C8  UNL d   1       1.984   1.179   1.506  0.00  0.00     0.006 A 
ENDROOT
BRANCH   1   8
ATOM      8  C1  UNL d   1      -0.046   1.795   0.142  0.00  0.00     0.054 C 
ATOM      9  C   UNL d   1      -0.848   2.115   1.395  0.00  0.00     0.018 C 
ENDBRANCH   1   8
TORSDOF 1
ENDMDL
