MODEL 1
REMARK minimizedAffinity 8.80395126
REMARK minimizedRMSD -1
REMARK  1 active torsions:
REMARK  status: ('A' for Active; 'I' for Inactive)
REMARK    1  A    between atoms: C1_2  and  C2_3 
ROOT
ATOM      1  C2  UNL d   1      -4.284   0.645  -4.790  0.00  0.00    -0.081 A 
ATOM      2  C3  UNL d   1      -5.355  -0.253  -4.709  0.00  0.00     0.006 A 
ATOM      3  C4  UNL d   1      -5.284  -1.365  -3.866  0.00  0.00     0.002 A 
ATOM      4  C5  UNL d   1      -4.146  -1.593  -3.086  0.00  0.00    -0.080 A 
ATOM      5  C6  UNL d   1      -4.069  -2.766  -2.154  0.00  0.00     0.076 C 
ATOM      6  C7  UNL d   1      -3.069  -0.706  -3.180  0.00  0.00     0.002 A 
ATOM      7  C8  UNL d   1      -3.138   0.406  -4.023  0.00  0.00     0.006 A 
ENDROOT
BRANCH   1   8
ATOM      8  C1  UNL d   1      -4.382   1.879  -5.649  0.00  0.00     0.054 C 
ATOM      9  C   UNL d   1      -5.391   2.868  -5.083  0.00  0.00     0.018 C 
ENDBRANCH   1   8
TORSDOF 1
ENDMDL
