MODEL 1
REMARK minimizedAffinity 3.38249493
REMARK minimizedRMSD -1
REMARK  1 active torsions:
REMARK  status: ('A' for Active; 'I' for Inactive)
REMARK    1  A    between atoms: C1_2  and  C2_3 
ROOT
ATOM      1  C2  UNL d   1       3.578   1.902   0.579  0.00  0.00    -0.081 A 
ATOM      2  C3  UNL d   1       2.718   0.883   0.150  0.00  0.00     0.006 A 
ATOM      3  C4  UNL d   1       1.345   0.966   0.392  0.00  0.00     0.002 A 
ATOM      4  C5  UNL d   1       0.808   2.072   1.060  0.00  0.00    -0.080 A 
ATOM      5  C6  UNL d   1      -0.668   2.188   1.299  0.00  0.00     0.076 C 
ATOM      6  C7  UNL d   1       1.668   3.081   1.504  0.00  0.00     0.002 A 
ATOM      7  C8  UNL d   1       3.042   2.998   1.263  0.00  0.00     0.006 A 
ENDROOT
BRANCH   1   8
ATOM      8  C1  UNL d   1       5.050   1.846   0.262  0.00  0.00     0.054 C 
ATOM      9  C   UNL d   1       5.363   2.563  -1.043  0.00  0.00     0.018 C 
ENDBRANCH   1   8
TORSDOF 1
ENDMDL
