MODEL 1
REMARK minimizedAffinity -4.5651288
REMARK minimizedRMSD -1
REMARK  0 active torsions:
REMARK  status: ('A' for Active; 'I' for Inactive)
ROOT
ATOM      1  N1  IND d   1       0.519  -0.093   0.955  0.00  0.00    -0.196 N 
ATOM      2  C2  IND d   1       0.559   0.678  -0.174  0.00  0.00     0.054 A 
ATOM      3  C3  IND d   1      -0.204   0.129  -1.145  0.00  0.00    -0.031 A 
ATOM      4  C4  IND d   1      -1.685  -1.976  -1.069  0.00  0.00     0.051 A 
ATOM      5  C5  IND d   1      -2.018  -3.030  -0.265  0.00  0.00    -0.031 A 
ATOM      6  C6  IND d   1      -1.514  -3.160   1.013  0.00  0.00     0.015 A 
ATOM      7  C7  IND d   1      -0.664  -2.231   1.541  0.00  0.00    -0.016 A 
ATOM      8  C8  IND d   1      -0.318  -1.163   0.726  0.00  0.00    -0.047 A 
ATOM      9  C9  IND d   1      -0.793  -1.047  -0.587  0.00  0.00    -0.096 A 
ATOM     10  HN1 IND d   1       0.945   0.065   1.685  0.00  0.00     0.298 HD
ENDROOT
TORSDOF 0
ENDMDL
