MODEL 1
REMARK minimizedAffinity -1.03370142
REMARK minimizedRMSD -1
REMARK  0 active torsions:
REMARK  status: ('A' for Active; 'I' for Inactive)
ROOT
ATOM      1  N1  IND d   1      -0.852   1.059   1.233  0.00  0.00    -0.196 N 
ATOM      2  C2  IND d   1      -0.011   1.659   0.337  0.00  0.00     0.054 A 
ATOM      3  C3  IND d   1       0.659   0.727  -0.376  0.00  0.00    -0.031 A 
ATOM      4  C4  IND d   1       0.458  -1.839  -0.311  0.00  0.00     0.051 A 
ATOM      5  C5  IND d   1      -0.151  -2.855   0.370  0.00  0.00    -0.031 A 
ATOM      6  C6  IND d   1      -1.046  -2.613   1.393  0.00  0.00     0.015 A 
ATOM      7  C7  IND d   1      -1.374  -1.340   1.766  0.00  0.00    -0.016 A 
ATOM      8  C8  IND d   1      -0.752  -0.306   1.081  0.00  0.00    -0.047 A 
ATOM      9  C9  IND d   1       0.189  -0.546   0.071  0.00  0.00    -0.096 A 
ATOM     10  HN1 IND d   1      -1.358   1.466   1.796  0.00  0.00     0.298 HD
ENDROOT
TORSDOF 0
ENDMDL
