MODEL 1
REMARK minimizedAffinity -0.730713367
REMARK minimizedRMSD -1
REMARK  0 active torsions:
REMARK  status: ('A' for Active; 'I' for Inactive)
ROOT
ATOM      1  N1  IND d   1      -0.730   1.237   0.762  0.00  0.00    -0.196 N 
ATOM      2  C2  IND d   1       0.104   1.548  -0.275  0.00  0.00     0.054 A 
ATOM      3  C3  IND d   1       0.754   0.443  -0.705  0.00  0.00    -0.031 A 
ATOM      4  C4  IND d   1       0.525  -1.998   0.082  0.00  0.00     0.051 A 
ATOM      5  C5  IND d   1      -0.086  -2.772   1.028  0.00  0.00    -0.031 A 
ATOM      6  C6  IND d   1      -0.963  -2.239   1.951  0.00  0.00     0.015 A 
ATOM      7  C7  IND d   1      -1.271  -0.908   1.955  0.00  0.00    -0.016 A 
ATOM      8  C8  IND d   1      -0.647  -0.118   1.000  0.00  0.00    -0.047 A 
ATOM      9  C9  IND d   1       0.276  -0.646   0.088  0.00  0.00    -0.096 A 
ATOM     10  HN1 IND d   1      -1.223   1.793   1.193  0.00  0.00     0.298 HD
ENDROOT
TORSDOF 0
ENDMDL
