MODEL 1
REMARK minimizedAffinity -1.72545755
REMARK minimizedRMSD -1
REMARK  0 active torsions:
REMARK  status: ('A' for Active; 'I' for Inactive)
ROOT
ATOM      1  N1  IND d   1      -1.109   0.003  -1.405  0.00  0.00    -0.196 N 
ATOM      2  C2  IND d   1      -0.108   0.929  -1.300  0.00  0.00     0.054 A 
ATOM      3  C3  IND d   1       0.744   0.590  -0.307  0.00  0.00    -0.031 A 
ATOM      4  C4  IND d   1       0.746  -1.492   1.207  0.00  0.00     0.051 A 
ATOM      5  C5  IND d   1       0.012  -2.604   1.511  0.00  0.00    -0.031 A 
ATOM      6  C6  IND d   1      -1.156  -2.911   0.843  0.00  0.00     0.015 A 
ATOM      7  C7  IND d   1      -1.629  -2.120  -0.165  0.00  0.00    -0.016 A 
ATOM      8  C8  IND d   1      -0.889  -0.987  -0.472  0.00  0.00    -0.047 A 
ATOM      9  C9  IND d   1       0.274  -0.647   0.231  0.00  0.00    -0.096 A 
ATOM     10  HN1 IND d   1      -1.765   0.034  -1.959  0.00  0.00     0.298 HD
ENDROOT
TORSDOF 0
ENDMDL
