MODEL 1
REMARK minimizedAffinity -4.86205053
REMARK minimizedRMSD -1
REMARK  0 active torsions:
REMARK  status: ('A' for Active; 'I' for Inactive)
ROOT
ATOM      1  N1  IND d   1      -2.052  -1.283   0.816  0.00  0.00    -0.196 N 
ATOM      2  C2  IND d   1      -1.557  -2.554   0.899  0.00  0.00     0.054 A 
ATOM      3  C3  IND d   1      -0.215  -2.547   0.732  0.00  0.00    -0.031 A 
ATOM      4  C4  IND d   1       1.384  -0.555   0.413  0.00  0.00     0.051 A 
ATOM      5  C5  IND d   1       1.394   0.800   0.235  0.00  0.00    -0.031 A 
ATOM      6  C6  IND d   1       0.233   1.546   0.245  0.00  0.00     0.015 A 
ATOM      7  C7  IND d   1      -0.987   0.963   0.445  0.00  0.00    -0.016 A 
ATOM      8  C8  IND d   1      -1.001  -0.414   0.618  0.00  0.00    -0.047 A 
ATOM      9  C9  IND d   1       0.170  -1.181   0.567  0.00  0.00    -0.096 A 
ATOM     10  HN1 IND d   1      -2.881  -1.063   0.876  0.00  0.00     0.298 HD
ENDROOT
TORSDOF 0
ENDMDL
