MODEL 1
REMARK minimizedAffinity -5.35534048
REMARK minimizedRMSD -1
REMARK  0 active torsions:
REMARK  status: ('A' for Active; 'I' for Inactive)
ROOT
ATOM      1  N1  IND d   1      -0.186   1.327  -0.288  0.00  0.00    -0.196 N 
ATOM      2  C2  IND d   1       1.111   1.051  -0.621  0.00  0.00     0.054 A 
ATOM      3  C3  IND d   1       1.383  -0.256  -0.410  0.00  0.00    -0.031 A 
ATOM      4  C4  IND d   1      -0.178  -2.145   0.382  0.00  0.00     0.051 A 
ATOM      5  C5  IND d   1      -1.444  -2.373   0.844  0.00  0.00    -0.031 A 
ATOM      6  C6  IND d   1      -2.375  -1.361   0.951  0.00  0.00     0.015 A 
ATOM      7  C7  IND d   1      -2.076  -0.077   0.589  0.00  0.00    -0.016 A 
ATOM      8  C8  IND d   1      -0.790   0.160   0.127  0.00  0.00    -0.047 A 
ATOM      9  C9  IND d   1       0.172  -0.856   0.055  0.00  0.00    -0.096 A 
ATOM     10  HN1 IND d   1      -0.561   2.099  -0.329  0.00  0.00     0.298 HD
ENDROOT
TORSDOF 0
ENDMDL
