MODEL 1
REMARK minimizedAffinity 0.116790429
REMARK minimizedRMSD -1
REMARK  0 active torsions:
REMARK  status: ('A' for Active; 'I' for Inactive)
ROOT
ATOM      1  N1  IND d   1      -0.453   0.615  -0.531  0.00  0.00    -0.196 N 
ATOM      2  C2  IND d   1       0.879   0.331  -0.653  0.00  0.00     0.054 A 
ATOM      3  C3  IND d   1       1.197  -0.757   0.083  0.00  0.00    -0.031 A 
ATOM      4  C4  IND d   1      -0.329  -2.288   1.482  0.00  0.00     0.051 A 
ATOM      5  C5  IND d   1      -1.615  -2.412   1.926  0.00  0.00    -0.031 A 
ATOM      6  C6  IND d   1      -2.601  -1.516   1.564  0.00  0.00     0.015 A 
ATOM      7  C7  IND d   1      -2.337  -0.465   0.732  0.00  0.00    -0.016 A 
ATOM      8  C8  IND d   1      -1.030  -0.332   0.285  0.00  0.00    -0.047 A 
ATOM      9  C9  IND d   1      -0.017  -1.214   0.683  0.00  0.00    -0.096 A 
ATOM     10  HN1 IND d   1      -0.861   1.275  -0.902  0.00  0.00     0.298 HD
ENDROOT
TORSDOF 0
ENDMDL
