MODEL 1
REMARK minimizedAffinity 0.559609175
REMARK minimizedRMSD -1
REMARK  0 active torsions:
REMARK  status: ('A' for Active; 'I' for Inactive)
ROOT
ATOM      1  N1  IND d   1      -1.473  -1.022   1.347  0.00  0.00    -0.196 N 
ATOM      2  C2  IND d   1      -1.104  -2.223   1.886  0.00  0.00     0.054 A 
ATOM      3  C3  IND d   1       0.155  -2.541   1.510  0.00  0.00    -0.031 A 
ATOM      4  C4  IND d   1       1.830  -1.189   0.097  0.00  0.00     0.051 A 
ATOM      5  C5  IND d   1       1.937  -0.048  -0.646  0.00  0.00    -0.031 A 
ATOM      6  C6  IND d   1       0.893   0.847  -0.764  0.00  0.00     0.015 A 
ATOM      7  C7  IND d   1      -0.299   0.637  -0.130  0.00  0.00    -0.016 A 
ATOM      8  C8  IND d   1      -0.414  -0.524   0.621  0.00  0.00    -0.047 A 
ATOM      9  C9  IND d   1       0.628  -1.457   0.709  0.00  0.00    -0.096 A 
ATOM     10  HN1 IND d   1      -2.238  -0.642   1.446  0.00  0.00     0.298 HD
ENDROOT
TORSDOF 0
ENDMDL
