MODEL 1
REMARK minimizedAffinity 1.10866714
REMARK minimizedRMSD -1
REMARK  0 active torsions:
REMARK  status: ('A' for Active; 'I' for Inactive)
ROOT
ATOM      1  N1  IND d   1       4.331   3.003  -4.532  0.00  0.00    -0.196 N 
ATOM      2  C2  IND d   1       5.087   2.711  -3.431  0.00  0.00     0.054 A 
ATOM      3  C3  IND d   1       4.303   2.251  -2.431  0.00  0.00    -0.031 A 
ATOM      4  C4  IND d   1       1.769   1.799  -2.415  0.00  0.00     0.051 A 
ATOM      5  C5  IND d   1       0.644   1.945  -3.177  0.00  0.00    -0.031 A 
ATOM      6  C6  IND d   1       0.692   2.459  -4.457  0.00  0.00     0.015 A 
ATOM      7  C7  IND d   1       1.873   2.837  -5.028  0.00  0.00    -0.016 A 
ATOM      8  C8  IND d   1       3.017   2.697  -4.255  0.00  0.00    -0.047 A 
ATOM      9  C9  IND d   1       2.969   2.216  -2.940  0.00  0.00    -0.096 A 
ATOM     10  HN1 IND d   1       4.627   3.324  -5.273  0.00  0.00     0.298 HD
ENDROOT
TORSDOF 0
ENDMDL
