MODEL 1
REMARK minimizedAffinity -5.43351555
REMARK minimizedRMSD -1
REMARK  0 active torsions:
REMARK  status: ('A' for Active; 'I' for Inactive)
ROOT
ATOM      1  N1  IND d   1      -1.145   1.701   0.503  0.00  0.00    -0.196 N 
ATOM      2  C2  IND d   1       0.051   2.005  -0.087  0.00  0.00     0.054 A 
ATOM      3  C3  IND d   1       0.745   0.875  -0.351  0.00  0.00    -0.031 A 
ATOM      4  C4  IND d   1       0.069  -1.582   0.009  0.00  0.00     0.051 A 
ATOM      5  C5  IND d   1      -0.915  -2.360   0.552  0.00  0.00    -0.031 A 
ATOM      6  C6  IND d   1      -2.050  -1.813   1.115  0.00  0.00     0.015 A 
ATOM      7  C7  IND d   1      -2.249  -0.462   1.146  0.00  0.00    -0.016 A 
ATOM      8  C8  IND d   1      -1.249   0.331   0.602  0.00  0.00    -0.047 A 
ATOM      9  C9  IND d   1      -0.075  -0.216   0.068  0.00  0.00    -0.096 A 
ATOM     10  HN1 IND d   1      -1.732   2.270   0.768  0.00  0.00     0.298 HD
ENDROOT
TORSDOF 0
ENDMDL
