MODEL 1
REMARK minimizedAffinity -5.80091763
REMARK minimizedRMSD -1
REMARK  0 active torsions:
REMARK  status: ('A' for Active; 'I' for Inactive)
ROOT
ATOM      1  N1  IND d   1      -0.041   0.873   0.168  0.00  0.00    -0.196 N 
ATOM      2  C2  IND d   1       1.089   0.280  -0.321  0.00  0.00     0.054 A 
ATOM      3  C3  IND d   1       1.069  -1.049  -0.072  0.00  0.00    -0.031 A 
ATOM      4  C4  IND d   1      -0.765  -2.478   1.034  0.00  0.00     0.051 A 
ATOM      5  C5  IND d   1      -1.967  -2.378   1.675  0.00  0.00    -0.031 A 
ATOM      6  C6  IND d   1      -2.604  -1.166   1.847  0.00  0.00     0.015 A 
ATOM      7  C7  IND d   1      -2.064  -0.004   1.373  0.00  0.00    -0.016 A 
ATOM      8  C8  IND d   1      -0.839  -0.100   0.728  0.00  0.00    -0.047 A 
ATOM      9  C9  IND d   1      -0.168  -1.322   0.587  0.00  0.00    -0.096 A 
ATOM     10  HN1 IND d   1      -0.223   1.712   0.131  0.00  0.00     0.298 HD
ENDROOT
TORSDOF 0
ENDMDL
