MODEL 1
REMARK minimizedAffinity -1.2942332
REMARK minimizedRMSD -1
REMARK  0 active torsions:
REMARK  status: ('A' for Active; 'I' for Inactive)
ROOT
ATOM      1  N1  IND d   1      -0.643  -1.513   1.702  0.00  0.00    -0.196 N 
ATOM      2  C2  IND d   1       0.256  -2.274   1.009  0.00  0.00     0.054 A 
ATOM      3  C3  IND d   1       0.827  -1.546   0.023  0.00  0.00    -0.031 A 
ATOM      4  C4  IND d   1       0.510   0.939  -0.569  0.00  0.00     0.051 A 
ATOM      5  C5  IND d   1      -0.234   2.038  -0.242  0.00  0.00    -0.031 A 
ATOM      6  C6  IND d   1      -1.170   2.009   0.772  0.00  0.00     0.015 A 
ATOM      7  C7  IND d   1      -1.389   0.879   1.508  0.00  0.00    -0.016 A 
ATOM      8  C8  IND d   1      -0.640  -0.241   1.174  0.00  0.00    -0.047 A 
ATOM      9  C9  IND d   1       0.280  -0.230   0.118  0.00  0.00    -0.096 A 
ATOM     10  HN1 IND d   1      -1.129  -1.783   2.358  0.00  0.00     0.298 HD
ENDROOT
TORSDOF 0
ENDMDL
