MODEL 1
REMARK minimizedAffinity -4.52054548
REMARK minimizedRMSD -1
REMARK  0 active torsions:
REMARK  status: ('A' for Active; 'I' for Inactive)
ROOT
ATOM      1  N1  IND d   1      -2.474  -1.366   0.968  0.00  0.00    -0.196 N 
ATOM      2  C2  IND d   1      -2.132  -2.682   1.108  0.00  0.00     0.054 A 
ATOM      3  C3  IND d   1      -0.824  -2.862   0.816  0.00  0.00    -0.031 A 
ATOM      4  C4  IND d   1       0.965  -1.122   0.186  0.00  0.00     0.051 A 
ATOM      5  C5  IND d   1       1.124   0.205  -0.102  0.00  0.00    -0.031 A 
ATOM      6  C6  IND d   1       0.070   1.094  -0.045  0.00  0.00     0.015 A 
ATOM      7  C7  IND d   1      -1.184   0.690   0.316  0.00  0.00    -0.016 A 
ATOM      8  C8  IND d   1      -1.350  -0.657   0.602  0.00  0.00    -0.047 A 
ATOM      9  C9  IND d   1      -0.294  -1.572   0.504  0.00  0.00    -0.096 A 
ATOM     10  HN1 IND d   1      -3.259  -1.036   1.087  0.00  0.00     0.298 HD
ENDROOT
TORSDOF 0
ENDMDL
