MODEL 1
REMARK minimizedAffinity -0.935002804
REMARK minimizedRMSD -1
REMARK  0 active torsions:
REMARK  status: ('A' for Active; 'I' for Inactive)
ROOT
ATOM      1  N1  IND d   1      -1.483   1.977   1.411  0.00  0.00    -0.196 N 
ATOM      2  C2  IND d   1      -2.833   1.759   1.399  0.00  0.00     0.054 A 
ATOM      3  C3  IND d   1      -3.109   0.552   0.857  0.00  0.00    -0.031 A 
ATOM      4  C4  IND d   1      -1.498  -1.272   0.017  0.00  0.00     0.051 A 
ATOM      5  C5  IND d   1      -0.173  -1.517  -0.210  0.00  0.00    -0.031 A 
ATOM      6  C6  IND d   1       0.803  -0.593   0.101  0.00  0.00     0.015 A 
ATOM      7  C7  IND d   1       0.490   0.613   0.663  0.00  0.00    -0.016 A 
ATOM      8  C8  IND d   1      -0.855   0.868   0.888  0.00  0.00    -0.047 A 
ATOM      9  C9  IND d   1      -1.854  -0.049   0.535  0.00  0.00    -0.096 A 
ATOM     10  HN1 IND d   1      -1.093   2.688   1.697  0.00  0.00     0.298 HD
ENDROOT
TORSDOF 0
ENDMDL
