MODEL 1
REMARK minimizedAffinity -5.49582863
REMARK minimizedRMSD -1
REMARK  0 active torsions:
REMARK  status: ('A' for Active; 'I' for Inactive)
ROOT
ATOM      1  N1  IND d   1      -0.774   1.201   1.216  0.00  0.00    -0.196 N 
ATOM      2  C2  IND d   1       0.397   1.021   0.535  0.00  0.00     0.054 A 
ATOM      3  C3  IND d   1       0.570  -0.286   0.235  0.00  0.00    -0.031 A 
ATOM      4  C4  IND d   1      -0.991  -2.286   0.676  0.00  0.00     0.051 A 
ATOM      5  C5  IND d   1      -2.159  -2.623   1.301  0.00  0.00    -0.031 A 
ATOM      6  C6  IND d   1      -2.942  -1.684   1.939  0.00  0.00     0.015 A 
ATOM      7  C7  IND d   1      -2.591  -0.364   1.968  0.00  0.00    -0.016 A 
ATOM      8  C8  IND d   1      -1.402  -0.019   1.341  0.00  0.00    -0.047 A 
ATOM      9  C9  IND d   1      -0.582  -0.974   0.728  0.00  0.00    -0.096 A 
ATOM     10  HN1 IND d   1      -1.069   1.951   1.517  0.00  0.00     0.298 HD
ENDROOT
TORSDOF 0
ENDMDL
