MODEL 1
REMARK minimizedAffinity 0.238931701
REMARK minimizedRMSD -1
REMARK  0 active torsions:
REMARK  status: ('A' for Active; 'I' for Inactive)
ROOT
ATOM      1  N1  IND d   1      -1.871  -1.407   1.153  0.00  0.00    -0.196 N 
ATOM      2  C2  IND d   1      -1.252  -2.619   1.291  0.00  0.00     0.054 A 
ATOM      3  C3  IND d   1       0.020  -2.550   0.839  0.00  0.00    -0.031 A 
ATOM      4  C4  IND d   1       1.326  -0.528  -0.074  0.00  0.00     0.051 A 
ATOM      5  C5  IND d   1       1.173   0.784  -0.423  0.00  0.00    -0.031 A 
ATOM      6  C6  IND d   1      -0.026   1.447  -0.259  0.00  0.00     0.015 A 
ATOM      7  C7  IND d   1      -1.118   0.823   0.273  0.00  0.00    -0.016 A 
ATOM      8  C8  IND d   1      -0.969  -0.512   0.623  0.00  0.00    -0.047 A 
ATOM      9  C9  IND d   1       0.233  -1.202   0.419  0.00  0.00    -0.096 A 
ATOM     10  HN1 IND d   1      -2.687  -1.234   1.362  0.00  0.00     0.298 HD
ENDROOT
TORSDOF 0
ENDMDL
