MODEL 1
REMARK minimizedAffinity -3.53561854
REMARK minimizedRMSD -1
REMARK  0 active torsions:
REMARK  status: ('A' for Active; 'I' for Inactive)
ROOT
ATOM      1  N1  IND d   1       1.583   0.219  -0.745  0.00  0.00    -0.196 N 
ATOM      2  C2  IND d   1       0.875   1.264  -1.269  0.00  0.00     0.054 A 
ATOM      3  C3  IND d   1      -0.415   1.206  -0.869  0.00  0.00    -0.031 A 
ATOM      4  C4  IND d   1      -1.559  -0.458   0.727  0.00  0.00     0.051 A 
ATOM      5  C5  IND d   1      -1.330  -1.608   1.430  0.00  0.00    -0.031 A 
ATOM      6  C6  IND d   1      -0.092  -2.218   1.446  0.00  0.00     0.015 A 
ATOM      7  C7  IND d   1       0.970  -1.693   0.767  0.00  0.00    -0.016 A 
ATOM      8  C8  IND d   1       0.739  -0.529   0.046  0.00  0.00    -0.047 A 
ATOM      9  C9  IND d   1      -0.526   0.071  -0.009  0.00  0.00    -0.096 A 
ATOM     10  HN1 IND d   1       2.415   0.056  -0.885  0.00  0.00     0.298 HD
ENDROOT
TORSDOF 0
ENDMDL
