MODEL 1
REMARK minimizedAffinity -4.83403254
REMARK minimizedRMSD -1
REMARK  0 active torsions:
REMARK  status: ('A' for Active; 'I' for Inactive)
ROOT
ATOM      1  N1  IND d   1      -5.437  -4.129   2.887  0.00  0.00    -0.196 N 
ATOM      2  C2  IND d   1      -5.749  -4.778   4.049  0.00  0.00     0.054 A 
ATOM      3  C3  IND d   1      -5.026  -4.279   5.076  0.00  0.00    -0.031 A 
ATOM      4  C4  IND d   1      -3.345  -2.329   5.097  0.00  0.00     0.051 A 
ATOM      5  C5  IND d   1      -2.703  -1.451   4.269  0.00  0.00    -0.031 A 
ATOM      6  C6  IND d   1      -2.947  -1.418   2.911  0.00  0.00     0.015 A 
ATOM      7  C7  IND d   1      -3.854  -2.258   2.330  0.00  0.00    -0.016 A 
ATOM      8  C8  IND d   1      -4.502  -3.156   3.166  0.00  0.00    -0.047 A 
ATOM      9  C9  IND d   1      -4.227  -3.223   4.538  0.00  0.00    -0.096 A 
ATOM     10  HN1 IND d   1      -5.768  -4.300   2.112  0.00  0.00     0.298 HD
ENDROOT
TORSDOF 0
ENDMDL
