MODEL 1
REMARK minimizedAffinity 7.53710985
REMARK minimizedRMSD -1
REMARK  0 active torsions:
REMARK  status: ('A' for Active; 'I' for Inactive)
ROOT
ATOM      1  N1  IND d   1      -1.181  -4.217  -5.968  0.00  0.00    -0.196 N 
ATOM      2  C2  IND d   1      -1.240  -5.583  -5.936  0.00  0.00     0.054 A 
ATOM      3  C3  IND d   1      -2.526  -5.998  -5.904  0.00  0.00    -0.031 A 
ATOM      4  C4  IND d   1      -4.694  -4.613  -5.999  0.00  0.00     0.051 A 
ATOM      5  C5  IND d   1      -5.150  -3.324  -5.997  0.00  0.00    -0.031 A 
ATOM      6  C6  IND d   1      -4.289  -2.246  -5.989  0.00  0.00     0.015 A 
ATOM      7  C7  IND d   1      -2.933  -2.417  -5.993  0.00  0.00    -0.016 A 
ATOM      8  C8  IND d   1      -2.467  -3.724  -5.987  0.00  0.00    -0.047 A 
ATOM      9  C9  IND d   1      -3.336  -4.822  -5.953  0.00  0.00    -0.096 A 
ATOM     10  HN1 IND d   1      -0.462  -3.746  -5.975  0.00  0.00     0.298 HD
ENDROOT
TORSDOF 0
ENDMDL
