MODEL 1
REMARK minimizedAffinity -5.57707834
REMARK minimizedRMSD -1
REMARK  0 active torsions:
REMARK  status: ('A' for Active; 'I' for Inactive)
ROOT
ATOM      1  N1  IND d   1       0.409  -0.537  -0.187  0.00  0.00    -0.196 N 
ATOM      2  C2  IND d   1      -0.835  -0.476  -0.749  0.00  0.00     0.054 A 
ATOM      3  C3  IND d   1      -1.746  -0.078   0.167  0.00  0.00    -0.031 A 
ATOM      4  C4  IND d   1      -1.400   0.625   2.619  0.00  0.00     0.051 A 
ATOM      5  C5  IND d   1      -0.445   0.700   3.594  0.00  0.00    -0.031 A 
ATOM      6  C6  IND d   1       0.871   0.362   3.352  0.00  0.00     0.015 A 
ATOM      7  C7  IND d   1       1.284  -0.054   2.119  0.00  0.00    -0.016 A 
ATOM      8  C8  IND d   1       0.316  -0.138   1.129  0.00  0.00    -0.047 A 
ATOM      9  C9  IND d   1      -1.029   0.163   1.379  0.00  0.00    -0.096 A 
ATOM     10  HN1 IND d   1       1.129  -0.783  -0.587  0.00  0.00     0.298 HD
ENDROOT
TORSDOF 0
ENDMDL
