MODEL 1
REMARK minimizedAffinity 4.25841141
REMARK minimizedRMSD -1
REMARK  0 active torsions:
REMARK  status: ('A' for Active; 'I' for Inactive)
ROOT
ATOM      1  N1  IND d   1      -2.030  -1.108   0.846  0.00  0.00    -0.196 N 
ATOM      2  C2  IND d   1      -1.493  -1.497  -0.350  0.00  0.00     0.054 A 
ATOM      3  C3  IND d   1      -0.246  -0.994  -0.491  0.00  0.00    -0.031 A 
ATOM      4  C4  IND d   1       1.149   0.408   1.157  0.00  0.00     0.051 A 
ATOM      5  C5  IND d   1       1.072   1.044   2.364  0.00  0.00    -0.031 A 
ATOM      6  C6  IND d   1      -0.065   0.991   3.144  0.00  0.00     0.015 A 
ATOM      7  C7  IND d   1      -1.168   0.288   2.749  0.00  0.00    -0.016 A 
ATOM      8  C8  IND d   1      -1.096  -0.352   1.521  0.00  0.00    -0.047 A 
ATOM      9  C9  IND d   1       0.040  -0.267   0.705  0.00  0.00    -0.096 A 
ATOM     10  HN1 IND d   1      -2.818  -1.303   1.129  0.00  0.00     0.298 HD
ENDROOT
TORSDOF 0
ENDMDL
