MODEL 1
REMARK minimizedAffinity 0.00675000064
REMARK minimizedRMSD -1
REMARK  0 active torsions:
REMARK  status: ('A' for Active; 'I' for Inactive)
ROOT
ATOM      1  N1  IND d   1       0.515  -1.436  -0.189  0.00  0.00    -0.196 N 
ATOM      2  C2  IND d   1       0.524  -0.138   0.242  0.00  0.00     0.054 A 
ATOM      3  C3  IND d   1      -0.727   0.375   0.212  0.00  0.00    -0.031 A 
ATOM      4  C4  IND d   1      -2.949  -0.767  -0.409  0.00  0.00     0.051 A 
ATOM      5  C5  IND d   1      -3.459  -1.936  -0.901  0.00  0.00    -0.031 A 
ATOM      6  C6  IND d   1      -2.655  -3.021  -1.183  0.00  0.00     0.015 A 
ATOM      7  C7  IND d   1      -1.305  -2.981  -0.973  0.00  0.00    -0.016 A 
ATOM      8  C8  IND d   1      -0.783  -1.793  -0.481  0.00  0.00    -0.047 A 
ATOM      9  C9  IND d   1      -1.589  -0.674  -0.232  0.00  0.00    -0.096 A 
ATOM     10  HN1 IND d   1       1.205  -1.944  -0.265  0.00  0.00     0.298 HD
ENDROOT
TORSDOF 0
ENDMDL
