MODEL 1
REMARK minimizedAffinity -3.72609019
REMARK minimizedRMSD -1
REMARK  0 active torsions:
REMARK  status: ('A' for Active; 'I' for Inactive)
ROOT
ATOM      1  N1  IND d   1      -1.410   0.674   2.133  0.00  0.00    -0.196 N 
ATOM      2  C2  IND d   1      -0.977   1.483   3.147  0.00  0.00     0.054 A 
ATOM      3  C3  IND d   1       0.336   1.769   2.992  0.00  0.00    -0.031 A 
ATOM      4  C4  IND d   1       1.944   1.099   1.097  0.00  0.00     0.051 A 
ATOM      5  C5  IND d   1       2.017   0.335  -0.034  0.00  0.00    -0.031 A 
ATOM      6  C6  IND d   1       0.930  -0.368  -0.511  0.00  0.00     0.015 A 
ATOM      7  C7  IND d   1      -0.281  -0.322   0.121  0.00  0.00    -0.016 A 
ATOM      8  C8  IND d   1      -0.357   0.447   1.273  0.00  0.00    -0.047 A 
ATOM      9  C9  IND d   1       0.754   1.128   1.786  0.00  0.00    -0.096 A 
ATOM     10  HN1 IND d   1      -2.205   0.360   2.047  0.00  0.00     0.298 HD
ENDROOT
TORSDOF 0
ENDMDL
