MODEL 1
REMARK minimizedAffinity -2.15176797
REMARK minimizedRMSD -1
REMARK  0 active torsions:
REMARK  status: ('A' for Active; 'I' for Inactive)
ROOT
ATOM      1  N1  IND d   1       1.522  -0.388  -2.140  0.00  0.00    -0.196 N 
ATOM      2  C2  IND d   1       0.851   0.725  -2.564  0.00  0.00     0.054 A 
ATOM      3  C3  IND d   1       0.494   1.489  -1.507  0.00  0.00    -0.031 A 
ATOM      4  C4  IND d   1       0.997   1.158   0.996  0.00  0.00     0.051 A 
ATOM      5  C5  IND d   1       1.549   0.269   1.875  0.00  0.00    -0.031 A 
ATOM      6  C6  IND d   1       2.135  -0.907   1.452  0.00  0.00     0.015 A 
ATOM      7  C7  IND d   1       2.201  -1.233   0.127  0.00  0.00    -0.016 A 
ATOM      8  C8  IND d   1       1.635  -0.337  -0.768  0.00  0.00    -0.047 A 
ATOM      9  C9  IND d   1       1.001   0.837  -0.342  0.00  0.00    -0.096 A 
ATOM     10  HN1 IND d   1       1.823  -1.015  -2.646  0.00  0.00     0.298 HD
ENDROOT
TORSDOF 0
ENDMDL
