MODEL 1
REMARK minimizedAffinity -4.99834633
REMARK minimizedRMSD -1
REMARK  0 active torsions:
REMARK  status: ('A' for Active; 'I' for Inactive)
ROOT
ATOM      1  N1  IND d   1      -0.285  -1.237  -0.429  0.00  0.00    -0.196 N 
ATOM      2  C2  IND d   1      -1.641  -1.203  -0.602  0.00  0.00     0.054 A 
ATOM      3  C3  IND d   1      -2.200  -0.307   0.241  0.00  0.00    -0.031 A 
ATOM      4  C4  IND d   1      -1.071   1.288   1.917  0.00  0.00     0.051 A 
ATOM      5  C5  IND d   1       0.146   1.598   2.457  0.00  0.00    -0.031 A 
ATOM      6  C6  IND d   1       1.305   0.968   2.052  0.00  0.00     0.015 A 
ATOM      7  C7  IND d   1       1.292   0.008   1.080  0.00  0.00    -0.016 A 
ATOM      8  C8  IND d   1       0.057  -0.314   0.535  0.00  0.00    -0.047 A 
ATOM      9  C9  IND d   1      -1.128   0.291   0.972  0.00  0.00    -0.096 A 
ATOM     10  HN1 IND d   1       0.262  -1.749  -0.852  0.00  0.00     0.298 HD
ENDROOT
TORSDOF 0
ENDMDL
