MODEL 1
REMARK minimizedAffinity -3.80198574
REMARK minimizedRMSD -1
REMARK  0 active torsions:
REMARK  status: ('A' for Active; 'I' for Inactive)
ROOT
ATOM      1  N1  IND d   1      -1.773   0.250   2.663  0.00  0.00    -0.196 N 
ATOM      2  C2  IND d   1      -0.945   1.081   3.365  0.00  0.00     0.054 A 
ATOM      3  C3  IND d   1       0.107   1.452   2.600  0.00  0.00    -0.031 A 
ATOM      4  C4  IND d   1       0.615   0.899   0.138  0.00  0.00     0.051 A 
ATOM      5  C5  IND d   1       0.168   0.146  -0.911  0.00  0.00    -0.031 A 
ATOM      6  C6  IND d   1      -0.974  -0.623  -0.822  0.00  0.00     0.015 A 
ATOM      7  C7  IND d   1      -1.721  -0.660   0.321  0.00  0.00    -0.016 A 
ATOM      8  C8  IND d   1      -1.266   0.097   1.391  0.00  0.00    -0.047 A 
ATOM      9  C9  IND d   1      -0.084   0.846   1.321  0.00  0.00    -0.096 A 
ATOM     10  HN1 IND d   1      -2.491  -0.115   2.964  0.00  0.00     0.298 HD
ENDROOT
TORSDOF 0
ENDMDL
