MODEL 1
REMARK minimizedAffinity -0.768830001
REMARK minimizedRMSD -1
REMARK  0 active torsions:
REMARK  status: ('A' for Active; 'I' for Inactive)
ROOT
ATOM      1  N1  IND d   1       1.607  -1.446  -0.904  0.00  0.00    -0.196 N 
ATOM      2  C2  IND d   1       0.403  -1.099  -0.358  0.00  0.00     0.054 A 
ATOM      3  C3  IND d   1      -0.209  -0.167  -1.123  0.00  0.00    -0.031 A 
ATOM      4  C4  IND d   1       0.538   0.858  -3.363  0.00  0.00     0.051 A 
ATOM      5  C5  IND d   1       1.585   0.881  -4.241  0.00  0.00    -0.031 A 
ATOM      6  C6  IND d   1       2.714   0.111  -4.050  0.00  0.00     0.015 A 
ATOM      7  C7  IND d   1       2.834  -0.722  -2.974  0.00  0.00    -0.016 A 
ATOM      8  C8  IND d   1       1.777  -0.742  -2.076  0.00  0.00    -0.047 A 
ATOM      9  C9  IND d   1       0.646   0.068  -2.243  0.00  0.00    -0.096 A 
ATOM     10  HN1 IND d   1       2.165  -2.009  -0.571  0.00  0.00     0.298 HD
ENDROOT
TORSDOF 0
ENDMDL
