MODEL 1
REMARK minimizedAffinity -2.7738173
REMARK minimizedRMSD -1
REMARK  0 active torsions:
REMARK  status: ('A' for Active; 'I' for Inactive)
ROOT
ATOM      1  N1  IND d   1       0.342   1.515   3.413  0.00  0.00    -0.196 N 
ATOM      2  C2  IND d   1      -1.004   1.721   3.528  0.00  0.00     0.054 A 
ATOM      3  C3  IND d   1      -1.646   1.261   2.430  0.00  0.00    -0.031 A 
ATOM      4  C4  IND d   1      -0.697   0.043   0.371  0.00  0.00     0.051 A 
ATOM      5  C5  IND d   1       0.482  -0.342  -0.204  0.00  0.00    -0.031 A 
ATOM      6  C6  IND d   1       1.698  -0.126   0.410  0.00  0.00     0.015 A 
ATOM      7  C7  IND d   1       1.781   0.476   1.634  0.00  0.00    -0.016 A 
ATOM      8  C8  IND d   1       0.587   0.875   2.218  0.00  0.00    -0.047 A 
ATOM      9  C9  IND d   1      -0.647   0.697   1.580  0.00  0.00    -0.096 A 
ATOM     10  HN1 IND d   1       0.936   1.747   3.989  0.00  0.00     0.298 HD
ENDROOT
TORSDOF 0
ENDMDL
