MODEL 1
REMARK minimizedAffinity 4.31176901
REMARK minimizedRMSD -1
REMARK  0 active torsions:
REMARK  status: ('A' for Active; 'I' for Inactive)
ROOT
ATOM      1  N1  IND d   1       3.004  -2.858   5.719  0.00  0.00    -0.196 N 
ATOM      2  C2  IND d   1       4.322  -2.632   6.000  0.00  0.00     0.054 A 
ATOM      3  C3  IND d   1       4.639  -1.340   5.764  0.00  0.00    -0.031 A 
ATOM      4  C4  IND d   1       3.128   0.604   5.011  0.00  0.00     0.051 A 
ATOM      5  C5  IND d   1       1.856   0.881   4.596  0.00  0.00    -0.031 A 
ATOM      6  C6  IND d   1       0.881  -0.094   4.535  0.00  0.00     0.015 A 
ATOM      7  C7  IND d   1       1.140  -1.385   4.899  0.00  0.00    -0.016 A 
ATOM      8  C8  IND d   1       2.433  -1.671   5.315  0.00  0.00    -0.047 A 
ATOM      9  C9  IND d   1       3.438  -0.695   5.338  0.00  0.00    -0.096 A 
ATOM     10  HN1 IND d   1       2.599  -3.614   5.783  0.00  0.00     0.298 HD
ENDROOT
TORSDOF 0
ENDMDL
