MODEL 1
REMARK minimizedAffinity 2.2461195
REMARK minimizedRMSD -1
REMARK  0 active torsions:
REMARK  status: ('A' for Active; 'I' for Inactive)
ROOT
ATOM      1  C   UNL d   1       3.550  -5.994   5.158  0.00  0.00     0.023 A 
ATOM      2  C1  UNL d   1       3.640  -5.997   3.766  0.00  0.00     0.003 A 
ATOM      3  C2  UNL d   1       2.478  -5.999   2.990  0.00  0.00     0.048 A 
ATOM      4  C3  UNL d   1       1.231  -5.997   3.613  0.00  0.00     0.023 A 
ATOM      5  C4  UNL d   1       1.137  -5.993   5.006  0.00  0.00     0.048 A 
ATOM      6  C5  UNL d   1       2.301  -5.992   5.777  0.00  0.00     0.003 A 
ATOM      7  I   UNL d   1      -0.499  -6.000   2.461  0.00  0.00    -0.146 I 
ENDROOT
TORSDOF 0
ENDMDL
