MODEL 1
REMARK minimizedAffinity 3.58824873
REMARK minimizedRMSD -1
REMARK  0 active torsions:
REMARK  status: ('A' for Active; 'I' for Inactive)
ROOT
ATOM      1  C   UNL d   1       2.271   1.227   0.807  0.00  0.00     0.023 A 
ATOM      2  C1  UNL d   1       2.491   0.056   1.532  0.00  0.00     0.003 A 
ATOM      3  C2  UNL d   1       1.408  -0.693   1.997  0.00  0.00     0.048 A 
ATOM      4  C3  UNL d   1       0.108  -0.265   1.732  0.00  0.00     0.023 A 
ATOM      5  C4  UNL d   1      -0.117   0.906   1.006  0.00  0.00     0.048 A 
ATOM      6  C5  UNL d   1       0.969   1.652   0.544  0.00  0.00     0.003 A 
ATOM      7  I   UNL d   1      -1.506  -1.378   2.423  0.00  0.00    -0.146 I 
ENDROOT
TORSDOF 0
ENDMDL
