MODEL 1
REMARK minimizedAffinity 5.10612679
REMARK minimizedRMSD -1
REMARK  0 active torsions:
REMARK  status: ('A' for Active; 'I' for Inactive)
ROOT
ATOM      1  C   UNL d   1      -1.985  -0.033   3.523  0.00  0.00     0.023 A 
ATOM      2  C1  UNL d   1      -1.705   1.285   3.161  0.00  0.00     0.003 A 
ATOM      3  C2  UNL d   1      -0.785   1.550   2.144  0.00  0.00     0.048 A 
ATOM      4  C3  UNL d   1      -0.151   0.493   1.493  0.00  0.00     0.023 A 
ATOM      5  C4  UNL d   1      -0.429  -0.827   1.851  0.00  0.00     0.048 A 
ATOM      6  C5  UNL d   1      -1.348  -1.087   2.869  0.00  0.00     0.003 A 
ATOM      7  I   UNL d   1       1.218   0.885  -0.022  0.00  0.00    -0.146 I 
ENDROOT
TORSDOF 0
ENDMDL
