MODEL 1
REMARK minimizedAffinity 9.86801052
REMARK minimizedRMSD -1
REMARK  0 active torsions:
REMARK  status: ('A' for Active; 'I' for Inactive)
ROOT
ATOM      1  C   UNL d   1      -3.052  -3.018  -4.107  0.00  0.00     0.023 A 
ATOM      2  C1  UNL d   1      -2.074  -3.458  -5.000  0.00  0.00     0.003 A 
ATOM      3  C2  UNL d   1      -0.778  -2.945  -4.925  0.00  0.00     0.048 A 
ATOM      4  C3  UNL d   1      -0.466  -1.993  -3.956  0.00  0.00     0.023 A 
ATOM      5  C4  UNL d   1      -1.440  -1.550  -3.060  0.00  0.00     0.048 A 
ATOM      6  C5  UNL d   1      -2.736  -2.065  -3.139  0.00  0.00     0.003 A 
ATOM      7  I   UNL d   1       1.464  -1.228  -3.843  0.00  0.00    -0.146 I 
ENDROOT
TORSDOF 0
ENDMDL
