MODEL 1
REMARK minimizedAffinity -1.19504654
REMARK minimizedRMSD -1
REMARK  0 active torsions:
REMARK  status: ('A' for Active; 'I' for Inactive)
ROOT
ATOM      1  C   UNL d   1       2.141  -5.983   4.027  0.00  0.00     0.023 A 
ATOM      2  C1  UNL d   1       2.197  -5.983   2.633  0.00  0.00     0.003 A 
ATOM      3  C2  UNL d   1       1.018  -5.988   1.886  0.00  0.00     0.048 A 
ATOM      4  C3  UNL d   1      -0.214  -5.992   2.538  0.00  0.00     0.023 A 
ATOM      5  C4  UNL d   1      -0.275  -5.991   3.933  0.00  0.00     0.048 A 
ATOM      6  C5  UNL d   1       0.907  -5.987   4.676  0.00  0.00     0.003 A 
ATOM      7  I   UNL d   1      -1.971  -5.999   1.428  0.00  0.00    -0.146 I 
ENDROOT
TORSDOF 0
ENDMDL
