MODEL 1
REMARK minimizedAffinity 2.66499162
REMARK minimizedRMSD -1
REMARK  0 active torsions:
REMARK  status: ('A' for Active; 'I' for Inactive)
ROOT
ATOM      1  C   UNL d   1      -2.350  -5.991   1.827  0.00  0.00     0.023 A 
ATOM      2  C1  UNL d   1      -1.960  -5.987   3.166  0.00  0.00     0.003 A 
ATOM      3  C2  UNL d   1      -0.604  -5.989   3.499  0.00  0.00     0.048 A 
ATOM      4  C3  UNL d   1       0.357  -5.996   2.488  0.00  0.00     0.023 A 
ATOM      5  C4  UNL d   1      -0.029  -5.999   1.147  0.00  0.00     0.048 A 
ATOM      6  C5  UNL d   1      -1.386  -5.997   0.818  0.00  0.00     0.003 A 
ATOM      7  I   UNL d   1       2.375  -6.000   2.982  0.00  0.00    -0.146 I 
ENDROOT
TORSDOF 0
ENDMDL
