MODEL 1
REMARK minimizedAffinity 7.46993399
REMARK minimizedRMSD -1
REMARK  0 active torsions:
REMARK  status: ('A' for Active; 'I' for Inactive)
ROOT
ATOM      1  C   UNL d   1       2.943  -0.584  -4.924  0.00  0.00     0.023 A 
ATOM      2  C1  UNL d   1       3.620   0.139  -3.942  0.00  0.00     0.003 A 
ATOM      3  C2  UNL d   1       3.166   0.120  -2.622  0.00  0.00     0.048 A 
ATOM      4  C3  UNL d   1       2.034  -0.624  -2.290  0.00  0.00     0.023 A 
ATOM      5  C4  UNL d   1       1.354  -1.349  -3.270  0.00  0.00     0.048 A 
ATOM      6  C5  UNL d   1       1.811  -1.326  -4.589  0.00  0.00     0.003 A 
ATOM      7  I   UNL d   1       1.357  -0.653  -0.326  0.00  0.00    -0.146 I 
ENDROOT
TORSDOF 0
ENDMDL
