MODEL 1
REMARK minimizedAffinity 10.0300293
REMARK minimizedRMSD -1
REMARK  0 active torsions:
REMARK  status: ('A' for Active; 'I' for Inactive)
ROOT
ATOM      1  C   UNL d   1      -3.424  -1.247  -2.542  0.00  0.00     0.023 A 
ATOM      2  C1  UNL d   1      -3.510  -2.521  -3.103  0.00  0.00     0.003 A 
ATOM      3  C2  UNL d   1      -2.500  -2.983  -3.949  0.00  0.00     0.048 A 
ATOM      4  C3  UNL d   1      -1.405  -2.166  -4.228  0.00  0.00     0.023 A 
ATOM      5  C4  UNL d   1      -1.314  -0.891  -3.669  0.00  0.00     0.048 A 
ATOM      6  C5  UNL d   1      -2.327  -0.433  -2.824  0.00  0.00     0.003 A 
ATOM      7  I   UNL d   1       0.100  -2.851  -5.487  0.00  0.00    -0.146 I 
ENDROOT
TORSDOF 0
ENDMDL
