MODEL 1
REMARK minimizedAffinity 11.614809
REMARK minimizedRMSD -1
REMARK  0 active torsions:
REMARK  status: ('A' for Active; 'I' for Inactive)
ROOT
ATOM      1  C   UNL d   1       1.871   2.530   0.769  0.00  0.00     0.023 A 
ATOM      2  C1  UNL d   1       0.826   2.033  -0.009  0.00  0.00     0.003 A 
ATOM      3  C2  UNL d   1      -0.008   1.033   0.495  0.00  0.00     0.048 A 
ATOM      4  C3  UNL d   1       0.208   0.536   1.780  0.00  0.00     0.023 A 
ATOM      5  C4  UNL d   1       1.252   1.030   2.563  0.00  0.00     0.048 A 
ATOM      6  C5  UNL d   1       2.084   2.029   2.054  0.00  0.00     0.003 A 
ATOM      7  I   UNL d   1      -1.032  -0.952   2.533  0.00  0.00    -0.146 I 
ENDROOT
TORSDOF 0
ENDMDL
