MODEL 1
REMARK minimizedAffinity 2.17266059
REMARK minimizedRMSD -1
REMARK  0 active torsions:
REMARK  status: ('A' for Active; 'I' for Inactive)
ROOT
ATOM      1  C   UNL d   1       0.797  -5.981   3.201  0.00  0.00     0.023 A 
ATOM      2  C1  UNL d   1       0.341  -5.990   1.882  0.00  0.00     0.003 A 
ATOM      3  C2  UNL d   1      -1.030  -5.996   1.616  0.00  0.00     0.048 A 
ATOM      4  C3  UNL d   1      -1.939  -5.991   2.673  0.00  0.00     0.023 A 
ATOM      5  C4  UNL d   1      -1.488  -5.981   3.994  0.00  0.00     0.048 A 
ATOM      6  C5  UNL d   1      -0.116  -5.977   4.255  0.00  0.00     0.003 A 
ATOM      7  I   UNL d   1      -3.980  -5.999   2.280  0.00  0.00    -0.146 I 
ENDROOT
TORSDOF 0
ENDMDL
