MODEL 1
REMARK minimizedAffinity 9.88382244
REMARK minimizedRMSD -1
REMARK  0 active torsions:
REMARK  status: ('A' for Active; 'I' for Inactive)
ROOT
ATOM      1  C   UNL d   1      -3.249  -1.252  -2.686  0.00  0.00     0.023 A 
ATOM      2  C1  UNL d   1      -2.162  -0.379  -2.746  0.00  0.00     0.003 A 
ATOM      3  C2  UNL d   1      -0.976  -0.781  -3.363  0.00  0.00     0.048 A 
ATOM      4  C3  UNL d   1      -0.883  -2.057  -3.918  0.00  0.00     0.023 A 
ATOM      5  C4  UNL d   1      -1.968  -2.933  -3.861  0.00  0.00     0.048 A 
ATOM      6  C5  UNL d   1      -3.152  -2.527  -3.242  0.00  0.00     0.003 A 
ATOM      7  I   UNL d   1       0.882  -2.657  -4.837  0.00  0.00    -0.146 I 
ENDROOT
TORSDOF 0
ENDMDL
