MODEL 1
REMARK minimizedAffinity 10.1518297
REMARK minimizedRMSD -1
REMARK  0 active torsions:
REMARK  status: ('A' for Active; 'I' for Inactive)
ROOT
ATOM      1  C   UNL d   1      -1.054  -0.788   2.502  0.00  0.00     0.023 A 
ATOM      2  C1  UNL d   1      -0.674  -1.370   1.293  0.00  0.00     0.003 A 
ATOM      3  C2  UNL d   1       0.005  -0.614   0.335  0.00  0.00     0.048 A 
ATOM      4  C3  UNL d   1       0.301   0.724   0.594  0.00  0.00     0.023 A 
ATOM      5  C4  UNL d   1      -0.076   1.311   1.803  0.00  0.00     0.048 A 
ATOM      6  C5  UNL d   1      -0.756   0.551   2.757  0.00  0.00     0.003 A 
ATOM      7  I   UNL d   1       1.312   1.852  -0.829  0.00  0.00    -0.146 I 
ENDROOT
TORSDOF 0
ENDMDL
