MODEL 1
REMARK minimizedAffinity 0.14305982
REMARK minimizedRMSD -1
REMARK  0 active torsions:
REMARK  status: ('A' for Active; 'I' for Inactive)
ROOT
ATOM      1  C   UNL d   1       0.768  -5.956   2.394  0.00  0.00     0.023 A 
ATOM      2  C1  UNL d   1       0.342  -5.950   3.722  0.00  0.00     0.003 A 
ATOM      3  C2  UNL d   1       1.278  -5.961   4.758  0.00  0.00     0.048 A 
ATOM      4  C3  UNL d   1       2.640  -5.976   4.459  0.00  0.00     0.023 A 
ATOM      5  C4  UNL d   1       3.072  -5.981   3.132  0.00  0.00     0.048 A 
ATOM      6  C5  UNL d   1       2.132  -5.971   2.099  0.00  0.00     0.003 A 
ATOM      7  I   UNL d   1       4.035  -5.992   5.999  0.00  0.00    -0.146 I 
ENDROOT
TORSDOF 0
ENDMDL
