MODEL 1
REMARK minimizedAffinity 3.3959775
REMARK minimizedRMSD -1
REMARK  0 active torsions:
REMARK  status: ('A' for Active; 'I' for Inactive)
ROOT
ATOM      1  C   UNL d   1      -1.172  -6.000   1.001  0.00  0.00     0.023 A 
ATOM      2  C1  UNL d   1      -2.000  -5.999   2.124  0.00  0.00     0.003 A 
ATOM      3  C2  UNL d   1      -1.443  -5.999   3.404  0.00  0.00     0.048 A 
ATOM      4  C3  UNL d   1      -0.057  -5.999   3.555  0.00  0.00     0.023 A 
ATOM      5  C4  UNL d   1       0.776  -5.999   2.434  0.00  0.00     0.048 A 
ATOM      6  C5  UNL d   1       0.214  -6.000   1.156  0.00  0.00     0.003 A 
ATOM      7  I   UNL d   1       0.775  -5.999   5.459  0.00  0.00    -0.146 I 
ENDROOT
TORSDOF 0
ENDMDL
