MODEL 1
REMARK minimizedAffinity 16.0991936
REMARK minimizedRMSD -1
REMARK  1 active torsions:
REMARK  status: ('A' for Active; 'I' for Inactive)
REMARK    1  A    between atoms: C1_2  and  C2_3 
ROOT
ATOM      1  C2  UNL d   1      -4.938  -0.774   4.174  0.00  0.00    -0.076 A 
ATOM      2  C3  UNL d   1      -5.724  -0.448   5.293  0.00  0.00     0.004 A 
ATOM      3  C4  UNL d   1      -5.984   0.880   5.625  0.00  0.00    -0.003 A 
ATOM      4  C5  UNL d   1      -5.463   1.905   4.843  0.00  0.00     0.000 A 
ATOM      5  C6  UNL d   1      -4.697   1.600   3.719  0.00  0.00     0.000 A 
ATOM      6  C7  UNL d   1      -4.438   0.266   3.361  0.00  0.00    -0.073 A 
ATOM      7  C8  UNL d   1      -3.600  -0.005   2.142  0.00  0.00     0.078 C 
ENDROOT
BRANCH   1   8
ATOM      8  C1  UNL d   1      -4.667  -2.232   3.879  0.00  0.00     0.053 C 
ATOM      9  C   UNL d   1      -5.941  -3.060   3.815  0.00  0.00     0.018 C 
ENDBRANCH   1   8
TORSDOF 1
ENDMDL
