MODEL 1
REMARK minimizedAffinity 10.1163359
REMARK minimizedRMSD -1
REMARK  1 active torsions:
REMARK  status: ('A' for Active; 'I' for Inactive)
REMARK    1  A    between atoms: C1_2  and  C2_3 
ROOT
ATOM      1  C2  UNL d   1       0.052   3.193   0.019  0.00  0.00    -0.076 A 
ATOM      2  C3  UNL d   1       0.141   3.936  -1.171  0.00  0.00     0.004 A 
ATOM      3  C4  UNL d   1       0.201   5.328  -1.144  0.00  0.00    -0.003 A 
ATOM      4  C5  UNL d   1       0.172   6.000   0.073  0.00  0.00     0.000 A 
ATOM      5  C6  UNL d   1       0.102   5.278   1.264  0.00  0.00     0.000 A 
ATOM      6  C7  UNL d   1       0.058   3.873   1.255  0.00  0.00    -0.073 A 
ATOM      7  C8  UNL d   1      -0.023   3.145   2.569  0.00  0.00     0.078 C 
ENDROOT
BRANCH   1   8
ATOM      8  C1  UNL d   1      -0.037   1.686  -0.073  0.00  0.00     0.053 C 
ATOM      9  C   UNL d   1      -1.473   1.188  -0.105  0.00  0.00     0.018 C 
ENDBRANCH   1   8
TORSDOF 1
ENDMDL
