MODEL 1
REMARK minimizedAffinity 11.1478348
REMARK minimizedRMSD -1
REMARK  1 active torsions:
REMARK  status: ('A' for Active; 'I' for Inactive)
REMARK    1  A    between atoms: C1_2  and  C2_3 
ROOT
ATOM      1  C2  UNL d   1      -0.166   2.430   2.128  0.00  0.00    -0.076 A 
ATOM      2  C3  UNL d   1       1.223   2.398   2.341  0.00  0.00     0.004 A 
ATOM      3  C4  UNL d   1       1.780   1.578   3.320  0.00  0.00    -0.003 A 
ATOM      4  C5  UNL d   1       0.958   0.775   4.102  0.00  0.00     0.000 A 
ATOM      5  C6  UNL d   1      -0.421   0.780   3.893  0.00  0.00     0.000 A 
ATOM      6  C7  UNL d   1      -0.998   1.589   2.899  0.00  0.00    -0.073 A 
ATOM      7  C8  UNL d   1      -2.491   1.560   2.721  0.00  0.00     0.078 C 
ENDROOT
BRANCH   1   8
ATOM      8  C1  UNL d   1      -0.716   3.360   1.071  0.00  0.00     0.053 C 
ATOM      9  C   UNL d   1       0.230   3.526  -0.108  0.00  0.00     0.018 C 
ENDBRANCH   1   8
TORSDOF 1
ENDMDL
