MODEL 1
REMARK minimizedAffinity 11.5709372
REMARK minimizedRMSD -1
REMARK  1 active torsions:
REMARK  status: ('A' for Active; 'I' for Inactive)
REMARK    1  A    between atoms: C1_2  and  C2_3 
ROOT
ATOM      1  C2  UNL d   1      -0.815   1.849  -0.529  0.00  0.00    -0.076 A 
ATOM      2  C3  UNL d   1       0.371   1.175  -0.868  0.00  0.00     0.004 A 
ATOM      3  C4  UNL d   1       0.340   0.007  -1.627  0.00  0.00    -0.003 A 
ATOM      4  C5  UNL d   1      -0.877  -0.506  -2.061  0.00  0.00     0.000 A 
ATOM      5  C6  UNL d   1      -2.062   0.160  -1.749  0.00  0.00     0.000 A 
ATOM      6  C7  UNL d   1      -2.048   1.347  -0.998  0.00  0.00    -0.073 A 
ATOM      7  C8  UNL d   1      -3.356   2.020  -0.686  0.00  0.00     0.078 C 
ENDROOT
BRANCH   1   8
ATOM      8  C1  UNL d   1      -0.721   3.097   0.320  0.00  0.00     0.053 C 
ATOM      9  C   UNL d   1      -0.009   4.236  -0.394  0.00  0.00     0.018 C 
ENDBRANCH   1   8
TORSDOF 1
ENDMDL
