MODEL 1
REMARK minimizedAffinity 7.42382145
REMARK minimizedRMSD -1
REMARK  1 active torsions:
REMARK  status: ('A' for Active; 'I' for Inactive)
REMARK    1  A    between atoms: C1_2  and  C2_3 
ROOT
ATOM      1  C2  UNL d   1       0.499   3.869   1.232  0.00  0.00    -0.076 A 
ATOM      2  C3  UNL d   1       0.710   5.258   1.211  0.00  0.00     0.004 A 
ATOM      3  C4  UNL d   1       0.500   5.998   0.048  0.00  0.00    -0.003 A 
ATOM      4  C5  UNL d   1       0.076   5.361  -1.112  0.00  0.00     0.000 A 
ATOM      5  C6  UNL d   1      -0.156   3.986  -1.105  0.00  0.00     0.000 A 
ATOM      6  C7  UNL d   1       0.035   3.227   0.063  0.00  0.00    -0.073 A 
ATOM      7  C8  UNL d   1      -0.224   1.746   0.012  0.00  0.00     0.078 C 
ENDROOT
BRANCH   1   8
ATOM      8  C1  UNL d   1       0.769   3.114   2.514  0.00  0.00     0.053 C 
ATOM      9  C   UNL d   1       2.167   3.368   3.056  0.00  0.00     0.018 C 
ENDBRANCH   1   8
TORSDOF 1
ENDMDL
