MODEL 1
REMARK minimizedAffinity 13.1391497
REMARK minimizedRMSD -1
REMARK  1 active torsions:
REMARK  status: ('A' for Active; 'I' for Inactive)
REMARK    1  A    between atoms: C1_2  and  C2_3 
ROOT
ATOM      1  C2  UNL d   1      -0.144   3.120   0.024  0.00  0.00    -0.076 A 
ATOM      2  C3  UNL d   1       0.105   4.006  -1.038  0.00  0.00     0.004 A 
ATOM      3  C4  UNL d   1      -0.124   5.374  -0.899  0.00  0.00    -0.003 A 
ATOM      4  C5  UNL d   1      -0.603   5.878   0.305  0.00  0.00     0.000 A 
ATOM      5  C6  UNL d   1      -0.839   5.015   1.375  0.00  0.00     0.000 A 
ATOM      6  C7  UNL d   1      -0.599   3.636   1.257  0.00  0.00    -0.073 A 
ATOM      7  C8  UNL d   1      -0.876   2.750   2.441  0.00  0.00     0.078 C 
ENDROOT
BRANCH   1   8
ATOM      8  C1  UNL d   1       0.096   1.643  -0.194  0.00  0.00     0.053 C 
ATOM      9  C   UNL d   1      -1.170   0.898  -0.587  0.00  0.00     0.018 C 
ENDBRANCH   1   8
TORSDOF 1
ENDMDL
