MODEL 1
REMARK minimizedAffinity 11.3605137
REMARK minimizedRMSD -1
REMARK  1 active torsions:
REMARK  status: ('A' for Active; 'I' for Inactive)
REMARK    1  A    between atoms: C1_2  and  C2_3 
ROOT
ATOM      1  C2  UNL d   1      -0.143   3.855   0.601  0.00  0.00    -0.076 A 
ATOM      2  C3  UNL d   1       0.851   3.603  -0.361  0.00  0.00     0.004 A 
ATOM      3  C4  UNL d   1       1.113   4.518  -1.379  0.00  0.00    -0.003 A 
ATOM      4  C5  UNL d   1       0.387   5.701  -1.452  0.00  0.00     0.000 A 
ATOM      5  C6  UNL d   1      -0.591   5.976  -0.496  0.00  0.00     0.000 A 
ATOM      6  C7  UNL d   1      -0.856   5.072   0.546  0.00  0.00    -0.073 A 
ATOM      7  C8  UNL d   1      -1.926   5.417   1.546  0.00  0.00     0.078 C 
ENDROOT
BRANCH   1   8
ATOM      8  C1  UNL d   1      -0.402   2.814   1.666  0.00  0.00     0.053 C 
ATOM      9  C   UNL d   1       0.830   2.527   2.511  0.00  0.00     0.018 C 
ENDBRANCH   1   8
TORSDOF 1
ENDMDL
