MODEL 1
REMARK minimizedAffinity 6.16277885
REMARK minimizedRMSD -1
REMARK  1 active torsions:
REMARK  status: ('A' for Active; 'I' for Inactive)
REMARK    1  A    between atoms: C1_2  and  C2_3 
ROOT
ATOM      1  C2  UNL d   1      -1.392   2.143   0.545  0.00  0.00    -0.076 A 
ATOM      2  C3  UNL d   1      -1.290   2.961  -0.594  0.00  0.00     0.004 A 
ATOM      3  C4  UNL d   1      -0.346   3.985  -0.659  0.00  0.00    -0.003 A 
ATOM      4  C5  UNL d   1       0.511   4.207   0.414  0.00  0.00     0.000 A 
ATOM      5  C6  UNL d   1       0.435   3.393   1.544  0.00  0.00     0.000 A 
ATOM      6  C7  UNL d   1      -0.499   2.346   1.619  0.00  0.00    -0.073 A 
ATOM      7  C8  UNL d   1      -0.541   1.503   2.864  0.00  0.00     0.078 C 
ENDROOT
BRANCH   1   8
ATOM      8  C1  UNL d   1      -2.453   1.065   0.569  0.00  0.00     0.053 C 
ATOM      9  C   UNL d   1      -3.854   1.632   0.737  0.00  0.00     0.018 C 
ENDBRANCH   1   8
TORSDOF 1
ENDMDL
