MODEL 1
REMARK minimizedAffinity 8.58309841
REMARK minimizedRMSD -1
REMARK  1 active torsions:
REMARK  status: ('A' for Active; 'I' for Inactive)
REMARK    1  A    between atoms: C1_2  and  C2_3 
ROOT
ATOM      1  C2  UNL d   1      -5.230  -1.278   4.046  0.00  0.00    -0.076 A 
ATOM      2  C3  UNL d   1      -5.997  -0.245   3.479  0.00  0.00     0.004 A 
ATOM      3  C4  UNL d   1      -5.394   0.778   2.750  0.00  0.00    -0.003 A 
ATOM      4  C5  UNL d   1      -4.014   0.785   2.576  0.00  0.00     0.000 A 
ATOM      5  C6  UNL d   1      -3.240  -0.241   3.117  0.00  0.00     0.000 A 
ATOM      6  C7  UNL d   1      -3.834  -1.289   3.840  0.00  0.00    -0.073 A 
ATOM      7  C8  UNL d   1      -2.950  -2.366   4.407  0.00  0.00     0.078 C 
ENDROOT
BRANCH   1   8
ATOM      8  C1  UNL d   1      -5.936  -2.347   4.850  0.00  0.00     0.053 C 
ATOM      9  C   UNL d   1      -6.000  -3.679   4.118  0.00  0.00     0.018 C 
ENDBRANCH   1   8
TORSDOF 1
ENDMDL
