MODEL 1
REMARK minimizedAffinity 1.68274736
REMARK minimizedRMSD -1
REMARK  0 active torsions:
REMARK  status: ('A' for Active; 'I' for Inactive)
ROOT
ATOM      1  C   UNL d   1       3.153  -4.781   0.676  0.00  0.00     0.023 A 
ATOM      2  C1  UNL d   1       3.195  -3.388   0.611  0.00  0.00     0.003 A 
ATOM      3  C2  UNL d   1       2.173  -2.630   1.185  0.00  0.00     0.048 A 
ATOM      4  C3  UNL d   1       1.111  -3.271   1.823  0.00  0.00     0.023 A 
ATOM      5  C4  UNL d   1       1.065  -4.665   1.891  0.00  0.00     0.048 A 
ATOM      6  C5  UNL d   1       2.089  -5.419   1.315  0.00  0.00     0.003 A 
ATOM      7  I   UNL d   1      -0.412  -2.145   2.678  0.00  0.00    -0.146 I 
ENDROOT
TORSDOF 0
ENDMDL
