MODEL 1
REMARK minimizedAffinity 10.7397938
REMARK minimizedRMSD -1
REMARK  0 active torsions:
REMARK  status: ('A' for Active; 'I' for Inactive)
ROOT
ATOM      1  C   UNL d   1      -2.595   3.217  -2.489  0.00  0.00     0.023 A 
ATOM      2  C1  UNL d   1      -1.382   2.535  -2.396  0.00  0.00     0.003 A 
ATOM      3  C2  UNL d   1      -0.204   3.140  -2.839  0.00  0.00     0.048 A 
ATOM      4  C3  UNL d   1      -0.246   4.427  -3.373  0.00  0.00     0.023 A 
ATOM      5  C4  UNL d   1      -1.457   5.114  -3.467  0.00  0.00     0.048 A 
ATOM      6  C5  UNL d   1      -2.633   4.505  -3.024  0.00  0.00     0.003 A 
ATOM      7  I   UNL d   1       1.507   5.329  -4.032  0.00  0.00    -0.146 I 
ENDROOT
TORSDOF 0
ENDMDL
