MODEL 1
REMARK minimizedAffinity 7.39812565
REMARK minimizedRMSD -1
REMARK  0 active torsions:
REMARK  status: ('A' for Active; 'I' for Inactive)
ROOT
ATOM      1  C   UNL d   1       1.603  -2.911   1.962  0.00  0.00     0.023 A 
ATOM      2  C1  UNL d   1       1.428  -4.147   1.339  0.00  0.00     0.003 A 
ATOM      3  C2  UNL d   1       2.539  -4.886   0.927  0.00  0.00     0.048 A 
ATOM      4  C3  UNL d   1       3.822  -4.384   1.142  0.00  0.00     0.023 A 
ATOM      5  C4  UNL d   1       4.002  -3.148   1.766  0.00  0.00     0.048 A 
ATOM      6  C5  UNL d   1       2.888  -2.412   2.175  0.00  0.00     0.003 A 
ATOM      7  I   UNL d   1       5.477  -5.482   0.530  0.00  0.00    -0.146 I 
ENDROOT
TORSDOF 0
ENDMDL
