MODEL 1
REMARK minimizedAffinity 5.44437313
REMARK minimizedRMSD -1
REMARK  0 active torsions:
REMARK  status: ('A' for Active; 'I' for Inactive)
ROOT
ATOM      1  C   UNL d   1      -1.288   4.862  -4.165  0.00  0.00     0.023 A 
ATOM      2  C1  UNL d   1      -0.107   4.226  -3.782  0.00  0.00     0.003 A 
ATOM      3  C2  UNL d   1      -0.159   3.031  -3.061  0.00  0.00     0.048 A 
ATOM      4  C3  UNL d   1      -1.395   2.477  -2.729  0.00  0.00     0.023 A 
ATOM      5  C4  UNL d   1      -2.579   3.109  -3.111  0.00  0.00     0.048 A 
ATOM      6  C5  UNL d   1      -2.522   4.305  -3.830  0.00  0.00     0.003 A 
ATOM      7  I   UNL d   1      -1.474   0.698  -1.656  0.00  0.00    -0.146 I 
ENDROOT
TORSDOF 0
ENDMDL
