MODEL 1
REMARK minimizedAffinity 9.99010468
REMARK minimizedRMSD -1
REMARK  0 active torsions:
REMARK  status: ('A' for Active; 'I' for Inactive)
ROOT
ATOM      1  C   UNL d   1      -0.414   2.987  -2.239  0.00  0.00     0.023 A 
ATOM      2  C1  UNL d   1      -1.802   3.098  -2.323  0.00  0.00     0.003 A 
ATOM      3  C2  UNL d   1      -2.614   2.032  -1.932  0.00  0.00     0.048 A 
ATOM      4  C3  UNL d   1      -2.032   0.858  -1.455  0.00  0.00     0.023 A 
ATOM      5  C4  UNL d   1      -0.643   0.743  -1.367  0.00  0.00     0.048 A 
ATOM      6  C5  UNL d   1       0.165   1.811  -1.761  0.00  0.00     0.003 A 
ATOM      7  I   UNL d   1      -3.238  -0.731  -0.871  0.00  0.00    -0.146 I 
ENDROOT
TORSDOF 0
ENDMDL
