MODEL 1
REMARK minimizedAffinity 10.8564053
REMARK minimizedRMSD -1
REMARK  0 active torsions:
REMARK  status: ('A' for Active; 'I' for Inactive)
ROOT
ATOM      1  C   UNL d   1       5.960  -1.735  -4.071  0.00  0.00     0.023 A 
ATOM      2  C1  UNL d   1       5.944  -1.078  -5.302  0.00  0.00     0.003 A 
ATOM      3  C2  UNL d   1       5.954   0.318  -5.350  0.00  0.00     0.048 A 
ATOM      4  C3  UNL d   1       5.982   1.050  -4.164  0.00  0.00     0.023 A 
ATOM      5  C4  UNL d   1       5.999   0.397  -2.930  0.00  0.00     0.048 A 
ATOM      6  C5  UNL d   1       5.987  -0.998  -2.887  0.00  0.00     0.003 A 
ATOM      7  I   UNL d   1       5.998   3.127  -4.233  0.00  0.00    -0.146 I 
ENDROOT
TORSDOF 0
ENDMDL
