MODEL 1
REMARK minimizedAffinity 3.83555484
REMARK minimizedRMSD -1
REMARK  0 active torsions:
REMARK  status: ('A' for Active; 'I' for Inactive)
ROOT
ATOM      1  C   UNL d   1       2.864  -3.970   0.331  0.00  0.00     0.023 A 
ATOM      2  C1  UNL d   1       2.782  -2.597   0.098  0.00  0.00     0.003 A 
ATOM      3  C2  UNL d   1       1.980  -1.796   0.913  0.00  0.00     0.048 A 
ATOM      4  C3  UNL d   1       1.263  -2.374   1.960  0.00  0.00     0.023 A 
ATOM      5  C4  UNL d   1       1.342  -3.747   2.197  0.00  0.00     0.048 A 
ATOM      6  C5  UNL d   1       2.145  -4.544   1.379  0.00  0.00     0.003 A 
ATOM      7  I   UNL d   1       0.068  -1.183   3.174  0.00  0.00    -0.146 I 
ENDROOT
TORSDOF 0
ENDMDL
