MODEL 1
REMARK minimizedAffinity 7.71062136
REMARK minimizedRMSD -1
REMARK  0 active torsions:
REMARK  status: ('A' for Active; 'I' for Inactive)
ROOT
ATOM      1  C   UNL d   1       2.843   0.332  -1.542  0.00  0.00     0.023 A 
ATOM      2  C1  UNL d   1       2.128  -0.063  -2.673  0.00  0.00     0.003 A 
ATOM      3  C2  UNL d   1       1.038   0.692  -3.110  0.00  0.00     0.048 A 
ATOM      4  C3  UNL d   1       0.668   1.841  -2.413  0.00  0.00     0.023 A 
ATOM      5  C4  UNL d   1       1.381   2.241  -1.281  0.00  0.00     0.048 A 
ATOM      6  C5  UNL d   1       2.470   1.483  -0.847  0.00  0.00     0.003 A 
ATOM      7  I   UNL d   1      -0.954   2.966  -3.062  0.00  0.00    -0.146 I 
ENDROOT
TORSDOF 0
ENDMDL
