MODEL 1
REMARK minimizedAffinity -0.910017252
REMARK minimizedRMSD -1
REMARK  0 active torsions:
REMARK  status: ('A' for Active; 'I' for Inactive)
ROOT
ATOM      1  C   UNL d   1      -1.519   0.986   2.169  0.00  0.00     0.020 A 
ATOM      2  C1  UNL d   1      -0.952  -0.242   1.830  0.00  0.00     0.020 A 
ATOM      3  C2  UNL d   1      -0.005  -0.315   0.806  0.00  0.00     0.034 A 
ATOM      4  C3  UNL d   1       0.378   0.842   0.118  0.00  0.00     0.017 A 
ATOM      5  C4  UNL d   1      -0.192   2.074   0.459  0.00  0.00     0.017 A 
ATOM      6  C5  UNL d   1      -1.140   2.141   1.485  0.00  0.00     0.034 A 
ATOM      7 Cl   UNL d   1       0.230   3.545  -0.345  0.00  0.00    -0.070 Cl
ATOM      8 Cl1  UNL d   1       1.554   0.678  -1.137  0.00  0.00    -0.070 Cl
ENDROOT
TORSDOF 0
ENDMDL
