MODEL 1
REMARK minimizedAffinity -1.11096311
REMARK minimizedRMSD -1
REMARK  0 active torsions:
REMARK  status: ('A' for Active; 'I' for Inactive)
ROOT
ATOM      1  C   UNL d   1      -0.865   0.120   1.507  0.00  0.00     0.020 A 
ATOM      2  C1  UNL d   1      -0.227  -0.176   0.303  0.00  0.00     0.020 A 
ATOM      3  C2  UNL d   1       0.090   0.849  -0.590  0.00  0.00     0.034 A 
ATOM      4  C3  UNL d   1      -0.231   2.176  -0.280  0.00  0.00     0.017 A 
ATOM      5  C4  UNL d   1      -0.870   2.472   0.929  0.00  0.00     0.017 A 
ATOM      6  C5  UNL d   1      -1.185   1.441   1.819  0.00  0.00     0.034 A 
ATOM      7 Cl   UNL d   1      -1.297   4.085   1.381  0.00  0.00    -0.070 Cl
ATOM      8 Cl1  UNL d   1       0.191   3.394  -1.431  0.00  0.00    -0.070 Cl
ENDROOT
TORSDOF 0
ENDMDL
