MODEL 1
REMARK minimizedAffinity -3.23928189
REMARK minimizedRMSD -1
REMARK  0 active torsions:
REMARK  status: ('A' for Active; 'I' for Inactive)
ROOT
ATOM      1  C   UNL d   1      -0.516  -0.369   1.305  0.00  0.00     0.020 A 
ATOM      2  C1  UNL d   1      -1.154   0.624   2.046  0.00  0.00     0.020 A 
ATOM      3  C2  UNL d   1      -1.005   1.966   1.691  0.00  0.00     0.034 A 
ATOM      4  C3  UNL d   1      -0.215   2.319   0.590  0.00  0.00     0.017 A 
ATOM      5  C4  UNL d   1       0.426   1.322  -0.153  0.00  0.00     0.017 A 
ATOM      6  C5  UNL d   1       0.273  -0.021   0.207  0.00  0.00     0.034 A 
ATOM      7 Cl   UNL d   1       1.417   1.680  -1.524  0.00  0.00    -0.070 Cl
ATOM      8 Cl1  UNL d   1      -0.075   3.998   0.207  0.00  0.00    -0.070 Cl
ENDROOT
TORSDOF 0
ENDMDL
