MODEL 1
REMARK minimizedAffinity -2.33584666
REMARK minimizedRMSD -1
REMARK  0 active torsions:
REMARK  status: ('A' for Active; 'I' for Inactive)
ROOT
ATOM      1  C   UNL d   1      -0.204  -0.346   2.368  0.00  0.00     0.020 A 
ATOM      2  C1  UNL d   1      -0.936   0.839   2.303  0.00  0.00     0.020 A 
ATOM      3  C2  UNL d   1      -0.688   1.759   1.283  0.00  0.00     0.034 A 
ATOM      4  C3  UNL d   1       0.296   1.495   0.322  0.00  0.00     0.017 A 
ATOM      5  C4  UNL d   1       1.030   0.306   0.388  0.00  0.00     0.017 A 
ATOM      6  C5  UNL d   1       0.777  -0.612   1.412  0.00  0.00     0.034 A 
ATOM      7 Cl   UNL d   1       2.260  -0.089  -0.761  0.00  0.00    -0.070 Cl
ATOM      8 Cl1  UNL d   1       0.550   2.677  -0.912  0.00  0.00    -0.070 Cl
ENDROOT
TORSDOF 0
ENDMDL
