MODEL 1
REMARK minimizedAffinity -3.33392525
REMARK minimizedRMSD -1
REMARK  0 active torsions:
REMARK  status: ('A' for Active; 'I' for Inactive)
ROOT
ATOM      1  C   UNL d   1      -0.405  -0.472   1.717  0.00  0.00     0.020 A 
ATOM      2  C1  UNL d   1      -1.001   0.681   2.227  0.00  0.00     0.020 A 
ATOM      3  C2  UNL d   1      -0.761   1.917   1.623  0.00  0.00     0.034 A 
ATOM      4  C3  UNL d   1       0.077   2.003   0.505  0.00  0.00     0.017 A 
ATOM      5  C4  UNL d   1       0.674   0.845  -0.007  0.00  0.00     0.017 A 
ATOM      6  C5  UNL d   1       0.430  -0.389   0.602  0.00  0.00     0.034 A 
ATOM      7 Cl   UNL d   1       1.720   0.872  -1.383  0.00  0.00    -0.070 Cl
ATOM      8 Cl1  UNL d   1       0.329   3.564  -0.192  0.00  0.00    -0.070 Cl
ENDROOT
TORSDOF 0
ENDMDL
