MODEL 1
REMARK minimizedAffinity -1.00926518
REMARK minimizedRMSD -1
REMARK  0 active torsions:
REMARK  status: ('A' for Active; 'I' for Inactive)
ROOT
ATOM      1  C   UNL d   1       0.695  -2.978  -2.705  0.00  0.00     0.020 A 
ATOM      2  C1  UNL d   1       0.013  -3.455  -1.586  0.00  0.00     0.020 A 
ATOM      3  C2  UNL d   1       0.110  -2.778  -0.369  0.00  0.00     0.034 A 
ATOM      4  C3  UNL d   1       0.890  -1.620  -0.267  0.00  0.00     0.017 A 
ATOM      5  C4  UNL d   1       1.574  -1.142  -1.391  0.00  0.00     0.017 A 
ATOM      6  C5  UNL d   1       1.474  -1.824  -2.607  0.00  0.00     0.034 A 
ATOM      7 Cl   UNL d   1       2.556   0.280  -1.343  0.00  0.00    -0.070 Cl
ATOM      8 Cl1  UNL d   1       0.964  -0.833   1.270  0.00  0.00    -0.070 Cl
ENDROOT
TORSDOF 0
ENDMDL
