MODEL 1
REMARK minimizedAffinity -2.47127247
REMARK minimizedRMSD -1
REMARK  0 active torsions:
REMARK  status: ('A' for Active; 'I' for Inactive)
ROOT
ATOM      1  C   UNL d   1      -1.449   0.569   2.189  0.00  0.00     0.020 A 
ATOM      2  C1  UNL d   1      -0.932  -0.698   1.920  0.00  0.00     0.020 A 
ATOM      3  C2  UNL d   1      -0.031  -0.876   0.868  0.00  0.00     0.034 A 
ATOM      4  C3  UNL d   1       0.356   0.215   0.081  0.00  0.00     0.017 A 
ATOM      5  C4  UNL d   1      -0.164   1.486   0.351  0.00  0.00     0.017 A 
ATOM      6  C5  UNL d   1      -1.066   1.658   1.406  0.00  0.00     0.034 A 
ATOM      7 Cl   UNL d   1       0.266   2.879  -0.577  0.00  0.00    -0.070 Cl
ATOM      8 Cl1  UNL d   1       1.474  -0.078  -1.203  0.00  0.00    -0.070 Cl
ENDROOT
TORSDOF 0
ENDMDL
