MODEL 1
REMARK minimizedAffinity -0.39096418
REMARK minimizedRMSD -1
REMARK  0 active torsions:
REMARK  status: ('A' for Active; 'I' for Inactive)
ROOT
ATOM      1  C   UNL d   1      -1.428   0.705   2.337  0.00  0.00     0.020 A 
ATOM      2  C1  UNL d   1      -0.922  -0.586   2.195  0.00  0.00     0.020 A 
ATOM      3  C2  UNL d   1      -0.107  -0.900   1.105  0.00  0.00     0.034 A 
ATOM      4  C3  UNL d   1       0.204   0.078   0.154  0.00  0.00     0.017 A 
ATOM      5  C4  UNL d   1      -0.305   1.373   0.297  0.00  0.00     0.017 A 
ATOM      6  C5  UNL d   1      -1.120   1.683   1.390  0.00  0.00     0.034 A 
ATOM      7 Cl   UNL d   1       0.035   2.634  -0.836  0.00  0.00    -0.070 Cl
ATOM      8 Cl1  UNL d   1       1.218  -0.381  -1.168  0.00  0.00    -0.070 Cl
ENDROOT
TORSDOF 0
ENDMDL
