MODEL 1
REMARK minimizedAffinity -0.909629822
REMARK minimizedRMSD -1
REMARK  0 active torsions:
REMARK  status: ('A' for Active; 'I' for Inactive)
ROOT
ATOM      1  C   UNL d   1       0.005  -3.258  -3.496  0.00  0.00     0.020 A 
ATOM      2  C1  UNL d   1      -0.244  -1.894  -3.349  0.00  0.00     0.020 A 
ATOM      3  C2  UNL d   1       0.235  -1.214  -2.227  0.00  0.00     0.034 A 
ATOM      4  C3  UNL d   1       0.966  -1.897  -1.249  0.00  0.00     0.017 A 
ATOM      5  C4  UNL d   1       1.216  -3.266  -1.398  0.00  0.00     0.017 A 
ATOM      6  C5  UNL d   1       0.733  -3.942  -2.523  0.00  0.00     0.034 A 
ATOM      7 Cl   UNL d   1       2.110  -4.177  -0.233  0.00  0.00    -0.070 Cl
ATOM      8 Cl1  UNL d   1       1.529  -0.993   0.112  0.00  0.00    -0.070 Cl
ENDROOT
TORSDOF 0
ENDMDL
