MODEL 1
REMARK minimizedAffinity -1.75270116
REMARK minimizedRMSD -1
REMARK  0 active torsions:
REMARK  status: ('A' for Active; 'I' for Inactive)
ROOT
ATOM      1  C   UNL d   1       0.518  -1.449   0.258  0.00  0.00     0.020 A 
ATOM      2  C1  UNL d   1       0.988  -0.842  -0.906  0.00  0.00     0.020 A 
ATOM      3  C2  UNL d   1       0.790   0.525  -1.108  0.00  0.00     0.034 A 
ATOM      4  C3  UNL d   1       0.120   1.290  -0.146  0.00  0.00     0.017 A 
ATOM      5  C4  UNL d   1      -0.351   0.679   1.021  0.00  0.00     0.017 A 
ATOM      6  C5  UNL d   1      -0.150  -0.690   1.219  0.00  0.00     0.034 A 
ATOM      7 Cl   UNL d   1      -1.187   1.557   2.254  0.00  0.00    -0.070 Cl
ATOM      8 Cl1  UNL d   1      -0.089   2.976  -0.463  0.00  0.00    -0.070 Cl
ENDROOT
TORSDOF 0
ENDMDL
