MODEL 1
REMARK minimizedAffinity -1.43864584
REMARK minimizedRMSD -1
REMARK  0 active torsions:
REMARK  status: ('A' for Active; 'I' for Inactive)
ROOT
ATOM      1  C   UNL d   1       0.030  -4.485  -2.264  0.00  0.00     0.020 A 
ATOM      2  C1  UNL d   1       0.525  -4.040  -1.039  0.00  0.00     0.020 A 
ATOM      3  C2  UNL d   1       1.121  -2.781  -0.941  0.00  0.00     0.034 A 
ATOM      4  C3  UNL d   1       1.226  -1.963  -2.072  0.00  0.00     0.017 A 
ATOM      5  C4  UNL d   1       0.729  -2.410  -3.302  0.00  0.00     0.017 A 
ATOM      6  C5  UNL d   1       0.133  -3.671  -3.393  0.00  0.00     0.034 A 
ATOM      7 Cl   UNL d   1       0.821  -1.456  -4.740  0.00  0.00    -0.070 Cl
ATOM      8 Cl1  UNL d   1       1.975  -0.418  -1.878  0.00  0.00    -0.070 Cl
ENDROOT
TORSDOF 0
ENDMDL
