MODEL 1
REMARK minimizedAffinity -0.845824301
REMARK minimizedRMSD -1
REMARK  0 active torsions:
REMARK  status: ('A' for Active; 'I' for Inactive)
ROOT
ATOM      1  C   UNL d   1      -0.892   2.599   1.850  0.00  0.00     0.020 A 
ATOM      2  C1  UNL d   1      -0.402   2.990   0.604  0.00  0.00     0.020 A 
ATOM      3  C2  UNL d   1       0.133   2.037  -0.266  0.00  0.00     0.034 A 
ATOM      4  C3  UNL d   1       0.179   0.689   0.109  0.00  0.00     0.017 A 
ATOM      5  C4  UNL d   1      -0.313   0.298   1.359  0.00  0.00     0.017 A 
ATOM      6  C5  UNL d   1      -0.848   1.256   2.226  0.00  0.00     0.034 A 
ATOM      7 Cl   UNL d   1      -0.290  -1.346   1.891  0.00  0.00    -0.070 Cl
ATOM      8 Cl1  UNL d   1       0.854  -0.434  -1.017  0.00  0.00    -0.070 Cl
ENDROOT
TORSDOF 0
ENDMDL
