MODEL 1
REMARK minimizedAffinity -2.39177728
REMARK minimizedRMSD -1
REMARK  0 active torsions:
REMARK  status: ('A' for Active; 'I' for Inactive)
ROOT
ATOM      1  C   UNL d   1      -1.472   0.416   2.321  0.00  0.00     0.020 A 
ATOM      2  C1  UNL d   1      -0.901  -0.825   2.043  0.00  0.00     0.020 A 
ATOM      3  C2  UNL d   1      -0.034  -0.968   0.957  0.00  0.00     0.034 A 
ATOM      4  C3  UNL d   1       0.264   0.133   0.146  0.00  0.00     0.017 A 
ATOM      5  C4  UNL d   1      -0.309   1.379   0.426  0.00  0.00     0.017 A 
ATOM      6  C5  UNL d   1      -1.176   1.516   1.514  0.00  0.00     0.034 A 
ATOM      7 Cl   UNL d   1       0.012   2.783  -0.529  0.00  0.00    -0.070 Cl
ATOM      8 Cl1  UNL d   1       1.345  -0.115  -1.180  0.00  0.00    -0.070 Cl
ENDROOT
TORSDOF 0
ENDMDL
