MODEL 1
REMARK minimizedAffinity -3.51033187
REMARK minimizedRMSD -1
REMARK  0 active torsions:
REMARK  status: ('A' for Active; 'I' for Inactive)
ROOT
ATOM      1  C   UNL d   1      -0.195  -0.812   1.220  0.00  0.00     0.020 A 
ATOM      2  C1  UNL d   1       0.566  -0.885   0.054  0.00  0.00     0.020 A 
ATOM      3  C2  UNL d   1       0.688   0.235  -0.771  0.00  0.00     0.034 A 
ATOM      4  C3  UNL d   1       0.047   1.432  -0.432  0.00  0.00     0.017 A 
ATOM      5  C4  UNL d   1      -0.717   1.504   0.738  0.00  0.00     0.017 A 
ATOM      6  C5  UNL d   1      -0.835   0.380   1.561  0.00  0.00     0.034 A 
ATOM      7 Cl   UNL d   1      -1.537   2.947   1.222  0.00  0.00    -0.070 Cl
ATOM      8 Cl1  UNL d   1       0.241   2.777  -1.499  0.00  0.00    -0.070 Cl
ENDROOT
TORSDOF 0
ENDMDL
