MODEL 1
REMARK minimizedAffinity 0.549333036
REMARK minimizedRMSD -1
REMARK  0 active torsions:
REMARK  status: ('A' for Active; 'I' for Inactive)
ROOT
ATOM      1  C   UNL d   1      -0.525  -0.761   1.402  0.00  0.00     0.020 A 
ATOM      2  C1  UNL d   1      -1.062   0.135   2.326  0.00  0.00     0.020 A 
ATOM      3  C2  UNL d   1      -0.969   1.510   2.100  0.00  0.00     0.034 A 
ATOM      4  C3  UNL d   1      -0.338   1.993   0.948  0.00  0.00     0.017 A 
ATOM      5  C4  UNL d   1       0.201   1.093   0.022  0.00  0.00     0.017 A 
ATOM      6  C5  UNL d   1       0.105  -0.283   0.252  0.00  0.00     0.034 A 
ATOM      7 Cl   UNL d   1       0.995   1.614  -1.423  0.00  0.00    -0.070 Cl
ATOM      8 Cl1  UNL d   1      -0.260   3.706   0.734  0.00  0.00    -0.070 Cl
ENDROOT
TORSDOF 0
ENDMDL
