MODEL 1
REMARK minimizedAffinity -4.16364527
REMARK minimizedRMSD -1
REMARK  0 active torsions:
REMARK  status: ('A' for Active; 'I' for Inactive)
ROOT
ATOM      1  C   UNL d   1      -1.813   1.347   2.002  0.00  0.00     0.020 A 
ATOM      2  C1  UNL d   1      -1.291   0.054   2.040  0.00  0.00     0.020 A 
ATOM      3  C2  UNL d   1      -0.349  -0.346   1.090  0.00  0.00     0.034 A 
ATOM      4  C3  UNL d   1       0.073   0.547   0.098  0.00  0.00     0.017 A 
ATOM      5  C4  UNL d   1      -0.452   1.844   0.061  0.00  0.00     0.017 A 
ATOM      6  C5  UNL d   1      -1.394   2.239   1.015  0.00  0.00     0.034 A 
ATOM      7 Cl   UNL d   1       0.021   3.001  -1.133  0.00  0.00    -0.070 Cl
ATOM      8 Cl1  UNL d   1       1.241  -0.016  -1.045  0.00  0.00    -0.070 Cl
ENDROOT
TORSDOF 0
ENDMDL
