MODEL 1
REMARK minimizedAffinity 10.5967007
REMARK minimizedRMSD -1
REMARK  1 active torsions:
REMARK  status: ('A' for Active; 'I' for Inactive)
REMARK    1  A    between atoms: C1_2  and  C2_3 
ROOT
ATOM      1  C2  UNL d   1      -1.161   3.697  -2.570  0.00  0.00    -0.081 A 
ATOM      2  C3  UNL d   1       0.182   3.883  -2.221  0.00  0.00     0.006 A 
ATOM      3  C4  UNL d   1       0.783   3.068  -1.258  0.00  0.00     0.002 A 
ATOM      4  C5  UNL d   1       0.054   2.050  -0.635  0.00  0.00    -0.080 A 
ATOM      5  C6  UNL d   1       0.695   1.149   0.378  0.00  0.00     0.076 C 
ATOM      6  C7  UNL d   1      -1.293   1.876  -0.971  0.00  0.00     0.002 A 
ATOM      7  C8  UNL d   1      -1.894   2.691  -1.933  0.00  0.00     0.006 A 
ENDROOT
BRANCH   1   8
ATOM      8  C1  UNL d   1      -1.793   4.532  -3.655  0.00  0.00     0.054 C 
ATOM      9  C   UNL d   1      -1.860   5.999  -3.256  0.00  0.00     0.018 C 
ENDBRANCH   1   8
TORSDOF 1
ENDMDL
