MODEL 1
REMARK minimizedAffinity 12.6655684
REMARK minimizedRMSD -1
REMARK  1 active torsions:
REMARK  status: ('A' for Active; 'I' for Inactive)
REMARK    1  A    between atoms: C1_2  and  C2_3 
ROOT
ATOM      1  C2  UNL d   1      -0.214  -1.562   3.364  0.00  0.00    -0.081 A 
ATOM      2  C3  UNL d   1       0.025  -1.328   2.004  0.00  0.00     0.006 A 
ATOM      3  C4  UNL d   1      -0.755  -1.957   1.030  0.00  0.00     0.002 A 
ATOM      4  C5  UNL d   1      -1.790  -2.822   1.398  0.00  0.00    -0.080 A 
ATOM      5  C6  UNL d   1      -2.654  -3.479   0.363  0.00  0.00     0.076 C 
ATOM      6  C7  UNL d   1      -2.018  -3.069   2.756  0.00  0.00     0.002 A 
ATOM      7  C8  UNL d   1      -1.238  -2.442   3.731  0.00  0.00     0.006 A 
ENDROOT
BRANCH   1   8
ATOM      8  C1  UNL d   1       0.582  -0.837   4.418  0.00  0.00     0.054 C 
ATOM      9  C   UNL d   1      -0.245  -0.604   5.674  0.00  0.00     0.018 C 
ENDBRANCH   1   8
TORSDOF 1
ENDMDL
