MODEL 1
REMARK minimizedAffinity 14.3245382
REMARK minimizedRMSD -1
REMARK  1 active torsions:
REMARK  status: ('A' for Active; 'I' for Inactive)
REMARK    1  A    between atoms: C1_2  and  C2_3 
ROOT
ATOM      1  C2  UNL d   1       0.008  -1.199   4.088  0.00  0.00    -0.081 A 
ATOM      2  C3  UNL d   1       0.918  -0.297   4.652  0.00  0.00     0.006 A 
ATOM      3  C4  UNL d   1       2.145  -0.047   4.032  0.00  0.00     0.002 A 
ATOM      4  C5  UNL d   1       2.477  -0.688   2.833  0.00  0.00    -0.080 A 
ATOM      5  C6  UNL d   1       3.777  -0.405   2.141  0.00  0.00     0.076 C 
ATOM      6  C7  UNL d   1       1.575  -1.602   2.278  0.00  0.00     0.002 A 
ATOM      7  C8  UNL d   1       0.349  -1.853   2.899  0.00  0.00     0.006 A 
ENDROOT
BRANCH   1   8
ATOM      8  C1  UNL d   1      -1.342  -1.422   4.720  0.00  0.00     0.054 C 
ATOM      9  C   UNL d   1      -1.494  -0.612   5.999  0.00  0.00     0.018 C 
ENDBRANCH   1   8
TORSDOF 1
ENDMDL
