MODEL 1
REMARK minimizedAffinity 16.1763268
REMARK minimizedRMSD -1
REMARK  1 active torsions:
REMARK  status: ('A' for Active; 'I' for Inactive)
REMARK    1  A    between atoms: C1_2  and  C2_3 
ROOT
ATOM      1  C2  UNL d   1      -0.878   2.960  -2.204  0.00  0.00    -0.081 A 
ATOM      2  C3  UNL d   1      -1.780   3.897  -2.723  0.00  0.00     0.006 A 
ATOM      3  C4  UNL d   1      -3.106   3.538  -2.977  0.00  0.00     0.002 A 
ATOM      4  C5  UNL d   1      -3.554   2.240  -2.710  0.00  0.00    -0.080 A 
ATOM      5  C6  UNL d   1      -4.982   1.851  -2.950  0.00  0.00     0.076 C 
ATOM      6  C7  UNL d   1      -2.649   1.299  -2.207  0.00  0.00     0.002 A 
ATOM      7  C8  UNL d   1      -1.323   1.657  -1.953  0.00  0.00     0.006 A 
ENDROOT
BRANCH   1   8
ATOM      8  C1  UNL d   1       0.535   3.361  -1.868  0.00  0.00     0.054 C 
ATOM      9  C   UNL d   1       0.764   3.375  -0.363  0.00  0.00     0.018 C 
ENDBRANCH   1   8
TORSDOF 1
ENDMDL
