MODEL 1
REMARK minimizedAffinity 8.57908916
REMARK minimizedRMSD -1
REMARK  1 active torsions:
REMARK  status: ('A' for Active; 'I' for Inactive)
REMARK    1  A    between atoms: C1_2  and  C2_3 
ROOT
ATOM      1  C2  UNL d   1       4.500  -0.259  -1.017  0.00  0.00    -0.081 A 
ATOM      2  C3  UNL d   1       4.405  -1.500  -0.375  0.00  0.00     0.006 A 
ATOM      3  C4  UNL d   1       3.328  -1.779   0.470  0.00  0.00     0.002 A 
ATOM      4  C5  UNL d   1       2.326  -0.826   0.682  0.00  0.00    -0.080 A 
ATOM      5  C6  UNL d   1       1.149  -1.125   1.563  0.00  0.00     0.076 C 
ATOM      6  C7  UNL d   1       2.430   0.420   0.055  0.00  0.00     0.002 A 
ATOM      7  C8  UNL d   1       3.506   0.700  -0.790  0.00  0.00     0.006 A 
ENDROOT
BRANCH   1   8
ATOM      8  C1  UNL d   1       5.625   0.022  -1.979  0.00  0.00     0.054 C 
ATOM      9  C   UNL d   1       5.230   1.079  -3.000  0.00  0.00     0.018 C 
ENDBRANCH   1   8
TORSDOF 1
ENDMDL
