MODEL 1
REMARK minimizedAffinity 6.26937437
REMARK minimizedRMSD -1
REMARK  1 active torsions:
REMARK  status: ('A' for Active; 'I' for Inactive)
REMARK    1  A    between atoms: C1_2  and  C2_3 
ROOT
ATOM      1  C2  UNL d   1      -1.048   4.270  -2.905  0.00  0.00    -0.081 A 
ATOM      2  C3  UNL d   1      -0.168   4.866  -1.993  0.00  0.00     0.006 A 
ATOM      3  C4  UNL d   1       0.552   4.081  -1.088  0.00  0.00     0.002 A 
ATOM      4  C5  UNL d   1       0.410   2.690  -1.085  0.00  0.00    -0.080 A 
ATOM      5  C6  UNL d   1       1.199   1.834  -0.139  0.00  0.00     0.076 C 
ATOM      6  C7  UNL d   1      -0.482   2.096  -1.985  0.00  0.00     0.002 A 
ATOM      7  C8  UNL d   1      -1.202   2.880  -2.889  0.00  0.00     0.006 A 
ENDROOT
BRANCH   1   8
ATOM      8  C1  UNL d   1      -1.776   5.107  -3.925  0.00  0.00     0.054 C 
ATOM      9  C   UNL d   1      -2.146   4.286  -5.152  0.00  0.00     0.018 C 
ENDBRANCH   1   8
TORSDOF 1
ENDMDL
