MODEL 1
REMARK minimizedAffinity 17.3523903
REMARK minimizedRMSD -1
REMARK  1 active torsions:
REMARK  status: ('A' for Active; 'I' for Inactive)
REMARK    1  A    between atoms: C1_2  and  C2_3 
ROOT
ATOM      1  C2  UNL d   1       3.299  -3.915  -5.585  0.00  0.00    -0.081 A 
ATOM      2  C3  UNL d   1       2.380  -3.275  -4.744  0.00  0.00     0.006 A 
ATOM      3  C4  UNL d   1       1.231  -3.943  -4.314  0.00  0.00     0.002 A 
ATOM      4  C5  UNL d   1       0.986  -5.262  -4.710  0.00  0.00    -0.080 A 
ATOM      5  C6  UNL d   1      -0.229  -6.000  -4.231  0.00  0.00     0.076 C 
ATOM      6  C7  UNL d   1       1.895  -5.895  -5.564  0.00  0.00     0.002 A 
ATOM      7  C8  UNL d   1       3.044  -5.228  -5.995  0.00  0.00     0.006 A 
ENDROOT
BRANCH   1   8
ATOM      8  C1  UNL d   1       4.571  -3.220  -5.999  0.00  0.00     0.054 C 
ATOM      9  C   UNL d   1       5.795  -4.057  -5.655  0.00  0.00     0.018 C 
ENDBRANCH   1   8
TORSDOF 1
ENDMDL
