MODEL 1
REMARK minimizedAffinity 22.6823387
REMARK minimizedRMSD -1
REMARK  1 active torsions:
REMARK  status: ('A' for Active; 'I' for Inactive)
REMARK    1  A    between atoms: C1_2  and  C2_3 
ROOT
ATOM      1  C2  UNL d   1       1.432   1.150   0.623  0.00  0.00    -0.081 A 
ATOM      2  C3  UNL d   1       2.612   0.432   0.854  0.00  0.00     0.006 A 
ATOM      3  C4  UNL d   1       2.567  -0.938   1.122  0.00  0.00     0.002 A 
ATOM      4  C5  UNL d   1       1.343  -1.615   1.156  0.00  0.00    -0.080 A 
ATOM      5  C6  UNL d   1       1.282  -3.091   1.413  0.00  0.00     0.076 C 
ATOM      6  C7  UNL d   1       0.162  -0.894   0.943  0.00  0.00     0.002 A 
ATOM      7  C8  UNL d   1       0.207   0.476   0.676  0.00  0.00     0.006 A 
ENDROOT
BRANCH   1   8
ATOM      8  C1  UNL d   1       1.483   2.614   0.270  0.00  0.00     0.054 C 
ATOM      9  C   UNL d   1       0.295   3.016  -0.593  0.00  0.00     0.018 C 
ENDBRANCH   1   8
TORSDOF 1
ENDMDL
