MODEL 1
REMARK minimizedAffinity -1.32280016
REMARK minimizedRMSD -1
REMARK  1 active torsions:
REMARK  status: ('A' for Active; 'I' for Inactive)
REMARK    1  A    between atoms: N_2  and  C1_3 
ROOT
ATOM      1  C1  UNL d   1      -0.839   0.926   0.444  0.00  0.00     0.143 A 
ATOM      2  C2  UNL d   1      -0.377   1.138  -0.860  0.00  0.00    -0.057 A 
ATOM      3  C3  UNL d   1       0.448   0.205  -1.499  0.00  0.00     0.033 A 
ATOM      4  C4  UNL d   1       0.850  -0.948  -0.832  0.00  0.00    -0.042 A 
ATOM      5  C5  UNL d   1       0.423  -1.168   0.472  0.00  0.00     0.033 A 
ATOM      6  C6  UNL d   1      -0.406  -0.236   1.103  0.00  0.00    -0.057 A 
ENDROOT
BRANCH   1   7
ATOM      7  N   UNL d   1      -1.581   1.862   1.168  0.00  0.00    -0.732 N 
ATOM      8  C   UNL d   1      -1.075   2.399   2.413  0.00  0.00     0.284 C 
ATOM      9  H3  UNL d   1      -2.027   2.552   0.569  0.00  0.00     0.395 HD
ENDBRANCH   1   7
TORSDOF 1
ENDMDL
