MODEL 1
REMARK minimizedAffinity -3.5178144
REMARK minimizedRMSD -1
REMARK  1 active torsions:
REMARK  status: ('A' for Active; 'I' for Inactive)
REMARK    1  A    between atoms: N_2  and  C1_3 
ROOT
ATOM      1  C1  UNL d   1      -0.009  -0.066   0.181  0.00  0.00     0.143 A 
ATOM      2  C2  UNL d   1      -0.565  -0.791   1.241  0.00  0.00    -0.057 A 
ATOM      3  C3  UNL d   1      -1.347  -0.164   2.218  0.00  0.00     0.033 A 
ATOM      4  C4  UNL d   1      -1.564   1.209   2.168  0.00  0.00    -0.042 A 
ATOM      5  C5  UNL d   1      -1.001   1.954   1.138  0.00  0.00     0.033 A 
ATOM      6  C6  UNL d   1      -0.226   1.321   0.162  0.00  0.00    -0.057 A 
ENDROOT
BRANCH   1   7
ATOM      7  N   UNL d   1       0.859  -0.615  -0.766  0.00  0.00    -0.732 N 
ATOM      8  C   UNL d   1       0.559  -1.884  -1.392  0.00  0.00     0.284 C 
ATOM      9  H3  UNL d   1       1.232   0.085  -1.403  0.00  0.00     0.395 HD
ENDBRANCH   1   7
TORSDOF 1
ENDMDL
