MODEL 1
REMARK minimizedAffinity -5.00000811
REMARK minimizedRMSD -1
REMARK  1 active torsions:
REMARK  status: ('A' for Active; 'I' for Inactive)
REMARK    1  A    between atoms: N_2  and  C1_3 
ROOT
ATOM      1  C1  UNL d   1      -0.083  -0.067   0.178  0.00  0.00     0.143 A 
ATOM      2  C2  UNL d   1      -0.022  -0.082   1.575  0.00  0.00    -0.057 A 
ATOM      3  C3  UNL d   1      -0.841   0.751   2.347  0.00  0.00     0.033 A 
ATOM      4  C4  UNL d   1      -1.718   1.639   1.732  0.00  0.00    -0.042 A 
ATOM      5  C5  UNL d   1      -1.778   1.689   0.344  0.00  0.00     0.033 A 
ATOM      6  C6  UNL d   1      -0.962   0.849  -0.422  0.00  0.00    -0.057 A 
ENDROOT
BRANCH   1   7
ATOM      7  N   UNL d   1       0.774  -0.799  -0.647  0.00  0.00    -0.732 N 
ATOM      8  C   UNL d   1       0.270  -1.897  -1.444  0.00  0.00     0.284 C 
ATOM      9  H3  UNL d   1       1.447  -0.209  -1.130  0.00  0.00     0.395 HD
ENDBRANCH   1   7
TORSDOF 1
ENDMDL
