MODEL 1
REMARK minimizedAffinity -2.76230764
REMARK minimizedRMSD -1
REMARK  1 active torsions:
REMARK  status: ('A' for Active; 'I' for Inactive)
REMARK    1  A    between atoms: N_2  and  C1_3 
ROOT
ATOM      1  C1  UNL d   1      -0.770   1.063   1.083  0.00  0.00     0.143 A 
ATOM      2  C2  UNL d   1      -0.310   1.777  -0.029  0.00  0.00    -0.057 A 
ATOM      3  C3  UNL d   1       0.420   1.147  -1.044  0.00  0.00     0.033 A 
ATOM      4  C4  UNL d   1       0.729  -0.206  -0.951  0.00  0.00    -0.042 A 
ATOM      5  C5  UNL d   1       0.304  -0.929   0.158  0.00  0.00     0.033 A 
ATOM      6  C6  UNL d   1      -0.431  -0.296   1.165  0.00  0.00    -0.057 A 
ENDROOT
BRANCH   1   7
ATOM      7  N   UNL d   1      -1.415   1.653   2.173  0.00  0.00    -0.732 N 
ATOM      8  C   UNL d   1      -2.244   2.826   1.992  0.00  0.00     0.284 C 
ATOM      9  H3  UNL d   1      -1.804   0.964   2.813  0.00  0.00     0.395 HD
ENDBRANCH   1   7
TORSDOF 1
ENDMDL
