MODEL 1
REMARK minimizedAffinity -2.86309695
REMARK minimizedRMSD -1
REMARK  1 active torsions:
REMARK  status: ('A' for Active; 'I' for Inactive)
REMARK    1  A    between atoms: N_2  and  C1_3 
ROOT
ATOM      1  C1  UNL d   1      -0.131   0.608   0.365  0.00  0.00     0.143 A 
ATOM      2  C2  UNL d   1       0.141  -0.432   1.261  0.00  0.00    -0.057 A 
ATOM      3  C3  UNL d   1      -0.298  -0.380   2.589  0.00  0.00     0.033 A 
ATOM      4  C4  UNL d   1      -0.994   0.731   3.055  0.00  0.00    -0.042 A 
ATOM      5  C5  UNL d   1      -1.254   1.788   2.190  0.00  0.00     0.033 A 
ATOM      6  C6  UNL d   1      -0.819   1.727   0.862  0.00  0.00    -0.057 A 
ENDROOT
BRANCH   1   7
ATOM      7  N   UNL d   1       0.363   0.659  -0.940  0.00  0.00    -0.732 N 
ATOM      8  C   UNL d   1       0.888   1.894  -1.482  0.00  0.00     0.284 C 
ATOM      9  H3  UNL d   1       0.907  -0.165  -1.182  0.00  0.00     0.395 HD
ENDBRANCH   1   7
TORSDOF 1
ENDMDL
