MODEL 1
REMARK minimizedAffinity -4.23575926
REMARK minimizedRMSD -1
REMARK  1 active torsions:
REMARK  status: ('A' for Active; 'I' for Inactive)
REMARK    1  A    between atoms: N_2  and  C1_3 
ROOT
ATOM      1  C1  UNL d   1       1.519  -2.241  -2.044  0.00  0.00     0.143 A 
ATOM      2  C2  UNL d   1       0.383  -3.012  -1.779  0.00  0.00    -0.057 A 
ATOM      3  C3  UNL d   1      -0.432  -3.485  -2.816  0.00  0.00     0.033 A 
ATOM      4  C4  UNL d   1      -0.139  -3.168  -4.138  0.00  0.00    -0.042 A 
ATOM      5  C5  UNL d   1       0.972  -2.382  -4.423  0.00  0.00     0.033 A 
ATOM      6  C6  UNL d   1       1.785  -1.919  -3.385  0.00  0.00    -0.057 A 
ENDROOT
BRANCH   1   7
ATOM      7  N   UNL d   1       2.313  -1.659  -1.053  0.00  0.00    -0.732 N 
ATOM      8  C   UNL d   1       2.654  -0.254  -1.111  0.00  0.00     0.284 C 
ATOM      9  H3  UNL d   1       2.075  -1.991  -0.121  0.00  0.00     0.395 HD
ENDBRANCH   1   7
TORSDOF 1
ENDMDL
