MODEL 1
REMARK minimizedAffinity -4.92401409
REMARK minimizedRMSD -1
REMARK  1 active torsions:
REMARK  status: ('A' for Active; 'I' for Inactive)
REMARK    1  A    between atoms: N_2  and  C1_3 
ROOT
ATOM      1  C1  UNL d   1      -0.353   0.158   0.064  0.00  0.00     0.143 A 
ATOM      2  C2  UNL d   1      -0.820   1.352  -0.495  0.00  0.00    -0.057 A 
ATOM      3  C3  UNL d   1      -1.402   2.348   0.299  0.00  0.00     0.033 A 
ATOM      4  C4  UNL d   1      -1.553   2.153   1.668  0.00  0.00    -0.042 A 
ATOM      5  C5  UNL d   1      -1.119   0.963   2.242  0.00  0.00     0.033 A 
ATOM      6  C6  UNL d   1      -0.533  -0.024   1.444  0.00  0.00    -0.057 A 
ENDROOT
BRANCH   1   7
ATOM      7  N   UNL d   1       0.144  -0.910  -0.687  0.00  0.00    -0.732 N 
ATOM      8  C   UNL d   1       1.507  -0.898  -1.173  0.00  0.00     0.284 C 
ATOM      9  H3  UNL d   1      -0.162  -1.812  -0.329  0.00  0.00     0.395 HD
ENDBRANCH   1   7
TORSDOF 1
ENDMDL
