MODEL 1
REMARK minimizedAffinity -3.93597579
REMARK minimizedRMSD -1
REMARK  1 active torsions:
REMARK  status: ('A' for Active; 'I' for Inactive)
REMARK    1  A    between atoms: N_2  and  C1_3 
ROOT
ATOM      1  C1  UNL d   1       0.565  -0.549  -0.253  0.00  0.00     0.143 A 
ATOM      2  C2  UNL d   1       0.119  -0.547   1.073  0.00  0.00    -0.057 A 
ATOM      3  C3  UNL d   1      -0.695   0.480   1.564  0.00  0.00     0.033 A 
ATOM      4  C4  UNL d   1      -1.056   1.543   0.742  0.00  0.00    -0.042 A 
ATOM      5  C5  UNL d   1      -0.604   1.575  -0.572  0.00  0.00     0.033 A 
ATOM      6  C6  UNL d   1       0.204   0.543  -1.059  0.00  0.00    -0.057 A 
ENDROOT
BRANCH   1   7
ATOM      7  N   UNL d   1       1.457  -1.490  -0.773  0.00  0.00    -0.732 N 
ATOM      8  C   UNL d   1       1.088  -2.306  -1.910  0.00  0.00     0.284 C 
ATOM      9  H3  UNL d   1       2.413  -1.144  -0.802  0.00  0.00     0.395 HD
ENDBRANCH   1   7
TORSDOF 1
ENDMDL
