MODEL 1
REMARK minimizedAffinity -4.72631645
REMARK minimizedRMSD -1
REMARK  1 active torsions:
REMARK  status: ('A' for Active; 'I' for Inactive)
REMARK    1  A    between atoms: N_2  and  C1_3 
ROOT
ATOM      1  C1  UNL d   1       0.369  -0.200   0.077  0.00  0.00     0.143 A 
ATOM      2  C2  UNL d   1      -0.162   1.089  -0.034  0.00  0.00    -0.057 A 
ATOM      3  C3  UNL d   1      -1.050   1.594   0.925  0.00  0.00     0.033 A 
ATOM      4  C4  UNL d   1      -1.445   0.804   1.999  0.00  0.00    -0.042 A 
ATOM      5  C5  UNL d   1      -0.950  -0.489   2.116  0.00  0.00     0.033 A 
ATOM      6  C6  UNL d   1      -0.059  -0.985   1.159  0.00  0.00    -0.057 A 
ENDROOT
BRANCH   1   7
ATOM      7  N   UNL d   1       1.178  -0.794  -0.894  0.00  0.00    -0.732 N 
ATOM      8  C   UNL d   1       0.776  -2.028  -1.535  0.00  0.00     0.284 C 
ATOM      9  H3  UNL d   1       1.589  -0.112  -1.528  0.00  0.00     0.395 HD
ENDBRANCH   1   7
TORSDOF 1
ENDMDL
