MODEL 1
REMARK minimizedAffinity -2.05122709
REMARK minimizedRMSD -1
REMARK  1 active torsions:
REMARK  status: ('A' for Active; 'I' for Inactive)
REMARK    1  A    between atoms: N_2  and  C1_3 
ROOT
ATOM      1  C1  UNL d   1      -0.679   0.701   1.081  0.00  0.00     0.143 A 
ATOM      2  C2  UNL d   1      -0.024  -0.459   1.509  0.00  0.00    -0.057 A 
ATOM      3  C3  UNL d   1       0.708  -1.251   0.615  0.00  0.00     0.033 A 
ATOM      4  C4  UNL d   1       0.774  -0.910  -0.732  0.00  0.00    -0.042 A 
ATOM      5  C5  UNL d   1       0.110   0.224  -1.184  0.00  0.00     0.033 A 
ATOM      6  C6  UNL d   1      -0.614   1.015  -0.286  0.00  0.00    -0.057 A 
ENDROOT
BRANCH   1   7
ATOM      7  N   UNL d   1      -1.503   1.476   1.901  0.00  0.00    -0.732 N 
ATOM      8  C   UNL d   1      -2.694   2.101   1.368  0.00  0.00     0.284 C 
ATOM      9  H3  UNL d   1      -1.626   1.068   2.825  0.00  0.00     0.395 HD
ENDBRANCH   1   7
TORSDOF 1
ENDMDL
