MODEL 1
REMARK minimizedAffinity -5.19475985
REMARK minimizedRMSD -1
REMARK  1 active torsions:
REMARK  status: ('A' for Active; 'I' for Inactive)
REMARK    1  A    between atoms: N_2  and  C1_3 
ROOT
ATOM      1  C1  UNL d   1       0.572  -0.011  -0.172  0.00  0.00     0.143 A 
ATOM      2  C2  UNL d   1       0.118   1.163  -0.782  0.00  0.00    -0.057 A 
ATOM      3  C3  UNL d   1      -0.800   2.006  -0.142  0.00  0.00     0.033 A 
ATOM      4  C4  UNL d   1      -1.302   1.673   1.112  0.00  0.00    -0.042 A 
ATOM      5  C5  UNL d   1      -0.883   0.498   1.726  0.00  0.00     0.033 A 
ATOM      6  C6  UNL d   1       0.038  -0.336   1.085  0.00  0.00    -0.057 A 
ENDROOT
BRANCH   1   7
ATOM      7  N   UNL d   1       1.408  -0.939  -0.797  0.00  0.00    -0.732 N 
ATOM      8  C   UNL d   1       0.886  -1.840  -1.803  0.00  0.00     0.284 C 
ATOM      9  H3  UNL d   1       2.322  -0.551  -1.020  0.00  0.00     0.395 HD
ENDBRANCH   1   7
TORSDOF 1
ENDMDL
