MODEL 1
REMARK minimizedAffinity -5.48053312
REMARK minimizedRMSD -1
REMARK  1 active torsions:
REMARK  status: ('A' for Active; 'I' for Inactive)
REMARK    1  A    between atoms: N_2  and  C1_3 
ROOT
ATOM      1  C1  UNL d   1      -0.014   0.572   0.060  0.00  0.00     0.143 A 
ATOM      2  C2  UNL d   1      -0.793   1.636  -0.407  0.00  0.00    -0.057 A 
ATOM      3  C3  UNL d   1      -1.836   2.165   0.363  0.00  0.00     0.033 A 
ATOM      4  C4  UNL d   1      -2.136   1.620   1.607  0.00  0.00    -0.042 A 
ATOM      5  C5  UNL d   1      -1.390   0.546   2.081  0.00  0.00     0.033 A 
ATOM      6  C6  UNL d   1      -0.346   0.026   1.309  0.00  0.00    -0.057 A 
ENDROOT
BRANCH   1   7
ATOM      7  N   UNL d   1       0.972  -0.062  -0.700  0.00  0.00    -0.732 N 
ATOM      8  C   UNL d   1       0.731  -1.366  -1.279  0.00  0.00     0.284 C 
ATOM      9  H3  UNL d   1       1.462   0.582  -1.317  0.00  0.00     0.395 HD
ENDBRANCH   1   7
TORSDOF 1
ENDMDL
