MODEL 1
REMARK minimizedAffinity -3.0628984
REMARK minimizedRMSD -1
REMARK  1 active torsions:
REMARK  status: ('A' for Active; 'I' for Inactive)
REMARK    1  A    between atoms: N_2  and  C1_3 
ROOT
ATOM      1  C1  UNL d   1      -1.143   1.120   0.396  0.00  0.00     0.143 A 
ATOM      2  C2  UNL d   1      -0.279   1.547  -0.618  0.00  0.00    -0.057 A 
ATOM      3  C3  UNL d   1       0.881   0.829  -0.934  0.00  0.00     0.033 A 
ATOM      4  C4  UNL d   1       1.213  -0.317  -0.220  0.00  0.00    -0.042 A 
ATOM      5  C5  UNL d   1       0.382  -0.747   0.809  0.00  0.00     0.033 A 
ATOM      6  C6  UNL d   1      -0.778  -0.029   1.115  0.00  0.00    -0.057 A 
ENDROOT
BRANCH   1   7
ATOM      7  N   UNL d   1      -2.259   1.844   0.823  0.00  0.00    -0.732 N 
ATOM      8  C   UNL d   1      -2.207   2.629   2.037  0.00  0.00     0.284 C 
ATOM      9  H3  UNL d   1      -2.744   2.299   0.054  0.00  0.00     0.395 HD
ENDBRANCH   1   7
TORSDOF 1
ENDMDL
