MODEL 1
REMARK minimizedAffinity -4.02752972
REMARK minimizedRMSD -1
REMARK  1 active torsions:
REMARK  status: ('A' for Active; 'I' for Inactive)
REMARK    1  A    between atoms: N_2  and  C1_3 
ROOT
ATOM      1  C1  UNL d   1      -0.916   1.037   0.014  0.00  0.00     0.143 A 
ATOM      2  C2  UNL d   1      -0.087   0.825  -1.092  0.00  0.00    -0.057 A 
ATOM      3  C3  UNL d   1       0.759  -0.288  -1.162  0.00  0.00     0.033 A 
ATOM      4  C4  UNL d   1       0.812  -1.197  -0.111  0.00  0.00    -0.042 A 
ATOM      5  C5  UNL d   1       0.014  -0.993   1.010  0.00  0.00     0.033 A 
ATOM      6  C6  UNL d   1      -0.833   0.117   1.071  0.00  0.00    -0.057 A 
ENDROOT
BRANCH   1   7
ATOM      7  N   UNL d   1      -1.706   2.177   0.187  0.00  0.00    -0.732 N 
ATOM      8  C   UNL d   1      -2.161   2.565   1.505  0.00  0.00     0.284 C 
ATOM      9  H3  UNL d   1      -1.399   2.954  -0.392  0.00  0.00     0.395 HD
ENDBRANCH   1   7
TORSDOF 1
ENDMDL
