MODEL 1
REMARK minimizedAffinity -0.425113738
REMARK minimizedRMSD -1
REMARK  0 active torsions:
REMARK  status: ('A' for Active; 'I' for Inactive)
ROOT
ATOM      1  C   UNL d   1      -1.987  -0.284   0.999  0.00  0.00     0.172 C 
ATOM      2  N   UNL d   1      -1.441   0.688   0.081  0.00  0.00    -0.070 N 
ATOM      3  C1  UNL d   1      -2.060   1.840  -0.323  0.00  0.00    -0.004 A 
ATOM      4  C2  UNL d   1      -1.214   2.490  -1.196  0.00  0.00    -0.047 A 
ATOM      5  C3  UNL d   1      -0.046   1.701  -1.320  0.00  0.00    -0.047 A 
ATOM      6  C4  UNL d   1      -0.213   0.591  -0.519  0.00  0.00    -0.004 A 
ENDROOT
TORSDOF 0
ENDMDL
