MODEL 1
REMARK minimizedAffinity 1.79687166
REMARK minimizedRMSD -1
REMARK  0 active torsions:
REMARK  status: ('A' for Active; 'I' for Inactive)
ROOT
ATOM      1  C   UNL d   1       1.243   4.361  -0.776  0.00  0.00     0.172 C 
ATOM      2  N   UNL d   1       0.170   3.398  -0.695  0.00  0.00    -0.070 N 
ATOM      3  C1  UNL d   1       0.318   2.037  -0.684  0.00  0.00    -0.004 A 
ATOM      4  C2  UNL d   1      -0.938   1.476  -0.597  0.00  0.00    -0.047 A 
ATOM      5  C3  UNL d   1      -1.873   2.537  -0.557  0.00  0.00    -0.047 A 
ATOM      6  C4  UNL d   1      -1.160   3.716  -0.619  0.00  0.00    -0.004 A 
ENDROOT
TORSDOF 0
ENDMDL
