MODEL 1
REMARK minimizedAffinity -1.91300333
REMARK minimizedRMSD -1
REMARK  0 active torsions:
REMARK  status: ('A' for Active; 'I' for Inactive)
ROOT
ATOM      1  C   UNL d   1      -2.631  -0.362   1.699  0.00  0.00     0.172 C 
ATOM      2  N   UNL d   1      -2.027   0.726   0.967  0.00  0.00    -0.070 N 
ATOM      3  C1  UNL d   1      -2.702   1.674   0.245  0.00  0.00    -0.004 A 
ATOM      4  C2  UNL d   1      -1.771   2.532  -0.300  0.00  0.00    -0.047 A 
ATOM      5  C3  UNL d   1      -0.492   2.084   0.109  0.00  0.00    -0.047 A 
ATOM      6  C4  UNL d   1      -0.681   0.964   0.892  0.00  0.00    -0.004 A 
ENDROOT
TORSDOF 0
ENDMDL
