MODEL 1
REMARK minimizedAffinity -3.07595229
REMARK minimizedRMSD -1
REMARK  0 active torsions:
REMARK  status: ('A' for Active; 'I' for Inactive)
ROOT
ATOM      1  C   UNL d   1      -3.954   1.822   0.249  0.00  0.00     0.172 C 
ATOM      2  N   UNL d   1      -2.519   1.659   0.268  0.00  0.00    -0.070 N 
ATOM      3  C1  UNL d   1      -1.820   0.846   1.120  0.00  0.00    -0.004 A 
ATOM      4  C2  UNL d   1      -0.481   0.972   0.818  0.00  0.00    -0.047 A 
ATOM      5  C3  UNL d   1      -0.372   1.893  -0.251  0.00  0.00    -0.047 A 
ATOM      6  C4  UNL d   1      -1.649   2.302  -0.572  0.00  0.00    -0.004 A 
ENDROOT
TORSDOF 0
ENDMDL
