MODEL 1
REMARK minimizedAffinity -2.97388983
REMARK minimizedRMSD -1
REMARK  0 active torsions:
REMARK  status: ('A' for Active; 'I' for Inactive)
ROOT
ATOM      1  C   UNL d   1       1.163   1.612   0.697  0.00  0.00     0.172 C 
ATOM      2  N   UNL d   1      -0.219   1.206   0.593  0.00  0.00    -0.070 N 
ATOM      3  C1  UNL d   1      -0.700  -0.056   0.814  0.00  0.00    -0.004 A 
ATOM      4  C2  UNL d   1      -2.063  -0.030   0.613  0.00  0.00    -0.047 A 
ATOM      5  C3  UNL d   1      -2.414   1.294   0.258  0.00  0.00    -0.047 A 
ATOM      6  C4  UNL d   1      -1.253   2.038   0.253  0.00  0.00    -0.004 A 
ENDROOT
TORSDOF 0
ENDMDL
