MODEL 1
REMARK minimizedAffinity 2.8276639
REMARK minimizedRMSD -1
REMARK  0 active torsions:
REMARK  status: ('A' for Active; 'I' for Inactive)
ROOT
ATOM      1  C   UNL d   1      -2.458   1.054  -0.827  0.00  0.00     0.172 C 
ATOM      2  N   UNL d   1      -1.402   1.035   0.157  0.00  0.00    -0.070 N 
ATOM      3  C1  UNL d   1      -0.189   1.659   0.038  0.00  0.00    -0.004 A 
ATOM      4  C2  UNL d   1       0.533   1.402   1.184  0.00  0.00    -0.047 A 
ATOM      5  C3  UNL d   1      -0.275   0.595   2.020  0.00  0.00    -0.047 A 
ATOM      6  C4  UNL d   1      -1.467   0.383   1.360  0.00  0.00    -0.004 A 
ENDROOT
TORSDOF 0
ENDMDL
