MODEL 1
REMARK minimizedAffinity 0.657607257
REMARK minimizedRMSD -1
REMARK  0 active torsions:
REMARK  status: ('A' for Active; 'I' for Inactive)
ROOT
ATOM      1  C   UNL d   1      -2.748   2.533  -0.714  0.00  0.00     0.172 C 
ATOM      2  N   UNL d   1      -1.778   1.733  -0.004  0.00  0.00    -0.070 N 
ATOM      3  C1  UNL d   1      -1.977   0.458   0.455  0.00  0.00    -0.004 A 
ATOM      4  C2  UNL d   1      -0.816   0.047   1.074  0.00  0.00    -0.047 A 
ATOM      5  C3  UNL d   1       0.112   1.111   0.984  0.00  0.00    -0.047 A 
ATOM      6  C4  UNL d   1      -0.509   2.142   0.311  0.00  0.00    -0.004 A 
ENDROOT
TORSDOF 0
ENDMDL
