MODEL 1
REMARK minimizedAffinity -1.98352444
REMARK minimizedRMSD -1
REMARK  0 active torsions:
REMARK  status: ('A' for Active; 'I' for Inactive)
ROOT
ATOM      1  C   UNL d   1      -0.313   2.122   0.060  0.00  0.00     0.172 C 
ATOM      2  N   UNL d   1       1.063   1.769   0.320  0.00  0.00    -0.070 N 
ATOM      3  C1  UNL d   1       2.094   1.864  -0.576  0.00  0.00    -0.004 A 
ATOM      4  C2  UNL d   1       3.242   1.434   0.055  0.00  0.00    -0.047 A 
ATOM      5  C3  UNL d   1       2.887   1.067   1.375  0.00  0.00    -0.047 A 
ATOM      6  C4  UNL d   1       1.533   1.285   1.512  0.00  0.00    -0.004 A 
ENDROOT
TORSDOF 0
ENDMDL
