MODEL 1
REMARK minimizedAffinity 1.20288205
REMARK minimizedRMSD -1
REMARK  0 active torsions:
REMARK  status: ('A' for Active; 'I' for Inactive)
ROOT
ATOM      1  C   UNL d   1      -0.539   2.058   0.636  0.00  0.00     0.172 C 
ATOM      2  N   UNL d   1      -1.881   1.526   0.631  0.00  0.00    -0.070 N 
ATOM      3  C1  UNL d   1      -2.284   0.369   1.242  0.00  0.00    -0.004 A 
ATOM      4  C2  UNL d   1      -3.633   0.213   1.004  0.00  0.00    -0.047 A 
ATOM      5  C3  UNL d   1      -4.055   1.314   0.222  0.00  0.00    -0.047 A 
ATOM      6  C4  UNL d   1      -2.951   2.111   0.006  0.00  0.00    -0.004 A 
ENDROOT
TORSDOF 0
ENDMDL
