MODEL 1
REMARK minimizedAffinity 0.151870728
REMARK minimizedRMSD -1
REMARK  0 active torsions:
REMARK  status: ('A' for Active; 'I' for Inactive)
ROOT
ATOM      1  C   UNL d   1      -0.146   1.930   0.853  0.00  0.00     0.172 C 
ATOM      2  N   UNL d   1      -1.565   1.720   0.682  0.00  0.00    -0.070 N 
ATOM      3  C1  UNL d   1      -2.412   2.530  -0.026  0.00  0.00    -0.004 A 
ATOM      4  C2  UNL d   1      -3.676   1.987   0.050  0.00  0.00    -0.047 A 
ATOM      5  C3  UNL d   1      -3.586   0.811   0.832  0.00  0.00    -0.047 A 
ATOM      6  C4  UNL d   1      -2.268   0.669   1.210  0.00  0.00    -0.004 A 
ENDROOT
TORSDOF 0
ENDMDL
