MODEL 1
REMARK minimizedAffinity 0.0782602653
REMARK minimizedRMSD -1
REMARK  0 active torsions:
REMARK  status: ('A' for Active; 'I' for Inactive)
ROOT
ATOM      1  C   UNL d   1      -0.764  -0.475   2.619  0.00  0.00     0.172 C 
ATOM      2  N   UNL d   1      -0.695   0.359   1.442  0.00  0.00    -0.070 N 
ATOM      3  C1  UNL d   1      -1.768   0.874   0.764  0.00  0.00    -0.004 A 
ATOM      4  C2  UNL d   1      -1.284   1.612  -0.294  0.00  0.00    -0.047 A 
ATOM      5  C3  UNL d   1       0.129   1.537  -0.252  0.00  0.00    -0.047 A 
ATOM      6  C4  UNL d   1       0.466   0.755   0.833  0.00  0.00    -0.004 A 
ENDROOT
TORSDOF 0
ENDMDL
