MODEL 1
REMARK minimizedAffinity -1.2267431
REMARK minimizedRMSD -1
REMARK  0 active torsions:
REMARK  status: ('A' for Active; 'I' for Inactive)
ROOT
ATOM      1  C   UNL d   1      -1.892  -1.018   1.546  0.00  0.00     0.172 C 
ATOM      2  N   UNL d   1      -1.397   0.178   0.906  0.00  0.00    -0.070 N 
ATOM      3  C1  UNL d   1      -0.087   0.574   0.858  0.00  0.00    -0.004 A 
ATOM      4  C2  UNL d   1      -0.030   1.761   0.160  0.00  0.00    -0.047 A 
ATOM      5  C3  UNL d   1      -1.351   2.091  -0.223  0.00  0.00    -0.047 A 
ATOM      6  C4  UNL d   1      -2.178   1.094   0.252  0.00  0.00    -0.004 A 
ENDROOT
TORSDOF 0
ENDMDL
