MODEL 1
REMARK minimizedAffinity -0.475243002
REMARK minimizedRMSD -1
REMARK  0 active torsions:
REMARK  status: ('A' for Active; 'I' for Inactive)
ROOT
ATOM      1  C   UNL d   1       1.025   1.595   0.757  0.00  0.00     0.172 C 
ATOM      2  N   UNL d   1      -0.395   1.332   0.713  0.00  0.00    -0.070 N 
ATOM      3  C1  UNL d   1      -1.030   0.277   1.311  0.00  0.00    -0.004 A 
ATOM      4  C2  UNL d   1      -2.376   0.384   1.036  0.00  0.00    -0.047 A 
ATOM      5  C3  UNL d   1      -2.556   1.543   0.244  0.00  0.00    -0.047 A 
ATOM      6  C4  UNL d   1      -1.313   2.111   0.059  0.00  0.00    -0.004 A 
ENDROOT
TORSDOF 0
ENDMDL
