MODEL 1
REMARK minimizedAffinity 3.28817272
REMARK minimizedRMSD -1
REMARK  0 active torsions:
REMARK  status: ('A' for Active; 'I' for Inactive)
ROOT
ATOM      1  C   UNL d   1      -3.076   2.239  -0.066  0.00  0.00     0.172 C 
ATOM      2  N   UNL d   1      -1.659   2.243   0.215  0.00  0.00    -0.070 N 
ATOM      3  C1  UNL d   1      -1.082   1.916   1.412  0.00  0.00    -0.004 A 
ATOM      4  C2  UNL d   1       0.283   2.043   1.272  0.00  0.00    -0.047 A 
ATOM      5  C3  UNL d   1       0.535   2.463  -0.057  0.00  0.00    -0.047 A 
ATOM      6  C4  UNL d   1      -0.685   2.578  -0.689  0.00  0.00    -0.004 A 
ENDROOT
TORSDOF 0
ENDMDL
