MODEL 1
REMARK minimizedAffinity 1.83433115
REMARK minimizedRMSD -1
REMARK  0 active torsions:
REMARK  status: ('A' for Active; 'I' for Inactive)
ROOT
ATOM      1  C   UNL d   1       2.639   2.422   2.127  0.00  0.00     0.172 C 
ATOM      2  N   UNL d   1       1.411   2.097   1.441  0.00  0.00    -0.070 N 
ATOM      3  C1  UNL d   1       1.286   1.211   0.404  0.00  0.00    -0.004 A 
ATOM      4  C2  UNL d   1      -0.040   1.183   0.030  0.00  0.00    -0.047 A 
ATOM      5  C3  UNL d   1      -0.736   2.084   0.870  0.00  0.00    -0.047 A 
ATOM      6  C4  UNL d   1       0.186   2.636   1.734  0.00  0.00    -0.004 A 
ENDROOT
TORSDOF 0
ENDMDL
