MODEL 1
REMARK minimizedAffinity 1.6309855
REMARK minimizedRMSD -1
REMARK  0 active torsions:
REMARK  status: ('A' for Active; 'I' for Inactive)
ROOT
ATOM      1  C   UNL d   1      -1.020   2.702   2.295  0.00  0.00     0.172 C 
ATOM      2  N   UNL d   1       0.131   2.187   1.591  0.00  0.00    -0.070 N 
ATOM      3  C1  UNL d   1       1.438   2.470   1.884  0.00  0.00    -0.004 A 
ATOM      4  C2  UNL d   1       2.229   1.787   0.986  0.00  0.00    -0.047 A 
ATOM      5  C3  UNL d   1       1.368   1.069   0.122  0.00  0.00    -0.047 A 
ATOM      6  C4  UNL d   1       0.074   1.335   0.520  0.00  0.00    -0.004 A 
ENDROOT
TORSDOF 0
ENDMDL
