MODEL 1
REMARK minimizedAffinity -0.141143069
REMARK minimizedRMSD -1
REMARK  0 active torsions:
REMARK  status: ('A' for Active; 'I' for Inactive)
ROOT
ATOM      1  C   UNL d   1      -1.034  -6.000  -3.750  0.00  0.00     0.172 C 
ATOM      2  N   UNL d   1      -2.119  -5.376  -3.030  0.00  0.00    -0.070 N 
ATOM      3  C1  UNL d   1      -3.271  -5.997  -2.627  0.00  0.00    -0.004 A 
ATOM      4  C2  UNL d   1      -4.047  -5.065  -1.973  0.00  0.00    -0.047 A 
ATOM      5  C3  UNL d   1      -3.337  -3.840  -1.985  0.00  0.00    -0.047 A 
ATOM      6  C4  UNL d   1      -2.147  -4.062  -2.645  0.00  0.00    -0.004 A 
ENDROOT
TORSDOF 0
ENDMDL
