MODEL 1
REMARK minimizedAffinity -3.34855604
REMARK minimizedRMSD -1
REMARK  1 active torsions:
REMARK  status: ('A' for Active; 'I' for Inactive)
REMARK    1  A    between atoms: C1_2  and  C2_3 
ROOT
ATOM      1  C2  UNL d   1      -0.050   0.119  -0.405  0.00  0.00    -0.077 A 
ATOM      2  C3  UNL d   1      -1.370   0.395  -0.023  0.00  0.00     0.002 A 
ATOM      3  C4  UNL d   1      -1.699   0.544   1.325  0.00  0.00     0.002 A 
ATOM      4  C5  UNL d   1      -0.713   0.422   2.302  0.00  0.00    -0.004 A 
ATOM      5  C6  UNL d   1       0.602   0.146   1.933  0.00  0.00     0.002 A 
ATOM      6  C7  UNL d   1       0.933  -0.005   0.586  0.00  0.00     0.002 A 
ENDROOT
BRANCH   1   7
ATOM      7  C1  UNL d   1       0.316   0.006  -1.862  0.00  0.00     0.055 C 
ATOM      8  C   UNL d   1       0.316  -1.444  -2.323  0.00  0.00     0.019 C 
ENDBRANCH   1   7
TORSDOF 1
ENDMDL
