MODEL 1
REMARK minimizedAffinity -3.74495006
REMARK minimizedRMSD -1
REMARK  1 active torsions:
REMARK  status: ('A' for Active; 'I' for Inactive)
REMARK    1  A    between atoms: C1_2  and  C2_3 
ROOT
ATOM      1  C2  UNL d   1       0.602  -0.663  -0.713  0.00  0.00    -0.077 A 
ATOM      2  C3  UNL d   1       1.008  -1.526  -1.740  0.00  0.00     0.002 A 
ATOM      3  C4  UNL d   1       1.041  -1.082  -3.063  0.00  0.00     0.002 A 
ATOM      4  C5  UNL d   1       0.674   0.226  -3.371  0.00  0.00    -0.004 A 
ATOM      5  C6  UNL d   1       0.267   1.091  -2.356  0.00  0.00     0.002 A 
ATOM      6  C7  UNL d   1       0.232   0.649  -1.033  0.00  0.00     0.002 A 
ENDROOT
BRANCH   1   7
ATOM      7  C1  UNL d   1       0.613  -1.125   0.721  0.00  0.00     0.055 C 
ATOM      8  C   UNL d   1       0.764   0.048   1.679  0.00  0.00     0.019 C 
ENDBRANCH   1   7
TORSDOF 1
ENDMDL
