MODEL 1
REMARK minimizedAffinity -0.430158317
REMARK minimizedRMSD -1
REMARK  1 active torsions:
REMARK  status: ('A' for Active; 'I' for Inactive)
REMARK    1  A    between atoms: C1_2  and  C2_3 
ROOT
ATOM      1  C2  UNL d   1       0.741  -0.280  -0.868  0.00  0.00    -0.077 A 
ATOM      2  C3  UNL d   1       1.493  -1.252  -0.193  0.00  0.00     0.002 A 
ATOM      3  C4  UNL d   1       1.780  -1.106   1.166  0.00  0.00     0.002 A 
ATOM      4  C5  UNL d   1       1.315   0.008   1.861  0.00  0.00    -0.004 A 
ATOM      5  C6  UNL d   1       0.568   0.981   1.199  0.00  0.00     0.002 A 
ATOM      6  C7  UNL d   1       0.282   0.837  -0.159  0.00  0.00     0.002 A 
ENDROOT
BRANCH   1   7
ATOM      7  C1  UNL d   1       0.389  -0.461  -2.321  0.00  0.00     0.055 C 
ATOM      8  C   UNL d   1       1.608  -0.860  -3.141  0.00  0.00     0.019 C 
ENDBRANCH   1   7
TORSDOF 1
ENDMDL
