MODEL 1
REMARK minimizedAffinity -4.66982365
REMARK minimizedRMSD -1
REMARK  1 active torsions:
REMARK  status: ('A' for Active; 'I' for Inactive)
REMARK    1  A    between atoms: C1_2  and  C2_3 
ROOT
ATOM      1  C2  UNL d   1      -0.173  -0.221  -0.607  0.00  0.00    -0.077 A 
ATOM      2  C3  UNL d   1      -0.274   0.809  -1.552  0.00  0.00     0.002 A 
ATOM      3  C4  UNL d   1       0.148   0.605  -2.867  0.00  0.00     0.002 A 
ATOM      4  C5  UNL d   1       0.671  -0.629  -3.249  0.00  0.00    -0.004 A 
ATOM      5  C6  UNL d   1       0.778  -1.659  -2.316  0.00  0.00     0.002 A 
ATOM      6  C7  UNL d   1       0.357  -1.456  -1.001  0.00  0.00     0.002 A 
ENDROOT
BRANCH   1   7
ATOM      7  C1  UNL d   1      -0.673  -0.018   0.800  0.00  0.00     0.055 C 
ATOM      8  C   UNL d   1       0.463  -0.100   1.809  0.00  0.00     0.019 C 
ENDBRANCH   1   7
TORSDOF 1
ENDMDL
