MODEL 1
REMARK minimizedAffinity -2.28552389
REMARK minimizedRMSD -1
REMARK  1 active torsions:
REMARK  status: ('A' for Active; 'I' for Inactive)
REMARK    1  A    between atoms: C1_2  and  C2_3 
ROOT
ATOM      1  C2  UNL d   1       0.853  -0.257  -1.731  0.00  0.00    -0.077 A 
ATOM      2  C3  UNL d   1      -0.324   0.370  -1.302  0.00  0.00     0.002 A 
ATOM      3  C4  UNL d   1      -0.633   0.437   0.059  0.00  0.00     0.002 A 
ATOM      4  C5  UNL d   1       0.233  -0.118   0.999  0.00  0.00    -0.004 A 
ATOM      5  C6  UNL d   1       1.405  -0.746   0.581  0.00  0.00     0.002 A 
ATOM      6  C7  UNL d   1       1.715  -0.815  -0.778  0.00  0.00     0.002 A 
ENDROOT
BRANCH   1   7
ATOM      7  C1  UNL d   1       1.212  -0.287  -3.194  0.00  0.00     0.055 C 
ATOM      8  C   UNL d   1       0.584  -1.483  -3.894  0.00  0.00     0.019 C 
ENDBRANCH   1   7
TORSDOF 1
ENDMDL
