MODEL 1
REMARK minimizedAffinity -0.883141935
REMARK minimizedRMSD -1
REMARK  1 active torsions:
REMARK  status: ('A' for Active; 'I' for Inactive)
REMARK    1  A    between atoms: C1_2  and  C2_3 
ROOT
ATOM      1  C2  UNL d   1      -0.065   0.116   0.963  0.00  0.00    -0.077 A 
ATOM      2  C3  UNL d   1       0.503   0.197   2.242  0.00  0.00     0.002 A 
ATOM      3  C4  UNL d   1      -0.288   0.513   3.348  0.00  0.00     0.002 A 
ATOM      4  C5  UNL d   1      -1.652   0.746   3.187  0.00  0.00    -0.004 A 
ATOM      5  C6  UNL d   1      -2.226   0.670   1.918  0.00  0.00     0.002 A 
ATOM      6  C7  UNL d   1      -1.437   0.356   0.812  0.00  0.00     0.002 A 
ENDROOT
BRANCH   1   7
ATOM      7  C1  UNL d   1       0.778  -0.273  -0.223  0.00  0.00     0.055 C 
ATOM      8  C   UNL d   1       0.210   0.296  -1.516  0.00  0.00     0.019 C 
ENDBRANCH   1   7
TORSDOF 1
ENDMDL
