MODEL 1
REMARK minimizedAffinity -1.61713171
REMARK minimizedRMSD -1
REMARK  1 active torsions:
REMARK  status: ('A' for Active; 'I' for Inactive)
REMARK    1  A    between atoms: C1_2  and  C2_3 
ROOT
ATOM      1  C2  UNL d   1       0.521  -0.395  -0.457  0.00  0.00    -0.077 A 
ATOM      2  C3  UNL d   1       1.282  -1.219   0.383  0.00  0.00     0.002 A 
ATOM      3  C4  UNL d   1       1.478  -0.876   1.722  0.00  0.00     0.002 A 
ATOM      4  C5  UNL d   1       0.913   0.290   2.233  0.00  0.00    -0.004 A 
ATOM      5  C6  UNL d   1       0.155   1.118   1.406  0.00  0.00     0.002 A 
ATOM      6  C7  UNL d   1      -0.041   0.777   0.067  0.00  0.00     0.002 A 
ENDROOT
BRANCH   1   7
ATOM      7  C1  UNL d   1       0.267  -0.789  -1.889  0.00  0.00     0.055 C 
ATOM      8  C   UNL d   1       1.383  -0.303  -2.802  0.00  0.00     0.019 C 
ENDBRANCH   1   7
TORSDOF 1
ENDMDL
