MODEL 1
REMARK minimizedAffinity -4.18667364
REMARK minimizedRMSD -1
REMARK  1 active torsions:
REMARK  status: ('A' for Active; 'I' for Inactive)
REMARK    1  A    between atoms: C1_2  and  C2_3 
ROOT
ATOM      1  C2  UNL d   1      -1.401   0.381   1.935  0.00  0.00    -0.077 A 
ATOM      2  C3  UNL d   1      -0.257   0.243   2.734  0.00  0.00     0.002 A 
ATOM      3  C4  UNL d   1       0.991   0.026   2.148  0.00  0.00     0.002 A 
ATOM      4  C5  UNL d   1       1.109  -0.049   0.762  0.00  0.00    -0.004 A 
ATOM      5  C6  UNL d   1      -0.023   0.086  -0.041  0.00  0.00     0.002 A 
ATOM      6  C7  UNL d   1      -1.272   0.301   0.543  0.00  0.00     0.002 A 
ENDROOT
BRANCH   1   7
ATOM      7  C1  UNL d   1      -2.741   0.664   2.562  0.00  0.00     0.055 C 
ATOM      8  C   UNL d   1      -3.773   1.051   1.513  0.00  0.00     0.019 C 
ENDBRANCH   1   7
TORSDOF 1
ENDMDL
