MODEL 1
REMARK minimizedAffinity -4.34461451
REMARK minimizedRMSD -1
REMARK  1 active torsions:
REMARK  status: ('A' for Active; 'I' for Inactive)
REMARK    1  A    between atoms: C1_2  and  C2_3 
ROOT
ATOM      1  C2  UNL d   1      -1.809   0.400   1.861  0.00  0.00    -0.077 A 
ATOM      2  C3  UNL d   1      -0.737   0.419   2.764  0.00  0.00     0.002 A 
ATOM      3  C4  UNL d   1       0.572   0.247   2.309  0.00  0.00     0.002 A 
ATOM      4  C5  UNL d   1       0.821   0.058   0.952  0.00  0.00    -0.004 A 
ATOM      5  C6  UNL d   1      -0.239   0.035   0.046  0.00  0.00     0.002 A 
ATOM      6  C7  UNL d   1      -1.548   0.206   0.499  0.00  0.00     0.002 A 
ENDROOT
BRANCH   1   7
ATOM      7  C1  UNL d   1      -3.217   0.635   2.343  0.00  0.00     0.055 C 
ATOM      8  C   UNL d   1      -3.513   2.121   2.484  0.00  0.00     0.019 C 
ENDBRANCH   1   7
TORSDOF 1
ENDMDL
