MODEL 1
REMARK minimizedAffinity -2.09540677
REMARK minimizedRMSD -1
REMARK  0 active torsions:
REMARK  status: ('A' for Active; 'I' for Inactive)
ROOT
ATOM      1  C   UNL d   1       0.986   1.957   2.409  0.00  0.00     0.023 A 
ATOM      2  C1  UNL d   1       1.885   2.133   3.461  0.00  0.00     0.003 A 
ATOM      3  C2  UNL d   1       2.681   1.068   3.887  0.00  0.00     0.048 A 
ATOM      4  C3  UNL d   1       2.574  -0.170   3.256  0.00  0.00     0.023 A 
ATOM      5  C4  UNL d   1       1.677  -0.352   2.203  0.00  0.00     0.048 A 
ATOM      6  C5  UNL d   1       0.882   0.716   1.781  0.00  0.00     0.003 A 
ATOM      7  I   UNL d   1       3.758  -1.757   3.889  0.00  0.00    -0.146 I 
ENDROOT
TORSDOF 0
ENDMDL
