MODEL 1
REMARK minimizedAffinity 2.03788352
REMARK minimizedRMSD -1
REMARK  0 active torsions:
REMARK  status: ('A' for Active; 'I' for Inactive)
ROOT
ATOM      1  C   UNL d   1       0.562   4.844  -2.285  0.00  0.00     0.023 A 
ATOM      2  C1  UNL d   1       1.058   5.388  -1.100  0.00  0.00     0.003 A 
ATOM      3  C2  UNL d   1       1.053   4.631   0.073  0.00  0.00     0.048 A 
ATOM      4  C3  UNL d   1       0.552   3.330   0.054  0.00  0.00     0.023 A 
ATOM      5  C4  UNL d   1       0.056   2.781  -1.129  0.00  0.00     0.048 A 
ATOM      6  C5  UNL d   1       0.062   3.542  -2.300  0.00  0.00     0.003 A 
ATOM      7  I   UNL d   1       0.543   2.201   1.799  0.00  0.00    -0.146 I 
ENDROOT
TORSDOF 0
ENDMDL
