MODEL 1
REMARK minimizedAffinity 2.62401175
REMARK minimizedRMSD -1
REMARK  0 active torsions:
REMARK  status: ('A' for Active; 'I' for Inactive)
ROOT
ATOM      1  C   UNL d   1       0.273   0.551   1.492  0.00  0.00     0.023 A 
ATOM      2  C1  UNL d   1       0.378   0.596   0.102  0.00  0.00     0.003 A 
ATOM      3  C2  UNL d   1       0.440   1.827  -0.555  0.00  0.00     0.048 A 
ATOM      4  C3  UNL d   1       0.399   3.008   0.184  0.00  0.00     0.023 A 
ATOM      5  C4  UNL d   1       0.296   2.968   1.575  0.00  0.00     0.048 A 
ATOM      6  C5  UNL d   1       0.233   1.736   2.228  0.00  0.00     0.003 A 
ATOM      7  I   UNL d   1       0.492   4.841  -0.792  0.00  0.00    -0.146 I 
ENDROOT
TORSDOF 0
ENDMDL
