MODEL 1
REMARK minimizedAffinity -2.45774174
REMARK minimizedRMSD -1
REMARK  0 active torsions:
REMARK  status: ('A' for Active; 'I' for Inactive)
ROOT
ATOM      1  C   UNL d   1      -0.988   5.237  -2.578  0.00  0.00     0.023 A 
ATOM      2  C1  UNL d   1       0.111   5.060  -1.737  0.00  0.00     0.003 A 
ATOM      3  C2  UNL d   1       0.344   3.818  -1.142  0.00  0.00     0.048 A 
ATOM      4  C3  UNL d   1      -0.525   2.757  -1.394  0.00  0.00     0.023 A 
ATOM      5  C4  UNL d   1      -1.625   2.929  -2.235  0.00  0.00     0.048 A 
ATOM      6  C5  UNL d   1      -1.855   4.173  -2.827  0.00  0.00     0.003 A 
ATOM      7  I   UNL d   1      -0.180   0.908  -0.510  0.00  0.00    -0.146 I 
ENDROOT
TORSDOF 0
ENDMDL
