MODEL 1
REMARK minimizedAffinity 4.32982826
REMARK minimizedRMSD -1
REMARK  0 active torsions:
REMARK  status: ('A' for Active; 'I' for Inactive)
ROOT
ATOM      1  C   UNL d   1       0.579   5.274  -0.946  0.00  0.00     0.023 A 
ATOM      2  C1  UNL d   1       0.307   4.194  -1.785  0.00  0.00     0.003 A 
ATOM      3  C2  UNL d   1       0.329   2.892  -1.280  0.00  0.00     0.048 A 
ATOM      4  C3  UNL d   1       0.622   2.678   0.067  0.00  0.00     0.023 A 
ATOM      5  C4  UNL d   1       0.894   3.757   0.911  0.00  0.00     0.048 A 
ATOM      6  C5  UNL d   1       0.872   5.056   0.400  0.00  0.00     0.003 A 
ATOM      7  I   UNL d   1       0.654   0.742   0.822  0.00  0.00    -0.146 I 
ENDROOT
TORSDOF 0
ENDMDL
