MODEL 1
REMARK minimizedAffinity -1.25926554
REMARK minimizedRMSD -1
REMARK  0 active torsions:
REMARK  status: ('A' for Active; 'I' for Inactive)
ROOT
ATOM      1  C   UNL d   1       0.462   0.583   1.677  0.00  0.00     0.023 A 
ATOM      2  C1  UNL d   1       0.422   1.862   2.233  0.00  0.00     0.003 A 
ATOM      3  C2  UNL d   1       0.408   2.986   1.404  0.00  0.00     0.048 A 
ATOM      4  C3  UNL d   1       0.434   2.824   0.019  0.00  0.00     0.023 A 
ATOM      5  C4  UNL d   1       0.474   1.546  -0.542  0.00  0.00     0.048 A 
ATOM      6  C5  UNL d   1       0.488   0.426   0.291  0.00  0.00     0.003 A 
ATOM      7  I   UNL d   1       0.415   4.494  -1.217  0.00  0.00    -0.146 I 
ENDROOT
TORSDOF 0
ENDMDL
