MODEL 1
REMARK minimizedAffinity -1.55345142
REMARK minimizedRMSD -1
REMARK  0 active torsions:
REMARK  status: ('A' for Active; 'I' for Inactive)
ROOT
ATOM      1  C   UNL d   1       0.706   4.700  -1.449  0.00  0.00     0.023 A 
ATOM      2  C1  UNL d   1       0.159   3.445  -1.718  0.00  0.00     0.003 A 
ATOM      3  C2  UNL d   1       0.139   2.463  -0.725  0.00  0.00     0.048 A 
ATOM      4  C3  UNL d   1       0.668   2.743   0.535  0.00  0.00     0.023 A 
ATOM      5  C4  UNL d   1       1.216   3.998   0.809  0.00  0.00     0.048 A 
ATOM      6  C5  UNL d   1       1.234   4.976  -0.188  0.00  0.00     0.003 A 
ATOM      7  I   UNL d   1       0.639   1.284   2.014  0.00  0.00    -0.146 I 
ENDROOT
TORSDOF 0
ENDMDL
