MODEL 1
REMARK minimizedAffinity -4.44909763
REMARK minimizedRMSD -1
REMARK  1 active torsions:
REMARK  status: ('A' for Active; 'I' for Inactive)
REMARK    1  A    between atoms: C3_4  and  O_7 
ROOT
ATOM      1  C   UNL d   1      -0.401  -0.288   2.903  0.00  0.00    -0.033 A 
ATOM      2  C1  UNL d   1       0.827   0.073   2.346  0.00  0.00     0.039 A 
ATOM      3  C2  UNL d   1       1.005   0.036   0.962  0.00  0.00    -0.080 A 
ATOM      4  C3  UNL d   1      -0.051  -0.363   0.147  0.00  0.00     0.150 A 
ATOM      5  C4  UNL d   1      -1.278  -0.721   0.695  0.00  0.00    -0.007 A 
ATOM      6  C5  UNL d   1      -1.454  -0.684   2.078  0.00  0.00     0.039 A 
ENDROOT
BRANCH   4   7
ATOM      7  O   UNL d   1       0.077  -0.420  -1.209  0.00  0.00    -0.526 OA
ATOM      8  H5  UNL d   1       0.987  -0.173  -1.443  0.00  0.00     0.418 HD
ENDBRANCH   4   7
TORSDOF 1
ENDMDL
