MODEL 1
REMARK minimizedAffinity -2.32001567
REMARK minimizedRMSD -1
REMARK  1 active torsions:
REMARK  status: ('A' for Active; 'I' for Inactive)
REMARK    1  A    between atoms: C3_4  and  O_7 
ROOT
ATOM      1  C   UNL d   1      -0.384  -0.426  -0.694  0.00  0.00    -0.033 A 
ATOM      2  C1  UNL d   1       0.842  -0.666  -0.068  0.00  0.00     0.039 A 
ATOM      3  C2  UNL d   1       0.922  -0.694   1.325  0.00  0.00    -0.080 A 
ATOM      4  C3  UNL d   1      -0.228  -0.483   2.081  0.00  0.00     0.150 A 
ATOM      5  C4  UNL d   1      -1.452  -0.248   1.464  0.00  0.00    -0.007 A 
ATOM      6  C5  UNL d   1      -1.531  -0.219   0.073  0.00  0.00     0.039 A 
ENDROOT
BRANCH   4   7
ATOM      7  O   UNL d   1      -0.198  -0.496   3.444  0.00  0.00    -0.526 OA
ATOM      8  H5  UNL d   1       0.720  -0.642   3.730  0.00  0.00     0.418 HD
ENDBRANCH   4   7
TORSDOF 1
ENDMDL
