MODEL 1
REMARK minimizedAffinity -3.64491487
REMARK minimizedRMSD -1
REMARK  1 active torsions:
REMARK  status: ('A' for Active; 'I' for Inactive)
REMARK    1  A    between atoms: C3_4  and  O_7 
ROOT
ATOM      1  C   UNL d   1       0.505   0.341  -0.599  0.00  0.00    -0.033 A 
ATOM      2  C1  UNL d   1      -0.809  -0.132  -0.584  0.00  0.00     0.039 A 
ATOM      3  C2  UNL d   1      -1.415  -0.475   0.627  0.00  0.00    -0.080 A 
ATOM      4  C3  UNL d   1      -0.697  -0.341   1.812  0.00  0.00     0.150 A 
ATOM      5  C4  UNL d   1       0.611   0.133   1.804  0.00  0.00    -0.007 A 
ATOM      6  C5  UNL d   1       1.214   0.474   0.595  0.00  0.00     0.039 A 
ENDROOT
BRANCH   4   7
ATOM      7  O   UNL d   1      -1.244  -0.668   3.017  0.00  0.00    -0.526 OA
ATOM      8  H5  UNL d   1      -2.142  -1.007   2.866  0.00  0.00     0.418 HD
ENDBRANCH   4   7
TORSDOF 1
ENDMDL
