MODEL 1
REMARK minimizedAffinity -2.40505767
REMARK minimizedRMSD -1
REMARK  1 active torsions:
REMARK  status: ('A' for Active; 'I' for Inactive)
REMARK    1  A    between atoms: C3_4  and  O_7 
ROOT
ATOM      1  C   UNL d   1       0.071   0.149   0.125  0.00  0.00    -0.033 A 
ATOM      2  C1  UNL d   1       0.421  -1.186   0.340  0.00  0.00     0.039 A 
ATOM      3  C2  UNL d   1       0.792  -1.994  -0.736  0.00  0.00    -0.080 A 
ATOM      4  C3  UNL d   1       0.811  -1.457  -2.020  0.00  0.00     0.150 A 
ATOM      5  C4  UNL d   1       0.468  -0.127  -2.241  0.00  0.00    -0.007 A 
ATOM      6  C5  UNL d   1       0.096   0.678  -1.165  0.00  0.00     0.039 A 
ENDROOT
BRANCH   4   7
ATOM      7  O   UNL d   1       1.163  -2.208  -3.102  0.00  0.00    -0.526 OA
ATOM      8  H5  UNL d   1       1.346  -3.114  -2.801  0.00  0.00     0.418 HD
ENDBRANCH   4   7
TORSDOF 1
ENDMDL
