MODEL 1
REMARK minimizedAffinity -2.61421657
REMARK minimizedRMSD -1
REMARK  1 active torsions:
REMARK  status: ('A' for Active; 'I' for Inactive)
REMARK    1  A    between atoms: C3_4  and  O_7 
ROOT
ATOM      1  C   UNL d   1       0.311  -0.468  -0.652  0.00  0.00    -0.033 A 
ATOM      2  C1  UNL d   1      -0.863   0.115  -0.172  0.00  0.00     0.039 A 
ATOM      3  C2  UNL d   1      -1.011   0.370   1.193  0.00  0.00    -0.080 A 
ATOM      4  C3  UNL d   1       0.023   0.039   2.065  0.00  0.00     0.150 A 
ATOM      5  C4  UNL d   1       1.196  -0.539   1.593  0.00  0.00    -0.007 A 
ATOM      6  C5  UNL d   1       1.341  -0.794   0.230  0.00  0.00     0.039 A 
ENDROOT
BRANCH   4   7
ATOM      7  O   UNL d   1      -0.077   0.264   3.406  0.00  0.00    -0.526 OA
ATOM      8  H5  UNL d   1      -0.954   0.641   3.590  0.00  0.00     0.418 HD
ENDBRANCH   4   7
TORSDOF 1
ENDMDL
