MODEL 1
REMARK minimizedAffinity -2.80281663
REMARK minimizedRMSD -1
REMARK  1 active torsions:
REMARK  status: ('A' for Active; 'I' for Inactive)
REMARK    1  A    between atoms: C3_4  and  O_7 
ROOT
ATOM      1  C   UNL d   1       1.072  -0.441   1.382  0.00  0.00    -0.033 A 
ATOM      2  C1  UNL d   1       0.088  -0.354   0.395  0.00  0.00     0.039 A 
ATOM      3  C2  UNL d   1      -1.233  -0.069   0.746  0.00  0.00    -0.080 A 
ATOM      4  C3  UNL d   1      -1.556   0.128   2.086  0.00  0.00     0.150 A 
ATOM      5  C4  UNL d   1      -0.581   0.047   3.074  0.00  0.00    -0.007 A 
ATOM      6  C5  UNL d   1       0.738  -0.239   2.722  0.00  0.00     0.039 A 
ENDROOT
BRANCH   4   7
ATOM      7  O   UNL d   1      -2.833   0.403   2.478  0.00  0.00    -0.526 OA
ATOM      8  H5  UNL d   1      -3.404   0.400   1.691  0.00  0.00     0.418 HD
ENDBRANCH   4   7
TORSDOF 1
ENDMDL
