MODEL 1
REMARK minimizedAffinity -4.3707428
REMARK minimizedRMSD -1
REMARK  1 active torsions:
REMARK  status: ('A' for Active; 'I' for Inactive)
REMARK    1  A    between atoms: C3_4  and  O_7 
ROOT
ATOM      1  C   UNL d   1      -0.490  -0.668  -0.699  0.00  0.00    -0.033 A 
ATOM      2  C1  UNL d   1       0.589   0.197  -0.506  0.00  0.00     0.039 A 
ATOM      3  C2  UNL d   1       0.995   0.531   0.787  0.00  0.00    -0.080 A 
ATOM      4  C3  UNL d   1       0.316  -0.007   1.877  0.00  0.00     0.150 A 
ATOM      5  C4  UNL d   1      -0.757  -0.872   1.692  0.00  0.00    -0.007 A 
ATOM      6  C5  UNL d   1      -1.162  -1.204   0.400  0.00  0.00     0.039 A 
ENDROOT
BRANCH   4   7
ATOM      7  O   UNL d   1       0.673   0.294   3.158  0.00  0.00    -0.526 OA
ATOM      8  H5  UNL d   1       1.411   0.925   3.132  0.00  0.00     0.418 HD
ENDBRANCH   4   7
TORSDOF 1
ENDMDL
