MODEL 1
REMARK minimizedAffinity -4.96599436
REMARK minimizedRMSD -1
REMARK  1 active torsions:
REMARK  status: ('A' for Active; 'I' for Inactive)
REMARK    1  A    between atoms: C3_4  and  O_7 
ROOT
ATOM      1  C   UNL d   1       0.497   0.512   0.108  0.00  0.00    -0.033 A 
ATOM      2  C1  UNL d   1      -0.487  -0.477   0.042  0.00  0.00     0.039 A 
ATOM      3  C2  UNL d   1      -1.008  -1.025   1.216  0.00  0.00    -0.080 A 
ATOM      4  C3  UNL d   1      -0.539  -0.575   2.447  0.00  0.00     0.150 A 
ATOM      5  C4  UNL d   1       0.438   0.412   2.520  0.00  0.00    -0.007 A 
ATOM      6  C5  UNL d   1       0.958   0.958   1.347  0.00  0.00     0.039 A 
ENDROOT
BRANCH   4   7
ATOM      7  O   UNL d   1      -1.014  -1.084   3.619  0.00  0.00    -0.526 OA
ATOM      8  H5  UNL d   1      -1.663  -1.777   3.413  0.00  0.00     0.418 HD
ENDBRANCH   4   7
TORSDOF 1
ENDMDL
