MODEL 1
REMARK minimizedAffinity -4.35012579
REMARK minimizedRMSD -1
REMARK  1 active torsions:
REMARK  status: ('A' for Active; 'I' for Inactive)
REMARK    1  A    between atoms: C3_4  and  O_7 
ROOT
ATOM      1  C   UNL d   1       0.311   0.449   0.099  0.00  0.00    -0.033 A 
ATOM      2  C1  UNL d   1       0.418   0.975  -1.190  0.00  0.00     0.039 A 
ATOM      3  C2  UNL d   1       0.711   0.135  -2.267  0.00  0.00    -0.080 A 
ATOM      4  C3  UNL d   1       0.894  -1.226  -2.041  0.00  0.00     0.150 A 
ATOM      5  C4  UNL d   1       0.785  -1.758  -0.761  0.00  0.00    -0.007 A 
ATOM      6  C5  UNL d   1       0.493  -0.918   0.313  0.00  0.00     0.039 A 
ENDROOT
BRANCH   4   7
ATOM      7  O   UNL d   1       1.186  -2.084  -3.060  0.00  0.00    -0.526 OA
ATOM      8  H5  UNL d   1       1.259  -1.572  -3.882  0.00  0.00     0.418 HD
ENDBRANCH   4   7
TORSDOF 1
ENDMDL
