MODEL 1
REMARK minimizedAffinity -3.63910103
REMARK minimizedRMSD -1
REMARK  1 active torsions:
REMARK  status: ('A' for Active; 'I' for Inactive)
REMARK    1  A    between atoms: C3_4  and  O_7 
ROOT
ATOM      1  C   UNL d   1       0.351  -0.819   2.135  0.00  0.00    -0.033 A 
ATOM      2  C1  UNL d   1      -0.221  -1.584   1.117  0.00  0.00     0.039 A 
ATOM      3  C2  UNL d   1      -0.249  -1.099  -0.192  0.00  0.00    -0.080 A 
ATOM      4  C3  UNL d   1       0.299   0.151  -0.469  0.00  0.00     0.150 A 
ATOM      5  C4  UNL d   1       0.874   0.917   0.540  0.00  0.00    -0.007 A 
ATOM      6  C5  UNL d   1       0.900   0.431   1.846  0.00  0.00     0.039 A 
ENDROOT
BRANCH   4   7
ATOM      7  O   UNL d   1       0.290   0.669  -1.730  0.00  0.00    -0.526 OA
ATOM      8  H5  UNL d   1      -0.165   0.042  -2.317  0.00  0.00     0.418 HD
ENDBRANCH   4   7
TORSDOF 1
ENDMDL
