MODEL 1
REMARK minimizedAffinity -4.27301359
REMARK minimizedRMSD -1
REMARK  1 active torsions:
REMARK  status: ('A' for Active; 'I' for Inactive)
REMARK    1  A    between atoms: C3_4  and  O_7 
ROOT
ATOM      1  C   UNL d   1       1.549   0.011   1.207  0.00  0.00    -0.033 A 
ATOM      2  C1  UNL d   1       0.959   0.284  -0.029  0.00  0.00     0.039 A 
ATOM      3  C2  UNL d   1      -0.419   0.491  -0.116  0.00  0.00    -0.080 A 
ATOM      4  C3  UNL d   1      -1.194   0.425   1.039  0.00  0.00     0.150 A 
ATOM      5  C4  UNL d   1      -0.612   0.158   2.274  0.00  0.00    -0.007 A 
ATOM      6  C5  UNL d   1       0.764  -0.050   2.358  0.00  0.00     0.039 A 
ENDROOT
BRANCH   4   7
ATOM      7  O   UNL d   1      -2.543   0.615   1.003  0.00  0.00    -0.526 OA
ATOM      8  H5  UNL d   1      -2.809   0.762   0.080  0.00  0.00     0.418 HD
ENDBRANCH   4   7
TORSDOF 1
ENDMDL
