MODEL 1
REMARK minimizedAffinity -3.60179186
REMARK minimizedRMSD -1
REMARK  1 active torsions:
REMARK  status: ('A' for Active; 'I' for Inactive)
REMARK    1  A    between atoms: C3_4  and  O_7 
ROOT
ATOM      1  C   UNL d   1       0.145   0.141   0.061  0.00  0.00    -0.033 A 
ATOM      2  C1  UNL d   1       0.158   0.772  -1.185  0.00  0.00     0.039 A 
ATOM      3  C2  UNL d   1       0.367   0.026  -2.346  0.00  0.00    -0.080 A 
ATOM      4  C3  UNL d   1       0.560  -1.350  -2.248  0.00  0.00     0.150 A 
ATOM      5  C4  UNL d   1       0.544  -1.986  -1.011  0.00  0.00    -0.007 A 
ATOM      6  C5  UNL d   1       0.336  -1.239   0.147  0.00  0.00     0.039 A 
ENDROOT
BRANCH   4   7
ATOM      7  O   UNL d   1       0.772  -2.120  -3.353  0.00  0.00    -0.526 OA
ATOM      8  H5  UNL d   1       0.786  -1.541  -4.134  0.00  0.00     0.418 HD
ENDBRANCH   4   7
TORSDOF 1
ENDMDL
