MODEL 1
REMARK minimizedAffinity -1.99994326
REMARK minimizedRMSD -1
REMARK  1 active torsions:
REMARK  status: ('A' for Active; 'I' for Inactive)
REMARK    1  A    between atoms: C3_4  and  O_7 
ROOT
ATOM      1  C   UNL d   1       0.065   0.047  -1.152  0.00  0.00    -0.033 A 
ATOM      2  C1  UNL d   1       0.419   1.254  -0.545  0.00  0.00     0.039 A 
ATOM      3  C2  UNL d   1       0.649   1.304   0.831  0.00  0.00    -0.080 A 
ATOM      4  C3  UNL d   1       0.523   0.142   1.588  0.00  0.00     0.150 A 
ATOM      5  C4  UNL d   1       0.174  -1.064   0.989  0.00  0.00    -0.007 A 
ATOM      6  C5  UNL d   1      -0.056  -1.112  -0.385  0.00  0.00     0.039 A 
ENDROOT
BRANCH   4   7
ATOM      7  O   UNL d   1       0.733   0.142   2.935  0.00  0.00    -0.526 OA
ATOM      8  H5  UNL d   1       0.939   1.050   3.214  0.00  0.00     0.418 HD
ENDBRANCH   4   7
TORSDOF 1
ENDMDL
