MODEL 1
REMARK minimizedAffinity -2.22509432
REMARK minimizedRMSD -1
REMARK  1 active torsions:
REMARK  status: ('A' for Active; 'I' for Inactive)
REMARK    1  A    between atoms: C3_4  and  O_7 
ROOT
ATOM      1  C   UNL d   1       0.364   0.050  -0.065  0.00  0.00    -0.033 A 
ATOM      2  C1  UNL d   1       0.590   0.826  -1.203  0.00  0.00     0.039 A 
ATOM      3  C2  UNL d   1       0.847   0.210  -2.430  0.00  0.00    -0.080 A 
ATOM      4  C3  UNL d   1       0.875  -1.179  -2.504  0.00  0.00     0.150 A 
ATOM      5  C4  UNL d   1       0.647  -1.959  -1.375  0.00  0.00    -0.007 A 
ATOM      6  C5  UNL d   1       0.391  -1.342  -0.151  0.00  0.00     0.039 A 
ENDROOT
BRANCH   4   7
ATOM      7  O   UNL d   1       1.126  -1.825  -3.678  0.00  0.00    -0.526 OA
ATOM      8  H5  UNL d   1       1.293  -1.159  -4.366  0.00  0.00     0.418 HD
ENDBRANCH   4   7
TORSDOF 1
ENDMDL
