MODEL 1
REMARK minimizedAffinity -3.213691
REMARK minimizedRMSD -1
REMARK  1 active torsions:
REMARK  status: ('A' for Active; 'I' for Inactive)
REMARK    1  A    between atoms: C3_4  and  O_7 
ROOT
ATOM      1  C   UNL d   1      -1.211   0.099   2.399  0.00  0.00    -0.033 A 
ATOM      2  C1  UNL d   1       0.153  -0.080   2.163  0.00  0.00     0.039 A 
ATOM      3  C2  UNL d   1       0.633  -0.158   0.854  0.00  0.00    -0.080 A 
ATOM      4  C3  UNL d   1      -0.261  -0.055  -0.208  0.00  0.00     0.150 A 
ATOM      5  C4  UNL d   1      -1.621   0.127   0.020  0.00  0.00    -0.007 A 
ATOM      6  C5  UNL d   1      -2.098   0.204   1.328  0.00  0.00     0.039 A 
ENDROOT
BRANCH   4   7
ATOM      7  O   UNL d   1       0.159  -0.130  -1.503  0.00  0.00    -0.526 OA
ATOM      8  H5  UNL d   1       1.119  -0.285  -1.506  0.00  0.00     0.418 HD
ENDBRANCH   4   7
TORSDOF 1
ENDMDL
