MODEL 1
REMARK minimizedAffinity -2.91673756
REMARK minimizedRMSD -1
REMARK  1 active torsions:
REMARK  status: ('A' for Active; 'I' for Inactive)
REMARK    1  A    between atoms: C1_2  and  C2_3 
ROOT
ATOM      1  C2  UNL d   1      -0.661   0.878   0.406  0.00  0.00    -0.077 A 
ATOM      2  C3  UNL d   1      -0.120   1.312  -0.812  0.00  0.00     0.002 A 
ATOM      3  C4  UNL d   1       0.868   0.562  -1.453  0.00  0.00     0.002 A 
ATOM      4  C5  UNL d   1       1.321  -0.627  -0.885  0.00  0.00    -0.004 A 
ATOM      5  C6  UNL d   1       0.790  -1.066   0.328  0.00  0.00     0.002 A 
ATOM      6  C7  UNL d   1      -0.197  -0.317   0.970  0.00  0.00     0.002 A 
ENDROOT
BRANCH   1   7
ATOM      7  C1  UNL d   1      -1.762   1.660   1.074  0.00  0.00     0.055 C 
ATOM      8  C   UNL d   1      -1.390   2.031   2.502  0.00  0.00     0.019 C 
ENDBRANCH   1   7
TORSDOF 1
ENDMDL
