MODEL 1
REMARK minimizedAffinity -2.20746183
REMARK minimizedRMSD -1
REMARK  1 active torsions:
REMARK  status: ('A' for Active; 'I' for Inactive)
REMARK    1  A    between atoms: C1_2  and  C2_3 
ROOT
ATOM      1  C2  UNL d   1       0.051   1.204  -0.262  0.00  0.00    -0.077 A 
ATOM      2  C3  UNL d   1      -0.832   2.090   0.370  0.00  0.00     0.002 A 
ATOM      3  C4  UNL d   1      -1.414   1.753   1.594  0.00  0.00     0.002 A 
ATOM      4  C5  UNL d   1      -1.114   0.534   2.198  0.00  0.00    -0.004 A 
ATOM      5  C6  UNL d   1      -0.238  -0.355   1.576  0.00  0.00     0.002 A 
ATOM      6  C7  UNL d   1       0.343  -0.021   0.351  0.00  0.00     0.002 A 
ENDROOT
BRANCH   1   7
ATOM      7  C1  UNL d   1       0.717   1.586  -1.559  0.00  0.00     0.055 C 
ATOM      8  C   UNL d   1       0.035   2.786  -2.199  0.00  0.00     0.019 C 
ENDBRANCH   1   7
TORSDOF 1
ENDMDL
