MODEL 1
REMARK minimizedAffinity -4.71864891
REMARK minimizedRMSD -1
REMARK  1 active torsions:
REMARK  status: ('A' for Active; 'I' for Inactive)
REMARK    1  A    between atoms: C1_2  and  C2_3 
ROOT
ATOM      1  C2  UNL d   1       0.257   0.039  -0.297  0.00  0.00    -0.077 A 
ATOM      2  C3  UNL d   1      -0.156   1.306  -0.734  0.00  0.00     0.002 A 
ATOM      3  C4  UNL d   1      -1.069   2.049   0.017  0.00  0.00     0.002 A 
ATOM      4  C5  UNL d   1      -1.572   1.536   1.211  0.00  0.00    -0.004 A 
ATOM      5  C6  UNL d   1      -1.169   0.277   1.653  0.00  0.00     0.002 A 
ATOM      6  C7  UNL d   1      -0.258  -0.468   0.902  0.00  0.00     0.002 A 
ENDROOT
BRANCH   1   7
ATOM      7  C1  UNL d   1       1.279  -0.743  -1.081  0.00  0.00     0.055 C 
ATOM      8  C   UNL d   1       0.730  -2.095  -1.512  0.00  0.00     0.019 C 
ENDBRANCH   1   7
TORSDOF 1
ENDMDL
