MODEL 1
REMARK minimizedAffinity -3.41906595
REMARK minimizedRMSD -1
REMARK  1 active torsions:
REMARK  status: ('A' for Active; 'I' for Inactive)
REMARK    1  A    between atoms: C1_2  and  C2_3 
ROOT
ATOM      1  C2  UNL d   1       0.760  -0.078  -0.334  0.00  0.00    -0.077 A 
ATOM      2  C3  UNL d   1       0.169  -0.476   0.873  0.00  0.00     0.002 A 
ATOM      3  C4  UNL d   1      -0.567   0.435   1.633  0.00  0.00     0.002 A 
ATOM      4  C5  UNL d   1      -0.723   1.747   1.192  0.00  0.00    -0.004 A 
ATOM      5  C6  UNL d   1      -0.138   2.153  -0.006  0.00  0.00     0.002 A 
ATOM      6  C7  UNL d   1       0.599   1.244  -0.767  0.00  0.00     0.002 A 
ENDROOT
BRANCH   1   7
ATOM      7  C1  UNL d   1       1.512  -1.072  -1.180  0.00  0.00     0.055 C 
ATOM      8  C   UNL d   1       0.899  -2.461  -1.080  0.00  0.00     0.019 C 
ENDBRANCH   1   7
TORSDOF 1
ENDMDL
