MODEL 1
REMARK minimizedAffinity -4.36360312
REMARK minimizedRMSD -1
REMARK  1 active torsions:
REMARK  status: ('A' for Active; 'I' for Inactive)
REMARK    1  A    between atoms: C1_2  and  C2_3 
ROOT
ATOM      1  C2  UNL d   1       0.351  -1.004  -1.173  0.00  0.00    -0.077 A 
ATOM      2  C3  UNL d   1      -0.108  -0.763  -2.475  0.00  0.00     0.002 A 
ATOM      3  C4  UNL d   1      -0.321  -1.825  -3.356  0.00  0.00     0.002 A 
ATOM      4  C5  UNL d   1      -0.082  -3.134  -2.943  0.00  0.00    -0.004 A 
ATOM      5  C6  UNL d   1       0.377  -3.383  -1.650  0.00  0.00     0.002 A 
ATOM      6  C7  UNL d   1       0.591  -2.323  -0.769  0.00  0.00     0.002 A 
ENDROOT
BRANCH   1   7
ATOM      7  C1  UNL d   1       0.534   0.136  -0.205  0.00  0.00     0.055 C 
ATOM      8  C   UNL d   1       0.051  -0.237   1.189  0.00  0.00     0.019 C 
ENDBRANCH   1   7
TORSDOF 1
ENDMDL
