MODEL 1
REMARK minimizedAffinity -6.0974288
REMARK minimizedRMSD -1
REMARK  1 active torsions:
REMARK  status: ('A' for Active; 'I' for Inactive)
REMARK    1  A    between atoms: C1_2  and  C2_3 
ROOT
ATOM      1  C2  UNL d   1      -0.360   0.468   0.436  0.00  0.00    -0.077 A 
ATOM      2  C3  UNL d   1      -0.400   0.641   1.827  0.00  0.00     0.002 A 
ATOM      3  C4  UNL d   1      -1.240   1.601   2.395  0.00  0.00     0.002 A 
ATOM      4  C5  UNL d   1      -2.049   2.391   1.580  0.00  0.00    -0.004 A 
ATOM      5  C6  UNL d   1      -2.014   2.228   0.196  0.00  0.00     0.002 A 
ATOM      6  C7  UNL d   1      -1.174   1.270  -0.373  0.00  0.00     0.002 A 
ENDROOT
BRANCH   1   7
ATOM      7  C1  UNL d   1       0.509  -0.600  -0.175  0.00  0.00     0.055 C 
ATOM      8  C   UNL d   1       1.587   0.004  -1.063  0.00  0.00     0.019 C 
ENDBRANCH   1   7
TORSDOF 1
ENDMDL
