MODEL 1
REMARK minimizedAffinity -4.4961009
REMARK minimizedRMSD -1
REMARK  1 active torsions:
REMARK  status: ('A' for Active; 'I' for Inactive)
REMARK    1  A    between atoms: C1_2  and  C2_3 
ROOT
ATOM      1  C2  UNL d   1       0.087  -0.296   0.368  0.00  0.00    -0.077 A 
ATOM      2  C3  UNL d   1      -0.739  -0.754   1.404  0.00  0.00     0.002 A 
ATOM      3  C4  UNL d   1      -1.416   0.153   2.221  0.00  0.00     0.002 A 
ATOM      4  C5  UNL d   1      -1.278   1.523   2.007  0.00  0.00    -0.004 A 
ATOM      5  C6  UNL d   1      -0.457   1.988   0.981  0.00  0.00     0.002 A 
ATOM      6  C7  UNL d   1       0.222   1.083   0.164  0.00  0.00     0.002 A 
ENDROOT
BRANCH   1   7
ATOM      7  C1  UNL d   1       0.780  -1.273  -0.545  0.00  0.00     0.055 C 
ATOM      8  C   UNL d   1      -0.044  -1.543  -1.796  0.00  0.00     0.019 C 
ENDBRANCH   1   7
TORSDOF 1
ENDMDL
