MODEL 1
REMARK minimizedAffinity -3.43704319
REMARK minimizedRMSD -1
REMARK  1 active torsions:
REMARK  status: ('A' for Active; 'I' for Inactive)
REMARK    1  A    between atoms: C1_2  and  C2_3 
ROOT
ATOM      1  C2  UNL d   1      -0.333   1.141  -0.117  0.00  0.00    -0.077 A 
ATOM      2  C3  UNL d   1      -1.022   2.181   0.522  0.00  0.00     0.002 A 
ATOM      3  C4  UNL d   1      -1.305   2.107   1.888  0.00  0.00     0.002 A 
ATOM      4  C5  UNL d   1      -0.900   0.997   2.625  0.00  0.00    -0.004 A 
ATOM      5  C6  UNL d   1      -0.216  -0.044   1.998  0.00  0.00     0.002 A 
ATOM      6  C7  UNL d   1       0.067   0.028   0.634  0.00  0.00     0.002 A 
ENDROOT
BRANCH   1   7
ATOM      7  C1  UNL d   1       0.016   1.241  -1.579  0.00  0.00     0.055 C 
ATOM      8  C   UNL d   1      -1.221   1.498  -2.427  0.00  0.00     0.019 C 
ENDBRANCH   1   7
TORSDOF 1
ENDMDL
