MODEL 1
REMARK minimizedAffinity 0.769934416
REMARK minimizedRMSD -1
REMARK  1 active torsions:
REMARK  status: ('A' for Active; 'I' for Inactive)
REMARK    1  A    between atoms: C1_2  and  C2_3 
ROOT
ATOM      1  C2  UNL d   1      -0.760   0.146   0.636  0.00  0.00    -0.077 A 
ATOM      2  C3  UNL d   1       0.209   0.511  -0.309  0.00  0.00     0.002 A 
ATOM      3  C4  UNL d   1      -0.172   0.964  -1.573  0.00  0.00     0.002 A 
ATOM      4  C5  UNL d   1      -1.522   1.059  -1.904  0.00  0.00    -0.004 A 
ATOM      5  C6  UNL d   1      -2.494   0.697  -0.972  0.00  0.00     0.002 A 
ATOM      6  C7  UNL d   1      -2.115   0.243   0.292  0.00  0.00     0.002 A 
ENDROOT
BRANCH   1   7
ATOM      7  C1  UNL d   1      -0.353  -0.296   2.017  0.00  0.00     0.055 C 
ATOM      8  C   UNL d   1       1.076  -0.821   2.031  0.00  0.00     0.019 C 
ENDBRANCH   1   7
TORSDOF 1
ENDMDL
