MODEL 1
REMARK minimizedAffinity 2.36637115
REMARK minimizedRMSD -1
REMARK  0 active torsions:
REMARK  status: ('A' for Active; 'I' for Inactive)
ROOT
ATOM      1  C1  BNZ d   1      -2.554  -5.116  -5.996  0.00  0.00     0.000 A 
ATOM      2  C2  BNZ d   1      -1.209  -5.375  -6.000  0.00  0.00     0.000 A 
ATOM      3  C3  BNZ d   1      -0.300  -4.355  -5.979  0.00  0.00     0.000 A 
ATOM      4  C4  BNZ d   1      -0.735  -3.078  -5.994  0.00  0.00     0.000 A 
ATOM      5  C5  BNZ d   1      -2.087  -2.801  -6.000  0.00  0.00     0.000 A 
ATOM      6  C6  BNZ d   1      -3.000  -3.830  -5.982  0.00  0.00     0.000 A 
ENDROOT
TORSDOF 0
ENDMDL
