MODEL 1
REMARK minimizedAffinity 2.9104495
REMARK minimizedRMSD -1
REMARK  0 active torsions:
REMARK  status: ('A' for Active; 'I' for Inactive)
ROOT
ATOM      1  C1  BNZ d   1       0.409   4.834  -0.761  0.00  0.00     0.000 A 
ATOM      2  C2  BNZ d   1       0.007   6.000  -1.356  0.00  0.00     0.000 A 
ATOM      3  C3  BNZ d   1      -0.976   5.998  -2.306  0.00  0.00     0.000 A 
ATOM      4  C4  BNZ d   1      -1.525   4.828  -2.689  0.00  0.00     0.000 A 
ATOM      5  C5  BNZ d   1      -1.124   3.643  -2.106  0.00  0.00     0.000 A 
ATOM      6  C6  BNZ d   1      -0.162   3.652  -1.122  0.00  0.00     0.000 A 
ENDROOT
TORSDOF 0
ENDMDL
