MODEL 1
REMARK minimizedAffinity 4.90029478
REMARK minimizedRMSD -1
REMARK  0 active torsions:
REMARK  status: ('A' for Active; 'I' for Inactive)
ROOT
ATOM      1  C1  BNZ d   1       0.062   3.281  -0.976  0.00  0.00     0.000 A 
ATOM      2  C2  BNZ d   1       0.854   3.655   0.076  0.00  0.00     0.000 A 
ATOM      3  C3  BNZ d   1       0.942   2.879   1.198  0.00  0.00     0.000 A 
ATOM      4  C4  BNZ d   1       0.207   1.751   1.282  0.00  0.00     0.000 A 
ATOM      5  C5  BNZ d   1      -0.604   1.365   0.234  0.00  0.00     0.000 A 
ATOM      6  C6  BNZ d   1      -0.660   2.128  -0.909  0.00  0.00     0.000 A 
ENDROOT
TORSDOF 0
ENDMDL
