MODEL 1
REMARK minimizedAffinity 1.57077491
REMARK minimizedRMSD -1
REMARK  0 active torsions:
REMARK  status: ('A' for Active; 'I' for Inactive)
ROOT
ATOM      1  C1  BNZ d   1      -0.681  -4.029  -5.043  0.00  0.00     0.000 A 
ATOM      2  C2  BNZ d   1      -1.670  -4.016  -5.990  0.00  0.00     0.000 A 
ATOM      3  C3  BNZ d   1      -2.646  -4.972  -5.997  0.00  0.00     0.000 A 
ATOM      4  C4  BNZ d   1      -2.610  -5.963  -5.082  0.00  0.00     0.000 A 
ATOM      5  C5  BNZ d   1      -1.614  -5.996  -4.126  0.00  0.00     0.000 A 
ATOM      6  C6  BNZ d   1      -0.656  -5.009  -4.099  0.00  0.00     0.000 A 
ENDROOT
TORSDOF 0
ENDMDL
