MODEL 1
REMARK minimizedAffinity 3.20836926
REMARK minimizedRMSD -1
REMARK  0 active torsions:
REMARK  status: ('A' for Active; 'I' for Inactive)
ROOT
ATOM      1  C1  BNZ d   1      -3.074  -3.574  -5.932  0.00  0.00     0.000 A 
ATOM      2  C2  BNZ d   1      -4.439  -3.656  -5.994  0.00  0.00     0.000 A 
ATOM      3  C3  BNZ d   1      -5.068  -4.869  -6.000  0.00  0.00     0.000 A 
ATOM      4  C4  BNZ d   1      -4.331  -5.998  -5.984  0.00  0.00     0.000 A 
ATOM      5  C5  BNZ d   1      -2.953  -5.932  -5.930  0.00  0.00     0.000 A 
ATOM      6  C6  BNZ d   1      -2.324  -4.709  -5.885  0.00  0.00     0.000 A 
ENDROOT
TORSDOF 0
ENDMDL
