MODEL 1
REMARK minimizedAffinity -0.835822582
REMARK minimizedRMSD -1
REMARK  0 active torsions:
REMARK  status: ('A' for Active; 'I' for Inactive)
ROOT
ATOM      1  C1  BNZ d   1      -5.342  -2.728   3.762  0.00  0.00     0.000 A 
ATOM      2  C2  BNZ d   1      -5.999  -3.195   4.869  0.00  0.00     0.000 A 
ATOM      3  C3  BNZ d   1      -5.308  -3.562   5.990  0.00  0.00     0.000 A 
ATOM      4  C4  BNZ d   1      -3.961  -3.500   5.989  0.00  0.00     0.000 A 
ATOM      5  C5  BNZ d   1      -3.284  -3.040   4.877  0.00  0.00     0.000 A 
ATOM      6  C6  BNZ d   1      -3.984  -2.635   3.765  0.00  0.00     0.000 A 
ENDROOT
TORSDOF 0
ENDMDL
