MODEL 1
REMARK minimizedAffinity 2.96379805
REMARK minimizedRMSD -1
REMARK  0 active torsions:
REMARK  status: ('A' for Active; 'I' for Inactive)
ROOT
ATOM      1  C1  BNZ d   1      -1.432  -2.445  -3.705  0.00  0.00     0.000 A 
ATOM      2  C2  BNZ d   1      -1.453  -2.925  -2.422  0.00  0.00     0.000 A 
ATOM      3  C3  BNZ d   1      -0.561  -3.878  -2.017  0.00  0.00     0.000 A 
ATOM      4  C4  BNZ d   1       0.323  -4.378  -2.904  0.00  0.00     0.000 A 
ATOM      5  C5  BNZ d   1       0.351  -3.912  -4.203  0.00  0.00     0.000 A 
ATOM      6  C6  BNZ d   1      -0.523  -2.924  -4.597  0.00  0.00     0.000 A 
ENDROOT
TORSDOF 0
ENDMDL
