MODEL 1
REMARK minimizedAffinity -3.93621278
REMARK minimizedRMSD -1
REMARK  1 active torsions:
REMARK  status: ('A' for Active; 'I' for Inactive)
REMARK    1  A    between atoms: C1_2  and  C2_3 
ROOT
ATOM      1  C2  UNL d   1       0.243  -0.645  -0.071  0.00  0.00    -0.081 A 
ATOM      2  C3  UNL d   1      -0.108   0.106  -1.200  0.00  0.00     0.006 A 
ATOM      3  C4  UNL d   1      -1.231   0.938  -1.176  0.00  0.00     0.002 A 
ATOM      4  C5  UNL d   1      -2.015   1.038  -0.022  0.00  0.00    -0.080 A 
ATOM      5  C6  UNL d   1      -3.205   1.950   0.026  0.00  0.00     0.076 C 
ATOM      6  C7  UNL d   1      -1.675   0.275   1.100  0.00  0.00     0.002 A 
ATOM      7  C8  UNL d   1      -0.553  -0.557   1.077  0.00  0.00     0.006 A 
ENDROOT
BRANCH   1   8
ATOM      8  C1  UNL d   1       1.489  -1.492  -0.072  0.00  0.00     0.054 C 
ATOM      9  C   UNL d   1       2.737  -0.643   0.122  0.00  0.00     0.018 C 
ENDBRANCH   1   8
TORSDOF 1
ENDMDL
