MODEL 1
REMARK minimizedAffinity -5.8879118
REMARK minimizedRMSD -1
REMARK  1 active torsions:
REMARK  status: ('A' for Active; 'I' for Inactive)
REMARK    1  A    between atoms: C1_2  and  C2_3 
ROOT
ATOM      1  C2  UNL d   1      -0.431   0.531  -0.180  0.00  0.00    -0.081 A 
ATOM      2  C3  UNL d   1      -0.009  -0.804  -0.139  0.00  0.00     0.006 A 
ATOM      3  C4  UNL d   1       1.328  -1.117   0.115  0.00  0.00     0.002 A 
ATOM      4  C5  UNL d   1       2.264  -0.102   0.340  0.00  0.00    -0.080 A 
ATOM      5  C6  UNL d   1       3.697  -0.425   0.644  0.00  0.00     0.076 C 
ATOM      6  C7  UNL d   1       1.847   1.232   0.282  0.00  0.00     0.002 A 
ATOM      7  C8  UNL d   1       0.510   1.546   0.027  0.00  0.00     0.006 A 
ENDROOT
BRANCH   1   8
ATOM      8  C1  UNL d   1      -1.884   0.870  -0.389  0.00  0.00     0.054 C 
ATOM      9  C   UNL d   1      -2.597   1.095   0.937  0.00  0.00     0.018 C 
ENDBRANCH   1   8
TORSDOF 1
ENDMDL
