MODEL 1
REMARK minimizedAffinity -1.85392237
REMARK minimizedRMSD -1
REMARK  1 active torsions:
REMARK  status: ('A' for Active; 'I' for Inactive)
REMARK    1  A    between atoms: C1_2  and  C2_3 
ROOT
ATOM      1  C2  UNL d   1      -1.073   0.715  -0.228  0.00  0.00    -0.081 A 
ATOM      2  C3  UNL d   1      -0.309  -0.186   0.524  0.00  0.00     0.006 A 
ATOM      3  C4  UNL d   1       1.069  -0.000   0.665  0.00  0.00     0.002 A 
ATOM      4  C5  UNL d   1       1.703   1.092   0.063  0.00  0.00    -0.080 A 
ATOM      5  C6  UNL d   1       3.176   1.320   0.231  0.00  0.00     0.076 C 
ATOM      6  C7  UNL d   1       0.942   1.982  -0.703  0.00  0.00     0.002 A 
ATOM      7  C8  UNL d   1      -0.435   1.797  -0.844  0.00  0.00     0.006 A 
ENDROOT
BRANCH   1   8
ATOM      8  C1  UNL d   1      -2.568   0.554  -0.328  0.00  0.00     0.054 C 
ATOM      9  C   UNL d   1      -3.269   1.122   0.898  0.00  0.00     0.018 C 
ENDBRANCH   1   8
TORSDOF 1
ENDMDL
