MODEL 1
REMARK minimizedAffinity -0.88700819
REMARK minimizedRMSD -1
REMARK  1 active torsions:
REMARK  status: ('A' for Active; 'I' for Inactive)
REMARK    1  A    between atoms: C1_2  and  C2_3 
ROOT
ATOM      1  C2  UNL d   1      -1.464   0.606   0.281  0.00  0.00    -0.081 A 
ATOM      2  C3  UNL d   1      -0.993   0.527  -1.035  0.00  0.00     0.006 A 
ATOM      3  C4  UNL d   1       0.105  -0.279  -1.347  0.00  0.00     0.002 A 
ATOM      4  C5  UNL d   1       0.744  -1.024  -0.351  0.00  0.00    -0.080 A 
ATOM      5  C6  UNL d   1       1.904  -1.916  -0.678  0.00  0.00     0.076 C 
ATOM      6  C7  UNL d   1       0.284  -0.932   0.967  0.00  0.00     0.002 A 
ATOM      7  C8  UNL d   1      -0.813  -0.126   1.280  0.00  0.00     0.006 A 
ENDROOT
BRANCH   1   8
ATOM      8  C1  UNL d   1      -2.688   1.423   0.609  0.00  0.00     0.054 C 
ATOM      9  C   UNL d   1      -3.938   0.556   0.646  0.00  0.00     0.018 C 
ENDBRANCH   1   8
TORSDOF 1
ENDMDL
