MODEL 1
REMARK minimizedAffinity -2.59431767
REMARK minimizedRMSD -1
REMARK  1 active torsions:
REMARK  status: ('A' for Active; 'I' for Inactive)
REMARK    1  A    between atoms: C1_2  and  C2_3 
ROOT
ATOM      1  C2  UNL d   1      -1.379   0.597   0.523  0.00  0.00    -0.081 A 
ATOM      2  C3  UNL d   1      -0.717   0.062   1.635  0.00  0.00     0.006 A 
ATOM      3  C4  UNL d   1       0.383  -0.783   1.466  0.00  0.00     0.002 A 
ATOM      4  C5  UNL d   1       0.843  -1.100   0.184  0.00  0.00    -0.080 A 
ATOM      5  C6  UNL d   1       2.042  -1.981  -0.011  0.00  0.00     0.076 C 
ATOM      6  C7  UNL d   1       0.172  -0.580  -0.928  0.00  0.00     0.002 A 
ATOM      7  C8  UNL d   1      -0.928   0.264  -0.759  0.00  0.00     0.006 A 
ENDROOT
BRANCH   1   8
ATOM      8  C1  UNL d   1      -2.525   1.559   0.703  0.00  0.00     0.054 C 
ATOM      9  C   UNL d   1      -3.866   0.863   0.520  0.00  0.00     0.018 C 
ENDBRANCH   1   8
TORSDOF 1
ENDMDL
