MODEL 1
REMARK minimizedAffinity -2.11299729
REMARK minimizedRMSD -1
REMARK  1 active torsions:
REMARK  status: ('A' for Active; 'I' for Inactive)
REMARK    1  A    between atoms: C1_2  and  C2_3 
ROOT
ATOM      1  C2  UNL d   1      -0.928   0.777  -0.292  0.00  0.00    -0.081 A 
ATOM      2  C3  UNL d   1      -0.887  -0.622  -0.250  0.00  0.00     0.006 A 
ATOM      3  C4  UNL d   1       0.327  -1.289  -0.066  0.00  0.00     0.002 A 
ATOM      4  C5  UNL d   1       1.517  -0.569   0.086  0.00  0.00    -0.080 A 
ATOM      5  C6  UNL d   1       2.822  -1.272   0.315  0.00  0.00     0.076 C 
ATOM      6  C7  UNL d   1       1.478   0.828   0.027  0.00  0.00     0.002 A 
ATOM      7  C8  UNL d   1       0.265   1.496  -0.157  0.00  0.00     0.006 A 
ENDROOT
BRANCH   1   8
ATOM      8  C1  UNL d   1      -2.244   1.501  -0.425  0.00  0.00     0.054 C 
ATOM      9  C   UNL d   1      -3.352   0.776   0.325  0.00  0.00     0.018 C 
ENDBRANCH   1   8
TORSDOF 1
ENDMDL
