MODEL 1
REMARK minimizedAffinity -6.48704243
REMARK minimizedRMSD -1
REMARK  0 active torsions:
REMARK  status: ('A' for Active; 'I' for Inactive)
ROOT
ATOM      1  N1  IND d   1      -0.881  -0.820   0.787  0.00  0.00    -0.196 N 
ATOM      2  C2  IND d   1      -0.868   0.346   0.075  0.00  0.00     0.054 A 
ATOM      3  C3  IND d   1       0.395   0.818  -0.033  0.00  0.00    -0.031 A 
ATOM      4  C4  IND d   1       2.603  -0.216   0.794  0.00  0.00     0.051 A 
ATOM      5  C5  IND d   1       3.096  -1.257   1.528  0.00  0.00    -0.031 A 
ATOM      6  C6  IND d   1       2.273  -2.228   2.061  0.00  0.00     0.015 A 
ATOM      7  C7  IND d   1       0.920  -2.199   1.870  0.00  0.00    -0.016 A 
ATOM      8  C8  IND d   1       0.415  -1.138   1.130  0.00  0.00    -0.047 A 
ATOM      9  C9  IND d   1       1.241  -0.127   0.623  0.00  0.00    -0.096 A 
ATOM     10  HN1 IND d   1      -1.580  -1.278   0.987  0.00  0.00     0.298 HD
ENDROOT
TORSDOF 0
ENDMDL
