MODEL 1
REMARK minimizedAffinity -0.185779303
REMARK minimizedRMSD -1
REMARK  0 active torsions:
REMARK  status: ('A' for Active; 'I' for Inactive)
ROOT
ATOM      1  N1  IND d   1      -0.430  -1.039  -0.487  0.00  0.00    -0.196 N 
ATOM      2  C2  IND d   1      -0.203  -0.052   0.431  0.00  0.00     0.054 A 
ATOM      3  C3  IND d   1      -0.764   1.108   0.023  0.00  0.00    -0.031 A 
ATOM      4  C4  IND d   1      -2.189   1.590  -2.066  0.00  0.00     0.051 A 
ATOM      5  C5  IND d   1      -2.639   1.012  -3.220  0.00  0.00    -0.031 A 
ATOM      6  C6  IND d   1      -2.373  -0.307  -3.526  0.00  0.00     0.015 A 
ATOM      7  C7  IND d   1      -1.653  -1.103  -2.682  0.00  0.00    -0.016 A 
ATOM      8  C8  IND d   1      -1.188  -0.518  -1.513  0.00  0.00    -0.047 A 
ATOM      9  C9  IND d   1      -1.419   0.832  -1.216  0.00  0.00    -0.096 A 
ATOM     10  HN1 IND d   1      -0.147  -1.849  -0.434  0.00  0.00     0.298 HD
ENDROOT
TORSDOF 0
ENDMDL
