MODEL 1
REMARK minimizedAffinity -5.48854828
REMARK minimizedRMSD -1
REMARK  0 active torsions:
REMARK  status: ('A' for Active; 'I' for Inactive)
ROOT
ATOM      1  N1  IND d   1       0.066  -0.397  -0.665  0.00  0.00    -0.196 N 
ATOM      2  C2  IND d   1      -0.947   0.504  -0.491  0.00  0.00     0.054 A 
ATOM      3  C3  IND d   1      -0.594   1.439   0.420  0.00  0.00    -0.031 A 
ATOM      4  C4  IND d   1       1.634   1.740   1.675  0.00  0.00     0.051 A 
ATOM      5  C5  IND d   1       2.848   1.144   1.873  0.00  0.00    -0.031 A 
ATOM      6  C6  IND d   1       3.205  -0.019   1.220  0.00  0.00     0.015 A 
ATOM      7  C7  IND d   1       2.361  -0.624   0.332  0.00  0.00    -0.016 A 
ATOM      8  C8  IND d   1       1.125  -0.026   0.134  0.00  0.00    -0.047 A 
ATOM      9  C9  IND d   1       0.741   1.130   0.825  0.00  0.00    -0.096 A 
ATOM     10  HN1 IND d   1       0.045  -1.081  -1.186  0.00  0.00     0.298 HD
ENDROOT
TORSDOF 0
ENDMDL
