MODEL 1
REMARK minimizedAffinity -1.32043886
REMARK minimizedRMSD -1
REMARK  0 active torsions:
REMARK  status: ('A' for Active; 'I' for Inactive)
ROOT
ATOM      1  N1  IND d   1      -0.553  -0.829   1.033  0.00  0.00    -0.196 N 
ATOM      2  C2  IND d   1      -0.149  -2.056   1.480  0.00  0.00     0.054 A 
ATOM      3  C3  IND d   1       1.184  -2.202   1.310  0.00  0.00    -0.031 A 
ATOM      4  C4  IND d   1       2.914  -0.520   0.414  0.00  0.00     0.051 A 
ATOM      5  C5  IND d   1       3.018   0.720  -0.151  0.00  0.00    -0.031 A 
ATOM      6  C6  IND d   1       1.915   1.525  -0.352  0.00  0.00     0.015 A 
ATOM      7  C7  IND d   1       0.663   1.122   0.017  0.00  0.00    -0.016 A 
ATOM      8  C8  IND d   1       0.552  -0.140   0.585  0.00  0.00    -0.047 A 
ATOM      9  C9  IND d   1       1.662  -0.978   0.752  0.00  0.00    -0.096 A 
ATOM     10  HN1 IND d   1      -1.362  -0.536   1.032  0.00  0.00     0.298 HD
ENDROOT
TORSDOF 0
ENDMDL
