MODEL 1
REMARK minimizedAffinity 9.1396122
REMARK minimizedRMSD -1
REMARK  0 active torsions:
REMARK  status: ('A' for Active; 'I' for Inactive)
ROOT
ATOM      1  N1  IND d   1      -4.700   1.124  -2.196  0.00  0.00    -0.196 N 
ATOM      2  C2  IND d   1      -4.119   1.843  -3.203  0.00  0.00     0.054 A 
ATOM      3  C3  IND d   1      -4.136   3.162  -2.909  0.00  0.00    -0.031 A 
ATOM      4  C4  IND d   1      -4.977   4.355  -0.788  0.00  0.00     0.051 A 
ATOM      5  C5  IND d   1      -5.623   4.123   0.393  0.00  0.00    -0.031 A 
ATOM      6  C6  IND d   1      -6.000   2.853   0.781  0.00  0.00     0.015 A 
ATOM      7  C7  IND d   1      -5.733   1.762   0.004  0.00  0.00    -0.016 A 
ATOM      8  C8  IND d   1      -5.083   1.995  -1.200  0.00  0.00    -0.047 A 
ATOM      9  C9  IND d   1      -4.736   3.286  -1.619  0.00  0.00    -0.096 A 
ATOM     10  HN1 IND d   1      -4.808   0.271  -2.187  0.00  0.00     0.298 HD
ENDROOT
TORSDOF 0
ENDMDL
