MODEL 1
REMARK minimizedAffinity -5.12819147
REMARK minimizedRMSD -1
REMARK  0 active torsions:
REMARK  status: ('A' for Active; 'I' for Inactive)
ROOT
ATOM      1  C   UNL d   1       0.530  -0.851  -1.063  0.00  0.00     0.078 C 
ATOM      2  C1  UNL d   1      -0.069  -0.104   0.091  0.00  0.00    -0.077 A 
ATOM      3  C2  UNL d   1      -1.400  -0.315   0.473  0.00  0.00    -0.001 A 
ATOM      4  C3  UNL d   1      -1.948   0.394   1.543  0.00  0.00     0.003 A 
ATOM      5  C4  UNL d   1      -1.173   1.319   2.239  0.00  0.00    -0.005 A 
ATOM      6  C5  UNL d   1       0.151   1.538   1.865  0.00  0.00     0.003 A 
ATOM      7  C6  UNL d   1       0.701   0.830   0.795  0.00  0.00    -0.001 A 
ENDROOT
TORSDOF 0
ENDMDL
