MODEL 1
REMARK minimizedAffinity -4.21913242
REMARK minimizedRMSD -1
REMARK  0 active torsions:
REMARK  status: ('A' for Active; 'I' for Inactive)
ROOT
ATOM      1  C   UNL d   1       0.410  -0.910  -1.489  0.00  0.00     0.078 C 
ATOM      2  C1  UNL d   1      -0.109  -0.114  -0.329  0.00  0.00    -0.077 A 
ATOM      3  C2  UNL d   1       0.766   0.562   0.531  0.00  0.00    -0.001 A 
ATOM      4  C3  UNL d   1       0.270   1.292   1.612  0.00  0.00     0.003 A 
ATOM      5  C4  UNL d   1      -1.103   1.352   1.845  0.00  0.00    -0.005 A 
ATOM      6  C5  UNL d   1      -1.981   0.681   0.996  0.00  0.00     0.003 A 
ATOM      7  C6  UNL d   1      -1.487  -0.050  -0.086  0.00  0.00    -0.001 A 
ENDROOT
TORSDOF 0
ENDMDL
