MODEL 1
REMARK minimizedAffinity -1.43878639
REMARK minimizedRMSD -1
REMARK  0 active torsions:
REMARK  status: ('A' for Active; 'I' for Inactive)
ROOT
ATOM      1  C   UNL d   1       0.350   0.581  -0.716  0.00  0.00     0.078 C 
ATOM      2  C1  UNL d   1       0.805   0.819  -2.125  0.00  0.00    -0.077 A 
ATOM      3  C2  UNL d   1       2.056   1.387  -2.393  0.00  0.00    -0.001 A 
ATOM      4  C3  UNL d   1       2.462   1.611  -3.710  0.00  0.00     0.003 A 
ATOM      5  C4  UNL d   1       1.622   1.272  -4.768  0.00  0.00    -0.005 A 
ATOM      6  C5  UNL d   1       0.374   0.708  -4.511  0.00  0.00     0.003 A 
ATOM      7  C6  UNL d   1      -0.034   0.483  -3.195  0.00  0.00    -0.001 A 
ENDROOT
TORSDOF 0
ENDMDL
