MODEL 1
REMARK minimizedAffinity -2.9887929
REMARK minimizedRMSD -1
REMARK  0 active torsions:
REMARK  status: ('A' for Active; 'I' for Inactive)
ROOT
ATOM      1  C   UNL d   1      -1.945  -0.128  -0.749  0.00  0.00     0.078 C 
ATOM      2  C1  UNL d   1      -0.823   0.174   0.199  0.00  0.00    -0.077 A 
ATOM      3  C2  UNL d   1       0.446  -0.391   0.018  0.00  0.00    -0.001 A 
ATOM      4  C3  UNL d   1       1.478  -0.108   0.914  0.00  0.00     0.003 A 
ATOM      5  C4  UNL d   1       1.253   0.739   1.997  0.00  0.00    -0.005 A 
ATOM      6  C5  UNL d   1      -0.007   1.304   2.186  0.00  0.00     0.003 A 
ATOM      7  C6  UNL d   1      -1.041   1.022   1.291  0.00  0.00    -0.001 A 
ENDROOT
TORSDOF 0
ENDMDL
