MODEL 1
REMARK minimizedAffinity -5.8230176
REMARK minimizedRMSD -1
REMARK  0 active torsions:
REMARK  status: ('A' for Active; 'I' for Inactive)
ROOT
ATOM      1  C   UNL d   1       0.210  -0.185  -1.139  0.00  0.00     0.078 C 
ATOM      2  C1  UNL d   1      -0.166   0.128   0.278  0.00  0.00    -0.077 A 
ATOM      3  C2  UNL d   1      -1.406   0.701   0.586  0.00  0.00    -0.001 A 
ATOM      4  C3  UNL d   1      -1.738   0.996   1.910  0.00  0.00     0.003 A 
ATOM      5  C4  UNL d   1      -0.835   0.723   2.935  0.00  0.00    -0.005 A 
ATOM      6  C5  UNL d   1       0.403   0.155   2.638  0.00  0.00     0.003 A 
ATOM      7  C6  UNL d   1       0.736  -0.140   1.315  0.00  0.00    -0.001 A 
ENDROOT
TORSDOF 0
ENDMDL
