MODEL 1
REMARK minimizedAffinity -5.01892996
REMARK minimizedRMSD -1
REMARK  0 active torsions:
REMARK  status: ('A' for Active; 'I' for Inactive)
ROOT
ATOM      1  C   UNL d   1      -0.678   1.510   2.602  0.00  0.00     0.078 C 
ATOM      2  C1  UNL d   1      -0.136   0.704   1.460  0.00  0.00    -0.077 A 
ATOM      3  C2  UNL d   1      -0.923   0.426   0.335  0.00  0.00    -0.001 A 
ATOM      4  C3  UNL d   1      -0.408  -0.333  -0.716  0.00  0.00     0.003 A 
ATOM      5  C4  UNL d   1       0.895  -0.823  -0.654  0.00  0.00    -0.005 A 
ATOM      6  C5  UNL d   1       1.685  -0.554   0.462  0.00  0.00     0.003 A 
ATOM      7  C6  UNL d   1       1.172   0.206   1.515  0.00  0.00    -0.001 A 
ENDROOT
TORSDOF 0
ENDMDL
