MODEL 1
REMARK minimizedAffinity -2.42980123
REMARK minimizedRMSD -1
REMARK  0 active torsions:
REMARK  status: ('A' for Active; 'I' for Inactive)
ROOT
ATOM      1  C   UNL d   1      -0.791   1.369   2.930  0.00  0.00     0.078 C 
ATOM      2  C1  UNL d   1      -0.615   0.643   1.630  0.00  0.00    -0.077 A 
ATOM      3  C2  UNL d   1       0.654   0.242   1.193  0.00  0.00    -0.001 A 
ATOM      4  C3  UNL d   1       0.804  -0.424  -0.024  0.00  0.00     0.003 A 
ATOM      5  C4  UNL d   1      -0.311  -0.695  -0.815  0.00  0.00    -0.005 A 
ATOM      6  C5  UNL d   1      -1.577  -0.298  -0.390  0.00  0.00     0.003 A 
ATOM      7  C6  UNL d   1      -1.729   0.369   0.827  0.00  0.00    -0.001 A 
ENDROOT
TORSDOF 0
ENDMDL
