MODEL 1
REMARK minimizedAffinity -5.53413391
REMARK minimizedRMSD -1
REMARK  0 active torsions:
REMARK  status: ('A' for Active; 'I' for Inactive)
ROOT
ATOM      1  C   UNL d   1      -0.488   1.907   3.065  0.00  0.00     0.078 C 
ATOM      2  C1  UNL d   1      -0.591   1.034   1.851  0.00  0.00    -0.077 A 
ATOM      3  C2  UNL d   1       0.556   0.552   1.209  0.00  0.00    -0.001 A 
ATOM      4  C3  UNL d   1       0.445  -0.252   0.074  0.00  0.00     0.003 A 
ATOM      5  C4  UNL d   1      -0.811  -0.581  -0.430  0.00  0.00    -0.005 A 
ATOM      6  C5  UNL d   1      -1.959  -0.105   0.200  0.00  0.00     0.003 A 
ATOM      7  C6  UNL d   1      -1.850   0.700   1.335  0.00  0.00    -0.001 A 
ENDROOT
TORSDOF 0
ENDMDL
