MODEL 1
REMARK minimizedAffinity -1.21205139
REMARK minimizedRMSD -1
REMARK  0 active torsions:
REMARK  status: ('A' for Active; 'I' for Inactive)
ROOT
ATOM      1  C   UNL d   1       2.178  -0.212   1.219  0.00  0.00     0.078 C 
ATOM      2  C1  UNL d   1       0.755   0.258   1.290  0.00  0.00    -0.077 A 
ATOM      3  C2  UNL d   1       0.322   1.094   2.326  0.00  0.00    -0.001 A 
ATOM      4  C3  UNL d   1      -1.007   1.516   2.384  0.00  0.00     0.003 A 
ATOM      5  C4  UNL d   1      -1.914   1.106   1.410  0.00  0.00    -0.005 A 
ATOM      6  C5  UNL d   1      -1.493   0.272   0.376  0.00  0.00     0.003 A 
ATOM      7  C6  UNL d   1      -0.165  -0.151   0.316  0.00  0.00    -0.001 A 
ENDROOT
TORSDOF 0
ENDMDL
