MODEL 1
REMARK minimizedAffinity -5.00281334
REMARK minimizedRMSD -1
REMARK  0 active torsions:
REMARK  status: ('A' for Active; 'I' for Inactive)
ROOT
ATOM      1  C   UNL d   1      -3.241  -1.138  -0.738  0.00  0.00     0.078 C 
ATOM      2  C1  UNL d   1      -1.956  -0.814  -0.037  0.00  0.00    -0.077 A 
ATOM      3  C2  UNL d   1      -1.953  -0.139   1.190  0.00  0.00    -0.001 A 
ATOM      4  C3  UNL d   1      -0.749   0.165   1.826  0.00  0.00     0.003 A 
ATOM      5  C4  UNL d   1       0.463  -0.201   1.242  0.00  0.00    -0.005 A 
ATOM      6  C5  UNL d   1       0.470  -0.870   0.020  0.00  0.00     0.003 A 
ATOM      7  C6  UNL d   1      -0.733  -1.175  -0.618  0.00  0.00    -0.001 A 
ENDROOT
TORSDOF 0
ENDMDL
