MODEL 1
REMARK minimizedAffinity -5.40918636
REMARK minimizedRMSD -1
REMARK  0 active torsions:
REMARK  status: ('A' for Active; 'I' for Inactive)
ROOT
ATOM      1  C   UNL d   1      -0.025  -0.012  -0.716  0.00  0.00     0.078 C 
ATOM      2  C1  UNL d   1       0.091   0.403   0.720  0.00  0.00    -0.077 A 
ATOM      3  C2  UNL d   1      -0.813   1.313   1.282  0.00  0.00    -0.001 A 
ATOM      4  C3  UNL d   1      -0.688   1.698   2.618  0.00  0.00     0.003 A 
ATOM      5  C4  UNL d   1       0.341   1.179   3.403  0.00  0.00    -0.005 A 
ATOM      6  C5  UNL d   1       1.246   0.275   2.851  0.00  0.00     0.003 A 
ATOM      7  C6  UNL d   1       1.122  -0.111   1.515  0.00  0.00    -0.001 A 
ENDROOT
TORSDOF 0
ENDMDL
