MODEL 1
REMARK minimizedAffinity -2.14276457
REMARK minimizedRMSD -1
REMARK  0 active torsions:
REMARK  status: ('A' for Active; 'I' for Inactive)
ROOT
ATOM      1  O1  BZF d   1      -2.713   0.219  -1.080  0.00  0.00    -0.204 OA
ATOM      2  C2  BZF d   1      -3.300  -0.581  -0.119  0.00  0.00     0.174 A 
ATOM      3  C3  BZF d   1      -2.362  -1.221   0.609  0.00  0.00    -0.012 A 
ATOM      4  C3A BZF d   1      -1.109  -0.723   0.129  0.00  0.00    -0.107 A 
ATOM      5  C4  BZF d   1       0.191  -0.967   0.469  0.00  0.00     0.055 A 
ATOM      6  C5  BZF d   1       1.183  -0.372  -0.244  0.00  0.00    -0.016 A 
ATOM      7  C6  BZF d   1       0.912   0.468  -1.305  0.00  0.00     0.022 A 
ATOM      8  C7  BZF d   1      -0.362   0.744  -1.676  0.00  0.00     0.029 A 
ATOM      9  C7A BZF d   1      -1.367   0.170  -0.937  0.00  0.00     0.058 A 
ENDROOT
TORSDOF 0
ENDMDL
