MODEL 1
REMARK minimizedAffinity -3.38891482
REMARK minimizedRMSD -1
REMARK  0 active torsions:
REMARK  status: ('A' for Active; 'I' for Inactive)
ROOT
ATOM      1  O1  BZF d   1      -2.700  -0.677  -1.724  0.00  0.00    -0.204 OA
ATOM      2  C2  BZF d   1      -3.706  -0.736  -0.779  0.00  0.00     0.174 A 
ATOM      3  C3  BZF d   1      -3.215  -0.519   0.458  0.00  0.00    -0.012 A 
ATOM      4  C3A BZF d   1      -1.829  -0.220   0.265  0.00  0.00    -0.107 A 
ATOM      5  C4  BZF d   1      -0.810   0.099   1.116  0.00  0.00     0.055 A 
ATOM      6  C5  BZF d   1       0.443   0.260   0.616  0.00  0.00    -0.016 A 
ATOM      7  C6  BZF d   1       0.714   0.104  -0.728  0.00  0.00     0.022 A 
ATOM      8  C7  BZF d   1      -0.265  -0.207  -1.612  0.00  0.00     0.029 A 
ATOM      9  C7A BZF d   1      -1.539  -0.338  -1.114  0.00  0.00     0.058 A 
ENDROOT
TORSDOF 0
ENDMDL
