MODEL 1
REMARK minimizedAffinity -5.48775244
REMARK minimizedRMSD -1
REMARK  0 active torsions:
REMARK  status: ('A' for Active; 'I' for Inactive)
ROOT
ATOM      1  O1  BZF d   1      -3.274  -1.225  -0.434  0.00  0.00    -0.204 OA
ATOM      2  C2  BZF d   1      -3.372  -1.662   0.873  0.00  0.00     0.174 A 
ATOM      3  C3  BZF d   1      -2.175  -1.598   1.490  0.00  0.00    -0.012 A 
ATOM      4  C3A BZF d   1      -1.291  -1.000   0.536  0.00  0.00    -0.107 A 
ATOM      5  C4  BZF d   1       0.030  -0.659   0.567  0.00  0.00     0.055 A 
ATOM      6  C5  BZF d   1       0.609  -0.161  -0.557  0.00  0.00    -0.016 A 
ATOM      7  C6  BZF d   1      -0.101   0.004  -1.729  0.00  0.00     0.022 A 
ATOM      8  C7  BZF d   1      -1.416  -0.317  -1.805  0.00  0.00     0.029 A 
ATOM      9  C7A BZF d   1      -2.012  -0.789  -0.662  0.00  0.00     0.058 A 
ENDROOT
TORSDOF 0
ENDMDL
