MODEL 1
REMARK minimizedAffinity -5.25487185
REMARK minimizedRMSD -1
REMARK  0 active torsions:
REMARK  status: ('A' for Active; 'I' for Inactive)
ROOT
ATOM      1  O1  BZF d   1       0.448  -1.514   0.780  0.00  0.00    -0.204 OA
ATOM      2  C2  BZF d   1       1.441  -0.675   0.312  0.00  0.00     0.174 A 
ATOM      3  C3  BZF d   1       0.960   0.152  -0.639  0.00  0.00    -0.012 A 
ATOM      4  C3A BZF d   1      -0.441  -0.129  -0.708  0.00  0.00    -0.107 A 
ATOM      5  C4  BZF d   1      -1.465   0.380  -1.455  0.00  0.00     0.055 A 
ATOM      6  C5  BZF d   1      -2.705  -0.164  -1.334  0.00  0.00    -0.016 A 
ATOM      7  C6  BZF d   1      -2.954  -1.219  -0.481  0.00  0.00     0.022 A 
ATOM      8  C7  BZF d   1      -1.972  -1.754   0.283  0.00  0.00     0.029 A 
ATOM      9  C7A BZF d   1      -0.725  -1.185   0.188  0.00  0.00     0.058 A 
ENDROOT
TORSDOF 0
ENDMDL
