MODEL 1
REMARK minimizedAffinity -5.16831684
REMARK minimizedRMSD -1
REMARK  0 active torsions:
REMARK  status: ('A' for Active; 'I' for Inactive)
ROOT
ATOM      1  O1  BZF d   1      -2.679  -1.725   0.911  0.00  0.00    -0.204 OA
ATOM      2  C2  BZF d   1      -3.564  -1.586  -0.141  0.00  0.00     0.174 A 
ATOM      3  C3  BZF d   1      -3.047  -0.789  -1.098  0.00  0.00    -0.012 A 
ATOM      4  C3A BZF d   1      -1.722  -0.480  -0.656  0.00  0.00    -0.107 A 
ATOM      5  C4  BZF d   1      -0.704   0.261  -1.185  0.00  0.00     0.055 A 
ATOM      6  C5  BZF d   1       0.437   0.424  -0.467  0.00  0.00    -0.016 A 
ATOM      7  C6  BZF d   1       0.593  -0.134   0.785  0.00  0.00     0.022 A 
ATOM      8  C7  BZF d   1      -0.387  -0.881   1.350  0.00  0.00     0.029 A 
ATOM      9  C7A BZF d   1      -1.529  -1.075   0.612  0.00  0.00     0.058 A 
ENDROOT
TORSDOF 0
ENDMDL
