MODEL 1
REMARK minimizedAffinity -4.51469278
REMARK minimizedRMSD -1
REMARK  0 active torsions:
REMARK  status: ('A' for Active; 'I' for Inactive)
ROOT
ATOM      1  O1  BZF d   1       0.791  -0.989   1.074  0.00  0.00    -0.204 OA
ATOM      2  C2  BZF d   1       1.627  -0.210   0.298  0.00  0.00     0.174 A 
ATOM      3  C3  BZF d   1       0.939   0.384  -0.698  0.00  0.00    -0.012 A 
ATOM      4  C3A BZF d   1      -0.428   0.022  -0.479  0.00  0.00    -0.107 A 
ATOM      5  C4  BZF d   1      -1.593   0.317  -1.128  0.00  0.00     0.055 A 
ATOM      6  C5  BZF d   1      -2.750  -0.255  -0.702  0.00  0.00    -0.016 A 
ATOM      7  C6  BZF d   1      -2.777  -1.131   0.364  0.00  0.00     0.022 A 
ATOM      8  C7  BZF d   1      -1.648  -1.450   1.042  0.00  0.00     0.029 A 
ATOM      9  C7A BZF d   1      -0.482  -0.848   0.635  0.00  0.00     0.058 A 
ENDROOT
TORSDOF 0
ENDMDL
