MODEL 1
REMARK minimizedAffinity 0.793129146
REMARK minimizedRMSD -1
REMARK  0 active torsions:
REMARK  status: ('A' for Active; 'I' for Inactive)
ROOT
ATOM      1  O1  BZF d   1       0.129  -1.194   1.248  0.00  0.00    -0.204 OA
ATOM      2  C2  BZF d   1       1.362  -0.571   1.263  0.00  0.00     0.174 A 
ATOM      3  C3  BZF d   1       1.518   0.207   0.172  0.00  0.00    -0.012 A 
ATOM      4  C3A BZF d   1       0.271   0.133  -0.524  0.00  0.00    -0.107 A 
ATOM      5  C4  BZF d   1      -0.198   0.703  -1.673  0.00  0.00     0.055 A 
ATOM      6  C5  BZF d   1      -1.437   0.369  -2.119  0.00  0.00    -0.016 A 
ATOM      7  C6  BZF d   1      -2.232  -0.535  -1.445  0.00  0.00     0.022 A 
ATOM      8  C7  BZF d   1      -1.812  -1.123  -0.298  0.00  0.00     0.029 A 
ATOM      9  C7A BZF d   1      -0.573  -0.762   0.173  0.00  0.00     0.058 A 
ENDROOT
TORSDOF 0
ENDMDL
