MODEL 1
REMARK minimizedAffinity -5.49547195
REMARK minimizedRMSD -1
REMARK  0 active torsions:
REMARK  status: ('A' for Active; 'I' for Inactive)
ROOT
ATOM      1  O1  BZF d   1       0.912   0.131  -1.282  0.00  0.00    -0.204 OA
ATOM      2  C2  BZF d   1       1.693  -0.333  -0.240  0.00  0.00     0.174 A 
ATOM      3  C3  BZF d   1       0.924  -0.729   0.795  0.00  0.00    -0.012 A 
ATOM      4  C3A BZF d   1      -0.425  -0.584   0.338  0.00  0.00    -0.107 A 
ATOM      5  C4  BZF d   1      -1.641  -0.831   0.909  0.00  0.00     0.055 A 
ATOM      6  C5  BZF d   1      -2.769  -0.513   0.222  0.00  0.00    -0.016 A 
ATOM      7  C6  BZF d   1      -2.719   0.059  -1.032  0.00  0.00     0.022 A 
ATOM      8  C7  BZF d   1      -1.536   0.318  -1.641  0.00  0.00     0.029 A 
ATOM      9  C7A BZF d   1      -0.394  -0.033  -0.964  0.00  0.00     0.058 A 
ENDROOT
TORSDOF 0
ENDMDL
