MODEL 1
REMARK minimizedAffinity 0.495514631
REMARK minimizedRMSD -1
REMARK  0 active torsions:
REMARK  status: ('A' for Active; 'I' for Inactive)
ROOT
ATOM      1  O1  BZF d   1       2.143  -1.516   0.074  0.00  0.00    -0.204 OA
ATOM      2  C2  BZF d   1       2.531  -0.485  -0.760  0.00  0.00     0.174 A 
ATOM      3  C3  BZF d   1       1.617   0.506  -0.753  0.00  0.00    -0.012 A 
ATOM      4  C3A BZF d   1       0.638   0.109   0.211  0.00  0.00    -0.107 A 
ATOM      5  C4  BZF d   1      -0.509   0.685   0.678  0.00  0.00     0.055 A 
ATOM      6  C5  BZF d   1      -1.277   0.003   1.567  0.00  0.00    -0.016 A 
ATOM      7  C6  BZF d   1      -0.932  -1.259   2.006  0.00  0.00     0.022 A 
ATOM      8  C7  BZF d   1       0.198  -1.869   1.576  0.00  0.00     0.029 A 
ATOM      9  C7A BZF d   1       0.994  -1.168   0.702  0.00  0.00     0.058 A 
ENDROOT
TORSDOF 0
ENDMDL
