MODEL 1
REMARK minimizedAffinity -6.11734819
REMARK minimizedRMSD -1
REMARK  0 active torsions:
REMARK  status: ('A' for Active; 'I' for Inactive)
ROOT
ATOM      1  O1  BZF d   1       0.412  -1.048   0.783  0.00  0.00    -0.204 OA
ATOM      2  C2  BZF d   1       0.718   0.032  -0.022  0.00  0.00     0.174 A 
ATOM      3  C3  BZF d   1      -0.307   0.315  -0.853  0.00  0.00    -0.012 A 
ATOM      4  C3A BZF d   1      -1.351  -0.591  -0.484  0.00  0.00    -0.107 A 
ATOM      5  C4  BZF d   1      -2.625  -0.789  -0.935  0.00  0.00     0.055 A 
ATOM      6  C5  BZF d   1      -3.360  -1.805  -0.411  0.00  0.00    -0.016 A 
ATOM      7  C6  BZF d   1      -2.852  -2.644   0.559  0.00  0.00     0.022 A 
ATOM      8  C7  BZF d   1      -1.596  -2.483   1.042  0.00  0.00     0.029 A 
ATOM      9  C7A BZF d   1      -0.862  -1.437   0.538  0.00  0.00     0.058 A 
ENDROOT
TORSDOF 0
ENDMDL
