MODEL 1
REMARK minimizedAffinity -3.05925894
REMARK minimizedRMSD -1
REMARK  0 active torsions:
REMARK  status: ('A' for Active; 'I' for Inactive)
ROOT
ATOM      1  O1  BZF d   1       0.792   0.301  -0.597  0.00  0.00    -0.204 OA
ATOM      2  C2  BZF d   1       1.226   0.054   0.691  0.00  0.00     0.174 A 
ATOM      3  C3  BZF d   1       0.211  -0.389   1.461  0.00  0.00    -0.012 A 
ATOM      4  C3A BZF d   1      -0.908  -0.509   0.577  0.00  0.00    -0.107 A 
ATOM      5  C4  BZF d   1      -2.200  -0.916   0.748  0.00  0.00     0.055 A 
ATOM      6  C5  BZF d   1      -3.059  -0.845  -0.302  0.00  0.00    -0.016 A 
ATOM      7  C6  BZF d   1      -2.662  -0.367  -1.534  0.00  0.00     0.022 A 
ATOM      8  C7  BZF d   1      -1.390   0.043  -1.753  0.00  0.00     0.029 A 
ATOM      9  C7A BZF d   1      -0.510  -0.058  -0.703  0.00  0.00     0.058 A 
ENDROOT
TORSDOF 0
ENDMDL
