MODEL 1
REMARK minimizedAffinity -2.31350183
REMARK minimizedRMSD -1
REMARK  0 active torsions:
REMARK  status: ('A' for Active; 'I' for Inactive)
ROOT
ATOM      1  O1  BZF d   1       0.568  -0.293   1.154  0.00  0.00    -0.204 OA
ATOM      2  C2  BZF d   1       1.595   0.176   0.357  0.00  0.00     0.174 A 
ATOM      3  C3  BZF d   1       1.180   0.329  -0.917  0.00  0.00    -0.012 A 
ATOM      4  C3A BZF d   1      -0.217   0.019  -0.898  0.00  0.00    -0.107 A 
ATOM      5  C4  BZF d   1      -1.189   0.005  -1.857  0.00  0.00     0.055 A 
ATOM      6  C5  BZF d   1      -2.438  -0.416  -1.525  0.00  0.00    -0.016 A 
ATOM      7  C6  BZF d   1      -2.748  -0.834  -0.248  0.00  0.00     0.022 A 
ATOM      8  C7  BZF d   1      -1.818  -0.833   0.739  0.00  0.00     0.029 A 
ATOM      9  C7A BZF d   1      -0.564  -0.377   0.415  0.00  0.00     0.058 A 
ENDROOT
TORSDOF 0
ENDMDL
