MODEL 1
REMARK minimizedAffinity -3.78293014
REMARK minimizedRMSD -1
REMARK  0 active torsions:
REMARK  status: ('A' for Active; 'I' for Inactive)
ROOT
ATOM      1  O1  BZF d   1      -2.151  -1.141   0.742  0.00  0.00    -0.204 OA
ATOM      2  C2  BZF d   1      -2.996  -1.051  -0.346  0.00  0.00     0.174 A 
ATOM      3  C3  BZF d   1      -2.392  -0.414  -1.370  0.00  0.00    -0.012 A 
ATOM      4  C3A BZF d   1      -1.055  -0.167  -0.923  0.00  0.00    -0.107 A 
ATOM      5  C4  BZF d   1       0.034   0.420  -1.500  0.00  0.00     0.055 A 
ATOM      6  C5  BZF d   1       1.169   0.569  -0.768  0.00  0.00    -0.016 A 
ATOM      7  C6  BZF d   1       1.248   0.147   0.543  0.00  0.00     0.022 A 
ATOM      8  C7  BZF d   1       0.196  -0.446   1.157  0.00  0.00     0.029 A 
ATOM      9  C7A BZF d   1      -0.942  -0.628   0.409  0.00  0.00     0.058 A 
ENDROOT
TORSDOF 0
ENDMDL
