MODEL 1
REMARK minimizedAffinity -4.55532265
REMARK minimizedRMSD -1
REMARK  0 active torsions:
REMARK  status: ('A' for Active; 'I' for Inactive)
ROOT
ATOM      1  O1  BZF d   1      -0.090  -0.231   0.553  0.00  0.00    -0.204 OA
ATOM      2  C2  BZF d   1       0.250   0.723  -0.387  0.00  0.00     0.174 A 
ATOM      3  C3  BZF d   1      -0.645   0.740  -1.396  0.00  0.00    -0.012 A 
ATOM      4  C3A BZF d   1      -1.654  -0.202  -1.020  0.00  0.00    -0.107 A 
ATOM      5  C4  BZF d   1      -2.815  -0.618  -1.606  0.00  0.00     0.055 A 
ATOM      6  C5  BZF d   1      -3.537  -1.606  -1.015  0.00  0.00    -0.016 A 
ATOM      7  C6  BZF d   1      -3.125  -2.203   0.159  0.00  0.00     0.022 A 
ATOM      8  C7  BZF d   1      -1.983  -1.820   0.780  0.00  0.00     0.029 A 
ATOM      9  C7A BZF d   1      -1.269  -0.799   0.202  0.00  0.00     0.058 A 
ENDROOT
TORSDOF 0
ENDMDL
