MODEL 1
REMARK minimizedAffinity -4.49584675
REMARK minimizedRMSD -1
REMARK  0 active torsions:
REMARK  status: ('A' for Active; 'I' for Inactive)
ROOT
ATOM      1  O1  BZF d   1       0.194   0.139  -1.144  0.00  0.00    -0.204 OA
ATOM      2  C2  BZF d   1       1.156   0.218  -0.156  0.00  0.00     0.174 A 
ATOM      3  C3  BZF d   1       0.641  -0.126   1.042  0.00  0.00    -0.012 A 
ATOM      4  C3A BZF d   1      -0.705  -0.528   0.771  0.00  0.00    -0.107 A 
ATOM      5  C4  BZF d   1      -1.722  -0.991   1.556  0.00  0.00     0.055 A 
ATOM      6  C5  BZF d   1      -2.937  -1.223   0.993  0.00  0.00    -0.016 A 
ATOM      7  C6  BZF d   1      -3.172  -0.998  -0.347  0.00  0.00     0.022 A 
ATOM      8  C7  BZF d   1      -2.192  -0.543  -1.167  0.00  0.00     0.029 A 
ATOM      9  C7A BZF d   1      -0.954  -0.339  -0.608  0.00  0.00     0.058 A 
ENDROOT
TORSDOF 0
ENDMDL
