MODEL 1
REMARK minimizedAffinity -2.8412168
REMARK minimizedRMSD -1
REMARK  0 active torsions:
REMARK  status: ('A' for Active; 'I' for Inactive)
ROOT
ATOM      1  O1  BZF d   1       1.476  -0.368  -1.029  0.00  0.00    -0.204 OA
ATOM      2  C2  BZF d   1       1.846   0.331   0.103  0.00  0.00     0.174 A 
ATOM      3  C3  BZF d   1       0.760   0.748   0.785  0.00  0.00    -0.012 A 
ATOM      4  C3A BZF d   1      -0.359   0.200   0.081  0.00  0.00    -0.107 A 
ATOM      5  C4  BZF d   1      -1.709   0.250   0.279  0.00  0.00     0.055 A 
ATOM      6  C5  BZF d   1      -2.533  -0.330  -0.633  0.00  0.00    -0.016 A 
ATOM      7  C6  BZF d   1      -2.042  -0.962  -1.756  0.00  0.00     0.022 A 
ATOM      8  C7  BZF d   1      -0.710  -1.041  -1.994  0.00  0.00     0.029 A 
ATOM      9  C7A BZF d   1       0.126  -0.485  -1.057  0.00  0.00     0.058 A 
ENDROOT
TORSDOF 0
ENDMDL
