MODEL 1
REMARK minimizedAffinity -3.2935226
REMARK minimizedRMSD -1
REMARK  0 active torsions:
REMARK  status: ('A' for Active; 'I' for Inactive)
ROOT
ATOM      1  O1  BZF d   1       0.658  -0.795   0.960  0.00  0.00    -0.204 OA
ATOM      2  C2  BZF d   1       1.327   0.028   0.075  0.00  0.00     0.174 A 
ATOM      3  C3  BZF d   1       0.508   0.430  -0.918  0.00  0.00    -0.012 A 
ATOM      4  C3A BZF d   1      -0.777  -0.106  -0.586  0.00  0.00    -0.107 A 
ATOM      5  C4  BZF d   1      -2.005  -0.037  -1.179  0.00  0.00     0.055 A 
ATOM      6  C5  BZF d   1      -3.039  -0.733  -0.638  0.00  0.00    -0.016 A 
ATOM      7  C6  BZF d   1      -2.881  -1.509   0.491  0.00  0.00     0.022 A 
ATOM      8  C7  BZF d   1      -1.683  -1.604   1.118  0.00  0.00     0.029 A 
ATOM      9  C7A BZF d   1      -0.643  -0.876   0.593  0.00  0.00     0.058 A 
ENDROOT
TORSDOF 0
ENDMDL
