MODEL 1
REMARK minimizedAffinity 5.24378538
REMARK minimizedRMSD -1
REMARK  0 active torsions:
REMARK  status: ('A' for Active; 'I' for Inactive)
ROOT
ATOM      1  C   UNL d   1      -5.991   0.390   2.225  0.00  0.00    -0.002 A 
ATOM      2  C1  UNL d   1      -5.989   0.429   3.612  0.00  0.00     0.010 A 
ATOM      3  C2  UNL d   1      -5.991  -0.752   4.356  0.00  0.00     0.041 A 
ATOM      4  C3  UNL d   1      -5.994  -1.986   3.676  0.00  0.00    -0.075 A 
ATOM      5  S   UNL d   1      -5.997  -3.560   4.379  0.00  0.00     0.015 SA
ATOM      6  C4  UNL d   1      -6.000  -4.322   2.854  0.00  0.00     0.022 A 
ATOM      7  C5  UNL d   1      -5.999  -3.413   1.823  0.00  0.00     0.026 A 
ATOM      8  C6  UNL d   1      -5.996  -2.051   2.280  0.00  0.00    -0.082 A 
ATOM      9  C7  UNL d   1      -5.994  -0.836   1.554  0.00  0.00     0.045 A 
ENDROOT
TORSDOF 0
ENDMDL
