MODEL 1
REMARK minimizedAffinity 0.749070704
REMARK minimizedRMSD -1
REMARK  0 active torsions:
REMARK  status: ('A' for Active; 'I' for Inactive)
ROOT
ATOM      1  C   UNL d   1      -0.570   1.373   2.606  0.00  0.00    -0.002 A 
ATOM      2  C1  UNL d   1      -0.921   2.494   1.867  0.00  0.00     0.010 A 
ATOM      3  C2  UNL d   1      -0.753   2.512   0.481  0.00  0.00     0.041 A 
ATOM      4  C3  UNL d   1      -0.223   1.372  -0.157  0.00  0.00    -0.075 A 
ATOM      5  S   UNL d   1       0.069   1.167  -1.843  0.00  0.00     0.015 SA
ATOM      6  C4  UNL d   1       0.666  -0.414  -1.623  0.00  0.00     0.022 A 
ATOM      7  C5  UNL d   1       0.650  -0.792  -0.301  0.00  0.00     0.026 A 
ATOM      8  C6  UNL d   1       0.137   0.231   0.566  0.00  0.00    -0.082 A 
ATOM      9  C7  UNL d   1      -0.045   0.245   1.970  0.00  0.00     0.045 A 
ENDROOT
TORSDOF 0
ENDMDL
