MODEL 1
REMARK minimizedAffinity -3.4584372
REMARK minimizedRMSD -1
REMARK  0 active torsions:
REMARK  status: ('A' for Active; 'I' for Inactive)
ROOT
ATOM      1  C   UNL d   1      -0.555   1.745   1.875  0.00  0.00    -0.002 A 
ATOM      2  C1  UNL d   1      -0.926   2.543   0.802  0.00  0.00     0.010 A 
ATOM      3  C2  UNL d   1      -0.750   2.096  -0.509  0.00  0.00     0.041 A 
ATOM      4  C3  UNL d   1      -0.190   0.822  -0.726  0.00  0.00    -0.075 A 
ATOM      5  S   UNL d   1       0.119   0.066  -2.245  0.00  0.00     0.015 SA
ATOM      6  C4  UNL d   1       0.750  -1.333  -1.504  0.00  0.00     0.022 A 
ATOM      7  C5  UNL d   1       0.733  -1.243  -0.133  0.00  0.00     0.026 A 
ATOM      8  C6  UNL d   1       0.191  -0.000   0.339  0.00  0.00    -0.082 A 
ATOM      9  C7  UNL d   1       0.000   0.482   1.656  0.00  0.00     0.045 A 
ENDROOT
TORSDOF 0
ENDMDL
