MODEL 1
REMARK minimizedAffinity -2.85456204
REMARK minimizedRMSD -1
REMARK  0 active torsions:
REMARK  status: ('A' for Active; 'I' for Inactive)
ROOT
ATOM      1  C   UNL d   1      -1.420   2.041   1.560  0.00  0.00    -0.002 A 
ATOM      2  C1  UNL d   1      -0.083   2.067   1.931  0.00  0.00     0.010 A 
ATOM      3  C2  UNL d   1       0.835   1.195   1.340  0.00  0.00     0.041 A 
ATOM      4  C3  UNL d   1       0.382   0.290   0.360  0.00  0.00    -0.075 A 
ATOM      5  S   UNL d   1       1.325  -0.869  -0.499  0.00  0.00     0.015 SA
ATOM      6  C4  UNL d   1      -0.024  -1.425  -1.379  0.00  0.00     0.022 A 
ATOM      7  C5  UNL d   1      -1.174  -0.754  -1.038  0.00  0.00     0.026 A 
ATOM      8  C6  UNL d   1      -0.959   0.246  -0.031  0.00  0.00    -0.082 A 
ATOM      9  C7  UNL d   1      -1.865   1.142   0.587  0.00  0.00     0.045 A 
ENDROOT
TORSDOF 0
ENDMDL
