MODEL 1
REMARK minimizedAffinity -1.6615299
REMARK minimizedRMSD -1
REMARK  1 active torsions:
REMARK  status: ('A' for Active; 'I' for Inactive)
REMARK    1  A    between atoms: C1_2  and  C2_3 
ROOT
ATOM      1  C2  UNL d   1      -1.027  -1.735  -0.129  0.00  0.00    -0.076 A 
ATOM      2  C3  UNL d   1      -2.163  -2.144  -0.849  0.00  0.00     0.004 A 
ATOM      3  C4  UNL d   1      -2.060  -3.065  -1.889  0.00  0.00    -0.003 A 
ATOM      4  C5  UNL d   1      -0.820  -3.594  -2.227  0.00  0.00     0.000 A 
ATOM      5  C6  UNL d   1       0.316  -3.214  -1.512  0.00  0.00     0.000 A 
ATOM      6  C7  UNL d   1       0.227  -2.298  -0.450  0.00  0.00    -0.073 A 
ATOM      7  C8  UNL d   1       1.485  -1.919   0.283  0.00  0.00     0.078 C 
ENDROOT
BRANCH   1   8
ATOM      8  C1  UNL d   1      -1.195  -0.713   0.972  0.00  0.00     0.053 C 
ATOM      9  C   UNL d   1      -1.147   0.716   0.452  0.00  0.00     0.018 C 
ENDBRANCH   1   8
TORSDOF 1
ENDMDL
