MODEL 1
REMARK minimizedAffinity -3.52788424
REMARK minimizedRMSD -1
REMARK  1 active torsions:
REMARK  status: ('A' for Active; 'I' for Inactive)
REMARK    1  A    between atoms: C1_2  and  C2_3 
ROOT
ATOM      1  C2  UNL d   1      -0.753  -0.866  -0.831  0.00  0.00    -0.076 A 
ATOM      2  C3  UNL d   1      -1.719  -1.140  -1.814  0.00  0.00     0.004 A 
ATOM      3  C4  UNL d   1      -1.753  -2.373  -2.463  0.00  0.00    -0.003 A 
ATOM      4  C5  UNL d   1      -0.821  -3.353  -2.139  0.00  0.00     0.000 A 
ATOM      5  C6  UNL d   1       0.133  -3.105  -1.153  0.00  0.00     0.000 A 
ATOM      6  C7  UNL d   1       0.171  -1.873  -0.477  0.00  0.00    -0.073 A 
ATOM      7  C8  UNL d   1       1.225  -1.658   0.573  0.00  0.00     0.078 C 
ENDROOT
BRANCH   1   8
ATOM      8  C1  UNL d   1      -0.748   0.498  -0.180  0.00  0.00     0.053 C 
ATOM      9  C   UNL d   1      -1.814   0.635   0.896  0.00  0.00     0.018 C 
ENDBRANCH   1   8
TORSDOF 1
ENDMDL
