MODEL 1
REMARK minimizedAffinity -0.471004635
REMARK minimizedRMSD -1
REMARK  1 active torsions:
REMARK  status: ('A' for Active; 'I' for Inactive)
REMARK    1  A    between atoms: C1_2  and  C2_3 
ROOT
ATOM      1  C2  UNL d   1      -0.442  -0.949  -0.633  0.00  0.00    -0.076 A 
ATOM      2  C3  UNL d   1      -1.793  -0.568  -0.709  0.00  0.00     0.004 A 
ATOM      3  C4  UNL d   1      -2.291   0.468   0.079  0.00  0.00    -0.003 A 
ATOM      4  C5  UNL d   1      -1.447   1.140   0.956  0.00  0.00     0.000 A 
ATOM      5  C6  UNL d   1      -0.100   0.787   1.032  0.00  0.00     0.000 A 
ATOM      6  C7  UNL d   1       0.422  -0.244   0.232  0.00  0.00    -0.073 A 
ATOM      7  C8  UNL d   1       1.882  -0.587   0.359  0.00  0.00     0.078 C 
ENDROOT
BRANCH   1   8
ATOM      8  C1  UNL d   1       0.037  -2.097  -1.492  0.00  0.00     0.053 C 
ATOM      9  C   UNL d   1      -1.107  -2.967  -1.991  0.00  0.00     0.018 C 
ENDBRANCH   1   8
TORSDOF 1
ENDMDL
