MODEL 1
REMARK minimizedAffinity -0.419374883
REMARK minimizedRMSD -1
REMARK  1 active torsions:
REMARK  status: ('A' for Active; 'I' for Inactive)
REMARK    1  A    between atoms: C1_2  and  C2_3 
ROOT
ATOM      1  C2  UNL d   1      -0.244  -1.107  -0.810  0.00  0.00    -0.076 A 
ATOM      2  C3  UNL d   1      -1.405  -0.380  -1.129  0.00  0.00     0.004 A 
ATOM      3  C4  UNL d   1      -1.708   0.812  -0.473  0.00  0.00    -0.003 A 
ATOM      4  C5  UNL d   1      -0.854   1.297   0.512  0.00  0.00     0.000 A 
ATOM      5  C6  UNL d   1       0.310   0.599   0.829  0.00  0.00     0.000 A 
ATOM      6  C7  UNL d   1       0.639  -0.596   0.166  0.00  0.00    -0.073 A 
ATOM      7  C8  UNL d   1       1.904  -1.312   0.551  0.00  0.00     0.078 C 
ENDROOT
BRANCH   1   8
ATOM      8  C1  UNL d   1       0.018  -2.407  -1.535  0.00  0.00     0.053 C 
ATOM      9  C   UNL d   1      -1.235  -2.976  -2.183  0.00  0.00     0.018 C 
ENDBRANCH   1   8
TORSDOF 1
ENDMDL
