MODEL 1
REMARK minimizedAffinity -4.51530266
REMARK minimizedRMSD -1
REMARK  1 active torsions:
REMARK  status: ('A' for Active; 'I' for Inactive)
REMARK    1  A    between atoms: C1_2  and  C2_3 
ROOT
ATOM      1  C2  UNL d   1       0.003   1.338   0.844  0.00  0.00    -0.076 A 
ATOM      2  C3  UNL d   1       1.361   1.116   0.559  0.00  0.00     0.004 A 
ATOM      3  C4  UNL d   1       1.882  -0.176   0.513  0.00  0.00    -0.003 A 
ATOM      4  C5  UNL d   1       1.053  -1.267   0.751  0.00  0.00     0.000 A 
ATOM      5  C6  UNL d   1      -0.301  -1.066   1.019  0.00  0.00     0.000 A 
ATOM      6  C7  UNL d   1      -0.845   0.230   1.052  0.00  0.00    -0.073 A 
ATOM      7  C8  UNL d   1      -2.311   0.389   1.351  0.00  0.00     0.078 C 
ENDROOT
BRANCH   1   8
ATOM      8  C1  UNL d   1      -0.500   2.763   0.907  0.00  0.00     0.053 C 
ATOM      9  C   UNL d   1       0.240   3.685  -0.048  0.00  0.00     0.018 C 
ENDBRANCH   1   8
TORSDOF 1
ENDMDL
