MODEL 1
REMARK minimizedAffinity -1.35918331
REMARK minimizedRMSD -1
REMARK  1 active torsions:
REMARK  status: ('A' for Active; 'I' for Inactive)
REMARK    1  A    between atoms: C1_2  and  C2_3 
ROOT
ATOM      1  C2  UNL d   1      -0.580  -1.258  -0.079  0.00  0.00    -0.076 A 
ATOM      2  C3  UNL d   1      -1.435  -2.225  -0.636  0.00  0.00     0.004 A 
ATOM      3  C4  UNL d   1      -0.983  -3.097  -1.625  0.00  0.00    -0.003 A 
ATOM      4  C5  UNL d   1       0.331  -3.017  -2.072  0.00  0.00     0.000 A 
ATOM      5  C6  UNL d   1       1.198  -2.075  -1.518  0.00  0.00     0.000 A 
ATOM      6  C7  UNL d   1       0.762  -1.199  -0.509  0.00  0.00    -0.073 A 
ATOM      7  C8  UNL d   1       1.738  -0.199   0.048  0.00  0.00     0.078 C 
ENDROOT
BRANCH   1   8
ATOM      8  C1  UNL d   1      -1.134  -0.321   0.971  0.00  0.00     0.053 C 
ATOM      9  C   UNL d   1      -1.169   1.125   0.501  0.00  0.00     0.018 C 
ENDBRANCH   1   8
TORSDOF 1
ENDMDL
