MODEL 1
REMARK minimizedAffinity -4.72366571
REMARK minimizedRMSD -1
REMARK  1 active torsions:
REMARK  status: ('A' for Active; 'I' for Inactive)
REMARK    1  A    between atoms: C1_2  and  C2_3 
ROOT
ATOM      1  C2  UNL d   1      -0.251  -1.320  -0.854  0.00  0.00    -0.076 A 
ATOM      2  C3  UNL d   1      -1.284  -2.269  -0.762  0.00  0.00     0.004 A 
ATOM      3  C4  UNL d   1      -1.543  -3.151  -1.810  0.00  0.00    -0.003 A 
ATOM      4  C5  UNL d   1      -0.773  -3.099  -2.966  0.00  0.00     0.000 A 
ATOM      5  C6  UNL d   1       0.267  -2.176  -3.068  0.00  0.00     0.000 A 
ATOM      6  C7  UNL d   1       0.552  -1.290  -2.014  0.00  0.00    -0.073 A 
ATOM      7  C8  UNL d   1       1.681  -0.311  -2.180  0.00  0.00     0.078 C 
ENDROOT
BRANCH   1   8
ATOM      8  C1  UNL d   1      -0.035  -0.371   0.303  0.00  0.00     0.053 C 
ATOM      9  C   UNL d   1      -1.262   0.477   0.599  0.00  0.00     0.018 C 
ENDBRANCH   1   8
TORSDOF 1
ENDMDL
