MODEL 1
REMARK minimizedAffinity -3.79347062
REMARK minimizedRMSD -1
REMARK  1 active torsions:
REMARK  status: ('A' for Active; 'I' for Inactive)
REMARK    1  A    between atoms: C1_2  and  C2_3 
ROOT
ATOM      1  C2  UNL d   1      -0.296  -1.213  -0.893  0.00  0.00    -0.076 A 
ATOM      2  C3  UNL d   1      -0.871  -2.375  -0.348  0.00  0.00     0.004 A 
ATOM      3  C4  UNL d   1      -1.225  -3.449  -1.162  0.00  0.00    -0.003 A 
ATOM      4  C5  UNL d   1      -1.010  -3.381  -2.534  0.00  0.00     0.000 A 
ATOM      5  C6  UNL d   1      -0.424  -2.243  -3.089  0.00  0.00     0.000 A 
ATOM      6  C7  UNL d   1      -0.046  -1.158  -2.281  0.00  0.00    -0.073 A 
ATOM      7  C8  UNL d   1       0.576   0.046  -2.934  0.00  0.00     0.078 C 
ENDROOT
BRANCH   1   8
ATOM      8  C1  UNL d   1       0.043  -0.069   0.035  0.00  0.00     0.053 C 
ATOM      9  C   UNL d   1      -1.190   0.691   0.497  0.00  0.00     0.018 C 
ENDBRANCH   1   8
TORSDOF 1
ENDMDL
