MODEL 1
REMARK minimizedAffinity -2.75290442
REMARK minimizedRMSD -1
REMARK  0 active torsions:
REMARK  status: ('A' for Active; 'I' for Inactive)
ROOT
ATOM      1  C   UNL d   1      -2.628  -0.857  -2.947  0.00  0.00     0.078 C 
ATOM      2  C1  UNL d   1      -3.796   0.015  -3.297  0.00  0.00    -0.077 A 
ATOM      3  C2  UNL d   1      -4.102   1.151  -2.536  0.00  0.00    -0.001 A 
ATOM      4  C3  UNL d   1      -5.198   1.948  -2.868  0.00  0.00     0.003 A 
ATOM      5  C4  UNL d   1      -5.999   1.618  -3.959  0.00  0.00    -0.005 A 
ATOM      6  C5  UNL d   1      -5.704   0.489  -4.720  0.00  0.00     0.003 A 
ATOM      7  C6  UNL d   1      -4.608  -0.310  -4.391  0.00  0.00    -0.001 A 
ENDROOT
TORSDOF 0
ENDMDL
