MODEL 1
REMARK minimizedAffinity 5.50194979
REMARK minimizedRMSD -1
REMARK  0 active torsions:
REMARK  status: ('A' for Active; 'I' for Inactive)
ROOT
ATOM      1  C   UNL d   1       1.691  -2.731   0.501  0.00  0.00     0.078 C 
ATOM      2  C1  UNL d   1       2.860  -3.670   0.500  0.00  0.00    -0.077 A 
ATOM      3  C2  UNL d   1       3.330  -4.236  -0.691  0.00  0.00    -0.001 A 
ATOM      4  C3  UNL d   1       4.412  -5.117  -0.675  0.00  0.00     0.003 A 
ATOM      5  C4  UNL d   1       5.034  -5.440   0.529  0.00  0.00    -0.005 A 
ATOM      6  C5  UNL d   1       4.572  -4.883   1.720  0.00  0.00     0.003 A 
ATOM      7  C6  UNL d   1       3.489  -4.002   1.706  0.00  0.00    -0.001 A 
ENDROOT
TORSDOF 0
ENDMDL
