MODEL 1
REMARK minimizedAffinity 6.40615511
REMARK minimizedRMSD -1
REMARK  0 active torsions:
REMARK  status: ('A' for Active; 'I' for Inactive)
ROOT
ATOM      1  C   UNL d   1       2.417   2.397   4.126  0.00  0.00     0.078 C 
ATOM      2  C1  UNL d   1       2.905   3.655   4.780  0.00  0.00    -0.077 A 
ATOM      3  C2  UNL d   1       2.127   4.819   4.776  0.00  0.00    -0.001 A 
ATOM      4  C3  UNL d   1       2.598   5.986   5.380  0.00  0.00     0.003 A 
ATOM      5  C4  UNL d   1       3.850   6.000   5.992  0.00  0.00    -0.005 A 
ATOM      6  C5  UNL d   1       4.633   4.847   6.000  0.00  0.00     0.003 A 
ATOM      7  C6  UNL d   1       4.163   3.680   5.396  0.00  0.00    -0.001 A 
ENDROOT
TORSDOF 0
ENDMDL
