MODEL 1
REMARK minimizedAffinity 6.16307402
REMARK minimizedRMSD -1
REMARK  0 active torsions:
REMARK  status: ('A' for Active; 'I' for Inactive)
ROOT
ATOM      1  C   UNL d   1       2.751   3.014   2.791  0.00  0.00     0.078 C 
ATOM      2  C1  UNL d   1       2.562   4.046   3.863  0.00  0.00    -0.077 A 
ATOM      3  C2  UNL d   1       1.584   5.040   3.742  0.00  0.00    -0.001 A 
ATOM      4  C3  UNL d   1       1.426   6.000   4.744  0.00  0.00     0.003 A 
ATOM      5  C4  UNL d   1       2.244   5.975   5.872  0.00  0.00    -0.005 A 
ATOM      6  C5  UNL d   1       3.221   4.990   5.999  0.00  0.00     0.003 A 
ATOM      7  C6  UNL d   1       3.381   4.030   4.999  0.00  0.00    -0.001 A 
ENDROOT
TORSDOF 0
ENDMDL
