MODEL 1
REMARK minimizedAffinity 2.28692842
REMARK minimizedRMSD -1
REMARK  0 active torsions:
REMARK  status: ('A' for Active; 'I' for Inactive)
ROOT
ATOM      1  C   UNL d   1      -1.249  -3.265   3.113  0.00  0.00     0.078 C 
ATOM      2  C1  UNL d   1       0.016  -3.294   2.308  0.00  0.00    -0.077 A 
ATOM      3  C2  UNL d   1       0.647  -4.506   2.000  0.00  0.00    -0.001 A 
ATOM      4  C3  UNL d   1       1.829  -4.517   1.258  0.00  0.00     0.003 A 
ATOM      5  C4  UNL d   1       2.392  -3.320   0.820  0.00  0.00    -0.005 A 
ATOM      6  C5  UNL d   1       1.773  -2.110   1.124  0.00  0.00     0.003 A 
ATOM      7  C6  UNL d   1       0.591  -2.096   1.865  0.00  0.00    -0.001 A 
ENDROOT
TORSDOF 0
ENDMDL
