MODEL 1
REMARK minimizedAffinity 3.53942966
REMARK minimizedRMSD -1
REMARK  0 active torsions:
REMARK  status: ('A' for Active; 'I' for Inactive)
ROOT
ATOM      1  C   UNL d   1       2.880  -4.863   0.535  0.00  0.00     0.078 C 
ATOM      2  C1  UNL d   1       1.793  -3.973   1.059  0.00  0.00    -0.077 A 
ATOM      3  C2  UNL d   1       2.046  -2.632   1.372  0.00  0.00    -0.001 A 
ATOM      4  C3  UNL d   1       1.027  -1.818   1.868  0.00  0.00     0.003 A 
ATOM      5  C4  UNL d   1      -0.252  -2.336   2.058  0.00  0.00    -0.005 A 
ATOM      6  C5  UNL d   1      -0.514  -3.670   1.752  0.00  0.00     0.003 A 
ATOM      7  C6  UNL d   1       0.504  -4.485   1.255  0.00  0.00    -0.001 A 
ENDROOT
TORSDOF 0
ENDMDL
