MODEL 1
REMARK minimizedAffinity 1.57049358
REMARK minimizedRMSD -1
REMARK  0 active torsions:
REMARK  status: ('A' for Active; 'I' for Inactive)
ROOT
ATOM      1  C   UNL d   1      -5.534   1.899   1.805  0.00  0.00     0.078 C 
ATOM      2  C1  UNL d   1      -5.204   1.865   3.267  0.00  0.00    -0.077 A 
ATOM      3  C2  UNL d   1      -6.000   1.150   4.170  0.00  0.00    -0.001 A 
ATOM      4  C3  UNL d   1      -5.686   1.135   5.530  0.00  0.00     0.003 A 
ATOM      5  C4  UNL d   1      -4.576   1.834   6.000  0.00  0.00    -0.005 A 
ATOM      6  C5  UNL d   1      -3.779   2.551   5.109  0.00  0.00     0.003 A 
ATOM      7  C6  UNL d   1      -4.092   2.567   3.749  0.00  0.00    -0.001 A 
ENDROOT
TORSDOF 0
ENDMDL
