MODEL 1
REMARK minimizedAffinity 0.730953753
REMARK minimizedRMSD -1
REMARK  0 active torsions:
REMARK  status: ('A' for Active; 'I' for Inactive)
ROOT
ATOM      1  C   UNL d   1       4.633  -3.400   4.548  0.00  0.00     0.078 C 
ATOM      2  C1  UNL d   1       4.289  -3.592   3.101  0.00  0.00    -0.077 A 
ATOM      3  C2  UNL d   1       3.274  -2.842   2.495  0.00  0.00    -0.001 A 
ATOM      4  C3  UNL d   1       2.958  -3.038   1.150  0.00  0.00     0.003 A 
ATOM      5  C4  UNL d   1       3.651  -3.986   0.399  0.00  0.00    -0.005 A 
ATOM      6  C5  UNL d   1       4.661  -4.740   0.994  0.00  0.00     0.003 A 
ATOM      7  C6  UNL d   1       4.979  -4.544   2.339  0.00  0.00    -0.001 A 
ENDROOT
TORSDOF 0
ENDMDL
