MODEL 1
REMARK minimizedAffinity -1.63511312
REMARK minimizedRMSD -1
REMARK  0 active torsions:
REMARK  status: ('A' for Active; 'I' for Inactive)
ROOT
ATOM      1  C   UNL d   1      -3.572   4.223   5.716  0.00  0.00     0.078 C 
ATOM      2  C1  UNL d   1      -4.427   3.124   5.158  0.00  0.00    -0.077 A 
ATOM      3  C2  UNL d   1      -5.197   2.311   5.999  0.00  0.00    -0.001 A 
ATOM      4  C3  UNL d   1      -5.980   1.286   5.466  0.00  0.00     0.003 A 
ATOM      5  C4  UNL d   1      -6.000   1.063   4.090  0.00  0.00    -0.005 A 
ATOM      6  C5  UNL d   1      -5.235   1.865   3.246  0.00  0.00     0.003 A 
ATOM      7  C6  UNL d   1      -4.451   2.891   3.777  0.00  0.00    -0.001 A 
ENDROOT
TORSDOF 0
ENDMDL
