MODEL 1
REMARK minimizedAffinity 6.44291782
REMARK minimizedRMSD -1
REMARK  1 active torsions:
REMARK  status: ('A' for Active; 'I' for Inactive)
REMARK    1  A    between atoms: C1_2  and  C2_3 
ROOT
ATOM      1  C2  UNL d   1       0.978   2.642  -3.142  0.00  0.00    -0.081 A 
ATOM      2  C3  UNL d   1       1.006   1.291  -3.509  0.00  0.00     0.006 A 
ATOM      3  C4  UNL d   1       1.827   0.389  -2.827  0.00  0.00     0.002 A 
ATOM      4  C5  UNL d   1       2.626   0.821  -1.763  0.00  0.00    -0.080 A 
ATOM      5  C6  UNL d   1       3.488  -0.143  -1.004  0.00  0.00     0.076 C 
ATOM      6  C7  UNL d   1       2.611   2.174  -1.408  0.00  0.00     0.002 A 
ATOM      7  C8  UNL d   1       1.792   3.076  -2.090  0.00  0.00     0.006 A 
ENDROOT
BRANCH   1   8
ATOM      8  C1  UNL d   1       0.047   3.604  -3.833  0.00  0.00     0.054 C 
ATOM      9  C   UNL d   1      -1.408   3.294  -3.512  0.00  0.00     0.018 C 
ENDBRANCH   1   8
TORSDOF 1
ENDMDL
