MODEL 1
REMARK minimizedAffinity 2.34082103
REMARK minimizedRMSD -1
REMARK  1 active torsions:
REMARK  status: ('A' for Active; 'I' for Inactive)
REMARK    1  A    between atoms: C1_2  and  C2_3 
ROOT
ATOM      1  C2  UNL d   1       0.930   2.829  -2.969  0.00  0.00    -0.081 A 
ATOM      2  C3  UNL d   1       1.387   1.585  -3.420  0.00  0.00     0.006 A 
ATOM      3  C4  UNL d   1       2.309   0.854  -2.667  0.00  0.00     0.002 A 
ATOM      4  C5  UNL d   1       2.783   1.350  -1.449  0.00  0.00    -0.080 A 
ATOM      5  C6  UNL d   1       3.750   0.562  -0.616  0.00  0.00     0.076 C 
ATOM      6  C7  UNL d   1       2.341   2.602  -1.007  0.00  0.00     0.002 A 
ATOM      7  C8  UNL d   1       1.419   3.334  -1.759  0.00  0.00     0.006 A 
ENDROOT
BRANCH   1   8
ATOM      8  C1  UNL d   1      -0.113   3.591  -3.747  0.00  0.00     0.054 C 
ATOM      9  C   UNL d   1      -1.517   3.122  -3.394  0.00  0.00     0.018 C 
ENDBRANCH   1   8
TORSDOF 1
ENDMDL
