MODEL 1
REMARK minimizedAffinity 1.39865446
REMARK minimizedRMSD -1
REMARK  1 active torsions:
REMARK  status: ('A' for Active; 'I' for Inactive)
REMARK    1  A    between atoms: C1_2  and  C2_3 
ROOT
ATOM      1  C2  UNL d   1       0.408  -1.752   2.480  0.00  0.00    -0.081 A 
ATOM      2  C3  UNL d   1       0.327  -1.901   1.090  0.00  0.00     0.006 A 
ATOM      3  C4  UNL d   1       1.439  -1.646   0.285  0.00  0.00     0.002 A 
ATOM      4  C5  UNL d   1       2.652  -1.245   0.856  0.00  0.00    -0.080 A 
ATOM      5  C6  UNL d   1       3.862  -0.998   0.005  0.00  0.00     0.076 C 
ATOM      6  C7  UNL d   1       2.728  -1.079   2.243  0.00  0.00     0.002 A 
ATOM      7  C8  UNL d   1       1.616  -1.333   3.048  0.00  0.00     0.006 A 
ENDROOT
BRANCH   1   8
ATOM      8  C1  UNL d   1      -0.771  -2.088   3.357  0.00  0.00     0.054 C 
ATOM      9  C   UNL d   1      -0.973  -3.593   3.459  0.00  0.00     0.018 C 
ENDBRANCH   1   8
TORSDOF 1
ENDMDL
