MODEL 1
REMARK minimizedAffinity 2.90518761
REMARK minimizedRMSD -1
REMARK  1 active torsions:
REMARK  status: ('A' for Active; 'I' for Inactive)
REMARK    1  A    between atoms: C1_2  and  C2_3 
ROOT
ATOM      1  C2  UNL d   1       1.917  -0.671  -0.295  0.00  0.00    -0.081 A 
ATOM      2  C3  UNL d   1       1.076  -0.829  -1.404  0.00  0.00     0.006 A 
ATOM      3  C4  UNL d   1       0.731   0.270  -2.194  0.00  0.00     0.002 A 
ATOM      4  C5  UNL d   1       1.227   1.543  -1.894  0.00  0.00    -0.080 A 
ATOM      5  C6  UNL d   1       0.890   2.726  -2.751  0.00  0.00     0.076 C 
ATOM      6  C7  UNL d   1       2.053   1.704  -0.776  0.00  0.00     0.002 A 
ATOM      7  C8  UNL d   1       2.398   0.606   0.014  0.00  0.00     0.006 A 
ENDROOT
BRANCH   1   8
ATOM      8  C1  UNL d   1       2.342  -1.865   0.520  0.00  0.00     0.054 C 
ATOM      9  C   UNL d   1       1.795  -1.790   1.939  0.00  0.00     0.018 C 
ENDBRANCH   1   8
TORSDOF 1
ENDMDL
