MODEL 1
REMARK minimizedAffinity 1.56001031
REMARK minimizedRMSD -1
REMARK  1 active torsions:
REMARK  status: ('A' for Active; 'I' for Inactive)
REMARK    1  A    between atoms: C1_2  and  C2_3 
ROOT
ATOM      1  C2  UNL d   1       1.439   1.810  -2.425  0.00  0.00    -0.081 A 
ATOM      2  C3  UNL d   1       1.926   0.657  -3.053  0.00  0.00     0.006 A 
ATOM      3  C4  UNL d   1       2.388  -0.421  -2.294  0.00  0.00     0.002 A 
ATOM      4  C5  UNL d   1       2.363  -0.367  -0.896  0.00  0.00    -0.080 A 
ATOM      5  C6  UNL d   1       2.828  -1.530  -0.069  0.00  0.00     0.076 C 
ATOM      6  C7  UNL d   1       1.893   0.791  -0.269  0.00  0.00     0.002 A 
ATOM      7  C8  UNL d   1       1.432   1.870  -1.027  0.00  0.00     0.006 A 
ENDROOT
BRANCH   1   8
ATOM      8  C1  UNL d   1       0.881   2.948  -3.240  0.00  0.00     0.054 C 
ATOM      9  C   UNL d   1      -0.524   3.317  -2.785  0.00  0.00     0.018 C 
ENDBRANCH   1   8
TORSDOF 1
ENDMDL
