MODEL 1
REMARK minimizedAffinity 5.64116478
REMARK minimizedRMSD -1
REMARK  1 active torsions:
REMARK  status: ('A' for Active; 'I' for Inactive)
REMARK    1  A    between atoms: C1_2  and  C2_3 
ROOT
ATOM      1  C2  UNL d   1       1.272   0.370   3.017  0.00  0.00    -0.081 A 
ATOM      2  C3  UNL d   1      -0.119   0.211   3.052  0.00  0.00     0.006 A 
ATOM      3  C4  UNL d   1      -0.687  -1.064   3.028  0.00  0.00     0.002 A 
ATOM      4  C5  UNL d   1       0.126  -2.202   2.976  0.00  0.00    -0.080 A 
ATOM      5  C6  UNL d   1      -0.471  -3.578   2.980  0.00  0.00     0.076 C 
ATOM      6  C7  UNL d   1       1.515  -2.043   2.923  0.00  0.00     0.002 A 
ATOM      7  C8  UNL d   1       2.083  -0.768   2.946  0.00  0.00     0.006 A 
ENDROOT
BRANCH   1   8
ATOM      8  C1  UNL d   1       1.890   1.742   3.108  0.00  0.00     0.054 C 
ATOM      9  C   UNL d   1       1.085   2.765   2.319  0.00  0.00     0.018 C 
ENDBRANCH   1   8
TORSDOF 1
ENDMDL
