MODEL 1
REMARK minimizedAffinity 3.44424295
REMARK minimizedRMSD -1
REMARK  1 active torsions:
REMARK  status: ('A' for Active; 'I' for Inactive)
REMARK    1  A    between atoms: C1_2  and  C2_3 
ROOT
ATOM      1  C2  UNL d   1       1.324  -1.464   0.965  0.00  0.00    -0.081 A 
ATOM      2  C3  UNL d   1       0.352  -1.064   0.040  0.00  0.00     0.006 A 
ATOM      3  C4  UNL d   1       0.688  -0.872  -1.302  0.00  0.00     0.002 A 
ATOM      4  C5  UNL d   1       1.999  -1.084  -1.742  0.00  0.00    -0.080 A 
ATOM      5  C6  UNL d   1       2.367  -0.910  -3.186  0.00  0.00     0.076 C 
ATOM      6  C7  UNL d   1       2.974  -1.466  -0.815  0.00  0.00     0.002 A 
ATOM      7  C8  UNL d   1       2.638  -1.658   0.527  0.00  0.00     0.006 A 
ENDROOT
BRANCH   1   8
ATOM      8  C1  UNL d   1       0.950  -1.734   2.400  0.00  0.00     0.054 C 
ATOM      9  C   UNL d   1       0.115  -0.601   2.978  0.00  0.00     0.018 C 
ENDBRANCH   1   8
TORSDOF 1
ENDMDL
