MODEL 1
REMARK minimizedAffinity 3.4770174
REMARK minimizedRMSD -1
REMARK  1 active torsions:
REMARK  status: ('A' for Active; 'I' for Inactive)
REMARK    1  A    between atoms: C1_2  and  C2_3 
ROOT
ATOM      1  C2  UNL d   1      -2.661   0.479   1.172  0.00  0.00    -0.077 A 
ATOM      2  C3  UNL d   1      -1.822   1.570   1.437  0.00  0.00     0.002 A 
ATOM      3  C4  UNL d   1      -1.092   1.627   2.626  0.00  0.00     0.002 A 
ATOM      4  C5  UNL d   1      -1.191   0.594   3.556  0.00  0.00    -0.004 A 
ATOM      5  C6  UNL d   1      -2.025  -0.494   3.303  0.00  0.00     0.002 A 
ATOM      6  C7  UNL d   1      -2.756  -0.552   2.115  0.00  0.00     0.002 A 
ENDROOT
BRANCH   1   7
ATOM      7  C1  UNL d   1      -3.411   0.392  -0.132  0.00  0.00     0.055 C 
ATOM      8  C   UNL d   1      -3.011  -0.847  -0.919  0.00  0.00     0.019 C 
ENDBRANCH   1   7
TORSDOF 1
ENDMDL
