MODEL 1
REMARK minimizedAffinity 3.99252677
REMARK minimizedRMSD -1
REMARK  1 active torsions:
REMARK  status: ('A' for Active; 'I' for Inactive)
REMARK    1  A    between atoms: C1_2  and  C2_3 
ROOT
ATOM      1  C2  UNL d   1      -2.953   0.754   1.123  0.00  0.00    -0.077 A 
ATOM      2  C3  UNL d   1      -3.127  -0.407   1.890  0.00  0.00     0.002 A 
ATOM      3  C4  UNL d   1      -2.164  -0.784   2.828  0.00  0.00     0.002 A 
ATOM      4  C5  UNL d   1      -1.024  -0.004   3.011  0.00  0.00    -0.004 A 
ATOM      5  C6  UNL d   1      -0.842   1.151   2.253  0.00  0.00     0.002 A 
ATOM      6  C7  UNL d   1      -1.802   1.529   1.313  0.00  0.00     0.002 A 
ENDROOT
BRANCH   1   7
ATOM      7  C1  UNL d   1      -4.014   1.189   0.146  0.00  0.00     0.055 C 
ATOM      8  C   UNL d   1      -4.406   0.053  -0.787  0.00  0.00     0.019 C 
ENDBRANCH   1   7
TORSDOF 1
ENDMDL
