MODEL 1
REMARK minimizedAffinity -0.672770023
REMARK minimizedRMSD -1
REMARK  1 active torsions:
REMARK  status: ('A' for Active; 'I' for Inactive)
REMARK    1  A    between atoms: C1_2  and  C2_3 
ROOT
ATOM      1  C2  UNL d   1       0.865  -3.208  -2.267  0.00  0.00    -0.077 A 
ATOM      2  C3  UNL d   1       1.011  -2.419  -3.417  0.00  0.00     0.002 A 
ATOM      3  C4  UNL d   1       0.315  -2.736  -4.585  0.00  0.00     0.002 A 
ATOM      4  C5  UNL d   1      -0.534  -3.840  -4.614  0.00  0.00    -0.004 A 
ATOM      5  C6  UNL d   1      -0.685  -4.633  -3.476  0.00  0.00     0.002 A 
ATOM      6  C7  UNL d   1       0.011  -4.317  -2.308  0.00  0.00     0.002 A 
ENDROOT
BRANCH   1   7
ATOM      7  C1  UNL d   1       1.576  -2.839  -0.992  0.00  0.00     0.055 C 
ATOM      8  C   UNL d   1       1.791  -1.335  -0.893  0.00  0.00     0.019 C 
ENDBRANCH   1   7
TORSDOF 1
ENDMDL
