MODEL 1
REMARK minimizedAffinity -0.104652859
REMARK minimizedRMSD -1
REMARK  1 active torsions:
REMARK  status: ('A' for Active; 'I' for Inactive)
REMARK    1  A    between atoms: C1_2  and  C2_3 
ROOT
ATOM      1  C2  UNL d   1      -2.290   0.710   1.661  0.00  0.00    -0.077 A 
ATOM      2  C3  UNL d   1      -1.715   1.473   2.688  0.00  0.00     0.002 A 
ATOM      3  C4  UNL d   1      -0.361   1.333   2.997  0.00  0.00     0.002 A 
ATOM      4  C5  UNL d   1       0.430   0.436   2.283  0.00  0.00    -0.004 A 
ATOM      5  C6  UNL d   1      -0.132  -0.328   1.262  0.00  0.00     0.002 A 
ATOM      6  C7  UNL d   1      -1.486  -0.191   0.951  0.00  0.00     0.002 A 
ENDROOT
BRANCH   1   7
ATOM      7  C1  UNL d   1      -3.739   0.895   1.292  0.00  0.00     0.055 C 
ATOM      8  C   UNL d   1      -3.903   1.149  -0.199  0.00  0.00     0.019 C 
ENDBRANCH   1   7
TORSDOF 1
ENDMDL
