MODEL 1
REMARK minimizedAffinity 7.52876616
REMARK minimizedRMSD -1
REMARK  1 active torsions:
REMARK  status: ('A' for Active; 'I' for Inactive)
REMARK    1  A    between atoms: C1_2  and  C2_3 
ROOT
ATOM      1  C2  UNL d   1      -2.585  -0.663   0.993  0.00  0.00    -0.077 A 
ATOM      2  C3  UNL d   1      -1.811   0.067   1.906  0.00  0.00     0.002 A 
ATOM      3  C4  UNL d   1      -1.897   1.460   1.951  0.00  0.00     0.002 A 
ATOM      4  C5  UNL d   1      -2.759   2.134   1.089  0.00  0.00    -0.004 A 
ATOM      5  C6  UNL d   1      -3.531   1.418   0.175  0.00  0.00     0.002 A 
ATOM      6  C7  UNL d   1      -3.445   0.026   0.128  0.00  0.00     0.002 A 
ENDROOT
BRANCH   1   7
ATOM      7  C1  UNL d   1      -2.530  -2.168   0.976  0.00  0.00     0.055 C 
ATOM      8  C   UNL d   1      -2.185  -2.694  -0.410  0.00  0.00     0.019 C 
ENDBRANCH   1   7
TORSDOF 1
ENDMDL
