MODEL 1
REMARK minimizedAffinity 0.800444126
REMARK minimizedRMSD -1
REMARK  1 active torsions:
REMARK  status: ('A' for Active; 'I' for Inactive)
REMARK    1  A    between atoms: C1_2  and  C2_3 
ROOT
ATOM      1  C2  UNL d   1      -2.103   0.604   1.370  0.00  0.00    -0.077 A 
ATOM      2  C3  UNL d   1      -1.713  -0.742   1.415  0.00  0.00     0.002 A 
ATOM      3  C4  UNL d   1      -2.162  -1.640   0.444  0.00  0.00     0.002 A 
ATOM      4  C5  UNL d   1      -2.999  -1.202  -0.579  0.00  0.00    -0.004 A 
ATOM      5  C6  UNL d   1      -3.394   0.134  -0.631  0.00  0.00     0.002 A 
ATOM      6  C7  UNL d   1      -2.948   1.033   0.338  0.00  0.00     0.002 A 
ENDROOT
BRANCH   1   7
ATOM      7  C1  UNL d   1      -1.581   1.584   2.387  0.00  0.00     0.055 C 
ATOM      8  C   UNL d   1      -0.287   1.091   3.018  0.00  0.00     0.019 C 
ENDBRANCH   1   7
TORSDOF 1
ENDMDL
