MODEL 1
REMARK minimizedAffinity 0.946581006
REMARK minimizedRMSD -1
REMARK  1 active torsions:
REMARK  status: ('A' for Active; 'I' for Inactive)
REMARK    1  A    between atoms: C1_2  and  C2_3 
ROOT
ATOM      1  C2  UNL d   1      -0.684  -2.788  -4.009  0.00  0.00    -0.077 A 
ATOM      2  C3  UNL d   1      -1.945  -3.377  -3.843  0.00  0.00     0.002 A 
ATOM      3  C4  UNL d   1      -2.259  -4.571  -4.497  0.00  0.00     0.002 A 
ATOM      4  C5  UNL d   1      -1.316  -5.187  -5.317  0.00  0.00    -0.004 A 
ATOM      5  C6  UNL d   1      -0.060  -4.608  -5.490  0.00  0.00     0.002 A 
ATOM      6  C7  UNL d   1       0.255  -3.414  -4.839  0.00  0.00     0.002 A 
ENDROOT
BRANCH   1   7
ATOM      7  C1  UNL d   1      -0.326  -1.528  -3.266  0.00  0.00     0.055 C 
ATOM      8  C   UNL d   1       0.072  -0.415  -4.225  0.00  0.00     0.019 C 
ENDBRANCH   1   7
TORSDOF 1
ENDMDL
