MODEL 1
REMARK minimizedAffinity 8.4806385
REMARK minimizedRMSD -1
REMARK  1 active torsions:
REMARK  status: ('A' for Active; 'I' for Inactive)
REMARK    1  A    between atoms: C1_2  and  C2_3 
ROOT
ATOM      1  C2  UNL d   1      -1.144   0.133   2.323  0.00  0.00    -0.077 A 
ATOM      2  C3  UNL d   1      -2.010   1.232   2.242  0.00  0.00     0.002 A 
ATOM      3  C4  UNL d   1      -3.373   1.079   2.508  0.00  0.00     0.002 A 
ATOM      4  C5  UNL d   1      -3.879  -0.171   2.860  0.00  0.00    -0.004 A 
ATOM      5  C6  UNL d   1      -3.026  -1.270   2.941  0.00  0.00     0.002 A 
ATOM      6  C7  UNL d   1      -1.664  -1.119   2.675  0.00  0.00     0.002 A 
ENDROOT
BRANCH   1   7
ATOM      7  C1  UNL d   1       0.333   0.307   2.086  0.00  0.00     0.055 C 
ATOM      8  C   UNL d   1       0.619   0.705   0.645  0.00  0.00     0.019 C 
ENDBRANCH   1   7
TORSDOF 1
ENDMDL
