MODEL 1
REMARK minimizedAffinity 0.296527565
REMARK minimizedRMSD -1
REMARK  1 active torsions:
REMARK  status: ('A' for Active; 'I' for Inactive)
REMARK    1  A    between atoms: C1_2  and  C2_3 
ROOT
ATOM      1  C2  UNL d   1      -0.443  -1.883  -5.349  0.00  0.00    -0.077 A 
ATOM      2  C3  UNL d   1      -1.471  -2.526  -4.644  0.00  0.00     0.002 A 
ATOM      3  C4  UNL d   1      -1.496  -3.918  -4.546  0.00  0.00     0.002 A 
ATOM      4  C5  UNL d   1      -0.496  -4.679  -5.147  0.00  0.00    -0.004 A 
ATOM      5  C6  UNL d   1       0.529  -4.050  -5.852  0.00  0.00     0.002 A 
ATOM      6  C7  UNL d   1       0.556  -2.658  -5.952  0.00  0.00     0.002 A 
ENDROOT
BRANCH   1   7
ATOM      7  C1  UNL d   1      -0.387  -0.379  -5.415  0.00  0.00     0.055 C 
ATOM      8  C   UNL d   1       0.967   0.144  -4.958  0.00  0.00     0.019 C 
ENDBRANCH   1   7
TORSDOF 1
ENDMDL
