MODEL 1
REMARK minimizedAffinity 3.96487856
REMARK minimizedRMSD -1
REMARK  0 active torsions:
REMARK  status: ('A' for Active; 'I' for Inactive)
ROOT
ATOM      1  C1  DEN d   1      -2.844   0.688   0.105  0.00  0.00     0.130 A 
ATOM      2  C2  DEN d   1      -1.689   1.532   0.401  0.00  0.00    -0.031 A 
ATOM      3  C3  DEN d   1      -2.023   2.916   0.010  0.00  0.00     0.027 A 
ATOM      4  C4  DEN d   1      -4.206   3.831  -1.014  0.00  0.00     0.027 A 
ATOM      5  C5  DEN d   1      -5.466   3.494  -1.458  0.00  0.00    -0.003 A 
ATOM      6  C6  DEN d   1      -5.923   2.203  -1.444  0.00  0.00     0.001 A 
ATOM      7  C7  DEN d   1      -5.132   1.208  -0.934  0.00  0.00     0.017 A 
ATOM      8  C8  DEN d   1      -3.858   1.539  -0.491  0.00  0.00    -0.094 A 
ATOM      9  C9  DEN d   1      -3.418   2.852  -0.503  0.00  0.00    -0.072 A 
ENDROOT
TORSDOF 0
ENDMDL
