MODEL 1
REMARK minimizedAffinity 19.7002201
REMARK minimizedRMSD -1
REMARK  0 active torsions:
REMARK  status: ('A' for Active; 'I' for Inactive)
ROOT
ATOM      1  C1  DEN d   1      -5.543   1.885   5.036  0.00  0.00     0.130 A 
ATOM      2  C2  DEN d   1      -5.269   1.416   3.681  0.00  0.00    -0.031 A 
ATOM      3  C3  DEN d   1      -5.205   2.595   2.794  0.00  0.00     0.027 A 
ATOM      4  C4  DEN d   1      -5.497   5.088   3.386  0.00  0.00     0.027 A 
ATOM      5  C5  DEN d   1      -5.756   5.977   4.406  0.00  0.00    -0.003 A 
ATOM      6  C6  DEN d   1      -5.994   5.565   5.690  0.00  0.00     0.001 A 
ATOM      7  C7  DEN d   1      -5.933   4.231   5.998  0.00  0.00     0.017 A 
ATOM      8  C8  DEN d   1      -5.680   3.329   4.973  0.00  0.00    -0.094 A 
ATOM      9  C9  DEN d   1      -5.430   3.766   3.683  0.00  0.00    -0.072 A 
ENDROOT
TORSDOF 0
ENDMDL
