MODEL 1
REMARK minimizedAffinity 12.7636127
REMARK minimizedRMSD -1
REMARK  0 active torsions:
REMARK  status: ('A' for Active; 'I' for Inactive)
ROOT
ATOM      1  C1  DEN d   1       0.230  -2.541   3.714  0.00  0.00     0.130 A 
ATOM      2  C2  DEN d   1       1.405  -1.749   4.068  0.00  0.00    -0.031 A 
ATOM      3  C3  DEN d   1       2.208  -2.531   5.030  0.00  0.00     0.027 A 
ATOM      4  C4  DEN d   1       1.752  -4.878   5.996  0.00  0.00     0.027 A 
ATOM      5  C5  DEN d   1       0.873  -5.939   6.000  0.00  0.00    -0.003 A 
ATOM      6  C6  DEN d   1      -0.289  -5.927   5.275  0.00  0.00     0.001 A 
ATOM      7  C7  DEN d   1      -0.582  -4.851   4.479  0.00  0.00     0.017 A 
ATOM      8  C8  DEN d   1       0.296  -3.775   4.475  0.00  0.00    -0.094 A 
ATOM      9  C9  DEN d   1       1.471  -3.811   5.206  0.00  0.00    -0.072 A 
ENDROOT
TORSDOF 0
ENDMDL
