MODEL 1
REMARK minimizedAffinity 10.1443853
REMARK minimizedRMSD -1
REMARK  0 active torsions:
REMARK  status: ('A' for Active; 'I' for Inactive)
ROOT
ATOM      1  C1  DEN d   1       2.798  -0.949  -1.543  0.00  0.00     0.130 A 
ATOM      2  C2  DEN d   1       2.360  -1.801  -0.441  0.00  0.00    -0.031 A 
ATOM      3  C3  DEN d   1       3.086  -1.383   0.775  0.00  0.00     0.027 A 
ATOM      4  C4  DEN d   1       4.833   0.493   1.059  0.00  0.00     0.027 A 
ATOM      5  C5  DEN d   1       5.536   1.480   0.404  0.00  0.00    -0.003 A 
ATOM      6  C6  DEN d   1       5.403   1.702  -0.941  0.00  0.00     0.001 A 
ATOM      7  C7  DEN d   1       4.512   0.957  -1.667  0.00  0.00     0.017 A 
ATOM      8  C8  DEN d   1       3.805  -0.045  -1.015  0.00  0.00    -0.094 A 
ATOM      9  C9  DEN d   1       3.945  -0.246   0.347  0.00  0.00    -0.072 A 
ENDROOT
TORSDOF 0
ENDMDL
