MODEL 1
REMARK minimizedAffinity 7.73850965
REMARK minimizedRMSD -1
REMARK  0 active torsions:
REMARK  status: ('A' for Active; 'I' for Inactive)
ROOT
ATOM      1  C1  DEN d   1       1.829  -2.808  -2.927  0.00  0.00     0.130 A 
ATOM      2  C2  DEN d   1       1.001  -3.956  -2.568  0.00  0.00    -0.031 A 
ATOM      3  C3  DEN d   1       0.938  -4.030  -1.095  0.00  0.00     0.027 A 
ATOM      4  C4  DEN d   1       2.031  -2.484   0.656  0.00  0.00     0.027 A 
ATOM      5  C5  DEN d   1       2.837  -1.380   0.832  0.00  0.00    -0.003 A 
ATOM      6  C6  DEN d   1       3.386  -0.701  -0.223  0.00  0.00     0.001 A 
ATOM      7  C7  DEN d   1       3.100  -1.092  -1.504  0.00  0.00     0.017 A 
ATOM      8  C8  DEN d   1       2.295  -2.208  -1.690  0.00  0.00    -0.094 A 
ATOM      9  C9  DEN d   1       1.739  -2.874  -0.610  0.00  0.00    -0.072 A 
ENDROOT
TORSDOF 0
ENDMDL
