MODEL 1
REMARK minimizedAffinity 7.50703287
REMARK minimizedRMSD -1
REMARK  0 active torsions:
REMARK  status: ('A' for Active; 'I' for Inactive)
ROOT
ATOM      1  C1  DEN d   1       5.110   2.261   1.944  0.00  0.00     0.130 A 
ATOM      2  C2  DEN d   1       6.000   2.994   1.047  0.00  0.00    -0.031 A 
ATOM      3  C3  DEN d   1       5.771   2.501  -0.326  0.00  0.00     0.027 A 
ATOM      4  C4  DEN d   1       4.131   0.687  -1.147  0.00  0.00     0.027 A 
ATOM      5  C5  DEN d   1       3.175  -0.223  -0.753  0.00  0.00    -0.003 A 
ATOM      6  C6  DEN d   1       2.824  -0.391   0.560  0.00  0.00     0.001 A 
ATOM      7  C7  DEN d   1       3.402   0.394   1.523  0.00  0.00     0.017 A 
ATOM      8  C8  DEN d   1       4.372   1.308   1.135  0.00  0.00    -0.094 A 
ATOM      9  C9  DEN d   1       4.703   1.473  -0.200  0.00  0.00    -0.072 A 
ENDROOT
TORSDOF 0
ENDMDL
