MODEL 1
REMARK minimizedAffinity 16.3417377
REMARK minimizedRMSD -1
REMARK  0 active torsions:
REMARK  status: ('A' for Active; 'I' for Inactive)
ROOT
ATOM      1  C1  DEN d   1       4.084  -3.949  -3.869  0.00  0.00     0.130 A 
ATOM      2  C2  DEN d   1       2.624  -3.924  -3.879  0.00  0.00    -0.031 A 
ATOM      3  C3  DEN d   1       2.186  -2.633  -3.310  0.00  0.00     0.027 A 
ATOM      4  C4  DEN d   1       3.620  -0.680  -2.425  0.00  0.00     0.027 A 
ATOM      5  C5  DEN d   1       4.907  -0.244  -2.201  0.00  0.00    -0.003 A 
ATOM      6  C6  DEN d   1       6.000  -1.019  -2.483  0.00  0.00     0.001 A 
ATOM      7  C7  DEN d   1       5.828  -2.255  -3.048  0.00  0.00     0.017 A 
ATOM      8  C8  DEN d   1       4.533  -2.705  -3.270  0.00  0.00    -0.094 A 
ATOM      9  C9  DEN d   1       3.441  -1.901  -2.990  0.00  0.00    -0.072 A 
ENDROOT
TORSDOF 0
ENDMDL
