MODEL 1
REMARK minimizedAffinity -5.11565685
REMARK minimizedRMSD -1
REMARK  0 active torsions:
REMARK  status: ('A' for Active; 'I' for Inactive)
ROOT
ATOM      1  C1  BNZ d   1      -4.506  -0.072  -4.861  0.00  0.00     0.000 A 
ATOM      2  C2  BNZ d   1      -3.888   0.648  -3.873  0.00  0.00     0.000 A 
ATOM      3  C3  BNZ d   1      -2.998   0.052  -3.025  0.00  0.00     0.000 A 
ATOM      4  C4  BNZ d   1      -2.757  -1.270  -3.138  0.00  0.00     0.000 A 
ATOM      5  C5  BNZ d   1      -3.379  -2.012  -4.123  0.00  0.00     0.000 A 
ATOM      6  C6  BNZ d   1      -4.245  -1.400  -5.000  0.00  0.00     0.000 A 
ENDROOT
TORSDOF 0
ENDMDL
