MODEL 1
REMARK minimizedAffinity -5.42153978
REMARK minimizedRMSD -1
REMARK  0 active torsions:
REMARK  status: ('A' for Active; 'I' for Inactive)
ROOT
ATOM      1  C1  BNZ d   1      -3.166  -0.240  -4.272  0.00  0.00     0.000 A 
ATOM      2  C2  BNZ d   1      -4.199   0.183  -5.067  0.00  0.00     0.000 A 
ATOM      3  C3  BNZ d   1      -4.828  -0.684  -5.916  0.00  0.00     0.000 A 
ATOM      4  C4  BNZ d   1      -4.399  -1.960  -5.999  0.00  0.00     0.000 A 
ATOM      5  C5  BNZ d   1      -3.353  -2.398  -5.211  0.00  0.00     0.000 A 
ATOM      6  C6  BNZ d   1      -2.748  -1.533  -4.329  0.00  0.00     0.000 A 
ENDROOT
TORSDOF 0
ENDMDL
