MODEL 1
REMARK minimizedAffinity 0.205276638
REMARK minimizedRMSD -1
REMARK  0 active torsions:
REMARK  status: ('A' for Active; 'I' for Inactive)
ROOT
ATOM      1  C1  BNZ d   1      -4.991   0.392  -5.988  0.00  0.00     0.000 A 
ATOM      2  C2  BNZ d   1      -3.666   0.046  -5.996  0.00  0.00     0.000 A 
ATOM      3  C3  BNZ d   1      -2.885   0.247  -4.892  0.00  0.00     0.000 A 
ATOM      4  C4  BNZ d   1      -3.418   0.829  -3.799  0.00  0.00     0.000 A 
ATOM      5  C5  BNZ d   1      -4.750   1.191  -3.779  0.00  0.00     0.000 A 
ATOM      6  C6  BNZ d   1      -5.543   0.952  -4.878  0.00  0.00     0.000 A 
ENDROOT
TORSDOF 0
ENDMDL
