MODEL 1
REMARK minimizedAffinity -1.76453304
REMARK minimizedRMSD -1
REMARK  0 active torsions:
REMARK  status: ('A' for Active; 'I' for Inactive)
ROOT
ATOM      1  C1  BNZ d   1      -4.823   0.613  -5.263  0.00  0.00     0.000 A 
ATOM      2  C2  BNZ d   1      -4.966  -0.190  -4.162  0.00  0.00     0.000 A 
ATOM      3  C3  BNZ d   1      -3.967  -1.041  -3.783  0.00  0.00     0.000 A 
ATOM      4  C4  BNZ d   1      -2.843  -1.118  -4.525  0.00  0.00     0.000 A 
ATOM      5  C5  BNZ d   1      -2.688  -0.321  -5.642  0.00  0.00     0.000 A 
ATOM      6  C6  BNZ d   1      -3.680   0.563  -5.999  0.00  0.00     0.000 A 
ENDROOT
TORSDOF 0
ENDMDL
