MODEL 1
REMARK minimizedAffinity -4.94638586
REMARK minimizedRMSD -1
REMARK  0 active torsions:
REMARK  status: ('A' for Active; 'I' for Inactive)
ROOT
ATOM      1  C1  BNZ d   1      -3.500  -1.089  -3.064  0.00  0.00     0.000 A 
ATOM      2  C2  BNZ d   1      -2.492  -0.162  -3.059  0.00  0.00     0.000 A 
ATOM      3  C3  BNZ d   1      -2.370   0.744  -4.075  0.00  0.00     0.000 A 
ATOM      4  C4  BNZ d   1      -3.230   0.697  -5.113  0.00  0.00     0.000 A 
ATOM      5  C5  BNZ d   1      -4.246  -0.238  -5.137  0.00  0.00     0.000 A 
ATOM      6  C6  BNZ d   1      -4.390  -1.123  -4.094  0.00  0.00     0.000 A 
ENDROOT
TORSDOF 0
ENDMDL
