MODEL 1
REMARK minimizedAffinity -1.61050332
REMARK minimizedRMSD -1
REMARK  0 active torsions:
REMARK  status: ('A' for Active; 'I' for Inactive)
ROOT
ATOM      1  C1  BNZ d   1      -1.849  -0.700  -1.319  0.00  0.00     0.000 A 
ATOM      2  C2  BNZ d   1      -2.056  -0.280  -0.032  0.00  0.00     0.000 A 
ATOM      3  C3  BNZ d   1      -1.046  -0.317   0.888  0.00  0.00     0.000 A 
ATOM      4  C4  BNZ d   1       0.157  -0.811   0.532  0.00  0.00     0.000 A 
ATOM      5  C5  BNZ d   1       0.379  -1.248  -0.759  0.00  0.00     0.000 A 
ATOM      6  C6  BNZ d   1      -0.629  -1.173  -1.693  0.00  0.00     0.000 A 
ENDROOT
TORSDOF 0
ENDMDL
