MODEL 1
REMARK minimizedAffinity -4.83258247
REMARK minimizedRMSD -1
REMARK  0 active torsions:
REMARK  status: ('A' for Active; 'I' for Inactive)
ROOT
ATOM      1  N1  IND d   1      -0.532  -0.613  -0.839  0.00  0.00    -0.196 N 
ATOM      2  C2  IND d   1       0.601  -0.871  -1.559  0.00  0.00     0.054 A 
ATOM      3  C3  IND d   1       1.666  -0.987  -0.734  0.00  0.00    -0.031 A 
ATOM      4  C4  IND d   1       1.761  -0.889   1.837  0.00  0.00     0.051 A 
ATOM      5  C5  IND d   1       0.987  -0.638   2.935  0.00  0.00    -0.031 A 
ATOM      6  C6  IND d   1      -0.361  -0.363   2.829  0.00  0.00     0.015 A 
ATOM      7  C7  IND d   1      -0.990  -0.340   1.616  0.00  0.00    -0.016 A 
ATOM      8  C8  IND d   1      -0.206  -0.587   0.499  0.00  0.00    -0.047 A 
ATOM      9  C9  IND d   1       1.171  -0.825   0.597  0.00  0.00    -0.096 A 
ATOM     10  HN1 IND d   1      -1.317  -0.487  -1.168  0.00  0.00     0.298 HD
ENDROOT
TORSDOF 0
ENDMDL
