MODEL 1
REMARK minimizedAffinity -4.05494881
REMARK minimizedRMSD -1
REMARK  0 active torsions:
REMARK  status: ('A' for Active; 'I' for Inactive)
ROOT
ATOM      1  N1  IND d   1       0.722   0.089  -0.875  0.00  0.00    -0.196 N 
ATOM      2  C2  IND d   1      -0.619   0.349  -0.923  0.00  0.00     0.054 A 
ATOM      3  C3  IND d   1      -1.176   0.174   0.296  0.00  0.00    -0.031 A 
ATOM      4  C4  IND d   1      -0.056  -0.436   2.533  0.00  0.00     0.051 A 
ATOM      5  C5  IND d   1       1.145  -0.803   3.071  0.00  0.00    -0.031 A 
ATOM      6  C6  IND d   1       2.291  -0.892   2.307  0.00  0.00     0.015 A 
ATOM      7  C7  IND d   1       2.279  -0.603   0.971  0.00  0.00    -0.016 A 
ATOM      8  C8  IND d   1       1.060  -0.236   0.420  0.00  0.00    -0.047 A 
ATOM      9  C9  IND d   1      -0.114  -0.186   1.182  0.00  0.00    -0.096 A 
ATOM     10  HN1 IND d   1       1.264   0.124  -1.542  0.00  0.00     0.298 HD
ENDROOT
TORSDOF 0
ENDMDL
