MODEL 1
REMARK minimizedAffinity -3.34311128
REMARK minimizedRMSD -1
REMARK  0 active torsions:
REMARK  status: ('A' for Active; 'I' for Inactive)
ROOT
ATOM      1  N1  IND d   1      -1.083   0.003   0.113  0.00  0.00    -0.196 N 
ATOM      2  C2  IND d   1      -0.571   0.029  -1.155  0.00  0.00     0.054 A 
ATOM      3  C3  IND d   1       0.762  -0.191  -1.128  0.00  0.00    -0.031 A 
ATOM      4  C4  IND d   1       2.293  -0.718   0.873  0.00  0.00     0.051 A 
ATOM      5  C5  IND d   1       2.290  -0.813   2.237  0.00  0.00    -0.031 A 
ATOM      6  C6  IND d   1       1.138  -0.640   2.977  0.00  0.00     0.015 A 
ATOM      7  C7  IND d   1      -0.061  -0.375   2.377  0.00  0.00    -0.016 A 
ATOM      8  C8  IND d   1      -0.060  -0.271   0.993  0.00  0.00    -0.047 A 
ATOM      9  C9  IND d   1       1.114  -0.404   0.240  0.00  0.00    -0.096 A 
ATOM     10  HN1 IND d   1      -1.906   0.136   0.324  0.00  0.00     0.298 HD
ENDROOT
TORSDOF 0
ENDMDL
