MODEL 1
REMARK minimizedAffinity 0.945186913
REMARK minimizedRMSD -1
REMARK  0 active torsions:
REMARK  status: ('A' for Active; 'I' for Inactive)
ROOT
ATOM      1  N1  IND d   1       0.758  -1.274   2.084  0.00  0.00    -0.196 N 
ATOM      2  C2  IND d   1      -0.352  -0.661   2.593  0.00  0.00     0.054 A 
ATOM      3  C3  IND d   1      -1.020  -0.010   1.614  0.00  0.00    -0.031 A 
ATOM      4  C4  IND d   1      -0.527   0.098  -0.910  0.00  0.00     0.051 A 
ATOM      5  C5  IND d   1       0.400  -0.274  -1.843  0.00  0.00    -0.031 A 
ATOM      6  C6  IND d   1       1.514  -1.017  -1.509  0.00  0.00     0.015 A 
ATOM      7  C7  IND d   1       1.738  -1.425  -0.225  0.00  0.00    -0.016 A 
ATOM      8  C8  IND d   1       0.804  -1.043   0.727  0.00  0.00    -0.047 A 
ATOM      9  C9  IND d   1      -0.307  -0.254   0.401  0.00  0.00    -0.096 A 
ATOM     10  HN1 IND d   1       1.332  -1.728   2.536  0.00  0.00     0.298 HD
ENDROOT
TORSDOF 0
ENDMDL
