MODEL 1
REMARK minimizedAffinity -4.00959682
REMARK minimizedRMSD -1
REMARK  0 active torsions:
REMARK  status: ('A' for Active; 'I' for Inactive)
ROOT
ATOM      1  N1  IND d   1      -1.383  -0.632   0.473  0.00  0.00    -0.196 N 
ATOM      2  C2  IND d   1      -1.152   0.091  -0.664  0.00  0.00     0.054 A 
ATOM      3  C3  IND d   1       0.093   0.616  -0.643  0.00  0.00    -0.031 A 
ATOM      4  C4  IND d   1       1.957   0.333   1.111  0.00  0.00     0.051 A 
ATOM      5  C5  IND d   1       2.206  -0.207   2.341  0.00  0.00    -0.031 A 
ATOM      6  C6  IND d   1       1.252  -0.934   3.024  0.00  0.00     0.015 A 
ATOM      7  C7  IND d   1       0.013  -1.158   2.495  0.00  0.00    -0.016 A 
ATOM      8  C8  IND d   1      -0.246  -0.604   1.249  0.00  0.00    -0.047 A 
ATOM      9  C9  IND d   1       0.704   0.170   0.570  0.00  0.00    -0.096 A 
ATOM     10  HN1 IND d   1      -2.116  -1.036   0.670  0.00  0.00     0.298 HD
ENDROOT
TORSDOF 0
ENDMDL
