MODEL 1
REMARK minimizedAffinity -0.981373966
REMARK minimizedRMSD -1
REMARK  0 active torsions:
REMARK  status: ('A' for Active; 'I' for Inactive)
ROOT
ATOM      1  N1  IND d   1       1.097   0.601  -1.274  0.00  0.00    -0.196 N 
ATOM      2  C2  IND d   1       0.181   0.027  -0.438  0.00  0.00     0.054 A 
ATOM      3  C3  IND d   1      -1.046   0.553  -0.653  0.00  0.00    -0.031 A 
ATOM      4  C4  IND d   1      -1.797   2.293  -2.395  0.00  0.00     0.051 A 
ATOM      5  C5  IND d   1      -1.311   3.133  -3.358  0.00  0.00    -0.031 A 
ATOM      6  C6  IND d   1       0.030   3.170  -3.683  0.00  0.00     0.015 A 
ATOM      7  C7  IND d   1       0.936   2.358  -3.064  0.00  0.00    -0.016 A 
ATOM      8  C8  IND d   1       0.447   1.509  -2.081  0.00  0.00    -0.047 A 
ATOM      9  C9  IND d   1      -0.905   1.497  -1.716  0.00  0.00    -0.096 A 
ATOM     10  HN1 IND d   1       1.939   0.424  -1.293  0.00  0.00     0.298 HD
ENDROOT
TORSDOF 0
ENDMDL
