MODEL 1
REMARK minimizedAffinity -3.20251393
REMARK minimizedRMSD -1
REMARK  0 active torsions:
REMARK  status: ('A' for Active; 'I' for Inactive)
ROOT
ATOM      1  N1  IND d   1       0.408   0.264  -1.285  0.00  0.00    -0.196 N 
ATOM      2  C2  IND d   1      -0.755   0.966  -1.135  0.00  0.00     0.054 A 
ATOM      3  C3  IND d   1      -1.153   0.948   0.157  0.00  0.00    -0.031 A 
ATOM      4  C4  IND d   1       0.005  -0.089   2.210  0.00  0.00     0.051 A 
ATOM      5  C5  IND d   1       1.072  -0.864   2.568  0.00  0.00    -0.031 A 
ATOM      6  C6  IND d   1       1.993  -1.309   1.641  0.00  0.00     0.015 A 
ATOM      7  C7  IND d   1       1.886  -0.986   0.318  0.00  0.00    -0.016 A 
ATOM      8  C8  IND d   1       0.800  -0.205  -0.050  0.00  0.00    -0.047 A 
ATOM      9  C9  IND d   1      -0.161   0.215   0.879  0.00  0.00    -0.096 A 
ATOM     10  HN1 IND d   1       0.825   0.136  -2.026  0.00  0.00     0.298 HD
ENDROOT
TORSDOF 0
ENDMDL
