MODEL 1
REMARK minimizedAffinity -4.42477798
REMARK minimizedRMSD -1
REMARK  0 active torsions:
REMARK  status: ('A' for Active; 'I' for Inactive)
ROOT
ATOM      1  N1  IND d   1       2.091  -1.375   1.675  0.00  0.00    -0.196 N 
ATOM      2  C2  IND d   1       1.574  -1.172   2.925  0.00  0.00     0.054 A 
ATOM      3  C3  IND d   1       0.445  -0.432   2.852  0.00  0.00    -0.031 A 
ATOM      4  C4  IND d   1      -0.792   0.466   0.780  0.00  0.00     0.051 A 
ATOM      5  C5  IND d   1      -0.685   0.566  -0.579  0.00  0.00    -0.031 A 
ATOM      6  C6  IND d   1       0.373   0.011  -1.270  0.00  0.00     0.015 A 
ATOM      7  C7  IND d   1       1.361  -0.678  -0.626  0.00  0.00    -0.016 A 
ATOM      8  C8  IND d   1       1.260  -0.776   0.754  0.00  0.00    -0.047 A 
ATOM      9  C9  IND d   1       0.211  -0.178   1.465  0.00  0.00    -0.096 A 
ATOM     10  HN1 IND d   1       2.813  -1.805   1.495  0.00  0.00     0.298 HD
ENDROOT
TORSDOF 0
ENDMDL
