MODEL 1
REMARK minimizedAffinity -4.25474596
REMARK minimizedRMSD -1
REMARK  0 active torsions:
REMARK  status: ('A' for Active; 'I' for Inactive)
ROOT
ATOM      1  N1  IND d   1       0.791   1.441  -0.567  0.00  0.00    -0.196 N 
ATOM      2  C2  IND d   1      -0.321   1.586  -1.348  0.00  0.00     0.054 A 
ATOM      3  C3  IND d   1      -1.326   0.810  -0.884  0.00  0.00    -0.031 A 
ATOM      4  C4  IND d   1      -1.398  -0.699   1.201  0.00  0.00     0.051 A 
ATOM      5  C5  IND d   1      -0.611  -1.183   2.208  0.00  0.00    -0.031 A 
ATOM      6  C6  IND d   1       0.710  -0.807   2.346  0.00  0.00     0.015 A 
ATOM      7  C7  IND d   1       1.292   0.079   1.485  0.00  0.00    -0.016 A 
ATOM      8  C8  IND d   1       0.498   0.567   0.457  0.00  0.00    -0.047 A 
ATOM      9  C9  IND d   1      -0.831   0.157   0.287  0.00  0.00    -0.096 A 
ATOM     10  HN1 IND d   1       1.547   1.831  -0.693  0.00  0.00     0.298 HD
ENDROOT
TORSDOF 0
ENDMDL
