MODEL 1
REMARK minimizedAffinity -4.62631226
REMARK minimizedRMSD -1
REMARK  0 active torsions:
REMARK  status: ('A' for Active; 'I' for Inactive)
ROOT
ATOM      1  N1  IND d   1      -1.011  -0.032   1.839  0.00  0.00    -0.196 N 
ATOM      2  C2  IND d   1      -0.190  -0.340   2.887  0.00  0.00     0.054 A 
ATOM      3  C3  IND d   1       0.949  -0.915   2.440  0.00  0.00    -0.031 A 
ATOM      4  C4  IND d   1       1.718  -1.356   0.023  0.00  0.00     0.051 A 
ATOM      5  C5  IND d   1       1.293  -1.280  -1.274  0.00  0.00    -0.031 A 
ATOM      6  C6  IND d   1       0.054  -0.772  -1.606  0.00  0.00     0.015 A 
ATOM      7  C7  IND d   1      -0.805  -0.308  -0.651  0.00  0.00    -0.016 A 
ATOM      8  C8  IND d   1      -0.380  -0.390   0.668  0.00  0.00    -0.047 A 
ATOM      9  C9  IND d   1       0.859  -0.944   1.014  0.00  0.00    -0.096 A 
ATOM     10  HN1 IND d   1      -1.791   0.324   1.900  0.00  0.00     0.298 HD
ENDROOT
TORSDOF 0
ENDMDL
