MODEL 1
REMARK minimizedAffinity -4.55462933
REMARK minimizedRMSD -1
REMARK  0 active torsions:
REMARK  status: ('A' for Active; 'I' for Inactive)
ROOT
ATOM      1  N1  IND d   1       0.669  -1.140  -2.043  0.00  0.00    -0.196 N 
ATOM      2  C2  IND d   1      -0.560  -0.590  -2.275  0.00  0.00     0.054 A 
ATOM      3  C3  IND d   1      -0.927   0.197  -1.238  0.00  0.00    -0.031 A 
ATOM      4  C4  IND d   1       0.378   0.805   0.895  0.00  0.00     0.051 A 
ATOM      5  C5  IND d   1       1.531   0.518   1.571  0.00  0.00    -0.031 A 
ATOM      6  C6  IND d   1       2.476  -0.351   1.066  0.00  0.00     0.015 A 
ATOM      7  C7  IND d   1       2.308  -0.960  -0.146  0.00  0.00    -0.016 A 
ATOM      8  C8  IND d   1       1.135  -0.677  -0.831  0.00  0.00    -0.047 A 
ATOM      9  C9  IND d   1       0.153   0.171  -0.304  0.00  0.00    -0.096 A 
ATOM     10  HN1 IND d   1       1.082  -1.684  -2.565  0.00  0.00     0.298 HD
ENDROOT
TORSDOF 0
ENDMDL
