MODEL 1
REMARK minimizedAffinity 4.33535528
REMARK minimizedRMSD -1
REMARK  1 active torsions:
REMARK  status: ('A' for Active; 'I' for Inactive)
REMARK    1  A    between atoms: C1_2  and  C2_3 
ROOT
ATOM      1  C2  UNL d   1      -0.865  -0.929   2.097  0.00  0.00    -0.076 A 
ATOM      2  C3  UNL d   1      -0.671  -1.874   3.119  0.00  0.00     0.004 A 
ATOM      3  C4  UNL d   1       0.353  -2.816   3.041  0.00  0.00    -0.003 A 
ATOM      4  C5  UNL d   1       1.201  -2.828   1.939  0.00  0.00     0.000 A 
ATOM      5  C6  UNL d   1       1.035  -1.887   0.924  0.00  0.00     0.000 A 
ATOM      6  C7  UNL d   1       0.018  -0.919   0.995  0.00  0.00    -0.073 A 
ATOM      7  C8  UNL d   1      -0.120   0.068  -0.131  0.00  0.00     0.078 C 
ENDROOT
BRANCH   1   8
ATOM      8  C1  UNL d   1      -2.009   0.052   2.223  0.00  0.00     0.053 C 
ATOM      9  C   UNL d   1      -3.349  -0.567   1.857  0.00  0.00     0.018 C 
ENDBRANCH   1   8
TORSDOF 1
ENDMDL
