MODEL 1
REMARK minimizedAffinity 2.8840735
REMARK minimizedRMSD -1
REMARK  1 active torsions:
REMARK  status: ('A' for Active; 'I' for Inactive)
REMARK    1  A    between atoms: C1_2  and  C2_3 
ROOT
ATOM      1  C2  UNL d   1      -3.842   0.762  -3.835  0.00  0.00    -0.076 A 
ATOM      2  C3  UNL d   1      -3.134  -0.191  -3.083  0.00  0.00     0.004 A 
ATOM      3  C4  UNL d   1      -3.747  -1.369  -2.659  0.00  0.00    -0.003 A 
ATOM      4  C5  UNL d   1      -5.077  -1.614  -2.982  0.00  0.00     0.000 A 
ATOM      5  C6  UNL d   1      -5.789  -0.687  -3.742  0.00  0.00     0.000 A 
ATOM      6  C7  UNL d   1      -5.182   0.498  -4.191  0.00  0.00    -0.073 A 
ATOM      7  C8  UNL d   1      -5.999   1.465  -5.003  0.00  0.00     0.078 C 
ENDROOT
BRANCH   1   8
ATOM      8  C1  UNL d   1      -3.134   2.034  -4.243  0.00  0.00     0.053 C 
ATOM      9  C   UNL d   1      -2.706   2.872  -3.048  0.00  0.00     0.018 C 
ENDBRANCH   1   8
TORSDOF 1
ENDMDL
