MODEL 1
REMARK minimizedAffinity -0.783653975
REMARK minimizedRMSD -1
REMARK  1 active torsions:
REMARK  status: ('A' for Active; 'I' for Inactive)
REMARK    1  A    between atoms: C1_2  and  C2_3 
ROOT
ATOM      1  C2  UNL d   1       0.915  -1.981   1.255  0.00  0.00    -0.076 A 
ATOM      2  C3  UNL d   1       0.570  -2.086   2.614  0.00  0.00     0.004 A 
ATOM      3  C4  UNL d   1      -0.465  -1.323   3.152  0.00  0.00    -0.003 A 
ATOM      4  C5  UNL d   1      -1.171  -0.442   2.340  0.00  0.00     0.000 A 
ATOM      5  C6  UNL d   1      -0.853  -0.337   0.986  0.00  0.00     0.000 A 
ATOM      6  C7  UNL d   1       0.176  -1.112   0.424  0.00  0.00    -0.073 A 
ATOM      7  C8  UNL d   1       0.480  -0.955  -1.040  0.00  0.00     0.078 C 
ENDROOT
BRANCH   1   8
ATOM      8  C1  UNL d   1       2.064  -2.814   0.733  0.00  0.00     0.053 C 
ATOM      9  C   UNL d   1       2.190  -4.148   1.452  0.00  0.00     0.018 C 
ENDBRANCH   1   8
TORSDOF 1
ENDMDL
