MODEL 1
REMARK minimizedAffinity -3.05756736
REMARK minimizedRMSD -1
REMARK  1 active torsions:
REMARK  status: ('A' for Active; 'I' for Inactive)
REMARK    1  A    between atoms: C1_2  and  C2_3 
ROOT
ATOM      1  C2  UNL d   1       0.561  -1.463   1.324  0.00  0.00    -0.076 A 
ATOM      2  C3  UNL d   1      -0.528  -0.586   1.469  0.00  0.00     0.004 A 
ATOM      3  C4  UNL d   1      -1.516  -0.820   2.423  0.00  0.00    -0.003 A 
ATOM      4  C5  UNL d   1      -1.432  -1.935   3.249  0.00  0.00     0.000 A 
ATOM      5  C6  UNL d   1      -0.349  -2.807   3.132  0.00  0.00     0.000 A 
ATOM      6  C7  UNL d   1       0.664  -2.576   2.186  0.00  0.00    -0.073 A 
ATOM      7  C8  UNL d   1       1.806  -3.552   2.098  0.00  0.00     0.078 C 
ENDROOT
BRANCH   1   8
ATOM      8  C1  UNL d   1       1.588  -1.172   0.253  0.00  0.00     0.053 C 
ATOM      9  C   UNL d   1       0.982  -0.496  -0.967  0.00  0.00     0.018 C 
ENDBRANCH   1   8
TORSDOF 1
ENDMDL
