MODEL 1
REMARK minimizedAffinity -4.31108284
REMARK minimizedRMSD -1
REMARK  0 active torsions:
REMARK  status: ('A' for Active; 'I' for Inactive)
ROOT
ATOM      1  N1  IND d   1       0.805   0.077   0.296  0.00  0.00    -0.196 N 
ATOM      2  C2  IND d   1       0.999  -1.161  -0.251  0.00  0.00     0.054 A 
ATOM      3  C3  IND d   1       0.076  -1.402  -1.208  0.00  0.00    -0.031 A 
ATOM      4  C4  IND d   1      -1.783   0.133  -2.111  0.00  0.00     0.051 A 
ATOM      5  C5  IND d   1      -2.376   1.346  -1.899  0.00  0.00    -0.031 A 
ATOM      6  C6  IND d   1      -1.928   2.217  -0.927  0.00  0.00     0.015 A 
ATOM      7  C7  IND d   1      -0.858   1.910  -0.134  0.00  0.00    -0.016 A 
ATOM      8  C8  IND d   1      -0.258   0.676  -0.342  0.00  0.00    -0.047 A 
ATOM      9  C9  IND d   1      -0.735  -0.230  -1.298  0.00  0.00    -0.096 A 
ATOM     10  HN1 IND d   1       1.270   0.423   0.932  0.00  0.00     0.298 HD
ENDROOT
TORSDOF 0
ENDMDL
