MODEL 1
REMARK minimizedAffinity -3.72631216
REMARK minimizedRMSD -1
REMARK  0 active torsions:
REMARK  status: ('A' for Active; 'I' for Inactive)
ROOT
ATOM      1  N1  IND d   1      -1.397   0.165  -0.206  0.00  0.00    -0.196 N 
ATOM      2  C2  IND d   1      -1.541   1.459  -0.622  0.00  0.00     0.054 A 
ATOM      3  C3  IND d   1      -0.335   2.068  -0.687  0.00  0.00    -0.031 A 
ATOM      4  C4  IND d   1       2.011   1.102  -0.256  0.00  0.00     0.051 A 
ATOM      5  C5  IND d   1       2.648  -0.026   0.182  0.00  0.00    -0.031 A 
ATOM      6  C6  IND d   1       1.955  -1.171   0.517  0.00  0.00     0.015 A 
ATOM      7  C7  IND d   1       0.594  -1.236   0.415  0.00  0.00    -0.016 A 
ATOM      8  C8  IND d   1      -0.056  -0.091  -0.022  0.00  0.00    -0.047 A 
ATOM      9  C9  IND d   1       0.638   1.088  -0.323  0.00  0.00    -0.096 A 
ATOM     10  HN1 IND d   1      -2.037  -0.396  -0.080  0.00  0.00     0.298 HD
ENDROOT
TORSDOF 0
ENDMDL
