MODEL 1
REMARK minimizedAffinity -2.62451553
REMARK minimizedRMSD -1
REMARK  0 active torsions:
REMARK  status: ('A' for Active; 'I' for Inactive)
ROOT
ATOM      1  N1  IND d   1      -1.658  -0.533  -0.459  0.00  0.00    -0.196 N 
ATOM      2  C2  IND d   1      -1.723   0.711  -1.021  0.00  0.00     0.054 A 
ATOM      3  C3  IND d   1      -0.504   1.297  -1.009  0.00  0.00    -0.031 A 
ATOM      4  C4  IND d   1       1.755   0.356  -0.209  0.00  0.00     0.051 A 
ATOM      5  C5  IND d   1       2.311  -0.726   0.415  0.00  0.00    -0.031 A 
ATOM      6  C6  IND d   1       1.558  -1.821   0.784  0.00  0.00     0.015 A 
ATOM      7  C7  IND d   1       0.216  -1.881   0.533  0.00  0.00    -0.016 A 
ATOM      8  C8  IND d   1      -0.353  -0.782  -0.094  0.00  0.00    -0.047 A 
ATOM      9  C9  IND d   1       0.398   0.350  -0.434  0.00  0.00    -0.096 A 
ATOM     10  HN1 IND d   1      -2.321  -1.070  -0.350  0.00  0.00     0.298 HD
ENDROOT
TORSDOF 0
ENDMDL
