MODEL 1
REMARK minimizedAffinity -2.85969257
REMARK minimizedRMSD -1
REMARK  0 active torsions:
REMARK  status: ('A' for Active; 'I' for Inactive)
ROOT
ATOM      1  N1  IND d   1      -1.218  -0.540  -0.465  0.00  0.00    -0.196 N 
ATOM      2  C2  IND d   1      -0.909   0.700  -0.949  0.00  0.00     0.054 A 
ATOM      3  C3  IND d   1       0.388   0.992  -0.702  0.00  0.00    -0.031 A 
ATOM      4  C4  IND d   1       2.211  -0.459   0.393  0.00  0.00     0.051 A 
ATOM      5  C5  IND d   1       2.399  -1.655   1.028  0.00  0.00    -0.031 A 
ATOM      6  C6  IND d   1       1.371  -2.559   1.200  0.00  0.00     0.015 A 
ATOM      7  C7  IND d   1       0.113  -2.305   0.730  0.00  0.00    -0.016 A 
ATOM      8  C8  IND d   1      -0.083  -1.090   0.090  0.00  0.00    -0.047 A 
ATOM      9  C9  IND d   1       0.946  -0.150  -0.049  0.00  0.00    -0.096 A 
ATOM     10  HN1 IND d   1      -1.991  -0.915  -0.500  0.00  0.00     0.298 HD
ENDROOT
TORSDOF 0
ENDMDL
