MODEL 1
REMARK minimizedAffinity -3.83455396
REMARK minimizedRMSD -1
REMARK  0 active torsions:
REMARK  status: ('A' for Active; 'I' for Inactive)
ROOT
ATOM      1  N1  IND d   1       1.664  -0.314  -0.617  0.00  0.00    -0.196 N 
ATOM      2  C2  IND d   1       2.081  -1.448   0.022  0.00  0.00     0.054 A 
ATOM      3  C3  IND d   1       1.213  -1.781   1.004  0.00  0.00    -0.031 A 
ATOM      4  C4  IND d   1      -1.009  -0.665   1.670  0.00  0.00     0.051 A 
ATOM      5  C5  IND d   1      -1.792   0.422   1.400  0.00  0.00    -0.031 A 
ATOM      6  C6  IND d   1      -1.459   1.336   0.422  0.00  0.00     0.015 A 
ATOM      7  C7  IND d   1      -0.329   1.190  -0.334  0.00  0.00    -0.016 A 
ATOM      8  C8  IND d   1       0.472   0.092  -0.057  0.00  0.00    -0.047 A 
ATOM      9  C9  IND d   1       0.160  -0.816   0.963  0.00  0.00    -0.096 A 
ATOM     10  HN1 IND d   1       2.076   0.080  -1.261  0.00  0.00     0.298 HD
ENDROOT
TORSDOF 0
ENDMDL
