MODEL 1
REMARK minimizedAffinity -1.23203313
REMARK minimizedRMSD -1
REMARK  0 active torsions:
REMARK  status: ('A' for Active; 'I' for Inactive)
ROOT
ATOM      1  N1  IND d   1       0.379   0.723  -1.402  0.00  0.00    -0.196 N 
ATOM      2  C2  IND d   1      -0.950   0.981  -1.212  0.00  0.00     0.054 A 
ATOM      3  C3  IND d   1      -1.448   0.187  -0.237  0.00  0.00    -0.031 A 
ATOM      4  C4  IND d   1      -0.240  -1.534   1.248  0.00  0.00     0.051 A 
ATOM      5  C5  IND d   1       0.970  -2.144   1.423  0.00  0.00    -0.031 A 
ATOM      6  C6  IND d   1       2.068  -1.822   0.651  0.00  0.00     0.015 A 
ATOM      7  C7  IND d   1       1.999  -0.865  -0.321  0.00  0.00    -0.016 A 
ATOM      8  C8  IND d   1       0.770  -0.248  -0.506  0.00  0.00    -0.047 A 
ATOM      9  C9  IND d   1      -0.358  -0.601   0.245  0.00  0.00    -0.096 A 
ATOM     10  HN1 IND d   1       0.885   1.102  -1.984  0.00  0.00     0.298 HD
ENDROOT
TORSDOF 0
ENDMDL
