MODEL 1
REMARK minimizedAffinity -3.50662112
REMARK minimizedRMSD -1
REMARK  0 active torsions:
REMARK  status: ('A' for Active; 'I' for Inactive)
ROOT
ATOM      1  N1  IND d   1      -1.014  -0.376   1.743  0.00  0.00    -0.196 N 
ATOM      2  C2  IND d   1      -1.453   0.581   0.871  0.00  0.00     0.054 A 
ATOM      3  C3  IND d   1      -0.657   0.623  -0.221  0.00  0.00    -0.031 A 
ATOM      4  C4  IND d   1       1.359  -0.856  -0.833  0.00  0.00     0.051 A 
ATOM      5  C5  IND d   1       2.161  -1.844  -0.335  0.00  0.00    -0.031 A 
ATOM      6  C6  IND d   1       1.939  -2.407   0.906  0.00  0.00     0.015 A 
ATOM      7  C7  IND d   1       0.896  -2.008   1.693  0.00  0.00    -0.016 A 
ATOM      8  C8  IND d   1       0.084  -1.000   1.193  0.00  0.00    -0.047 A 
ATOM      9  C9  IND d   1       0.329  -0.395  -0.047  0.00  0.00    -0.096 A 
ATOM     10  HN1 IND d   1      -1.365  -0.557   2.507  0.00  0.00     0.298 HD
ENDROOT
TORSDOF 0
ENDMDL
