MODEL 1
REMARK minimizedAffinity -3.18532109
REMARK minimizedRMSD -1
REMARK  0 active torsions:
REMARK  status: ('A' for Active; 'I' for Inactive)
ROOT
ATOM      1  N1  IND d   1      -0.601  -0.277  -1.679  0.00  0.00    -0.196 N 
ATOM      2  C2  IND d   1      -0.892   0.949  -1.148  0.00  0.00     0.054 A 
ATOM      3  C3  IND d   1      -0.177   1.155  -0.020  0.00  0.00    -0.031 A 
ATOM      4  C4  IND d   1       1.604  -0.341   1.084  0.00  0.00     0.051 A 
ATOM      5  C5  IND d   1       2.187  -1.573   0.986  0.00  0.00    -0.031 A 
ATOM      6  C6  IND d   1       1.865  -2.453  -0.027  0.00  0.00     0.015 A 
ATOM      7  C7  IND d   1       0.953  -2.128  -0.991  0.00  0.00    -0.016 A 
ATOM      8  C8  IND d   1       0.355  -0.880  -0.891  0.00  0.00    -0.047 A 
ATOM      9  C9  IND d   1       0.646   0.001   0.159  0.00  0.00    -0.096 A 
ATOM     10  HN1 IND d   1      -0.956  -0.615  -2.385  0.00  0.00     0.298 HD
ENDROOT
TORSDOF 0
ENDMDL
