MODEL 1
REMARK minimizedAffinity -1.83086991
REMARK minimizedRMSD -1
REMARK  0 active torsions:
REMARK  status: ('A' for Active; 'I' for Inactive)
ROOT
ATOM      1  N1  IND d   1      -0.921  -0.021  -1.995  0.00  0.00    -0.196 N 
ATOM      2  C2  IND d   1      -1.460   1.021  -1.293  0.00  0.00     0.054 A 
ATOM      3  C3  IND d   1      -0.931   1.074  -0.050  0.00  0.00    -0.031 A 
ATOM      4  C4  IND d   1       0.906  -0.386   1.009  0.00  0.00     0.051 A 
ATOM      5  C5  IND d   1       1.677  -1.489   0.770  0.00  0.00    -0.031 A 
ATOM      6  C6  IND d   1       1.623  -2.171  -0.429  0.00  0.00     0.015 A 
ATOM      7  C7  IND d   1       0.800  -1.766  -1.442  0.00  0.00    -0.016 A 
ATOM      8  C8  IND d   1       0.010  -0.651  -1.199  0.00  0.00    -0.047 A 
ATOM      9  C9  IND d   1       0.030   0.019   0.030  0.00  0.00    -0.096 A 
ATOM     10  HN1 IND d   1      -1.129  -0.245  -2.799  0.00  0.00     0.298 HD
ENDROOT
TORSDOF 0
ENDMDL
