MODEL 1
REMARK minimizedAffinity -2.99468136
REMARK minimizedRMSD -1
REMARK  0 active torsions:
REMARK  status: ('A' for Active; 'I' for Inactive)
ROOT
ATOM      1  N1  IND d   1      -1.412   0.736  -3.737  0.00  0.00    -0.196 N 
ATOM      2  C2  IND d   1      -2.227   1.820  -3.562  0.00  0.00     0.054 A 
ATOM      3  C3  IND d   1      -2.167   2.251  -2.282  0.00  0.00    -0.031 A 
ATOM      4  C4  IND d   1      -0.724   1.391  -0.332  0.00  0.00     0.051 A 
ATOM      5  C5  IND d   1       0.152   0.396   0.004  0.00  0.00    -0.031 A 
ATOM      6  C6  IND d   1       0.561  -0.553  -0.910  0.00  0.00     0.015 A 
ATOM      7  C7  IND d   1       0.117  -0.537  -2.202  0.00  0.00    -0.016 A 
ATOM      8  C8  IND d   1      -0.778   0.467  -2.544  0.00  0.00    -0.047 A 
ATOM      9  C9  IND d   1      -1.229   1.408  -1.610  0.00  0.00    -0.096 A 
ATOM     10  HN1 IND d   1      -1.313   0.296  -4.469  0.00  0.00     0.298 HD
ENDROOT
TORSDOF 0
ENDMDL
