MODEL 1
REMARK minimizedAffinity -3.05069113
REMARK minimizedRMSD -1
REMARK  0 active torsions:
REMARK  status: ('A' for Active; 'I' for Inactive)
ROOT
ATOM      1  N1  IND d   1      -0.565   0.403   0.397  0.00  0.00    -0.196 N 
ATOM      2  C2  IND d   1       0.163   0.696  -0.722  0.00  0.00     0.054 A 
ATOM      3  C3  IND d   1       1.153  -0.208  -0.890  0.00  0.00    -0.031 A 
ATOM      4  C4  IND d   1       1.701  -2.309   0.494  0.00  0.00     0.051 A 
ATOM      5  C5  IND d   1       1.338  -2.974   1.632  0.00  0.00    -0.031 A 
ATOM      6  C6  IND d   1       0.300  -2.541   2.430  0.00  0.00     0.015 A 
ATOM      7  C7  IND d   1      -0.425  -1.427   2.113  0.00  0.00    -0.016 A 
ATOM      8  C8  IND d   1      -0.055  -0.745   0.963  0.00  0.00    -0.047 A 
ATOM      9  C9  IND d   1       1.025  -1.156   0.172  0.00  0.00    -0.096 A 
ATOM     10  HN1 IND d   1      -1.230   0.858   0.696  0.00  0.00     0.298 HD
ENDROOT
TORSDOF 0
ENDMDL
