MODEL 1
REMARK minimizedAffinity -4.34598732
REMARK minimizedRMSD -1
REMARK  0 active torsions:
REMARK  status: ('A' for Active; 'I' for Inactive)
ROOT
ATOM      1  N1  IND d   1      -1.163  -0.218   0.885  0.00  0.00    -0.196 N 
ATOM      2  C2  IND d   1      -1.397   1.034   0.388  0.00  0.00     0.054 A 
ATOM      3  C3  IND d   1      -0.269   1.542  -0.158  0.00  0.00    -0.031 A 
ATOM      4  C4  IND d   1       2.047   0.452  -0.436  0.00  0.00     0.051 A 
ATOM      5  C5  IND d   1       2.757  -0.668  -0.106  0.00  0.00    -0.031 A 
ATOM      6  C6  IND d   1       2.184  -1.718   0.582  0.00  0.00     0.015 A 
ATOM      7  C7  IND d   1       0.871  -1.691   0.958  0.00  0.00    -0.016 A 
ATOM      8  C8  IND d   1       0.149  -0.552   0.632  0.00  0.00    -0.047 A 
ATOM      9  C9  IND d   1       0.736   0.535  -0.029  0.00  0.00    -0.096 A 
ATOM     10  HN1 IND d   1      -1.739  -0.713   1.289  0.00  0.00     0.298 HD
ENDROOT
TORSDOF 0
ENDMDL
