MODEL 1
REMARK minimizedAffinity -1.70019507
REMARK minimizedRMSD -1
REMARK  0 active torsions:
REMARK  status: ('A' for Active; 'I' for Inactive)
ROOT
ATOM      1  N1  IND d   1       1.114  -1.847   1.132  0.00  0.00    -0.196 N 
ATOM      2  C2  IND d   1       2.117  -1.571   0.245  0.00  0.00     0.054 A 
ATOM      3  C3  IND d   1       1.817  -0.465  -0.474  0.00  0.00    -0.031 A 
ATOM      4  C4  IND d   1      -0.216   1.104  -0.290  0.00  0.00     0.051 A 
ATOM      5  C5  IND d   1      -1.416   1.242   0.350  0.00  0.00    -0.031 A 
ATOM      6  C6  IND d   1      -1.841   0.341   1.305  0.00  0.00     0.015 A 
ATOM      7  C7  IND d   1      -1.073  -0.731   1.664  0.00  0.00    -0.016 A 
ATOM      8  C8  IND d   1       0.142  -0.878   1.011  0.00  0.00    -0.047 A 
ATOM      9  C9  IND d   1       0.560   0.009   0.011  0.00  0.00    -0.096 A 
ATOM     10  HN1 IND d   1       1.094  -2.515   1.673  0.00  0.00     0.298 HD
ENDROOT
TORSDOF 0
ENDMDL
