MODEL 1
REMARK minimizedAffinity 2.5789144
REMARK minimizedRMSD -1
REMARK  0 active torsions:
REMARK  status: ('A' for Active; 'I' for Inactive)
ROOT
ATOM      1  N1  IND d   1      -0.073  -2.111   1.717  0.00  0.00    -0.196 N 
ATOM      2  C2  IND d   1       1.154  -2.692   1.561  0.00  0.00     0.054 A 
ATOM      3  C3  IND d   1       1.924  -1.952   0.732  0.00  0.00    -0.031 A 
ATOM      4  C4  IND d   1       1.407   0.301  -0.402  0.00  0.00     0.051 A 
ATOM      5  C5  IND d   1       0.402   1.208  -0.588  0.00  0.00    -0.031 A 
ATOM      6  C6  IND d   1      -0.837   1.053  -0.001  0.00  0.00     0.015 A 
ATOM      7  C7  IND d   1      -1.115  -0.013   0.807  0.00  0.00    -0.016 A 
ATOM      8  C8  IND d   1      -0.098  -0.940   0.992  0.00  0.00    -0.047 A 
ATOM      9  C9  IND d   1       1.147  -0.811   0.364  0.00  0.00    -0.096 A 
ATOM     10  HN1 IND d   1      -0.720  -2.424   2.189  0.00  0.00     0.298 HD
ENDROOT
TORSDOF 0
ENDMDL
