MODEL 1
REMARK minimizedAffinity 0.525571883
REMARK minimizedRMSD -1
REMARK  0 active torsions:
REMARK  status: ('A' for Active; 'I' for Inactive)
ROOT
ATOM      1  N1  IND d   1       1.331  -1.775   1.512  0.00  0.00    -0.196 N 
ATOM      2  C2  IND d   1       2.697  -1.790   1.460  0.00  0.00     0.054 A 
ATOM      3  C3  IND d   1       3.152  -0.748   0.728  0.00  0.00    -0.031 A 
ATOM      4  C4  IND d   1       1.837   1.161  -0.392  0.00  0.00     0.051 A 
ATOM      5  C5  IND d   1       0.564   1.585  -0.651  0.00  0.00    -0.031 A 
ATOM      6  C6  IND d   1      -0.541   0.898  -0.190  0.00  0.00     0.015 A 
ATOM      7  C7  IND d   1      -0.413  -0.237   0.559  0.00  0.00    -0.016 A 
ATOM      8  C8  IND d   1       0.878  -0.674   0.818  0.00  0.00    -0.047 A 
ATOM      9  C9  IND d   1       2.003  -0.005   0.318  0.00  0.00    -0.096 A 
ATOM     10  HN1 IND d   1       0.837  -2.355   1.911  0.00  0.00     0.298 HD
ENDROOT
TORSDOF 0
ENDMDL
