MODEL 1
REMARK minimizedAffinity -4.99430704
REMARK minimizedRMSD -1
REMARK  0 active torsions:
REMARK  status: ('A' for Active; 'I' for Inactive)
ROOT
ATOM      1  N1  IND d   1      -2.731  -0.063  -2.540  0.00  0.00    -0.196 N 
ATOM      2  C2  IND d   1      -2.610   1.013  -3.374  0.00  0.00     0.054 A 
ATOM      3  C3  IND d   1      -1.420   1.626  -3.183  0.00  0.00    -0.031 A 
ATOM      4  C4  IND d   1       0.523   0.972  -1.625  0.00  0.00     0.051 A 
ATOM      5  C5  IND d   1       0.866   0.086  -0.643  0.00  0.00    -0.031 A 
ATOM      6  C6  IND d   1       0.010  -0.918  -0.237  0.00  0.00     0.015 A 
ATOM      7  C7  IND d   1      -1.220  -1.080  -0.808  0.00  0.00    -0.016 A 
ATOM      8  C8  IND d   1      -1.574  -0.177  -1.801  0.00  0.00    -0.047 A 
ATOM      9  C9  IND d   1      -0.727   0.870  -2.188  0.00  0.00    -0.096 A 
ATOM     10  HN1 IND d   1      -3.415  -0.581  -2.486  0.00  0.00     0.298 HD
ENDROOT
TORSDOF 0
ENDMDL
