MODEL 1
REMARK minimizedAffinity -2.764925
REMARK minimizedRMSD -1
REMARK  0 active torsions:
REMARK  status: ('A' for Active; 'I' for Inactive)
ROOT
ATOM      1  C   UNL d   1       0.031  -1.319  -0.251  0.00  0.00     0.023 A 
ATOM      2  C1  UNL d   1      -0.204  -0.164  -0.997  0.00  0.00     0.003 A 
ATOM      3  C2  UNL d   1      -1.283   0.665  -0.684  0.00  0.00     0.048 A 
ATOM      4  C3  UNL d   1      -2.123   0.333   0.378  0.00  0.00     0.023 A 
ATOM      5  C4  UNL d   1      -1.892  -0.821   1.129  0.00  0.00     0.048 A 
ATOM      6  C5  UNL d   1      -0.812  -1.647   0.811  0.00  0.00     0.003 A 
ATOM      7  I   UNL d   1      -3.730   1.565   0.847  0.00  0.00    -0.146 I 
ENDROOT
TORSDOF 0
ENDMDL
