MODEL 1
REMARK minimizedAffinity -0.691161215
REMARK minimizedRMSD -1
REMARK  0 active torsions:
REMARK  status: ('A' for Active; 'I' for Inactive)
ROOT
ATOM      1  C   UNL d   1       0.011  -1.294   0.511  0.00  0.00     0.023 A 
ATOM      2  C1  UNL d   1      -0.117  -0.178  -0.316  0.00  0.00     0.003 A 
ATOM      3  C2  UNL d   1      -1.265   0.613  -0.251  0.00  0.00     0.048 A 
ATOM      4  C3  UNL d   1      -2.282   0.283   0.645  0.00  0.00     0.023 A 
ATOM      5  C4  UNL d   1      -2.158  -0.833   1.475  0.00  0.00     0.048 A 
ATOM      6  C5  UNL d   1      -1.009  -1.621   1.405  0.00  0.00     0.003 A 
ATOM      7  I   UNL d   1      -3.993   1.459   0.744  0.00  0.00    -0.146 I 
ENDROOT
TORSDOF 0
ENDMDL
