MODEL 1
REMARK minimizedAffinity 0.783956409
REMARK minimizedRMSD -1
REMARK  0 active torsions:
REMARK  status: ('A' for Active; 'I' for Inactive)
ROOT
ATOM      1  C   UNL d   1       0.548  -0.925   0.530  0.00  0.00     0.023 A 
ATOM      2  C1  UNL d   1       0.477   0.160  -0.343  0.00  0.00     0.003 A 
ATOM      3  C2  UNL d   1      -0.594   1.052  -0.264  0.00  0.00     0.048 A 
ATOM      4  C3  UNL d   1      -1.590   0.854   0.691  0.00  0.00     0.023 A 
ATOM      5  C4  UNL d   1      -1.523  -0.230   1.568  0.00  0.00     0.048 A 
ATOM      6  C5  UNL d   1      -0.451  -1.120   1.485  0.00  0.00     0.003 A 
ATOM      7  I   UNL d   1      -3.185   2.181   0.811  0.00  0.00    -0.146 I 
ENDROOT
TORSDOF 0
ENDMDL
