MODEL 1
REMARK minimizedAffinity -1.42415214
REMARK minimizedRMSD -1
REMARK  0 active torsions:
REMARK  status: ('A' for Active; 'I' for Inactive)
ROOT
ATOM      1  C   UNL d   1      -0.094  -1.872   0.884  0.00  0.00     0.023 A 
ATOM      2  C1  UNL d   1       0.029  -0.941  -0.148  0.00  0.00     0.003 A 
ATOM      3  C2  UNL d   1      -0.839   0.151  -0.211  0.00  0.00     0.048 A 
ATOM      4  C3  UNL d   1      -1.825   0.308   0.762  0.00  0.00     0.023 A 
ATOM      5  C4  UNL d   1      -1.951  -0.620   1.797  0.00  0.00     0.048 A 
ATOM      6  C5  UNL d   1      -1.082  -1.711   1.856  0.00  0.00     0.003 A 
ATOM      7  I   UNL d   1      -3.117   1.934   0.670  0.00  0.00    -0.146 I 
ENDROOT
TORSDOF 0
ENDMDL
