MODEL 1
REMARK minimizedAffinity -0.942594945
REMARK minimizedRMSD -1
REMARK  0 active torsions:
REMARK  status: ('A' for Active; 'I' for Inactive)
ROOT
ATOM      1  C   UNL d   1      -4.931   1.978   2.120  0.00  0.00     0.023 A 
ATOM      2  C1  UNL d   1      -4.304   1.128   3.032  0.00  0.00     0.003 A 
ATOM      3  C2  UNL d   1      -3.185   0.389   2.643  0.00  0.00     0.048 A 
ATOM      4  C3  UNL d   1      -2.697   0.505   1.342  0.00  0.00     0.023 A 
ATOM      5  C4  UNL d   1      -3.320   1.354   0.427  0.00  0.00     0.048 A 
ATOM      6  C5  UNL d   1      -4.440   2.091   0.819  0.00  0.00     0.003 A 
ATOM      7  I   UNL d   1      -1.031  -0.594   0.762  0.00  0.00    -0.146 I 
ENDROOT
TORSDOF 0
ENDMDL
