MODEL 1
REMARK minimizedAffinity -2.77112794
REMARK minimizedRMSD -1
REMARK  0 active torsions:
REMARK  status: ('A' for Active; 'I' for Inactive)
ROOT
ATOM      1  C   UNL d   1      -3.976   2.662   1.303  0.00  0.00     0.023 A 
ATOM      2  C1  UNL d   1      -2.981   3.384   0.642  0.00  0.00     0.003 A 
ATOM      3  C2  UNL d   1      -1.840   2.732   0.172  0.00  0.00     0.048 A 
ATOM      4  C3  UNL d   1      -1.699   1.358   0.365  0.00  0.00     0.023 A 
ATOM      5  C4  UNL d   1      -2.693   0.632   1.024  0.00  0.00     0.048 A 
ATOM      6  C5  UNL d   1      -3.832   1.288   1.493  0.00  0.00     0.003 A 
ATOM      7  I   UNL d   1      -0.001   0.385  -0.334  0.00  0.00    -0.146 I 
ENDROOT
TORSDOF 0
ENDMDL
