MODEL 1
REMARK minimizedAffinity -2.67741179
REMARK minimizedRMSD -1
REMARK  0 active torsions:
REMARK  status: ('A' for Active; 'I' for Inactive)
ROOT
ATOM      1  C   UNL d   1      -0.574   0.309   0.466  0.00  0.00     0.023 A 
ATOM      2  C1  UNL d   1      -0.948  -0.386   1.616  0.00  0.00     0.003 A 
ATOM      3  C2  UNL d   1      -2.129  -0.054   2.281  0.00  0.00     0.048 A 
ATOM      4  C3  UNL d   1      -2.934   0.974   1.790  0.00  0.00     0.023 A 
ATOM      5  C4  UNL d   1      -2.565   1.671   0.639  0.00  0.00     0.048 A 
ATOM      6  C5  UNL d   1      -1.382   1.337  -0.022  0.00  0.00     0.003 A 
ATOM      7  I   UNL d   1      -4.694   1.469   2.779  0.00  0.00    -0.146 I 
ENDROOT
TORSDOF 0
ENDMDL
