MODEL 1
REMARK minimizedAffinity -4.15382433
REMARK minimizedRMSD -1
REMARK  0 active torsions:
REMARK  status: ('A' for Active; 'I' for Inactive)
ROOT
ATOM      1  C   UNL d   1       1.602  -0.196  -1.119  0.00  0.00     0.023 A 
ATOM      2  C1  UNL d   1       0.251   0.150  -1.128  0.00  0.00     0.003 A 
ATOM      3  C2  UNL d   1      -0.714  -0.803  -1.462  0.00  0.00     0.048 A 
ATOM      4  C3  UNL d   1      -0.320  -2.101  -1.784  0.00  0.00     0.023 A 
ATOM      5  C4  UNL d   1       1.031  -2.453  -1.776  0.00  0.00     0.048 A 
ATOM      6  C5  UNL d   1       1.992  -1.496  -1.442  0.00  0.00     0.003 A 
ATOM      7  I   UNL d   1      -1.753  -3.522  -2.281  0.00  0.00    -0.146 I 
ENDROOT
TORSDOF 0
ENDMDL
