MODEL 1
REMARK minimizedAffinity 7.25901985
REMARK minimizedRMSD -1
REMARK  0 active torsions:
REMARK  status: ('A' for Active; 'I' for Inactive)
ROOT
ATOM      1  C   UNL d   1      -2.867  -3.966  -1.898  0.00  0.00     0.023 A 
ATOM      2  C1  UNL d   1      -3.145  -5.062  -2.714  0.00  0.00     0.003 A 
ATOM      3  C2  UNL d   1      -2.330  -5.339  -3.814  0.00  0.00     0.048 A 
ATOM      4  C3  UNL d   1      -1.239  -4.516  -4.091  0.00  0.00     0.023 A 
ATOM      5  C4  UNL d   1      -0.957  -3.418  -3.277  0.00  0.00     0.048 A 
ATOM      6  C5  UNL d   1      -1.775  -3.145  -2.179  0.00  0.00     0.003 A 
ATOM      7  I   UNL d   1      -0.025  -4.927  -5.728  0.00  0.00    -0.146 I 
ENDROOT
TORSDOF 0
ENDMDL
