MODEL 1
REMARK minimizedAffinity 4.24375582
REMARK minimizedRMSD -1
REMARK  0 active torsions:
REMARK  status: ('A' for Active; 'I' for Inactive)
ROOT
ATOM      1  C   UNL d   1      -1.920  -4.094  -1.580  0.00  0.00     0.023 A 
ATOM      2  C1  UNL d   1      -1.500  -3.270  -2.624  0.00  0.00     0.003 A 
ATOM      3  C2  UNL d   1      -1.272  -3.808  -3.892  0.00  0.00     0.048 A 
ATOM      4  C3  UNL d   1      -1.467  -5.171  -4.110  0.00  0.00     0.023 A 
ATOM      5  C4  UNL d   1      -1.889  -6.000  -3.069  0.00  0.00     0.048 A 
ATOM      6  C5  UNL d   1      -2.115  -5.458  -1.803  0.00  0.00     0.003 A 
ATOM      7  I   UNL d   1      -1.129  -5.974  -5.997  0.00  0.00    -0.146 I 
ENDROOT
TORSDOF 0
ENDMDL
