MODEL 1
REMARK minimizedAffinity 2.86100173
REMARK minimizedRMSD -1
REMARK  0 active torsions:
REMARK  status: ('A' for Active; 'I' for Inactive)
ROOT
ATOM      1  C   UNL d   1       5.973  -4.255   5.990  0.00  0.00     0.023 A 
ATOM      2  C1  UNL d   1       5.914  -2.934   5.546  0.00  0.00     0.003 A 
ATOM      3  C2  UNL d   1       4.722  -2.422   5.031  0.00  0.00     0.048 A 
ATOM      4  C3  UNL d   1       3.591  -3.236   4.964  0.00  0.00     0.023 A 
ATOM      5  C4  UNL d   1       3.645  -4.558   5.408  0.00  0.00     0.048 A 
ATOM      6  C5  UNL d   1       4.840  -5.066   5.921  0.00  0.00     0.003 A 
ATOM      7  I   UNL d   1       1.815  -2.475   4.197  0.00  0.00    -0.146 I 
ENDROOT
TORSDOF 0
ENDMDL
