MODEL 1
REMARK minimizedAffinity -0.405677736
REMARK minimizedRMSD -1
REMARK  0 active torsions:
REMARK  status: ('A' for Active; 'I' for Inactive)
ROOT
ATOM      1  C1  BNZ d   1      -3.039   5.990   3.626  0.00  0.00     0.000 A 
ATOM      2  C2  BNZ d   1      -2.449   6.000   4.861  0.00  0.00     0.000 A 
ATOM      3  C3  BNZ d   1      -3.207   5.982   5.999  0.00  0.00     0.000 A 
ATOM      4  C4  BNZ d   1      -4.552   5.995   5.900  0.00  0.00     0.000 A 
ATOM      5  C5  BNZ d   1      -5.162   5.994   4.662  0.00  0.00     0.000 A 
ATOM      6  C6  BNZ d   1      -4.396   5.972   3.519  0.00  0.00     0.000 A 
ENDROOT
TORSDOF 0
ENDMDL
