MODEL 1
REMARK minimizedAffinity -2.85855842
REMARK minimizedRMSD -1
REMARK  0 active torsions:
REMARK  status: ('A' for Active; 'I' for Inactive)
ROOT
ATOM      1  C1  BNZ d   1      -1.807   6.000   3.609  0.00  0.00     0.000 A 
ATOM      2  C2  BNZ d   1      -3.175   5.998   3.656  0.00  0.00     0.000 A 
ATOM      3  C3  BNZ d   1      -3.834   5.996   4.853  0.00  0.00     0.000 A 
ATOM      4  C4  BNZ d   1      -3.126   5.955   6.000  0.00  0.00     0.000 A 
ATOM      5  C5  BNZ d   1      -1.746   5.947   5.969  0.00  0.00     0.000 A 
ATOM      6  C6  BNZ d   1      -1.085   5.989   4.763  0.00  0.00     0.000 A 
ENDROOT
TORSDOF 0
ENDMDL
