MODEL 1
REMARK minimizedAffinity -1.3548516
REMARK minimizedRMSD -1
REMARK  0 active torsions:
REMARK  status: ('A' for Active; 'I' for Inactive)
ROOT
ATOM      1  C1  BNZ d   1      -2.608   5.975   4.361  0.00  0.00     0.000 A 
ATOM      2  C2  BNZ d   1      -3.000   5.968   3.049  0.00  0.00     0.000 A 
ATOM      3  C3  BNZ d   1      -4.326   5.998   2.715  0.00  0.00     0.000 A 
ATOM      4  C4  BNZ d   1      -5.256   5.993   3.692  0.00  0.00     0.000 A 
ATOM      5  C5  BNZ d   1      -4.876   5.991   5.019  0.00  0.00     0.000 A 
ATOM      6  C6  BNZ d   1      -3.541   6.000   5.351  0.00  0.00     0.000 A 
ENDROOT
TORSDOF 0
ENDMDL
