MODEL 1
REMARK minimizedAffinity -3.27246356
REMARK minimizedRMSD -1
REMARK  0 active torsions:
REMARK  status: ('A' for Active; 'I' for Inactive)
ROOT
ATOM      1  C1  BNZ d   1       1.850  -0.887  -1.982  0.00  0.00     0.000 A 
ATOM      2  C2  BNZ d   1       1.753  -2.244  -2.144  0.00  0.00     0.000 A 
ATOM      3  C3  BNZ d   1       1.346  -2.779  -3.334  0.00  0.00     0.000 A 
ATOM      4  C4  BNZ d   1       0.998  -1.958  -4.346  0.00  0.00     0.000 A 
ATOM      5  C5  BNZ d   1       1.081  -0.588  -4.195  0.00  0.00     0.000 A 
ATOM      6  C6  BNZ d   1       1.528  -0.054  -3.008  0.00  0.00     0.000 A 
ENDROOT
TORSDOF 0
ENDMDL
