MODEL 1
REMARK minimizedAffinity -2.15866542
REMARK minimizedRMSD -1
REMARK  0 active torsions:
REMARK  status: ('A' for Active; 'I' for Inactive)
ROOT
ATOM      1  C1  BNZ d   1      -4.134   5.802   3.022  0.00  0.00     0.000 A 
ATOM      2  C2  BNZ d   1      -4.812   5.644   4.201  0.00  0.00     0.000 A 
ATOM      3  C3  BNZ d   1      -4.153   5.686   5.398  0.00  0.00     0.000 A 
ATOM      4  C4  BNZ d   1      -2.814   5.847   5.413  0.00  0.00     0.000 A 
ATOM      5  C5  BNZ d   1      -2.115   5.998   4.232  0.00  0.00     0.000 A 
ATOM      6  C6  BNZ d   1      -2.786   5.994   3.031  0.00  0.00     0.000 A 
ENDROOT
TORSDOF 0
ENDMDL
