MODEL 1
REMARK minimizedAffinity 2.49693179
REMARK minimizedRMSD -1
REMARK  0 active torsions:
REMARK  status: ('A' for Active; 'I' for Inactive)
ROOT
ATOM      1  C1  BNZ d   1       3.281   1.292  -3.717  0.00  0.00     0.000 A 
ATOM      2  C2  BNZ d   1       2.321   0.723  -2.923  0.00  0.00     0.000 A 
ATOM      3  C3  BNZ d   1       1.233   1.444  -2.516  0.00  0.00     0.000 A 
ATOM      4  C4  BNZ d   1       1.126   2.741  -2.870  0.00  0.00     0.000 A 
ATOM      5  C5  BNZ d   1       2.090   3.330  -3.663  0.00  0.00     0.000 A 
ATOM      6  C6  BNZ d   1       3.164   2.591  -4.103  0.00  0.00     0.000 A 
ENDROOT
TORSDOF 0
ENDMDL
