MODEL 1
REMARK minimizedAffinity -2.39823174
REMARK minimizedRMSD -1
REMARK  0 active torsions:
REMARK  status: ('A' for Active; 'I' for Inactive)
ROOT
ATOM      1  C1  BNZ d   1      -1.896   5.999   4.946  0.00  0.00     0.000 A 
ATOM      2  C2  BNZ d   1      -2.776   6.000   5.995  0.00  0.00     0.000 A 
ATOM      3  C3  BNZ d   1      -4.125   5.976   5.777  0.00  0.00     0.000 A 
ATOM      4  C4  BNZ d   1      -4.593   5.991   4.512  0.00  0.00     0.000 A 
ATOM      5  C5  BNZ d   1      -3.718   5.999   3.444  0.00  0.00     0.000 A 
ATOM      6  C6  BNZ d   1      -2.360   5.984   3.667  0.00  0.00     0.000 A 
ENDROOT
TORSDOF 0
ENDMDL
