MODEL 1
REMARK minimizedAffinity -0.600768864
REMARK minimizedRMSD -1
REMARK  0 active torsions:
REMARK  status: ('A' for Active; 'I' for Inactive)
ROOT
ATOM      1  C1  BNZ d   1      -3.004   5.828   3.220  0.00  0.00     0.000 A 
ATOM      2  C2  BNZ d   1      -2.547   6.000   4.500  0.00  0.00     0.000 A 
ATOM      3  C3  BNZ d   1      -3.294   5.592   5.570  0.00  0.00     0.000 A 
ATOM      4  C4  BNZ d   1      -4.511   5.050   5.362  0.00  0.00     0.000 A 
ATOM      5  C5  BNZ d   1      -4.989   4.878   4.078  0.00  0.00     0.000 A 
ATOM      6  C6  BNZ d   1      -4.219   5.254   3.001  0.00  0.00     0.000 A 
ENDROOT
TORSDOF 0
ENDMDL
