MODEL 1
REMARK minimizedAffinity -1.07776153
REMARK minimizedRMSD -1
REMARK  0 active torsions:
REMARK  status: ('A' for Active; 'I' for Inactive)
ROOT
ATOM      1  C1  BNZ d   1       2.053   1.463  -3.589  0.00  0.00     0.000 A 
ATOM      2  C2  BNZ d   1       1.961   0.369  -2.771  0.00  0.00     0.000 A 
ATOM      3  C3  BNZ d   1       1.627   0.508  -1.452  0.00  0.00     0.000 A 
ATOM      4  C4  BNZ d   1       1.425   1.741  -0.946  0.00  0.00     0.000 A 
ATOM      5  C5  BNZ d   1       1.524   2.855  -1.756  0.00  0.00     0.000 A 
ATOM      6  C6  BNZ d   1       1.822   2.708  -3.091  0.00  0.00     0.000 A 
ENDROOT
TORSDOF 0
ENDMDL
