MODEL 1
REMARK minimizedAffinity 1.15392029
REMARK minimizedRMSD -1
REMARK  0 active torsions:
REMARK  status: ('A' for Active; 'I' for Inactive)
ROOT
ATOM      1  C1  BNZ d   1      -3.089   6.000   4.033  0.00  0.00     0.000 A 
ATOM      2  C2  BNZ d   1      -3.757   5.999   2.837  0.00  0.00     0.000 A 
ATOM      3  C3  BNZ d   1      -5.073   5.636   2.771  0.00  0.00     0.000 A 
ATOM      4  C4  BNZ d   1      -5.708   5.236   3.892  0.00  0.00     0.000 A 
ATOM      5  C5  BNZ d   1      -5.045   5.222   5.103  0.00  0.00     0.000 A 
ATOM      6  C6  BNZ d   1      -3.732   5.625   5.173  0.00  0.00     0.000 A 
ENDROOT
TORSDOF 0
ENDMDL
