MODEL 1
REMARK minimizedAffinity -0.491402
REMARK minimizedRMSD -1
REMARK  0 active torsions:
REMARK  status: ('A' for Active; 'I' for Inactive)
ROOT
ATOM      1  C1  BNZ d   1       4.897  -3.135   5.769  0.00  0.00     0.000 A 
ATOM      2  C2  BNZ d   1       6.000  -3.925   5.952  0.00  0.00     0.000 A 
ATOM      3  C3  BNZ d   1       5.886  -5.286   5.999  0.00  0.00     0.000 A 
ATOM      4  C4  BNZ d   1       4.666  -5.853   5.903  0.00  0.00     0.000 A 
ATOM      5  C5  BNZ d   1       3.543  -5.069   5.727  0.00  0.00     0.000 A 
ATOM      6  C6  BNZ d   1       3.666  -3.702   5.641  0.00  0.00     0.000 A 
ENDROOT
TORSDOF 0
ENDMDL
