MODEL 1
REMARK minimizedAffinity 0.128158629
REMARK minimizedRMSD -1
REMARK  0 active torsions:
REMARK  status: ('A' for Active; 'I' for Inactive)
ROOT
ATOM      1  C1  BNZ d   1      -5.773   5.956   3.944  0.00  0.00     0.000 A 
ATOM      2  C2  BNZ d   1      -5.442   5.989   2.615  0.00  0.00     0.000 A 
ATOM      3  C3  BNZ d   1      -4.134   5.989   2.219  0.00  0.00     0.000 A 
ATOM      4  C4  BNZ d   1      -3.159   5.997   3.152  0.00  0.00     0.000 A 
ATOM      5  C5  BNZ d   1      -3.477   5.973   4.495  0.00  0.00     0.000 A 
ATOM      6  C6  BNZ d   1      -4.794   5.934   4.889  0.00  0.00     0.000 A 
ENDROOT
TORSDOF 0
ENDMDL
