MODEL 1
REMARK minimizedAffinity -1.60477412
REMARK minimizedRMSD -1
REMARK  0 active torsions:
REMARK  status: ('A' for Active; 'I' for Inactive)
ROOT
ATOM      1  C1  BNZ d   1      -3.381   5.963   4.623  0.00  0.00     0.000 A 
ATOM      2  C2  BNZ d   1      -4.741   5.828   4.699  0.00  0.00     0.000 A 
ATOM      3  C3  BNZ d   1      -5.499   5.717   3.567  0.00  0.00     0.000 A 
ATOM      4  C4  BNZ d   1      -4.900   5.782   2.360  0.00  0.00     0.000 A 
ATOM      5  C5  BNZ d   1      -3.530   5.928   2.266  0.00  0.00     0.000 A 
ATOM      6  C6  BNZ d   1      -2.767   6.000   3.409  0.00  0.00     0.000 A 
ENDROOT
TORSDOF 0
ENDMDL
