MODEL 1
REMARK minimizedAffinity 0.609983683
REMARK minimizedRMSD -1
REMARK  0 active torsions:
REMARK  status: ('A' for Active; 'I' for Inactive)
ROOT
ATOM      1  C1  BNZ d   1      -5.221   5.656   3.280  0.00  0.00     0.000 A 
ATOM      2  C2  BNZ d   1      -4.703   5.283   2.068  0.00  0.00     0.000 A 
ATOM      3  C3  BNZ d   1      -3.351   5.240   1.868  0.00  0.00     0.000 A 
ATOM      4  C4  BNZ d   1      -2.521   5.608   2.865  0.00  0.00     0.000 A 
ATOM      5  C5  BNZ d   1      -3.028   5.995   4.090  0.00  0.00     0.000 A 
ATOM      6  C6  BNZ d   1      -4.388   6.000   4.300  0.00  0.00     0.000 A 
ENDROOT
TORSDOF 0
ENDMDL
