MODEL 1
REMARK minimizedAffinity 7.14834738
REMARK minimizedRMSD -1
REMARK  0 active torsions:
REMARK  status: ('A' for Active; 'I' for Inactive)
ROOT
ATOM      1  C   UNL d   1       2.676  -2.775   4.763  0.00  0.00     0.023 A 
ATOM      2  C1  UNL d   1       3.884  -2.109   4.557  0.00  0.00     0.003 A 
ATOM      3  C2  UNL d   1       3.945  -1.025   3.678  0.00  0.00     0.048 A 
ATOM      4  C3  UNL d   1       2.793  -0.613   3.009  0.00  0.00     0.023 A 
ATOM      5  C4  UNL d   1       1.582  -1.276   3.213  0.00  0.00     0.048 A 
ATOM      6  C5  UNL d   1       1.526  -2.359   4.092  0.00  0.00     0.003 A 
ATOM      7  I   UNL d   1       2.880   1.000   1.701  0.00  0.00    -0.146 I 
ENDROOT
TORSDOF 0
ENDMDL
