MODEL 1
REMARK minimizedAffinity 13.0645981
REMARK minimizedRMSD -1
REMARK  0 active torsions:
REMARK  status: ('A' for Active; 'I' for Inactive)
ROOT
ATOM      1  C   UNL d   1      -1.724  -0.663  -0.769  0.00  0.00     0.023 A 
ATOM      2  C1  UNL d   1      -1.823  -0.013   0.462  0.00  0.00     0.003 A 
ATOM      3  C2  UNL d   1      -0.747  -0.033   1.352  0.00  0.00     0.048 A 
ATOM      4  C3  UNL d   1       0.425  -0.704   1.005  0.00  0.00     0.023 A 
ATOM      5  C4  UNL d   1       0.529  -1.354  -0.226  0.00  0.00     0.048 A 
ATOM      6  C5  UNL d   1      -0.549  -1.332  -1.112  0.00  0.00     0.003 A 
ATOM      7  I   UNL d   1       2.028  -0.735   2.328  0.00  0.00    -0.146 I 
ENDROOT
TORSDOF 0
ENDMDL
