MODEL 1
REMARK minimizedAffinity 5.56951189
REMARK minimizedRMSD -1
REMARK  0 active torsions:
REMARK  status: ('A' for Active; 'I' for Inactive)
ROOT
ATOM      1  C   UNL d   1       2.634  -0.753   3.512  0.00  0.00     0.023 A 
ATOM      2  C1  UNL d   1       2.463  -2.066   3.074  0.00  0.00     0.003 A 
ATOM      3  C2  UNL d   1       1.780  -2.322   1.883  0.00  0.00     0.048 A 
ATOM      4  C3  UNL d   1       1.272  -1.261   1.135  0.00  0.00     0.023 A 
ATOM      5  C4  UNL d   1       1.441   0.055   1.570  0.00  0.00     0.048 A 
ATOM      6  C5  UNL d   1       2.124   0.306   2.762  0.00  0.00     0.003 A 
ATOM      7  I   UNL d   1       0.255  -1.639  -0.638  0.00  0.00    -0.146 I 
ENDROOT
TORSDOF 0
ENDMDL
