MODEL 1
REMARK minimizedAffinity 15.5576286
REMARK minimizedRMSD -1
REMARK  0 active torsions:
REMARK  status: ('A' for Active; 'I' for Inactive)
ROOT
ATOM      1  C   UNL d   1       0.142  -6.000   5.489  0.00  0.00     0.023 A 
ATOM      2  C1  UNL d   1       1.096  -5.999   4.471  0.00  0.00     0.003 A 
ATOM      3  C2  UNL d   1       1.573  -4.790   3.960  0.00  0.00     0.048 A 
ATOM      4  C3  UNL d   1       1.092  -3.585   4.472  0.00  0.00     0.023 A 
ATOM      5  C4  UNL d   1       0.138  -3.581   5.491  0.00  0.00     0.048 A 
ATOM      6  C5  UNL d   1      -0.336  -4.792   5.998  0.00  0.00     0.003 A 
ATOM      7  I   UNL d   1       1.801  -1.785   3.713  0.00  0.00    -0.146 I 
ENDROOT
TORSDOF 0
ENDMDL
