MODEL 1
REMARK minimizedAffinity 4.4379282
REMARK minimizedRMSD -1
REMARK  0 active torsions:
REMARK  status: ('A' for Active; 'I' for Inactive)
ROOT
ATOM      1  C   UNL d   1       5.997  -2.906   5.223  0.00  0.00     0.023 A 
ATOM      2  C1  UNL d   1       4.875  -2.612   5.998  0.00  0.00     0.003 A 
ATOM      3  C2  UNL d   1       3.710  -2.139   5.391  0.00  0.00     0.048 A 
ATOM      4  C3  UNL d   1       3.673  -1.963   4.008  0.00  0.00     0.023 A 
ATOM      5  C4  UNL d   1       4.792  -2.256   3.228  0.00  0.00     0.048 A 
ATOM      6  C5  UNL d   1       5.955  -2.728   3.840  0.00  0.00     0.003 A 
ATOM      7  I   UNL d   1       1.939  -1.259   3.103  0.00  0.00    -0.146 I 
ENDROOT
TORSDOF 0
ENDMDL
