MODEL 1
REMARK minimizedAffinity 1.82793856
REMARK minimizedRMSD -1
REMARK  0 active torsions:
REMARK  status: ('A' for Active; 'I' for Inactive)
ROOT
ATOM      1  C   UNL d   1       1.643  -1.877   3.988  0.00  0.00     0.023 A 
ATOM      2  C1  UNL d   1       1.723  -2.473   5.247  0.00  0.00     0.003 A 
ATOM      3  C2  UNL d   1       2.969  -2.722   5.825  0.00  0.00     0.048 A 
ATOM      4  C3  UNL d   1       4.132  -2.371   5.140  0.00  0.00     0.023 A 
ATOM      5  C4  UNL d   1       4.057  -1.774   3.881  0.00  0.00     0.048 A 
ATOM      6  C5  UNL d   1       2.809  -1.528   3.306  0.00  0.00     0.003 A 
ATOM      7  I   UNL d   1       5.988  -2.740   6.000  0.00  0.00    -0.146 I 
ENDROOT
TORSDOF 0
ENDMDL
