MODEL 1
REMARK minimizedAffinity 14.7836637
REMARK minimizedRMSD -1
REMARK  0 active torsions:
REMARK  status: ('A' for Active; 'I' for Inactive)
ROOT
ATOM      1  C   UNL d   1      -0.999  -0.963  -0.872  0.00  0.00     0.023 A 
ATOM      2  C1  UNL d   1       0.276  -1.516  -0.988  0.00  0.00     0.003 A 
ATOM      3  C2  UNL d   1       1.310  -1.070  -0.162  0.00  0.00     0.048 A 
ATOM      4  C3  UNL d   1       1.062  -0.071   0.779  0.00  0.00     0.023 A 
ATOM      5  C4  UNL d   1      -0.213   0.484   0.900  0.00  0.00     0.048 A 
ATOM      6  C5  UNL d   1      -1.243   0.036   0.071  0.00  0.00     0.003 A 
ATOM      7  I   UNL d   1       2.599   0.594   2.009  0.00  0.00    -0.146 I 
ENDROOT
TORSDOF 0
ENDMDL
