MODEL 1
REMARK minimizedAffinity 9.68367958
REMARK minimizedRMSD -1
REMARK  0 active torsions:
REMARK  status: ('A' for Active; 'I' for Inactive)
ROOT
ATOM      1  C   UNL d   1       4.322  -4.094   5.871  0.00  0.00     0.023 A 
ATOM      2  C1  UNL d   1       4.521  -2.719   6.000  0.00  0.00     0.003 A 
ATOM      3  C2  UNL d   1       4.182  -1.863   4.950  0.00  0.00     0.048 A 
ATOM      4  C3  UNL d   1       3.643  -2.388   3.776  0.00  0.00     0.023 A 
ATOM      5  C4  UNL d   1       3.442  -3.762   3.643  0.00  0.00     0.048 A 
ATOM      6  C5  UNL d   1       3.783  -4.615   4.695  0.00  0.00     0.003 A 
ATOM      7  I   UNL d   1       3.138  -1.115   2.212  0.00  0.00    -0.146 I 
ENDROOT
TORSDOF 0
ENDMDL
