MODEL 1
REMARK minimizedAffinity -3.73589134
REMARK minimizedRMSD -1
REMARK  0 active torsions:
REMARK  status: ('A' for Active; 'I' for Inactive)
ROOT
ATOM      1  C   UNL d   1       0.340  -0.151  -0.676  0.00  0.00     0.172 C 
ATOM      2  N   UNL d   1      -0.469   0.294   0.434  0.00  0.00    -0.070 N 
ATOM      3  C1  UNL d   1      -0.031   1.052   1.487  0.00  0.00    -0.004 A 
ATOM      4  C2  UNL d   1      -1.101   1.264   2.329  0.00  0.00    -0.047 A 
ATOM      5  C3  UNL d   1      -2.221   0.610   1.762  0.00  0.00    -0.047 A 
ATOM      6  C4  UNL d   1      -1.801   0.018   0.590  0.00  0.00    -0.004 A 
ENDROOT
TORSDOF 0
ENDMDL
