MODEL 1
REMARK minimizedAffinity -4.00932789
REMARK minimizedRMSD -1
REMARK  0 active torsions:
REMARK  status: ('A' for Active; 'I' for Inactive)
ROOT
ATOM      1  C   UNL d   1      -0.307   1.305   2.920  0.00  0.00     0.172 C 
ATOM      2  N   UNL d   1      -0.829   0.681   1.727  0.00  0.00    -0.070 N 
ATOM      3  C1  UNL d   1      -2.117   0.251   1.549  0.00  0.00    -0.004 A 
ATOM      4  C2  UNL d   1      -2.212  -0.284   0.282  0.00  0.00    -0.047 A 
ATOM      5  C3  UNL d   1      -0.937  -0.172  -0.322  0.00  0.00    -0.047 A 
ATOM      6  C4  UNL d   1      -0.100   0.429   0.595  0.00  0.00    -0.004 A 
ENDROOT
TORSDOF 0
ENDMDL
