MODEL 1
REMARK minimizedAffinity -2.7432704
REMARK minimizedRMSD -1
REMARK  0 active torsions:
REMARK  status: ('A' for Active; 'I' for Inactive)
ROOT
ATOM      1  C   UNL d   1      -2.869  -0.786   0.397  0.00  0.00     0.172 C 
ATOM      2  N   UNL d   1      -2.096   0.040   1.295  0.00  0.00    -0.070 N 
ATOM      3  C1  UNL d   1      -0.985   0.765   0.955  0.00  0.00    -0.004 A 
ATOM      4  C2  UNL d   1      -0.542   1.413   2.088  0.00  0.00    -0.047 A 
ATOM      5  C3  UNL d   1      -1.416   1.066   3.144  0.00  0.00    -0.047 A 
ATOM      6  C4  UNL d   1      -2.369   0.214   2.626  0.00  0.00    -0.004 A 
ENDROOT
TORSDOF 0
ENDMDL
