MODEL 1
REMARK minimizedAffinity -2.39037895
REMARK minimizedRMSD -1
REMARK  0 active torsions:
REMARK  status: ('A' for Active; 'I' for Inactive)
ROOT
ATOM      1  C   UNL d   1      -0.801   1.119   2.370  0.00  0.00     0.172 C 
ATOM      2  N   UNL d   1      -0.219   0.538   1.182  0.00  0.00    -0.070 N 
ATOM      3  C1  UNL d   1      -0.716   0.654  -0.089  0.00  0.00    -0.004 A 
ATOM      4  C2  UNL d   1       0.123  -0.038  -0.935  0.00  0.00    -0.047 A 
ATOM      5  C3  UNL d   1       1.159  -0.590  -0.145  0.00  0.00    -0.047 A 
ATOM      6  C4  UNL d   1       0.923  -0.218   1.161  0.00  0.00    -0.004 A 
ENDROOT
TORSDOF 0
ENDMDL
