MODEL 1
REMARK minimizedAffinity -3.21319699
REMARK minimizedRMSD -1
REMARK  0 active torsions:
REMARK  status: ('A' for Active; 'I' for Inactive)
ROOT
ATOM      1  C   UNL d   1       1.494  -1.146  -1.108  0.00  0.00     0.172 C 
ATOM      2  N   UNL d   1       1.079  -0.385  -2.263  0.00  0.00    -0.070 N 
ATOM      3  C1  UNL d   1       1.778   0.645  -2.834  0.00  0.00    -0.004 A 
ATOM      4  C2  UNL d   1       1.049   1.105  -3.909  0.00  0.00    -0.047 A 
ATOM      5  C3  UNL d   1      -0.130   0.325  -3.986  0.00  0.00    -0.047 A 
ATOM      6  C4  UNL d   1      -0.085  -0.589  -2.956  0.00  0.00    -0.004 A 
ENDROOT
TORSDOF 0
ENDMDL
