MODEL 1
REMARK minimizedAffinity -2.52953243
REMARK minimizedRMSD -1
REMARK  0 active torsions:
REMARK  status: ('A' for Active; 'I' for Inactive)
ROOT
ATOM      1  C   UNL d   1       0.735  -0.004  -0.385  0.00  0.00     0.172 C 
ATOM      2  N   UNL d   1       0.783   0.052  -1.827  0.00  0.00    -0.070 N 
ATOM      3  C1  UNL d   1       1.365   1.044  -2.569  0.00  0.00    -0.004 A 
ATOM      4  C2  UNL d   1       1.198   0.730  -3.900  0.00  0.00    -0.047 A 
ATOM      5  C3  UNL d   1       0.491  -0.494  -3.960  0.00  0.00    -0.047 A 
ATOM      6  C4  UNL d   1       0.246  -0.892  -2.663  0.00  0.00    -0.004 A 
ENDROOT
TORSDOF 0
ENDMDL
