MODEL 1
REMARK minimizedAffinity -2.41628838
REMARK minimizedRMSD -1
REMARK  0 active torsions:
REMARK  status: ('A' for Active; 'I' for Inactive)
ROOT
ATOM      1  C   UNL d   1      -2.576  -0.009  -0.501  0.00  0.00     0.172 C 
ATOM      2  N   UNL d   1      -2.163   0.377   0.828  0.00  0.00    -0.070 N 
ATOM      3  C1  UNL d   1      -1.191   1.295   1.126  0.00  0.00    -0.004 A 
ATOM      4  C2  UNL d   1      -1.098   1.380   2.498  0.00  0.00    -0.047 A 
ATOM      5  C3  UNL d   1      -2.045   0.481   3.044  0.00  0.00    -0.047 A 
ATOM      6  C4  UNL d   1      -2.691  -0.126   1.987  0.00  0.00    -0.004 A 
ENDROOT
TORSDOF 0
ENDMDL
