MODEL 1
REMARK minimizedAffinity -3.10591507
REMARK minimizedRMSD -1
REMARK  0 active torsions:
REMARK  status: ('A' for Active; 'I' for Inactive)
ROOT
ATOM      1  C   UNL d   1       0.226  -0.076  -0.788  0.00  0.00     0.172 C 
ATOM      2  N   UNL d   1      -0.500   0.439   0.348  0.00  0.00    -0.070 N 
ATOM      3  C1  UNL d   1      -1.797   0.139   0.669  0.00  0.00    -0.004 A 
ATOM      4  C2  UNL d   1      -2.118   0.828   1.819  0.00  0.00    -0.047 A 
ATOM      5  C3  UNL d   1      -0.974   1.567   2.202  0.00  0.00    -0.047 A 
ATOM      6  C4  UNL d   1       0.013   1.308   1.275  0.00  0.00    -0.004 A 
ENDROOT
TORSDOF 0
ENDMDL
