MODEL 1
REMARK minimizedAffinity -2.91179848
REMARK minimizedRMSD -1
REMARK  1 active torsions:
REMARK  status: ('A' for Active; 'I' for Inactive)
REMARK    1  A    between atoms: N_2  and  C1_3 
ROOT
ATOM      1  C1  UNL d   1       0.006   0.429  -0.059  0.00  0.00     0.143 A 
ATOM      2  C2  UNL d   1      -0.701   0.071   1.094  0.00  0.00    -0.057 A 
ATOM      3  C3  UNL d   1      -1.080  -1.255   1.331  0.00  0.00     0.033 A 
ATOM      4  C4  UNL d   1      -0.783  -2.247   0.402  0.00  0.00    -0.042 A 
ATOM      5  C5  UNL d   1      -0.102  -1.911  -0.763  0.00  0.00     0.033 A 
ATOM      6  C6  UNL d   1       0.279  -0.585  -0.991  0.00  0.00    -0.057 A 
ENDROOT
BRANCH   1   7
ATOM      7  N   UNL d   1       0.325   1.746  -0.399  0.00  0.00    -0.732 N 
ATOM      8  C   UNL d   1       1.506   2.382   0.144  0.00  0.00     0.284 C 
ATOM      9  H3  UNL d   1       0.162   1.943  -1.384  0.00  0.00     0.395 HD
ENDBRANCH   1   7
TORSDOF 1
ENDMDL
