MODEL 1
REMARK minimizedAffinity -3.81633878
REMARK minimizedRMSD -1
REMARK  1 active torsions:
REMARK  status: ('A' for Active; 'I' for Inactive)
REMARK    1  A    between atoms: N_2  and  C1_3 
ROOT
ATOM      1  C1  UNL d   1       0.226  -0.211   0.121  0.00  0.00     0.143 A 
ATOM      2  C2  UNL d   1       0.775  -1.391  -0.392  0.00  0.00    -0.057 A 
ATOM      3  C3  UNL d   1       0.400  -2.644   0.107  0.00  0.00     0.033 A 
ATOM      4  C4  UNL d   1      -0.514  -2.737   1.152  0.00  0.00    -0.042 A 
ATOM      5  C5  UNL d   1      -1.053  -1.577   1.695  0.00  0.00     0.033 A 
ATOM      6  C6  UNL d   1      -0.679  -0.329   1.187  0.00  0.00    -0.057 A 
ENDROOT
BRANCH   1   7
ATOM      7  N   UNL d   1       0.632   1.069  -0.266  0.00  0.00    -0.732 N 
ATOM      8  C   UNL d   1       1.791   1.689   0.340  0.00  0.00     0.284 C 
ATOM      9  H3  UNL d   1       0.562   1.211  -1.271  0.00  0.00     0.395 HD
ENDBRANCH   1   7
TORSDOF 1
ENDMDL
