MODEL 1
REMARK minimizedAffinity -2.11172581
REMARK minimizedRMSD -1
REMARK  1 active torsions:
REMARK  status: ('A' for Active; 'I' for Inactive)
REMARK    1  A    between atoms: N_2  and  C1_3 
ROOT
ATOM      1  C1  UNL d   1       0.178   1.404   0.296  0.00  0.00     0.143 A 
ATOM      2  C2  UNL d   1       0.586   0.422  -0.613  0.00  0.00    -0.057 A 
ATOM      3  C3  UNL d   1       0.146  -0.903  -0.497  0.00  0.00     0.033 A 
ATOM      4  C4  UNL d   1      -0.690  -1.275   0.551  0.00  0.00    -0.042 A 
ATOM      5  C5  UNL d   1      -1.088  -0.321   1.480  0.00  0.00     0.033 A 
ATOM      6  C6  UNL d   1      -0.650   1.001   1.356  0.00  0.00    -0.057 A 
ENDROOT
BRANCH   1   7
ATOM      7  N   UNL d   1       0.659   2.715   0.292  0.00  0.00    -0.732 N 
ATOM      8  C   UNL d   1       2.062   2.987   0.521  0.00  0.00     0.284 C 
ATOM      9  H3  UNL d   1       0.241   3.280  -0.444  0.00  0.00     0.395 HD
ENDBRANCH   1   7
TORSDOF 1
ENDMDL
