MODEL 1
REMARK minimizedAffinity -4.43900251
REMARK minimizedRMSD -1
REMARK  1 active torsions:
REMARK  status: ('A' for Active; 'I' for Inactive)
REMARK    1  A    between atoms: N_2  and  C1_3 
ROOT
ATOM      1  C1  UNL d   1      -0.150  -0.585   0.612  0.00  0.00     0.143 A 
ATOM      2  C2  UNL d   1      -1.264  -1.345   0.985  0.00  0.00    -0.057 A 
ATOM      3  C3  UNL d   1      -1.188  -2.739   1.097  0.00  0.00     0.033 A 
ATOM      4  C4  UNL d   1       0.000  -3.402   0.809  0.00  0.00    -0.042 A 
ATOM      5  C5  UNL d   1       1.113  -2.669   0.411  0.00  0.00     0.033 A 
ATOM      6  C6  UNL d   1       1.033  -1.277   0.308  0.00  0.00    -0.057 A 
ENDROOT
BRANCH   1   7
ATOM      7  N   UNL d   1      -0.188   0.793   0.388  0.00  0.00    -0.732 N 
ATOM      8  C   UNL d   1      -0.138   1.322  -0.958  0.00  0.00     0.284 C 
ATOM      9  H3  UNL d   1      -0.851   1.267   0.997  0.00  0.00     0.395 HD
ENDBRANCH   1   7
TORSDOF 1
ENDMDL
