MODEL 1
REMARK minimizedAffinity -3.82130408
REMARK minimizedRMSD -1
REMARK  1 active torsions:
REMARK  status: ('A' for Active; 'I' for Inactive)
REMARK    1  A    between atoms: N_2  and  C1_3 
ROOT
ATOM      1  C1  UNL d   1       0.140  -0.156   0.340  0.00  0.00     0.143 A 
ATOM      2  C2  UNL d   1      -0.399   0.895  -0.410  0.00  0.00    -0.057 A 
ATOM      3  C3  UNL d   1       0.198   2.161  -0.418  0.00  0.00     0.033 A 
ATOM      4  C4  UNL d   1       1.332   2.407   0.348  0.00  0.00    -0.042 A 
ATOM      5  C5  UNL d   1       1.871   1.384   1.121  0.00  0.00     0.033 A 
ATOM      6  C6  UNL d   1       1.274   0.120   1.120  0.00  0.00    -0.057 A 
ENDROOT
BRANCH   1   7
ATOM      7  N   UNL d   1      -0.463  -1.410   0.467  0.00  0.00    -0.732 N 
ATOM      8  C   UNL d   1       0.334  -2.588   0.733  0.00  0.00     0.284 C 
ATOM      9  H3  UNL d   1      -1.334  -1.371   0.992  0.00  0.00     0.395 HD
ENDBRANCH   1   7
TORSDOF 1
ENDMDL
