MODEL 1
REMARK minimizedAffinity -4.02793407
REMARK minimizedRMSD -1
REMARK  1 active torsions:
REMARK  status: ('A' for Active; 'I' for Inactive)
REMARK    1  A    between atoms: N_2  and  C1_3 
ROOT
ATOM      1  C1  UNL d   1      -0.450  -0.547   0.538  0.00  0.00     0.143 A 
ATOM      2  C2  UNL d   1      -1.591  -1.353   0.478  0.00  0.00    -0.057 A 
ATOM      3  C3  UNL d   1      -1.507  -2.743   0.627  0.00  0.00     0.033 A 
ATOM      4  C4  UNL d   1      -0.272  -3.355   0.811  0.00  0.00    -0.042 A 
ATOM      5  C5  UNL d   1       0.879  -2.576   0.849  0.00  0.00     0.033 A 
ATOM      6  C6  UNL d   1       0.788  -1.188   0.706  0.00  0.00    -0.057 A 
ENDROOT
BRANCH   1   7
ATOM      7  N   UNL d   1      -0.456   0.830   0.299  0.00  0.00    -0.732 N 
ATOM      8  C   UNL d   1       0.776   1.588   0.324  0.00  0.00     0.284 C 
ATOM      9  H3  UNL d   1      -1.089   1.090  -0.453  0.00  0.00     0.395 HD
ENDBRANCH   1   7
TORSDOF 1
ENDMDL
