MODEL 1
REMARK minimizedAffinity -2.3384831
REMARK minimizedRMSD -1
REMARK  1 active torsions:
REMARK  status: ('A' for Active; 'I' for Inactive)
REMARK    1  A    between atoms: N_2  and  C1_3 
ROOT
ATOM      1  C1  UNL d   1       0.260   1.095  -0.012  0.00  0.00     0.143 A 
ATOM      2  C2  UNL d   1      -0.707   0.876   0.975  0.00  0.00    -0.057 A 
ATOM      3  C3  UNL d   1      -1.167  -0.413   1.268  0.00  0.00     0.033 A 
ATOM      4  C4  UNL d   1      -0.688  -1.508   0.556  0.00  0.00    -0.042 A 
ATOM      5  C5  UNL d   1       0.255  -1.312  -0.447  0.00  0.00     0.033 A 
ATOM      6  C6  UNL d   1       0.716  -0.022  -0.730  0.00  0.00    -0.057 A 
ENDROOT
BRANCH   1   7
ATOM      7  N   UNL d   1       0.685   2.362  -0.418  0.00  0.00    -0.732 N 
ATOM      8  C   UNL d   1       0.633   3.484   0.495  0.00  0.00     0.284 C 
ATOM      9  H3  UNL d   1       1.530   2.326  -0.984  0.00  0.00     0.395 HD
ENDBRANCH   1   7
TORSDOF 1
ENDMDL
