MODEL 1
REMARK minimizedAffinity -2.27179193
REMARK minimizedRMSD -1
REMARK  1 active torsions:
REMARK  status: ('A' for Active; 'I' for Inactive)
REMARK    1  A    between atoms: N_2  and  C1_3 
ROOT
ATOM      1  C1  UNL d   1       0.391  -0.893  -1.765  0.00  0.00     0.143 A 
ATOM      2  C2  UNL d   1       0.433  -1.819  -0.716  0.00  0.00    -0.057 A 
ATOM      3  C3  UNL d   1       0.215  -1.424   0.609  0.00  0.00     0.033 A 
ATOM      4  C4  UNL d   1      -0.021  -0.088   0.914  0.00  0.00    -0.042 A 
ATOM      5  C5  UNL d   1      -0.042   0.853  -0.109  0.00  0.00     0.033 A 
ATOM      6  C6  UNL d   1       0.170   0.452  -1.432  0.00  0.00    -0.057 A 
ENDROOT
BRANCH   1   7
ATOM      7  N   UNL d   1       0.698  -1.207  -3.091  0.00  0.00    -0.732 N 
ATOM      8  C   UNL d   1       1.620  -2.278  -3.402  0.00  0.00     0.284 C 
ATOM      9  H3  UNL d   1      -0.119  -1.173  -3.697  0.00  0.00     0.395 HD
ENDBRANCH   1   7
TORSDOF 1
ENDMDL
