MODEL 1
REMARK minimizedAffinity -4.21759367
REMARK minimizedRMSD -1
REMARK  1 active torsions:
REMARK  status: ('A' for Active; 'I' for Inactive)
REMARK    1  A    between atoms: N_2  and  C1_3 
ROOT
ATOM      1  C1  UNL d   1      -0.281  -0.076   0.126  0.00  0.00     0.143 A 
ATOM      2  C2  UNL d   1      -0.694  -0.493   1.396  0.00  0.00    -0.057 A 
ATOM      3  C3  UNL d   1      -0.879  -1.849   1.691  0.00  0.00     0.033 A 
ATOM      4  C4  UNL d   1      -0.681  -2.814   0.708  0.00  0.00    -0.042 A 
ATOM      5  C5  UNL d   1      -0.295  -2.421  -0.568  0.00  0.00     0.033 A 
ATOM      6  C6  UNL d   1      -0.105  -1.066  -0.855  0.00  0.00    -0.057 A 
ENDROOT
BRANCH   1   7
ATOM      7  N   UNL d   1      -0.174   1.263  -0.257  0.00  0.00    -0.732 N 
ATOM      8  C   UNL d   1       0.936   2.073   0.195  0.00  0.00     0.284 C 
ATOM      9  H3  UNL d   1      -0.425   1.409  -1.233  0.00  0.00     0.395 HD
ENDBRANCH   1   7
TORSDOF 1
ENDMDL
