MODEL 1
REMARK minimizedAffinity -1.90638196
REMARK minimizedRMSD -1
REMARK  1 active torsions:
REMARK  status: ('A' for Active; 'I' for Inactive)
REMARK    1  A    between atoms: N_2  and  C1_3 
ROOT
ATOM      1  C1  UNL d   1      -0.158   0.790   0.189  0.00  0.00     0.143 A 
ATOM      2  C2  UNL d   1       0.849  -0.010   0.738  0.00  0.00    -0.057 A 
ATOM      3  C3  UNL d   1       0.546  -1.205   1.402  0.00  0.00     0.033 A 
ATOM      4  C4  UNL d   1      -0.776  -1.607   1.555  0.00  0.00    -0.042 A 
ATOM      5  C5  UNL d   1      -1.796  -0.814   1.039  0.00  0.00     0.033 A 
ATOM      6  C6  UNL d   1      -1.487   0.374   0.371  0.00  0.00    -0.057 A 
ENDROOT
BRANCH   1   7
ATOM      7  N   UNL d   1       0.071   2.038  -0.396  0.00  0.00    -0.732 N 
ATOM      8  C   UNL d   1       1.059   2.940   0.156  0.00  0.00     0.284 C 
ATOM      9  H3  UNL d   1       0.068   1.996  -1.413  0.00  0.00     0.395 HD
ENDBRANCH   1   7
TORSDOF 1
ENDMDL
