MODEL 1
REMARK minimizedAffinity -4.2104044
REMARK minimizedRMSD -1
REMARK  1 active torsions:
REMARK  status: ('A' for Active; 'I' for Inactive)
REMARK    1  A    between atoms: N_2  and  C1_3 
ROOT
ATOM      1  C1  UNL d   1      -0.144  -0.268  -0.428  0.00  0.00     0.143 A 
ATOM      2  C2  UNL d   1      -0.056  -1.052  -1.582  0.00  0.00    -0.057 A 
ATOM      3  C3  UNL d   1      -0.086  -2.450  -1.514  0.00  0.00     0.033 A 
ATOM      4  C4  UNL d   1      -0.176  -3.091  -0.283  0.00  0.00    -0.042 A 
ATOM      5  C5  UNL d   1      -0.240  -2.332   0.880  0.00  0.00     0.033 A 
ATOM      6  C6  UNL d   1      -0.217  -0.936   0.805  0.00  0.00    -0.057 A 
ENDROOT
BRANCH   1   7
ATOM      7  N   UNL d   1      -0.021   1.124  -0.421  0.00  0.00    -0.732 N 
ATOM      8  C   UNL d   1       0.968   1.772   0.413  0.00  0.00     0.284 C 
ATOM      9  H3  UNL d   1      -0.107   1.526  -1.352  0.00  0.00     0.395 HD
ENDBRANCH   1   7
TORSDOF 1
ENDMDL
