MODEL 1
REMARK minimizedAffinity -3.76531124
REMARK minimizedRMSD -1
REMARK  1 active torsions:
REMARK  status: ('A' for Active; 'I' for Inactive)
REMARK    1  A    between atoms: N_2  and  C1_3 
ROOT
ATOM      1  C1  UNL d   1       0.650  -0.513   0.344  0.00  0.00     0.143 A 
ATOM      2  C2  UNL d   1       0.978  -1.848   0.081  0.00  0.00    -0.057 A 
ATOM      3  C3  UNL d   1       0.042  -2.874   0.262  0.00  0.00     0.033 A 
ATOM      4  C4  UNL d   1      -1.232  -2.585   0.738  0.00  0.00    -0.042 A 
ATOM      5  C5  UNL d   1      -1.572  -1.269   1.030  0.00  0.00     0.033 A 
ATOM      6  C6  UNL d   1      -0.635  -0.248   0.840  0.00  0.00    -0.057 A 
ENDROOT
BRANCH   1   7
ATOM      7  N   UNL d   1       1.566   0.539   0.277  0.00  0.00    -0.732 N 
ATOM      8  C   UNL d   1       1.165   1.835  -0.227  0.00  0.00     0.284 C 
ATOM      9  H3  UNL d   1       2.170   0.581   1.095  0.00  0.00     0.395 HD
ENDBRANCH   1   7
TORSDOF 1
ENDMDL
