MODEL 1
REMARK minimizedAffinity -1.54794443
REMARK minimizedRMSD -1
REMARK  0 active torsions:
REMARK  status: ('A' for Active; 'I' for Inactive)
ROOT
ATOM      1  C   UNL d   1       1.152  -1.193   2.396  0.00  0.00     0.124 A 
ATOM      2  C1  UNL d   1       1.905  -1.108   1.233  0.00  0.00     0.062 A 
ATOM      3  C2  UNL d   1       1.312  -0.695   0.044  0.00  0.00     0.162 A 
ATOM      4  C3  UNL d   1      -0.042  -0.361   0.012  0.00  0.00    -0.034 A 
ATOM      5  C4  UNL d   1      -0.793  -0.450   1.185  0.00  0.00     0.162 A 
ATOM      6  C5  UNL d   1      -0.196  -0.864   2.371  0.00  0.00     0.062 A 
ATOM      7  F   UNL d   1      -0.924  -0.946   3.494  0.00  0.00    -0.097 F 
ATOM      8  F1  UNL d   1      -2.098  -0.137   1.190  0.00  0.00    -0.096 F 
ATOM      9  I   UNL d   1      -0.933   0.258  -1.765  0.00  0.00    -0.060 I 
ATOM     10  F2  UNL d   1       2.063  -0.622  -1.065  0.00  0.00    -0.096 F 
ATOM     11  F3  UNL d   1       3.207  -1.427   1.254  0.00  0.00    -0.097 F 
ATOM     12  F4  UNL d   1       1.725  -1.593   3.538  0.00  0.00    -0.092 F 
ENDROOT
TORSDOF 0
ENDMDL
