MODEL 1
REMARK minimizedAffinity -1.06650078
REMARK minimizedRMSD -1
REMARK  0 active torsions:
REMARK  status: ('A' for Active; 'I' for Inactive)
ROOT
ATOM      1  C   UNL d   1      -0.753   1.013  -1.679  0.00  0.00     0.124 A 
ATOM      2  C1  UNL d   1       0.033  -0.129  -1.612  0.00  0.00     0.062 A 
ATOM      3  C2  UNL d   1       0.446  -0.623  -0.377  0.00  0.00     0.162 A 
ATOM      4  C3  UNL d   1       0.074   0.026   0.800  0.00  0.00    -0.034 A 
ATOM      5  C4  UNL d   1      -0.716   1.174   0.724  0.00  0.00     0.162 A 
ATOM      6  C5  UNL d   1      -1.127   1.663  -0.512  0.00  0.00     0.062 A 
ATOM      7  F   UNL d   1      -1.886   2.767  -0.575  0.00  0.00    -0.097 F 
ATOM      8  F1  UNL d   1      -1.092   1.822   1.837  0.00  0.00    -0.096 F 
ATOM      9  I   UNL d   1       0.690  -0.709   2.648  0.00  0.00    -0.060 I 
ATOM     10  F2  UNL d   1       1.205  -1.728  -0.342  0.00  0.00    -0.096 F 
ATOM     11  F3  UNL d   1       0.396  -0.759  -2.738  0.00  0.00    -0.097 F 
ATOM     12  F4  UNL d   1      -1.149   1.486  -2.868  0.00  0.00    -0.092 F 
ENDROOT
TORSDOF 0
ENDMDL
