MODEL 1
REMARK minimizedAffinity -1.90910816
REMARK minimizedRMSD -1
REMARK  0 active torsions:
REMARK  status: ('A' for Active; 'I' for Inactive)
ROOT
ATOM      1  C   UNL d   1       1.392  -1.009   2.305  0.00  0.00     0.124 A 
ATOM      2  C1  UNL d   1       0.056  -0.674   2.130  0.00  0.00     0.062 A 
ATOM      3  C2  UNL d   1      -0.454  -0.475   0.851  0.00  0.00     0.162 A 
ATOM      4  C3  UNL d   1       0.371  -0.612  -0.265  0.00  0.00    -0.034 A 
ATOM      5  C4  UNL d   1       1.714  -0.949  -0.082  0.00  0.00     0.162 A 
ATOM      6  C5  UNL d   1       2.219  -1.146   1.199  0.00  0.00     0.062 A 
ATOM      7  F   UNL d   1       3.510  -1.470   1.366  0.00  0.00    -0.097 F 
ATOM      8  F1  UNL d   1       2.535  -1.089  -1.133  0.00  0.00    -0.096 F 
ATOM      9  I   UNL d   1      -0.388  -0.315  -2.180  0.00  0.00    -0.060 I 
ATOM     10  F2  UNL d   1      -1.748  -0.151   0.712  0.00  0.00    -0.096 F 
ATOM     11  F3  UNL d   1      -0.745  -0.540   3.197  0.00  0.00    -0.097 F 
ATOM     12  F4  UNL d   1       1.880  -1.199   3.537  0.00  0.00    -0.092 F 
ENDROOT
TORSDOF 0
ENDMDL
