MODEL 1
REMARK minimizedAffinity -2.45682287
REMARK minimizedRMSD -1
REMARK  0 active torsions:
REMARK  status: ('A' for Active; 'I' for Inactive)
ROOT
ATOM      1  C   UNL d   1       1.017  -1.165   1.509  0.00  0.00     0.124 A 
ATOM      2  C1  UNL d   1       1.385  -1.229   0.172  0.00  0.00     0.062 A 
ATOM      3  C2  UNL d   1       0.636  -0.563  -0.794  0.00  0.00     0.162 A 
ATOM      4  C3  UNL d   1      -0.490   0.173  -0.426  0.00  0.00    -0.034 A 
ATOM      5  C4  UNL d   1      -0.855   0.232   0.920  0.00  0.00     0.162 A 
ATOM      6  C5  UNL d   1      -0.103  -0.435   1.881  0.00  0.00     0.062 A 
ATOM      7  F   UNL d   1      -0.461  -0.372   3.172  0.00  0.00    -0.097 F 
ATOM      8  F1  UNL d   1      -1.932   0.932   1.308  0.00  0.00    -0.096 F 
ATOM      9  I   UNL d   1      -1.614   1.170  -1.867  0.00  0.00    -0.060 I 
ATOM     10  F2  UNL d   1       1.015  -0.643  -2.078  0.00  0.00    -0.096 F 
ATOM     11  F3  UNL d   1       2.466  -1.935  -0.191  0.00  0.00    -0.097 F 
ATOM     12  F4  UNL d   1       1.739  -1.807   2.435  0.00  0.00    -0.092 F 
ENDROOT
TORSDOF 0
ENDMDL
