MODEL 1
REMARK minimizedAffinity 4.37506533
REMARK minimizedRMSD -1
REMARK  0 active torsions:
REMARK  status: ('A' for Active; 'I' for Inactive)
ROOT
ATOM      1  C   UNL d   1       0.930  -1.212   0.893  0.00  0.00     0.124 A 
ATOM      2  C1  UNL d   1      -0.293  -0.744   1.352  0.00  0.00     0.062 A 
ATOM      3  C2  UNL d   1      -0.941   0.291   0.683  0.00  0.00     0.162 A 
ATOM      4  C3  UNL d   1      -0.368   0.864  -0.452  0.00  0.00    -0.034 A 
ATOM      5  C4  UNL d   1       0.863   0.388  -0.906  0.00  0.00     0.162 A 
ATOM      6  C5  UNL d   1       1.507  -0.647  -0.235  0.00  0.00     0.062 A 
ATOM      7  F   UNL d   1       2.689  -1.098  -0.679  0.00  0.00    -0.097 F 
ATOM      8  F1  UNL d   1       1.443   0.915  -1.995  0.00  0.00    -0.096 F 
ATOM      9  I   UNL d   1      -1.334   2.411  -1.454  0.00  0.00    -0.060 I 
ATOM     10  F2  UNL d   1      -2.122   0.724   1.149  0.00  0.00    -0.096 F 
ATOM     11  F3  UNL d   1      -0.852  -1.288   2.442  0.00  0.00    -0.097 F 
ATOM     12  F4  UNL d   1       1.552  -2.207   1.539  0.00  0.00    -0.092 F 
ENDROOT
TORSDOF 0
ENDMDL
