MODEL 1
REMARK minimizedAffinity -1.6861583
REMARK minimizedRMSD -1
REMARK  0 active torsions:
REMARK  status: ('A' for Active; 'I' for Inactive)
ROOT
ATOM      1  C   UNL d   1       1.565  -2.011   1.735  0.00  0.00     0.124 A 
ATOM      2  C1  UNL d   1       0.578  -1.130   2.155  0.00  0.00     0.062 A 
ATOM      3  C2  UNL d   1      -0.087  -0.331   1.229  0.00  0.00     0.162 A 
ATOM      4  C3  UNL d   1       0.233  -0.410  -0.126  0.00  0.00    -0.034 A 
ATOM      5  C4  UNL d   1       1.227  -1.297  -0.541  0.00  0.00     0.162 A 
ATOM      6  C5  UNL d   1       1.888  -2.094   0.388  0.00  0.00     0.062 A 
ATOM      7  F   UNL d   1       2.842  -2.945  -0.020  0.00  0.00    -0.097 F 
ATOM      8  F1  UNL d   1       1.559  -1.398  -1.837  0.00  0.00    -0.096 F 
ATOM      9  I   UNL d   1      -0.759   0.784  -1.513  0.00  0.00    -0.060 I 
ATOM     10  F2  UNL d   1      -1.036   0.511   1.663  0.00  0.00    -0.096 F 
ATOM     11  F3  UNL d   1       0.264  -1.048   3.456  0.00  0.00    -0.097 F 
ATOM     12  F4  UNL d   1       2.204  -2.779   2.627  0.00  0.00    -0.092 F 
ENDROOT
TORSDOF 0
ENDMDL
