MODEL 1
REMARK minimizedAffinity 0.276535541
REMARK minimizedRMSD -1
REMARK  0 active torsions:
REMARK  status: ('A' for Active; 'I' for Inactive)
ROOT
ATOM      1  C   UNL d   1       1.328  -1.088   2.018  0.00  0.00     0.124 A 
ATOM      2  C1  UNL d   1       1.727  -0.994   0.692  0.00  0.00     0.062 A 
ATOM      3  C2  UNL d   1       0.864  -0.465  -0.263  0.00  0.00     0.162 A 
ATOM      4  C3  UNL d   1      -0.407  -0.024   0.104  0.00  0.00    -0.034 A 
ATOM      5  C4  UNL d   1      -0.802  -0.122   1.440  0.00  0.00     0.162 A 
ATOM      6  C5  UNL d   1       0.064  -0.652   2.391  0.00  0.00     0.062 A 
ATOM      7  F   UNL d   1      -0.323  -0.742   3.671  0.00  0.00    -0.097 F 
ATOM      8  F1  UNL d   1      -2.017   0.292   1.828  0.00  0.00    -0.096 F 
ATOM      9  I   UNL d   1      -1.701   0.769  -1.320  0.00  0.00    -0.060 I 
ATOM     10  F2  UNL d   1       1.276  -0.386  -1.537  0.00  0.00    -0.096 F 
ATOM     11  F3  UNL d   1       2.947  -1.416   0.329  0.00  0.00    -0.097 F 
ATOM     12  F4  UNL d   1       2.160  -1.599   2.934  0.00  0.00    -0.092 F 
ENDROOT
TORSDOF 0
ENDMDL
