MODEL 1
REMARK minimizedAffinity -2.33883381
REMARK minimizedRMSD -1
REMARK  0 active torsions:
REMARK  status: ('A' for Active; 'I' for Inactive)
ROOT
ATOM      1  C   UNL d   1      -0.186  -0.765   1.427  0.00  0.00     0.124 A 
ATOM      2  C1  UNL d   1      -1.306  -0.653   0.615  0.00  0.00     0.062 A 
ATOM      3  C2  UNL d   1      -1.348   0.306  -0.392  0.00  0.00     0.162 A 
ATOM      4  C3  UNL d   1      -0.265   1.161  -0.595  0.00  0.00    -0.034 A 
ATOM      5  C4  UNL d   1       0.858   1.043   0.226  0.00  0.00     0.162 A 
ATOM      6  C5  UNL d   1       0.895   0.083   1.231  0.00  0.00     0.062 A 
ATOM      7  F   UNL d   1       1.978  -0.023   2.015  0.00  0.00    -0.097 F 
ATOM      8  F1  UNL d   1       1.917   1.849   0.058  0.00  0.00    -0.096 F 
ATOM      9  I   UNL d   1      -0.323   2.596  -2.101  0.00  0.00    -0.060 I 
ATOM     10  F2  UNL d   1      -2.444   0.391  -1.162  0.00  0.00    -0.096 F 
ATOM     11  F3  UNL d   1      -2.352  -1.471   0.803  0.00  0.00    -0.097 F 
ATOM     12  F4  UNL d   1      -0.149  -1.688   2.397  0.00  0.00    -0.092 F 
ENDROOT
TORSDOF 0
ENDMDL
