MODEL 1
REMARK minimizedAffinity 1.8518095
REMARK minimizedRMSD -1
REMARK  0 active torsions:
REMARK  status: ('A' for Active; 'I' for Inactive)
ROOT
ATOM      1  C   UNL d   1      -0.350   1.473  -1.469  0.00  0.00     0.124 A 
ATOM      2  C1  UNL d   1      -0.597   2.212  -0.321  0.00  0.00     0.062 A 
ATOM      3  C2  UNL d   1      -0.359   1.658   0.933  0.00  0.00     0.162 A 
ATOM      4  C3  UNL d   1       0.129   0.356   1.046  0.00  0.00    -0.034 A 
ATOM      5  C4  UNL d   1       0.375  -0.382  -0.113  0.00  0.00     0.162 A 
ATOM      6  C5  UNL d   1       0.136   0.177  -1.364  0.00  0.00     0.062 A 
ATOM      7  F   UNL d   1       0.375  -0.539  -2.473  0.00  0.00    -0.097 F 
ATOM      8  F1  UNL d   1       0.845  -1.636  -0.041  0.00  0.00    -0.096 F 
ATOM      9  I   UNL d   1       0.486  -0.477   2.920  0.00  0.00    -0.060 I 
ATOM     10  F2  UNL d   1      -0.607   2.395   2.026  0.00  0.00    -0.096 F 
ATOM     11  F3  UNL d   1      -1.067   3.464  -0.420  0.00  0.00    -0.097 F 
ATOM     12  F4  UNL d   1      -0.580   2.008  -2.675  0.00  0.00    -0.092 F 
ENDROOT
TORSDOF 0
ENDMDL
