MODEL 1
REMARK minimizedAffinity 0.199810132
REMARK minimizedRMSD -1
REMARK  0 active torsions:
REMARK  status: ('A' for Active; 'I' for Inactive)
ROOT
ATOM      1  C   UNL d   1       1.392  -0.578   1.918  0.00  0.00     0.124 A 
ATOM      2  C1  UNL d   1       0.767   0.608   2.277  0.00  0.00     0.062 A 
ATOM      3  C2  UNL d   1       0.028   1.322   1.338  0.00  0.00     0.162 A 
ATOM      4  C3  UNL d   1      -0.090   0.852   0.030  0.00  0.00    -0.034 A 
ATOM      5  C4  UNL d   1       0.542  -0.341  -0.324  0.00  0.00     0.162 A 
ATOM      6  C5  UNL d   1       1.279  -1.052   0.618  0.00  0.00     0.062 A 
ATOM      7  F   UNL d   1       1.882  -2.197   0.269  0.00  0.00    -0.097 F 
ATOM      8  F1  UNL d   1       0.449  -0.822  -1.573  0.00  0.00    -0.096 F 
ATOM      9  I   UNL d   1      -1.193   1.917  -1.377  0.00  0.00    -0.060 I 
ATOM     10  F2  UNL d   1      -0.565   2.465   1.713  0.00  0.00    -0.096 F 
ATOM     11  F3  UNL d   1       0.875   1.067   3.532  0.00  0.00    -0.097 F 
ATOM     12  F4  UNL d   1       2.102  -1.263   2.823  0.00  0.00    -0.092 F 
ENDROOT
TORSDOF 0
ENDMDL
