MODEL 1
REMARK minimizedAffinity 12.8360195
REMARK minimizedRMSD -1
REMARK  0 active torsions:
REMARK  status: ('A' for Active; 'I' for Inactive)
ROOT
ATOM      1  C   UNL d   1      -0.547  -2.704   3.393  0.00  0.00     0.124 A 
ATOM      2  C1  UNL d   1       0.074  -3.738   2.707  0.00  0.00     0.062 A 
ATOM      3  C2  UNL d   1       1.029  -3.459   1.734  0.00  0.00     0.162 A 
ATOM      4  C3  UNL d   1       1.371  -2.139   1.442  0.00  0.00    -0.034 A 
ATOM      5  C4  UNL d   1       0.742  -1.104   2.135  0.00  0.00     0.162 A 
ATOM      6  C5  UNL d   1      -0.212  -1.388   3.107  0.00  0.00     0.062 A 
ATOM      7  F   UNL d   1      -0.811  -0.387   3.769  0.00  0.00    -0.097 F 
ATOM      8  F1  UNL d   1       1.047   0.177   1.879  0.00  0.00    -0.096 F 
ATOM      9  I   UNL d   1       2.799  -1.718  -0.012  0.00  0.00    -0.060 I 
ATOM     10  F2  UNL d   1       1.613  -4.479   1.087  0.00  0.00    -0.096 F 
ATOM     11  F3  UNL d   1      -0.248  -5.011   2.982  0.00  0.00    -0.097 F 
ATOM     12  F4  UNL d   1      -1.466  -2.975   4.328  0.00  0.00    -0.092 F 
ENDROOT
TORSDOF 0
ENDMDL
