MODEL 1
REMARK minimizedAffinity 15.28232
REMARK minimizedRMSD -1
REMARK  2 active torsions:
REMARK  status: ('A' for Active; 'I' for Inactive)
REMARK    1  A    between atoms: C1_2  and  C2_3 
REMARK    2  A    between atoms: C2_3  and  C3_4 
ROOT
ATOM      1  C3  UNL d   1      -4.100  -4.767  -1.427  0.00  0.00    -0.075 A 
ATOM      2  C4  UNL d   1      -2.987  -3.916  -1.365  0.00  0.00     0.002 A 
ATOM      3  C5  UNL d   1      -2.929  -2.766  -2.153  0.00  0.00     0.002 A 
ATOM      4  C6  UNL d   1      -3.976  -2.458  -3.019  0.00  0.00    -0.004 A 
ATOM      5  C7  UNL d   1      -5.080  -3.304  -3.101  0.00  0.00     0.002 A 
ATOM      6  C8  UNL d   1      -5.142  -4.453  -2.310  0.00  0.00     0.002 A 
ENDROOT
BRANCH   1   7
ATOM      7  C2  UNL d   1      -4.182  -5.997  -0.556  0.00  0.00     0.056 C 
BRANCH   7   8
ATOM      8  C1  UNL d   1      -4.185  -5.698   0.947  0.00  0.00     0.007 C 
ATOM      9  C   UNL d   1      -5.525  -5.984   1.613  0.00  0.00     0.009 C 
ENDBRANCH   7   8
ENDBRANCH   1   7
TORSDOF 2
ENDMDL
