MODEL 1
REMARK minimizedAffinity 7.42490435
REMARK minimizedRMSD -1
REMARK  2 active torsions:
REMARK  status: ('A' for Active; 'I' for Inactive)
REMARK    1  A    between atoms: C1_2  and  C2_3 
REMARK    2  A    between atoms: C2_3  and  C3_4 
ROOT
ATOM      1  C3  UNL d   1      -5.300   0.770   4.047  0.00  0.00    -0.075 A 
ATOM      2  C4  UNL d   1      -6.000   0.878   5.258  0.00  0.00     0.002 A 
ATOM      3  C5  UNL d   1      -5.959   2.061   5.996  0.00  0.00     0.002 A 
ATOM      4  C6  UNL d   1      -5.213   3.146   5.540  0.00  0.00    -0.004 A 
ATOM      5  C7  UNL d   1      -4.501   3.044   4.346  0.00  0.00     0.002 A 
ATOM      6  C8  UNL d   1      -4.544   1.863   3.604  0.00  0.00     0.002 A 
ENDROOT
BRANCH   1   7
ATOM      7  C2  UNL d   1      -5.364  -0.498   3.229  0.00  0.00     0.056 C 
BRANCH   7   8
ATOM      8  C1  UNL d   1      -4.850  -0.340   1.794  0.00  0.00     0.007 C 
ATOM      9  C   UNL d   1      -3.834  -1.404   1.400  0.00  0.00     0.009 C 
ENDBRANCH   7   8
ENDBRANCH   1   7
TORSDOF 2
ENDMDL
