MODEL 1
REMARK minimizedAffinity 18.3985462
REMARK minimizedRMSD -1
REMARK  2 active torsions:
REMARK  status: ('A' for Active; 'I' for Inactive)
REMARK    1  A    between atoms: C1_2  and  C2_3 
REMARK    2  A    between atoms: C2_3  and  C3_4 
ROOT
ATOM      1  C3  UNL d   1      -1.320   0.751   3.693  0.00  0.00    -0.075 A 
ATOM      2  C4  UNL d   1      -2.578   0.145   3.563  0.00  0.00     0.002 A 
ATOM      3  C5  UNL d   1      -3.738   0.920   3.534  0.00  0.00     0.002 A 
ATOM      4  C6  UNL d   1      -3.656   2.306   3.645  0.00  0.00    -0.004 A 
ATOM      5  C7  UNL d   1      -2.413   2.918   3.791  0.00  0.00     0.002 A 
ATOM      6  C8  UNL d   1      -1.250   2.145   3.816  0.00  0.00     0.002 A 
ENDROOT
BRANCH   1   7
ATOM      7  C2  UNL d   1      -0.058  -0.079   3.695  0.00  0.00     0.056 C 
BRANCH   7   8
ATOM      8  C1  UNL d   1       1.146   0.614   3.048  0.00  0.00     0.007 C 
ATOM      9  C   UNL d   1       1.589  -0.042   1.747  0.00  0.00     0.009 C 
ENDBRANCH   7   8
ENDBRANCH   1   7
TORSDOF 2
ENDMDL
