MODEL 1
REMARK minimizedAffinity 5.79758835
REMARK minimizedRMSD -1
REMARK  2 active torsions:
REMARK  status: ('A' for Active; 'I' for Inactive)
REMARK    1  A    between atoms: C1_2  and  C2_3 
REMARK    2  A    between atoms: C2_3  and  C3_4 
ROOT
ATOM      1  C3  UNL d   1      -2.262  -3.338   0.353  0.00  0.00    -0.075 A 
ATOM      2  C4  UNL d   1      -1.092  -3.143   1.101  0.00  0.00     0.002 A 
ATOM      3  C5  UNL d   1      -0.582  -4.167   1.899  0.00  0.00     0.002 A 
ATOM      4  C6  UNL d   1      -1.241  -5.393   1.969  0.00  0.00    -0.004 A 
ATOM      5  C7  UNL d   1      -2.414  -5.592   1.244  0.00  0.00     0.002 A 
ATOM      6  C8  UNL d   1      -2.923  -4.570   0.441  0.00  0.00     0.002 A 
ENDROOT
BRANCH   1   7
ATOM      7  C2  UNL d   1      -2.802  -2.243  -0.536  0.00  0.00     0.056 C 
BRANCH   7   8
ATOM      8  C1  UNL d   1      -2.750  -2.572  -2.031  0.00  0.00     0.007 C 
ATOM      9  C   UNL d   1      -3.942  -3.390  -2.508  0.00  0.00     0.009 C 
ENDBRANCH   7   8
ENDBRANCH   1   7
TORSDOF 2
ENDMDL
