MODEL 1
REMARK minimizedAffinity 18.8806858
REMARK minimizedRMSD -1
REMARK  2 active torsions:
REMARK  status: ('A' for Active; 'I' for Inactive)
REMARK    1  A    between atoms: C1_2  and  C2_3 
REMARK    2  A    between atoms: C2_3  and  C3_4 
ROOT
ATOM      1  C3  UNL d   1       0.565   0.111   2.128  0.00  0.00    -0.075 A 
ATOM      2  C4  UNL d   1       0.406   1.473   1.831  0.00  0.00     0.002 A 
ATOM      3  C5  UNL d   1       1.466   2.212   1.306  0.00  0.00     0.002 A 
ATOM      4  C6  UNL d   1       2.699   1.605   1.081  0.00  0.00    -0.004 A 
ATOM      5  C7  UNL d   1       2.874   0.257   1.387  0.00  0.00     0.002 A 
ATOM      6  C8  UNL d   1       1.813  -0.487   1.908  0.00  0.00     0.002 A 
ENDROOT
BRANCH   1   7
ATOM      7  C2  UNL d   1      -0.586  -0.702   2.668  0.00  0.00     0.056 C 
BRANCH   7   8
ATOM      8  C1  UNL d   1      -0.867  -1.987   1.882  0.00  0.00     0.007 C 
ATOM      9  C   UNL d   1      -2.190  -1.953   1.129  0.00  0.00     0.009 C 
ENDBRANCH   7   8
ENDBRANCH   1   7
TORSDOF 2
ENDMDL
