MODEL 1
REMARK minimizedAffinity 13.6360846
REMARK minimizedRMSD -1
REMARK  2 active torsions:
REMARK  status: ('A' for Active; 'I' for Inactive)
REMARK    1  A    between atoms: C1_2  and  C2_3 
REMARK    2  A    between atoms: C2_3  and  C3_4 
ROOT
ATOM      1  C3  UNL d   1      -1.845  -3.645   0.675  0.00  0.00    -0.075 A 
ATOM      2  C4  UNL d   1      -1.124  -3.767   1.872  0.00  0.00     0.002 A 
ATOM      3  C5  UNL d   1      -1.194  -4.939   2.624  0.00  0.00     0.002 A 
ATOM      4  C6  UNL d   1      -1.991  -5.999   2.197  0.00  0.00    -0.004 A 
ATOM      5  C7  UNL d   1      -2.725  -5.883   1.018  0.00  0.00     0.002 A 
ATOM      6  C8  UNL d   1      -2.654  -4.712   0.261  0.00  0.00     0.002 A 
ENDROOT
BRANCH   1   7
ATOM      7  C2  UNL d   1      -1.751  -2.390  -0.160  0.00  0.00     0.056 C 
BRANCH   7   8
ATOM      8  C1  UNL d   1      -2.930  -2.188  -1.118  0.00  0.00     0.007 C 
ATOM      9  C   UNL d   1      -2.513  -2.146  -2.582  0.00  0.00     0.009 C 
ENDBRANCH   7   8
ENDBRANCH   1   7
TORSDOF 2
ENDMDL
