MODEL 1
REMARK minimizedAffinity 20.4758053
REMARK minimizedRMSD -1
REMARK  2 active torsions:
REMARK  status: ('A' for Active; 'I' for Inactive)
REMARK    1  A    between atoms: C1_2  and  C2_3 
REMARK    2  A    between atoms: C2_3  and  C3_4 
ROOT
ATOM      1  C3  UNL d   1      -3.324  -3.217  -1.796  0.00  0.00    -0.075 A 
ATOM      2  C4  UNL d   1      -4.142  -2.759  -2.838  0.00  0.00     0.002 A 
ATOM      3  C5  UNL d   1      -5.013  -3.632  -3.491  0.00  0.00     0.002 A 
ATOM      4  C6  UNL d   1      -5.069  -4.973  -3.118  0.00  0.00    -0.004 A 
ATOM      5  C7  UNL d   1      -4.248  -5.443  -2.095  0.00  0.00     0.002 A 
ATOM      6  C8  UNL d   1      -3.379  -4.571  -1.437  0.00  0.00     0.002 A 
ENDROOT
BRANCH   1   7
ATOM      7  C2  UNL d   1      -2.401  -2.271  -1.066  0.00  0.00     0.056 C 
BRANCH   7   8
ATOM      8  C1  UNL d   1      -2.632  -2.218   0.448  0.00  0.00     0.007 C 
ATOM      9  C   UNL d   1      -1.596  -3.004   1.241  0.00  0.00     0.009 C 
ENDBRANCH   7   8
ENDBRANCH   1   7
TORSDOF 2
ENDMDL
