MODEL 1
REMARK minimizedAffinity 3.44240808
REMARK minimizedRMSD -1
REMARK  2 active torsions:
REMARK  status: ('A' for Active; 'I' for Inactive)
REMARK    1  A    between atoms: C1_2  and  C2_3 
REMARK    2  A    between atoms: C2_3  and  C3_4 
ROOT
ATOM      1  C3  UNL d   1       3.899   1.605  -0.529  0.00  0.00    -0.075 A 
ATOM      2  C4  UNL d   1       2.800   1.945   0.274  0.00  0.00     0.002 A 
ATOM      3  C5  UNL d   1       2.422   1.128   1.340  0.00  0.00     0.002 A 
ATOM      4  C6  UNL d   1       3.130  -0.041   1.611  0.00  0.00    -0.004 A 
ATOM      5  C7  UNL d   1       4.213  -0.397   0.810  0.00  0.00     0.002 A 
ATOM      6  C8  UNL d   1       4.596   0.420  -0.255  0.00  0.00     0.002 A 
ENDROOT
BRANCH   1   7
ATOM      7  C2  UNL d   1       4.332   2.500  -1.666  0.00  0.00     0.056 C 
BRANCH   7   8
ATOM      8  C1  UNL d   1       3.480   2.356  -2.931  0.00  0.00     0.007 C 
ATOM      9  C   UNL d   1       2.825   3.661  -3.365  0.00  0.00     0.009 C 
ENDBRANCH   7   8
ENDBRANCH   1   7
TORSDOF 2
ENDMDL
