MODEL 1
REMARK minimizedAffinity 9.79792595
REMARK minimizedRMSD -1
REMARK  2 active torsions:
REMARK  status: ('A' for Active; 'I' for Inactive)
REMARK    1  A    between atoms: C1_2  and  C2_3 
REMARK    2  A    between atoms: C2_3  and  C3_4 
ROOT
ATOM      1  C3  UNL d   1      -0.610  -1.035   2.364  0.00  0.00    -0.075 A 
ATOM      2  C4  UNL d   1      -0.917  -2.032   3.302  0.00  0.00     0.002 A 
ATOM      3  C5  UNL d   1      -1.560  -3.204   2.905  0.00  0.00     0.002 A 
ATOM      4  C6  UNL d   1      -1.913  -3.391   1.570  0.00  0.00    -0.004 A 
ATOM      5  C7  UNL d   1      -1.627  -2.401   0.632  0.00  0.00     0.002 A 
ATOM      6  C8  UNL d   1      -0.980  -1.228   1.026  0.00  0.00     0.002 A 
ENDROOT
BRANCH   1   7
ATOM      7  C2  UNL d   1       0.113   0.223   2.782  0.00  0.00     0.056 C 
BRANCH   7   8
ATOM      8  C1  UNL d   1       1.258   0.625   1.847  0.00  0.00     0.007 C 
ATOM      9  C   UNL d   1       1.248   2.104   1.486  0.00  0.00     0.009 C 
ENDBRANCH   7   8
ENDBRANCH   1   7
TORSDOF 2
ENDMDL
