MODEL 1
REMARK minimizedAffinity 12.216341
REMARK minimizedRMSD -1
REMARK  2 active torsions:
REMARK  status: ('A' for Active; 'I' for Inactive)
REMARK    1  A    between atoms: C1_2  and  C2_3 
REMARK    2  A    between atoms: C2_3  and  C3_4 
ROOT
ATOM      1  C3  UNL d   1       3.061   1.090  -0.585  0.00  0.00    -0.075 A 
ATOM      2  C4  UNL d   1       2.185   2.066  -0.087  0.00  0.00     0.002 A 
ATOM      3  C5  UNL d   1       1.515   1.866   1.120  0.00  0.00     0.002 A 
ATOM      4  C6  UNL d   1       1.704   0.688   1.839  0.00  0.00    -0.004 A 
ATOM      5  C7  UNL d   1       2.560  -0.295   1.346  0.00  0.00     0.002 A 
ATOM      6  C8  UNL d   1       3.235  -0.096   0.140  0.00  0.00     0.002 A 
ENDROOT
BRANCH   1   7
ATOM      7  C2  UNL d   1       3.812   1.313  -1.876  0.00  0.00     0.056 C 
BRANCH   7   8
ATOM      8  C1  UNL d   1       3.089   2.230  -2.868  0.00  0.00     0.007 C 
ATOM      9  C   UNL d   1       3.521   2.013  -4.312  0.00  0.00     0.009 C 
ENDBRANCH   7   8
ENDBRANCH   1   7
TORSDOF 2
ENDMDL
