MODEL 1
REMARK minimizedAffinity 7.24745274
REMARK minimizedRMSD -1
REMARK  2 active torsions:
REMARK  status: ('A' for Active; 'I' for Inactive)
REMARK    1  A    between atoms: C1_2  and  C2_3 
REMARK    2  A    between atoms: C2_3  and  C3_4 
ROOT
ATOM      1  C3  UNL d   1      -3.574  -3.874  -2.776  0.00  0.00    -0.075 A 
ATOM      2  C4  UNL d   1      -2.404  -3.421  -3.403  0.00  0.00     0.002 A 
ATOM      3  C5  UNL d   1      -1.291  -4.255  -3.512  0.00  0.00     0.002 A 
ATOM      4  C6  UNL d   1      -1.329  -5.545  -2.987  0.00  0.00    -0.004 A 
ATOM      5  C7  UNL d   1      -2.480  -5.999  -2.348  0.00  0.00     0.002 A 
ATOM      6  C8  UNL d   1      -3.597  -5.169  -2.241  0.00  0.00     0.002 A 
ENDROOT
BRANCH   1   7
ATOM      7  C2  UNL d   1      -4.793  -2.987  -2.681  0.00  0.00     0.056 C 
BRANCH   7   8
ATOM      8  C1  UNL d   1      -5.999  -3.498  -3.475  0.00  0.00     0.007 C 
ATOM      9  C   UNL d   1      -5.994  -3.050  -4.930  0.00  0.00     0.009 C 
ENDBRANCH   7   8
ENDBRANCH   1   7
TORSDOF 2
ENDMDL
