MODEL 1
REMARK minimizedAffinity 15.7736921
REMARK minimizedRMSD -1
REMARK  2 active torsions:
REMARK  status: ('A' for Active; 'I' for Inactive)
REMARK    1  A    between atoms: C1_2  and  C2_3 
REMARK    2  A    between atoms: C2_3  and  C3_4 
ROOT
ATOM      1  C3  UNL d   1      -2.932  -3.503  -0.285  0.00  0.00    -0.075 A 
ATOM      2  C4  UNL d   1      -2.943  -2.600  -1.358  0.00  0.00     0.002 A 
ATOM      3  C5  UNL d   1      -3.239  -3.038  -2.649  0.00  0.00     0.002 A 
ATOM      4  C6  UNL d   1      -3.517  -4.383  -2.885  0.00  0.00    -0.004 A 
ATOM      5  C7  UNL d   1      -3.492  -5.291  -1.829  0.00  0.00     0.002 A 
ATOM      6  C8  UNL d   1      -3.201  -4.855  -0.536  0.00  0.00     0.002 A 
ENDROOT
BRANCH   1   7
ATOM      7  C2  UNL d   1      -2.642  -3.029   1.119  0.00  0.00     0.056 C 
BRANCH   7   8
ATOM      8  C1  UNL d   1      -1.155  -3.047   1.489  0.00  0.00     0.007 C 
ATOM      9  C   UNL d   1      -0.882  -3.676   2.848  0.00  0.00     0.009 C 
ENDBRANCH   7   8
ENDBRANCH   1   7
TORSDOF 2
ENDMDL
