MODEL 1
REMARK minimizedAffinity 3.54134035
REMARK minimizedRMSD -1
REMARK  2 active torsions:
REMARK  status: ('A' for Active; 'I' for Inactive)
REMARK    1  A    between atoms: C1_2  and  C2_3 
REMARK    2  A    between atoms: C2_3  and  C3_4 
ROOT
ATOM      1  C3  UNL d   1      -5.581   4.656   3.306  0.00  0.00    -0.075 A 
ATOM      2  C4  UNL d   1      -4.799   3.711   3.986  0.00  0.00     0.002 A 
ATOM      3  C5  UNL d   1      -4.461   3.904   5.326  0.00  0.00     0.002 A 
ATOM      4  C6  UNL d   1      -4.889   5.046   5.998  0.00  0.00    -0.004 A 
ATOM      5  C7  UNL d   1      -5.652   6.000   5.327  0.00  0.00     0.002 A 
ATOM      6  C8  UNL d   1      -5.996   5.807   3.988  0.00  0.00     0.002 A 
ENDROOT
BRANCH   1   7
ATOM      7  C2  UNL d   1      -5.975   4.439   1.864  0.00  0.00     0.056 C 
BRANCH   7   8
ATOM      8  C1  UNL d   1      -5.999   5.720   1.025  0.00  0.00     0.007 C 
ATOM      9  C   UNL d   1      -5.622   5.490  -0.433  0.00  0.00     0.009 C 
ENDBRANCH   7   8
ENDBRANCH   1   7
TORSDOF 2
ENDMDL
