MODEL 1
REMARK minimizedAffinity 10.0142517
REMARK minimizedRMSD -1
REMARK  2 active torsions:
REMARK  status: ('A' for Active; 'I' for Inactive)
REMARK    1  A    between atoms: C1_2  and  C2_3 
REMARK    2  A    between atoms: C2_3  and  C3_4 
ROOT
ATOM      1  C3  UNL d   1       3.144   3.503  -4.141  0.00  0.00    -0.075 A 
ATOM      2  C4  UNL d   1       4.267   3.922  -4.870  0.00  0.00     0.002 A 
ATOM      3  C5  UNL d   1       5.507   3.313  -4.672  0.00  0.00     0.002 A 
ATOM      4  C6  UNL d   1       5.642   2.288  -3.738  0.00  0.00    -0.004 A 
ATOM      5  C7  UNL d   1       4.537   1.876  -2.997  0.00  0.00     0.002 A 
ATOM      6  C8  UNL d   1       3.294   2.480  -3.196  0.00  0.00     0.002 A 
ENDROOT
BRANCH   1   7
ATOM      7  C2  UNL d   1       1.793   4.138  -4.372  0.00  0.00     0.056 C 
BRANCH   7   8
ATOM      8  C1  UNL d   1       1.511   4.489  -5.836  0.00  0.00     0.007 C 
ATOM      9  C   UNL d   1       0.597   5.696  -5.999  0.00  0.00     0.009 C 
ENDBRANCH   7   8
ENDBRANCH   1   7
TORSDOF 2
ENDMDL
