MODEL 1
REMARK minimizedAffinity 8.32086849
REMARK minimizedRMSD -1
REMARK  2 active torsions:
REMARK  status: ('A' for Active; 'I' for Inactive)
REMARK    1  A    between atoms: C1_2  and  C2_3 
REMARK    2  A    between atoms: C2_3  and  C3_4 
ROOT
ATOM      1  C3  UNL d   1       3.039   1.104  -0.840  0.00  0.00    -0.075 A 
ATOM      2  C4  UNL d   1       2.060   2.019  -0.427  0.00  0.00     0.002 A 
ATOM      3  C5  UNL d   1       1.518   1.945   0.856  0.00  0.00     0.002 A 
ATOM      4  C6  UNL d   1       1.939   0.952   1.738  0.00  0.00    -0.004 A 
ATOM      5  C7  UNL d   1       2.900   0.027   1.332  0.00  0.00     0.002 A 
ATOM      6  C8  UNL d   1       3.447   0.102   0.050  0.00  0.00     0.002 A 
ENDROOT
BRANCH   1   7
ATOM      7  C2  UNL d   1       3.651   1.197  -2.218  0.00  0.00     0.056 C 
BRANCH   7   8
ATOM      8  C1  UNL d   1       4.807   2.197  -2.321  0.00  0.00     0.007 C 
ATOM      9  C   UNL d   1       5.826   1.829  -3.391  0.00  0.00     0.009 C 
ENDBRANCH   7   8
ENDBRANCH   1   7
TORSDOF 2
ENDMDL
