MODEL 1
REMARK minimizedAffinity 7.05596542
REMARK minimizedRMSD -1
REMARK  2 active torsions:
REMARK  status: ('A' for Active; 'I' for Inactive)
REMARK    1  A    between atoms: C1_2  and  C2_3 
REMARK    2  A    between atoms: C2_3  and  C3_4 
ROOT
ATOM      1  C3  UNL d   1       3.973   2.226  -2.994  0.00  0.00    -0.075 A 
ATOM      2  C4  UNL d   1       5.124   2.820  -3.533  0.00  0.00     0.002 A 
ATOM      3  C5  UNL d   1       5.020   3.790  -4.530  0.00  0.00     0.002 A 
ATOM      4  C6  UNL d   1       3.768   4.171  -5.007  0.00  0.00    -0.004 A 
ATOM      5  C7  UNL d   1       2.619   3.576  -4.491  0.00  0.00     0.002 A 
ATOM      6  C8  UNL d   1       2.720   2.608  -3.491  0.00  0.00     0.002 A 
ENDROOT
BRANCH   1   7
ATOM      7  C2  UNL d   1       4.078   1.196  -1.895  0.00  0.00     0.056 C 
BRANCH   7   8
ATOM      8  C1  UNL d   1       3.385   1.604  -0.590  0.00  0.00     0.007 C 
ATOM      9  C   UNL d   1       3.380   0.500   0.458  0.00  0.00     0.009 C 
ENDBRANCH   7   8
ENDBRANCH   1   7
TORSDOF 2
ENDMDL
