MODEL 1
REMARK minimizedAffinity 1.01486433
REMARK minimizedRMSD -1
REMARK  2 active torsions:
REMARK  status: ('A' for Active; 'I' for Inactive)
REMARK    1  A    between atoms: C1_2  and  C2_3 
REMARK    2  A    between atoms: C2_3  and  C3_4 
ROOT
ATOM      1  C3  UNL d   1       4.796   3.527  -5.416  0.00  0.00    -0.075 A 
ATOM      2  C4  UNL d   1       3.436   3.181  -5.406  0.00  0.00     0.002 A 
ATOM      3  C5  UNL d   1       2.461   4.135  -5.701  0.00  0.00     0.002 A 
ATOM      4  C6  UNL d   1       2.831   5.444  -5.999  0.00  0.00    -0.004 A 
ATOM      5  C7  UNL d   1       4.177   5.803  -5.996  0.00  0.00     0.002 A 
ATOM      6  C8  UNL d   1       5.155   4.850  -5.705  0.00  0.00     0.002 A 
ENDROOT
BRANCH   1   7
ATOM      7  C2  UNL d   1       5.857   2.493  -5.126  0.00  0.00     0.056 C 
BRANCH   7   8
ATOM      8  C1  UNL d   1       5.999   2.144  -3.641  0.00  0.00     0.007 C 
ATOM      9  C   UNL d   1       6.000   3.367  -2.734  0.00  0.00     0.009 C 
ENDBRANCH   7   8
ENDBRANCH   1   7
TORSDOF 2
ENDMDL
