MODEL 1
REMARK minimizedAffinity -2.61265945
REMARK minimizedRMSD -1
REMARK  0 active torsions:
REMARK  status: ('A' for Active; 'I' for Inactive)
ROOT
ATOM      1  C1  DEN d   1       2.574   0.610  -1.552  0.00  0.00     0.130 A 
ATOM      2  C2  DEN d   1       3.238  -0.614  -1.990  0.00  0.00    -0.031 A 
ATOM      3  C3  DEN d   1       2.418  -1.761  -1.549  0.00  0.00     0.027 A 
ATOM      4  C4  DEN d   1       0.195  -1.758  -0.242  0.00  0.00     0.027 A 
ATOM      5  C5  DEN d   1      -0.753  -0.959   0.360  0.00  0.00    -0.003 A 
ATOM      6  C6  DEN d   1      -0.641   0.406   0.396  0.00  0.00     0.001 A 
ATOM      7  C7  DEN d   1       0.419   1.016  -0.220  0.00  0.00     0.017 A 
ATOM      8  C8  DEN d   1       1.382   0.218  -0.823  0.00  0.00    -0.094 A 
ATOM      9  C9  DEN d   1       1.245  -1.160  -0.859  0.00  0.00    -0.072 A 
ENDROOT
TORSDOF 0
ENDMDL
