MODEL 1
REMARK minimizedAffinity -4.62464333
REMARK minimizedRMSD -1
REMARK  0 active torsions:
REMARK  status: ('A' for Active; 'I' for Inactive)
ROOT
ATOM      1  C1  DEN d   1      -0.429  -1.234  -0.091  0.00  0.00     0.130 A 
ATOM      2  C2  DEN d   1      -1.168  -0.001   0.166  0.00  0.00    -0.031 A 
ATOM      3  C3  DEN d   1      -0.256   1.136  -0.071  0.00  0.00     0.027 A 
ATOM      4  C4  DEN d   1       2.215   1.108  -0.810  0.00  0.00     0.027 A 
ATOM      5  C5  DEN d   1       3.279   0.297  -1.138  0.00  0.00    -0.003 A 
ATOM      6  C6  DEN d   1       3.193  -1.069  -1.108  0.00  0.00     0.001 A 
ATOM      7  C7  DEN d   1       2.003  -1.667  -0.785  0.00  0.00     0.017 A 
ATOM      8  C8  DEN d   1       0.928  -0.857  -0.445  0.00  0.00    -0.094 A 
ATOM      9  C9  DEN d   1       1.032   0.523  -0.494  0.00  0.00    -0.072 A 
ENDROOT
TORSDOF 0
ENDMDL
