MODEL 1
REMARK minimizedAffinity -4.87269068
REMARK minimizedRMSD -1
REMARK  0 active torsions:
REMARK  status: ('A' for Active; 'I' for Inactive)
ROOT
ATOM      1  C1  DEN d   1       0.413   1.975  -1.101  0.00  0.00     0.130 A 
ATOM      2  C2  DEN d   1      -0.914   1.842  -0.506  0.00  0.00    -0.031 A 
ATOM      3  C3  DEN d   1      -1.060   0.455  -0.021  0.00  0.00     0.027 A 
ATOM      4  C4  DEN d   1       0.633  -1.488  -0.129  0.00  0.00     0.027 A 
ATOM      5  C5  DEN d   1       1.889  -1.860  -0.552  0.00  0.00    -0.003 A 
ATOM      6  C6  DEN d   1       2.722  -0.996  -1.213  0.00  0.00     0.001 A 
ATOM      7  C7  DEN d   1       2.326   0.297  -1.430  0.00  0.00     0.017 A 
ATOM      8  C8  DEN d   1       1.057   0.677  -1.013  0.00  0.00    -0.094 A 
ATOM      9  C9  DEN d   1       0.234  -0.207  -0.335  0.00  0.00    -0.072 A 
ENDROOT
TORSDOF 0
ENDMDL
