MODEL 1
REMARK minimizedAffinity -4.08063316
REMARK minimizedRMSD -1
REMARK  0 active torsions:
REMARK  status: ('A' for Active; 'I' for Inactive)
ROOT
ATOM      1  C1  DEN d   1       1.825  -1.448  -0.743  0.00  0.00     0.130 A 
ATOM      2  C2  DEN d   1       3.057  -0.766  -1.127  0.00  0.00    -0.031 A 
ATOM      3  C3  DEN d   1       2.722   0.636  -1.448  0.00  0.00     0.027 A 
ATOM      4  C4  DEN d   1       0.427   1.811  -1.384  0.00  0.00     0.027 A 
ATOM      5  C5  DEN d   1      -0.916   1.638  -1.131  0.00  0.00    -0.003 A 
ATOM      6  C6  DEN d   1      -1.440   0.426  -0.767  0.00  0.00     0.001 A 
ATOM      7  C7  DEN d   1      -0.610  -0.651  -0.601  0.00  0.00     0.017 A 
ATOM      8  C8  DEN d   1       0.744  -0.486  -0.862  0.00  0.00    -0.094 A 
ATOM      9  C9  DEN d   1       1.257   0.750  -1.217  0.00  0.00    -0.072 A 
ENDROOT
TORSDOF 0
ENDMDL
