MODEL 1
REMARK minimizedAffinity -3.78769016
REMARK minimizedRMSD -1
REMARK  0 active torsions:
REMARK  status: ('A' for Active; 'I' for Inactive)
ROOT
ATOM      1  C1  DEN d   1       1.681   0.990  -2.302  0.00  0.00     0.130 A 
ATOM      2  C2  DEN d   1       0.878   2.201  -2.446  0.00  0.00    -0.031 A 
ATOM      3  C3  DEN d   1      -0.322   2.056  -1.598  0.00  0.00     0.027 A 
ATOM      4  C4  DEN d   1      -1.008   0.088  -0.079  0.00  0.00     0.027 A 
ATOM      5  C5  DEN d   1      -0.651  -1.167   0.362  0.00  0.00    -0.003 A 
ATOM      6  C6  DEN d   1       0.482  -1.800  -0.077  0.00  0.00     0.001 A 
ATOM      7  C7  DEN d   1       1.322  -1.161  -0.949  0.00  0.00     0.017 A 
ATOM      8  C8  DEN d   1       0.965   0.102  -1.404  0.00  0.00    -0.094 A 
ATOM      9  C9  DEN d   1      -0.178   0.730  -0.939  0.00  0.00    -0.072 A 
ENDROOT
TORSDOF 0
ENDMDL
