MODEL 1
REMARK minimizedAffinity -3.89794183
REMARK minimizedRMSD -1
REMARK  0 active torsions:
REMARK  status: ('A' for Active; 'I' for Inactive)
ROOT
ATOM      1  C1  DEN d   1       2.264   0.820  -1.212  0.00  0.00     0.130 A 
ATOM      2  C2  DEN d   1       2.805  -0.399  -1.807  0.00  0.00    -0.031 A 
ATOM      3  C3  DEN d   1       1.975  -1.534  -1.358  0.00  0.00     0.027 A 
ATOM      4  C4  DEN d   1      -0.088  -1.523   0.190  0.00  0.00     0.027 A 
ATOM      5  C5  DEN d   1      -0.916  -0.728   0.951  0.00  0.00    -0.003 A 
ATOM      6  C6  DEN d   1      -0.724   0.623   1.070  0.00  0.00     0.001 A 
ATOM      7  C7  DEN d   1       0.295   1.227   0.382  0.00  0.00     0.017 A 
ATOM      8  C8  DEN d   1       1.139   0.430  -0.381  0.00  0.00    -0.094 A 
ATOM      9  C9  DEN d   1       0.921  -0.932  -0.498  0.00  0.00    -0.072 A 
ENDROOT
TORSDOF 0
ENDMDL
