MODEL 1
REMARK minimizedAffinity -2.83714175
REMARK minimizedRMSD -1
REMARK  0 active torsions:
REMARK  status: ('A' for Active; 'I' for Inactive)
ROOT
ATOM      1  C1  DEN d   1       0.475   1.322  -2.119  0.00  0.00     0.130 A 
ATOM      2  C2  DEN d   1      -0.686   1.915  -1.462  0.00  0.00    -0.031 A 
ATOM      3  C3  DEN d   1      -1.069   1.043  -0.334  0.00  0.00     0.027 A 
ATOM      4  C4  DEN d   1       0.022  -1.156   0.459  0.00  0.00     0.027 A 
ATOM      5  C5  DEN d   1       1.027  -2.064   0.209  0.00  0.00    -0.003 A 
ATOM      6  C6  DEN d   1       1.891  -1.926  -0.845  0.00  0.00     0.001 A 
ATOM      7  C7  DEN d   1       1.794  -0.832  -1.663  0.00  0.00     0.017 A 
ATOM      8  C8  DEN d   1       0.778   0.084  -1.423  0.00  0.00    -0.094 A 
ATOM      9  C9  DEN d   1      -0.077  -0.066  -0.344  0.00  0.00    -0.072 A 
ENDROOT
TORSDOF 0
ENDMDL
