MODEL 1
REMARK minimizedAffinity -3.76427579
REMARK minimizedRMSD -1
REMARK  0 active torsions:
REMARK  status: ('A' for Active; 'I' for Inactive)
ROOT
ATOM      1  C1  DEN d   1       0.274  -1.186   0.476  0.00  0.00     0.130 A 
ATOM      2  C2  DEN d   1      -0.780  -0.177   0.525  0.00  0.00    -0.031 A 
ATOM      3  C3  DEN d   1      -0.403   0.921  -0.388  0.00  0.00     0.027 A 
ATOM      4  C4  DEN d   1       1.696   1.153  -1.868  0.00  0.00     0.027 A 
ATOM      5  C5  DEN d   1       2.881   0.555  -2.237  0.00  0.00    -0.003 A 
ATOM      6  C6  DEN d   1       3.292  -0.639  -1.707  0.00  0.00     0.001 A 
ATOM      7  C7  DEN d   1       2.491  -1.296  -0.811  0.00  0.00     0.017 A 
ATOM      8  C8  DEN d   1       1.299  -0.696  -0.428  0.00  0.00    -0.094 A 
ATOM      9  C9  DEN d   1       0.894   0.506  -0.985  0.00  0.00    -0.072 A 
ENDROOT
TORSDOF 0
ENDMDL
