MODEL 1
REMARK minimizedAffinity -2.62747669
REMARK minimizedRMSD -1
REMARK  0 active torsions:
REMARK  status: ('A' for Active; 'I' for Inactive)
ROOT
ATOM      1  C1  DEN d   1      -1.192   0.787   3.095  0.00  0.00     0.130 A 
ATOM      2  C2  DEN d   1      -2.641   0.611   3.125  0.00  0.00    -0.031 A 
ATOM      3  C3  DEN d   1      -3.027  -0.195   1.949  0.00  0.00     0.027 A 
ATOM      4  C4  DEN d   1      -1.529  -1.185   0.098  0.00  0.00     0.027 A 
ATOM      5  C5  DEN d   1      -0.235  -1.292  -0.362  0.00  0.00    -0.003 A 
ATOM      6  C6  DEN d   1       0.818  -0.690   0.275  0.00  0.00     0.001 A 
ATOM      7  C7  DEN d   1       0.601   0.009   1.433  0.00  0.00     0.017 A 
ATOM      8  C8  DEN d   1      -0.702   0.127   1.898  0.00  0.00    -0.094 A 
ATOM      9  C9  DEN d   1      -1.751  -0.499   1.247  0.00  0.00    -0.072 A 
ENDROOT
TORSDOF 0
ENDMDL
