MODEL 1
REMARK minimizedAffinity -4.66634417
REMARK minimizedRMSD -1
REMARK  0 active torsions:
REMARK  status: ('A' for Active; 'I' for Inactive)
ROOT
ATOM      1  C1  DEN d   1      -0.830  -1.708  -0.341  0.00  0.00     0.130 A 
ATOM      2  C2  DEN d   1      -1.534  -0.731   0.485  0.00  0.00    -0.031 A 
ATOM      3  C3  DEN d   1      -0.625   0.409   0.718  0.00  0.00     0.027 A 
ATOM      4  C4  DEN d   1       1.790   0.756  -0.118  0.00  0.00     0.027 A 
ATOM      5  C5  DEN d   1       2.819   0.195  -0.842  0.00  0.00    -0.003 A 
ATOM      6  C6  DEN d   1       2.716  -1.045  -1.416  0.00  0.00     0.001 A 
ATOM      7  C7  DEN d   1       1.543  -1.745  -1.314  0.00  0.00     0.017 A 
ATOM      8  C8  DEN d   1       0.504  -1.189  -0.580  0.00  0.00    -0.094 A 
ATOM      9  C9  DEN d   1       0.623   0.071  -0.017  0.00  0.00    -0.072 A 
ENDROOT
TORSDOF 0
ENDMDL
