MODEL 1
REMARK minimizedAffinity -3.66393089
REMARK minimizedRMSD -1
REMARK  0 active torsions:
REMARK  status: ('A' for Active; 'I' for Inactive)
ROOT
ATOM      1  C1  DEN d   1      -0.887   0.431   3.885  0.00  0.00     0.130 A 
ATOM      2  C2  DEN d   1      -2.232   0.963   4.082  0.00  0.00    -0.031 A 
ATOM      3  C3  DEN d   1      -2.924   0.950   2.778  0.00  0.00     0.027 A 
ATOM      4  C4  DEN d   1      -2.050   0.155   0.485  0.00  0.00     0.027 A 
ATOM      5  C5  DEN d   1      -0.964  -0.367  -0.183  0.00  0.00    -0.003 A 
ATOM      6  C6  DEN d   1       0.225  -0.626   0.446  0.00  0.00     0.001 A 
ATOM      7  C7  DEN d   1       0.342  -0.406   1.793  0.00  0.00     0.017 A 
ATOM      8  C8  DEN d   1      -0.746   0.128   2.472  0.00  0.00    -0.094 A 
ATOM      9  C9  DEN d   1      -1.943   0.371   1.820  0.00  0.00    -0.072 A 
ENDROOT
TORSDOF 0
ENDMDL
