MODEL 1
REMARK minimizedAffinity -2.90279961
REMARK minimizedRMSD -1
REMARK  0 active torsions:
REMARK  status: ('A' for Active; 'I' for Inactive)
ROOT
ATOM      1  C1  DEN d   1      -0.971   1.221  -0.658  0.00  0.00     0.130 A 
ATOM      2  C2  DEN d   1      -1.683   0.786   0.540  0.00  0.00    -0.031 A 
ATOM      3  C3  DEN d   1      -1.009  -0.421   1.059  0.00  0.00     0.027 A 
ATOM      4  C4  DEN d   1       1.059  -1.651   0.131  0.00  0.00     0.027 A 
ATOM      5  C5  DEN d   1       2.001  -1.662  -0.875  0.00  0.00    -0.003 A 
ATOM      6  C6  DEN d   1       1.997  -0.742  -1.889  0.00  0.00     0.001 A 
ATOM      7  C7  DEN d   1       1.060   0.258  -1.896  0.00  0.00     0.017 A 
ATOM      8  C8  DEN d   1       0.103   0.271  -0.889  0.00  0.00    -0.094 A 
ATOM      9  C9  DEN d   1       0.131  -0.661   0.134  0.00  0.00    -0.072 A 
ENDROOT
TORSDOF 0
ENDMDL
