MODEL 1
REMARK minimizedAffinity -5.28929615
REMARK minimizedRMSD -1
REMARK  0 active torsions:
REMARK  status: ('A' for Active; 'I' for Inactive)
ROOT
ATOM      1  C1  DEN d   1      -1.012   0.603  -0.117  0.00  0.00     0.130 A 
ATOM      2  C2  DEN d   1      -1.407  -0.639   0.544  0.00  0.00    -0.031 A 
ATOM      3  C3  DEN d   1      -0.331  -1.628   0.336  0.00  0.00     0.027 A 
ATOM      4  C4  DEN d   1       1.898  -1.359  -0.935  0.00  0.00     0.027 A 
ATOM      5  C5  DEN d   1       2.671  -0.491  -1.673  0.00  0.00    -0.003 A 
ATOM      6  C6  DEN d   1       2.260   0.781  -1.971  0.00  0.00     0.001 A 
ATOM      7  C7  DEN d   1       1.061   1.237  -1.489  0.00  0.00     0.017 A 
ATOM      8  C8  DEN d   1       0.272   0.364  -0.750  0.00  0.00    -0.094 A 
ATOM      9  C9  DEN d   1       0.711  -0.914  -0.450  0.00  0.00    -0.072 A 
ENDROOT
TORSDOF 0
ENDMDL
