MODEL 1
REMARK minimizedAffinity -4.72730398
REMARK minimizedRMSD -1
REMARK  0 active torsions:
REMARK  status: ('A' for Active; 'I' for Inactive)
ROOT
ATOM      1  C1  DEN d   1      -0.812  -1.006   0.015  0.00  0.00     0.130 A 
ATOM      2  C2  DEN d   1      -0.403  -2.403  -0.112  0.00  0.00    -0.031 A 
ATOM      3  C3  DEN d   1       1.006  -2.428  -0.554  0.00  0.00     0.027 A 
ATOM      4  C4  DEN d   1       2.587  -0.451  -1.048  0.00  0.00     0.027 A 
ATOM      5  C5  DEN d   1       2.687   0.922  -1.093  0.00  0.00    -0.003 A 
ATOM      6  C6  DEN d   1       1.627   1.741  -0.807  0.00  0.00     0.001 A 
ATOM      7  C7  DEN d   1       0.433   1.195  -0.420  0.00  0.00     0.017 A 
ATOM      8  C8  DEN d   1       0.321  -0.189  -0.379  0.00  0.00    -0.094 A 
ATOM      9  C9  DEN d   1       1.408  -1.000  -0.660  0.00  0.00    -0.072 A 
ENDROOT
TORSDOF 0
ENDMDL
