MODEL 1
REMARK minimizedAffinity -5.43633747
REMARK minimizedRMSD -1
REMARK  0 active torsions:
REMARK  status: ('A' for Active; 'I' for Inactive)
ROOT
ATOM      1  C1  DEN d   1       0.213  -1.252   0.686  0.00  0.00     0.130 A 
ATOM      2  C2  DEN d   1       0.397  -0.580  -0.597  0.00  0.00    -0.031 A 
ATOM      3  C3  DEN d   1      -0.247   0.747  -0.514  0.00  0.00     0.027 A 
ATOM      4  C4  DEN d   1      -1.497   1.822   1.469  0.00  0.00     0.027 A 
ATOM      5  C5  DEN d   1      -1.920   1.631   2.766  0.00  0.00    -0.003 A 
ATOM      6  C6  DEN d   1      -1.693   0.462   3.443  0.00  0.00     0.001 A 
ATOM      7  C7  DEN d   1      -0.985  -0.545   2.842  0.00  0.00     0.017 A 
ATOM      8  C8  DEN d   1      -0.562  -0.362   1.532  0.00  0.00    -0.094 A 
ATOM      9  C9  DEN d   1      -0.791   0.831   0.868  0.00  0.00    -0.072 A 
ENDROOT
TORSDOF 0
ENDMDL
