MODEL 1
REMARK minimizedAffinity -1.60159945
REMARK minimizedRMSD -1
REMARK  0 active torsions:
REMARK  status: ('A' for Active; 'I' for Inactive)
ROOT
ATOM      1  O1  BZF d   1      -0.817   3.354  -1.439  0.00  0.00    -0.204 OA
ATOM      2  C2  BZF d   1      -0.540   3.736  -2.737  0.00  0.00     0.174 A 
ATOM      3  C3  BZF d   1      -0.028   2.705  -3.440  0.00  0.00    -0.012 A 
ATOM      4  C3A BZF d   1      -0.067   1.586  -2.549  0.00  0.00    -0.107 A 
ATOM      5  C4  BZF d   1       0.292   0.275  -2.673  0.00  0.00     0.055 A 
ATOM      6  C5  BZF d   1       0.195  -0.542  -1.592  0.00  0.00    -0.016 A 
ATOM      7  C6  BZF d   1      -0.251  -0.080  -0.371  0.00  0.00     0.022 A 
ATOM      8  C7  BZF d   1      -0.624   1.212  -0.200  0.00  0.00     0.029 A 
ATOM      9  C7A BZF d   1      -0.558   2.032  -1.300  0.00  0.00     0.058 A 
ENDROOT
TORSDOF 0
ENDMDL
