MODEL 1
REMARK minimizedAffinity -3.89834785
REMARK minimizedRMSD -1
REMARK  0 active torsions:
REMARK  status: ('A' for Active; 'I' for Inactive)
ROOT
ATOM      1  O1  BZF d   1       2.182  -0.430   1.294  0.00  0.00    -0.204 OA
ATOM      2  C2  BZF d   1       1.667  -0.475   2.575  0.00  0.00     0.174 A 
ATOM      3  C3  BZF d   1       0.328  -0.320   2.559  0.00  0.00    -0.012 A 
ATOM      4  C3A BZF d   1      -0.027  -0.261   1.174  0.00  0.00    -0.107 A 
ATOM      5  C4  BZF d   1      -1.216  -0.130   0.514  0.00  0.00     0.055 A 
ATOM      6  C5  BZF d   1      -1.211  -0.033  -0.841  0.00  0.00    -0.016 A 
ATOM      7  C6  BZF d   1      -0.039  -0.057  -1.567  0.00  0.00     0.022 A 
ATOM      8  C7  BZF d   1       1.164  -0.191  -0.958  0.00  0.00     0.029 A 
ATOM      9  C7A BZF d   1       1.161  -0.322   0.410  0.00  0.00     0.058 A 
ENDROOT
TORSDOF 0
ENDMDL
