MODEL 1
REMARK minimizedAffinity -1.45284271
REMARK minimizedRMSD -1
REMARK  0 active torsions:
REMARK  status: ('A' for Active; 'I' for Inactive)
ROOT
ATOM      1  O1  BZF d   1      -1.124  -0.633  -0.553  0.00  0.00    -0.204 OA
ATOM      2  C2  BZF d   1      -0.687   0.403  -1.355  0.00  0.00     0.174 A 
ATOM      3  C3  BZF d   1       0.284   1.108  -0.740  0.00  0.00    -0.012 A 
ATOM      4  C3A BZF d   1       0.530   0.417   0.489  0.00  0.00    -0.107 A 
ATOM      5  C4  BZF d   1       1.395   0.623   1.525  0.00  0.00     0.055 A 
ATOM      6  C5  BZF d   1       1.332  -0.193   2.610  0.00  0.00    -0.016 A 
ATOM      7  C6  BZF d   1       0.414  -1.220   2.695  0.00  0.00     0.022 A 
ATOM      8  C7  BZF d   1      -0.461  -1.466   1.689  0.00  0.00     0.029 A 
ATOM      9  C7A BZF d   1      -0.378  -0.664   0.577  0.00  0.00     0.058 A 
ENDROOT
TORSDOF 0
ENDMDL
