MODEL 1
REMARK minimizedAffinity -2.88802123
REMARK minimizedRMSD -1
REMARK  0 active torsions:
REMARK  status: ('A' for Active; 'I' for Inactive)
ROOT
ATOM      1  O1  BZF d   1       2.100  -1.253   1.596  0.00  0.00    -0.204 OA
ATOM      2  C2  BZF d   1       1.508  -1.353   2.840  0.00  0.00     0.174 A 
ATOM      3  C3  BZF d   1       0.235  -0.911   2.802  0.00  0.00    -0.012 A 
ATOM      4  C3A BZF d   1      -0.012  -0.595   1.429  0.00  0.00    -0.107 A 
ATOM      5  C4  BZF d   1      -1.103  -0.123   0.755  0.00  0.00     0.055 A 
ATOM      6  C5  BZF d   1      -0.993   0.148  -0.572  0.00  0.00    -0.016 A 
ATOM      7  C6  BZF d   1       0.191  -0.036  -1.255  0.00  0.00     0.022 A 
ATOM      8  C7  BZF d   1       1.298  -0.506  -0.631  0.00  0.00     0.029 A 
ATOM      9  C7A BZF d   1       1.182  -0.812   0.703  0.00  0.00     0.058 A 
ENDROOT
TORSDOF 0
ENDMDL
