MODEL 1
REMARK minimizedAffinity -5.97858572
REMARK minimizedRMSD -1
REMARK  0 active torsions:
REMARK  status: ('A' for Active; 'I' for Inactive)
ROOT
ATOM      1  O1  BZF d   1       1.244  -0.801   3.062  0.00  0.00    -0.204 OA
ATOM      2  C2  BZF d   1       2.423  -0.349   2.503  0.00  0.00     0.174 A 
ATOM      3  C3  BZF d   1       2.242  -0.017   1.208  0.00  0.00    -0.012 A 
ATOM      4  C3A BZF d   1       0.843  -0.191   0.967  0.00  0.00    -0.107 A 
ATOM      5  C4  BZF d   1       0.048  -0.005  -0.128  0.00  0.00     0.055 A 
ATOM      6  C5  BZF d   1      -1.267  -0.337  -0.054  0.00  0.00    -0.016 A 
ATOM      7  C6  BZF d   1      -1.820  -0.861   1.096  0.00  0.00     0.022 A 
ATOM      8  C7  BZF d   1      -1.073  -1.058   2.210  0.00  0.00     0.029 A 
ATOM      9  C7A BZF d   1       0.250  -0.693   2.148  0.00  0.00     0.058 A 
ENDROOT
TORSDOF 0
ENDMDL
