MODEL 1
REMARK minimizedAffinity -3.55802393
REMARK minimizedRMSD -1
REMARK  0 active torsions:
REMARK  status: ('A' for Active; 'I' for Inactive)
ROOT
ATOM      1  O1  BZF d   1      -1.104   0.004  -0.115  0.00  0.00    -0.204 OA
ATOM      2  C2  BZF d   1      -0.449   0.007  -1.332  0.00  0.00     0.174 A 
ATOM      3  C3  BZF d   1       0.876  -0.177  -1.162  0.00  0.00    -0.012 A 
ATOM      4  C3A BZF d   1       1.049  -0.396   0.241  0.00  0.00    -0.107 A 
ATOM      5  C4  BZF d   1       2.138  -0.653   1.024  0.00  0.00     0.055 A 
ATOM      6  C5  BZF d   1       1.977  -0.743   2.371  0.00  0.00    -0.016 A 
ATOM      7  C6  BZF d   1       0.745  -0.576   2.967  0.00  0.00     0.022 A 
ATOM      8  C7  BZF d   1      -0.365  -0.324   2.232  0.00  0.00     0.029 A 
ATOM      9  C7A BZF d   1      -0.212  -0.265   0.868  0.00  0.00     0.058 A 
ENDROOT
TORSDOF 0
ENDMDL
