MODEL 1
REMARK minimizedAffinity 0.691460609
REMARK minimizedRMSD -1
REMARK  0 active torsions:
REMARK  status: ('A' for Active; 'I' for Inactive)
ROOT
ATOM      1  O1  BZF d   1       0.909  -1.380   1.981  0.00  0.00    -0.204 OA
ATOM      2  C2  BZF d   1      -0.171  -0.784   2.601  0.00  0.00     0.174 A 
ATOM      3  C3  BZF d   1      -0.891  -0.061   1.719  0.00  0.00    -0.012 A 
ATOM      4  C3A BZF d   1      -0.271  -0.290   0.450  0.00  0.00    -0.107 A 
ATOM      5  C4  BZF d   1      -0.538   0.142  -0.817  0.00  0.00     0.055 A 
ATOM      6  C5  BZF d   1       0.304  -0.207  -1.825  0.00  0.00    -0.016 A 
ATOM      7  C6  BZF d   1       1.424  -0.980  -1.601  0.00  0.00     0.022 A 
ATOM      8  C7  BZF d   1       1.728  -1.437  -0.362  0.00  0.00     0.029 A 
ATOM      9  C7A BZF d   1       0.861  -1.114   0.653  0.00  0.00     0.058 A 
ENDROOT
TORSDOF 0
ENDMDL
