MODEL 1
REMARK minimizedAffinity -4.70519161
REMARK minimizedRMSD -1
REMARK  0 active torsions:
REMARK  status: ('A' for Active; 'I' for Inactive)
ROOT
ATOM      1  O1  BZF d   1      -1.061  -0.052   1.816  0.00  0.00    -0.204 OA
ATOM      2  C2  BZF d   1      -0.235  -0.339   2.886  0.00  0.00     0.174 A 
ATOM      3  C3  BZF d   1       0.911  -0.911   2.466  0.00  0.00    -0.012 A 
ATOM      4  C3A BZF d   1       0.834  -0.904   1.038  0.00  0.00    -0.107 A 
ATOM      5  C4  BZF d   1       1.678  -1.324   0.050  0.00  0.00     0.055 A 
ATOM      6  C5  BZF d   1       1.273  -1.241  -1.245  0.00  0.00    -0.016 A 
ATOM      7  C6  BZF d   1       0.031  -0.749  -1.587  0.00  0.00     0.022 A 
ATOM      8  C7  BZF d   1      -0.839  -0.316  -0.642  0.00  0.00     0.029 A 
ATOM      9  C7A BZF d   1      -0.420  -0.368   0.665  0.00  0.00     0.058 A 
ENDROOT
TORSDOF 0
ENDMDL
