MODEL 1
REMARK minimizedAffinity -4.55420494
REMARK minimizedRMSD -1
REMARK  0 active torsions:
REMARK  status: ('A' for Active; 'I' for Inactive)
ROOT
ATOM      1  O1  BZF d   1       0.085  -0.939  -2.092  0.00  0.00    -0.204 OA
ATOM      2  C2  BZF d   1      -1.133  -0.287  -2.080  0.00  0.00     0.174 A 
ATOM      3  C3  BZF d   1      -1.292   0.408  -0.936  0.00  0.00    -0.012 A 
ATOM      4  C3A BZF d   1      -0.060   0.251  -0.225  0.00  0.00    -0.107 A 
ATOM      5  C4  BZF d   1       0.399   0.719   0.973  0.00  0.00     0.055 A 
ATOM      6  C5  BZF d   1       1.621   0.320   1.413  0.00  0.00    -0.016 A 
ATOM      7  C6  BZF d   1       2.407  -0.549   0.684  0.00  0.00     0.022 A 
ATOM      8  C7  BZF d   1       1.997  -1.036  -0.512  0.00  0.00     0.029 A 
ATOM      9  C7A BZF d   1       0.776  -0.609  -0.975  0.00  0.00     0.058 A 
ENDROOT
TORSDOF 0
ENDMDL
