MODEL 1
REMARK minimizedAffinity 3.2152679
REMARK minimizedRMSD -1
REMARK  0 active torsions:
REMARK  status: ('A' for Active; 'I' for Inactive)
ROOT
ATOM      1  O1  BZF d   1      -5.289  -6.000   2.811  0.00  0.00    -0.204 OA
ATOM      2  C2  BZF d   1      -4.680  -5.124   3.688  0.00  0.00     0.174 A 
ATOM      3  C3  BZF d   1      -4.150  -4.075   3.027  0.00  0.00    -0.012 A 
ATOM      4  C3A BZF d   1      -4.526  -4.264   1.659  0.00  0.00    -0.107 A 
ATOM      5  C4  BZF d   1      -4.310  -3.545   0.518  0.00  0.00     0.055 A 
ATOM      6  C5  BZF d   1      -4.750  -4.041  -0.668  0.00  0.00    -0.016 A 
ATOM      7  C6  BZF d   1      -5.403  -5.254  -0.751  0.00  0.00     0.022 A 
ATOM      8  C7  BZF d   1      -5.645  -6.000   0.354  0.00  0.00     0.029 A 
ATOM      9  C7A BZF d   1      -5.231  -5.486   1.559  0.00  0.00     0.058 A 
ENDROOT
TORSDOF 0
ENDMDL
