MODEL 1
REMARK minimizedAffinity 14.2847919
REMARK minimizedRMSD -1
REMARK  0 active torsions:
REMARK  status: ('A' for Active; 'I' for Inactive)
ROOT
ATOM      1  O1  BZF d   1       3.043  -0.604   0.035  0.00  0.00    -0.204 OA
ATOM      2  C2  BZF d   1       2.050  -0.999   0.910  0.00  0.00     0.174 A 
ATOM      3  C3  BZF d   1       1.099  -0.048   1.014  0.00  0.00    -0.012 A 
ATOM      4  C3A BZF d   1       1.478   0.967   0.080  0.00  0.00    -0.107 A 
ATOM      5  C4  BZF d   1       0.923   2.160  -0.287  0.00  0.00     0.055 A 
ATOM      6  C5  BZF d   1       1.582   2.950  -1.175  0.00  0.00    -0.016 A 
ATOM      7  C6  BZF d   1       2.799   2.581  -1.710  0.00  0.00     0.022 A 
ATOM      8  C7  BZF d   1       3.387   1.406  -1.380  0.00  0.00     0.029 A 
ATOM      9  C7A BZF d   1       2.707   0.590  -0.508  0.00  0.00     0.058 A 
ENDROOT
TORSDOF 0
ENDMDL
