MODEL 1
REMARK minimizedAffinity 8.95080757
REMARK minimizedRMSD -1
REMARK  0 active torsions:
REMARK  status: ('A' for Active; 'I' for Inactive)
ROOT
ATOM      1  O1  BZF d   1       0.795   2.840   0.040  0.00  0.00    -0.204 OA
ATOM      2  C2  BZF d   1       0.313   3.740  -0.891  0.00  0.00     0.174 A 
ATOM      3  C3  BZF d   1       1.222   3.954  -1.864  0.00  0.00    -0.012 A 
ATOM      4  C3A BZF d   1       2.305   3.066  -1.570  0.00  0.00    -0.107 A 
ATOM      5  C4  BZF d   1       3.496   2.804  -2.183  0.00  0.00     0.055 A 
ATOM      6  C5  BZF d   1       4.361   1.933  -1.599  0.00  0.00    -0.016 A 
ATOM      7  C6  BZF d   1       4.070   1.312  -0.403  0.00  0.00     0.022 A 
ATOM      8  C7  BZF d   1       2.898   1.537   0.240  0.00  0.00     0.029 A 
ATOM      9  C7A BZF d   1       2.008   2.391  -0.364  0.00  0.00     0.058 A 
ENDROOT
TORSDOF 0
ENDMDL
