MODEL 1
REMARK minimizedAffinity 2.4826026
REMARK minimizedRMSD -1
REMARK  0 active torsions:
REMARK  status: ('A' for Active; 'I' for Inactive)
ROOT
ATOM      1  O1  BZF d   1      -0.605   0.462   0.491  0.00  0.00    -0.204 OA
ATOM      2  C2  BZF d   1      -0.063  -0.789   0.712  0.00  0.00     0.174 A 
ATOM      3  C3  BZF d   1       1.199  -0.854   0.240  0.00  0.00    -0.012 A 
ATOM      4  C3A BZF d   1       1.494   0.466  -0.227  0.00  0.00    -0.107 A 
ATOM      5  C4  BZF d   1       2.598   1.037  -0.792  0.00  0.00     0.055 A 
ATOM      6  C5  BZF d   1       2.537   2.331  -1.202  0.00  0.00    -0.016 A 
ATOM      7  C6  BZF d   1       1.386   3.081  -1.068  0.00  0.00     0.022 A 
ATOM      8  C7  BZF d   1       0.267   2.560  -0.510  0.00  0.00     0.029 A 
ATOM      9  C7A BZF d   1       0.337   1.262  -0.064  0.00  0.00     0.058 A 
ENDROOT
TORSDOF 0
ENDMDL
