MODEL 1
REMARK minimizedAffinity 0.130001664
REMARK minimizedRMSD -1
REMARK  0 active torsions:
REMARK  status: ('A' for Active; 'I' for Inactive)
ROOT
ATOM      1  O1  BZF d   1      -0.104  -0.976   1.598  0.00  0.00    -0.204 OA
ATOM      2  C2  BZF d   1       0.514  -2.212   1.565  0.00  0.00     0.174 A 
ATOM      3  C3  BZF d   1       0.900  -2.520   0.310  0.00  0.00    -0.012 A 
ATOM      4  C3A BZF d   1       0.581  -1.368  -0.476  0.00  0.00    -0.107 A 
ATOM      5  C4  BZF d   1       0.740  -1.059  -1.797  0.00  0.00     0.055 A 
ATOM      6  C5  BZF d   1       0.255   0.123  -2.261  0.00  0.00    -0.016 A 
ATOM      7  C6  BZF d   1      -0.397   1.015  -1.436  0.00  0.00     0.022 A 
ATOM      8  C7  BZF d   1      -0.573   0.755  -0.117  0.00  0.00     0.029 A 
ATOM      9  C7A BZF d   1      -0.056  -0.423   0.362  0.00  0.00     0.058 A 
ENDROOT
TORSDOF 0
ENDMDL
