MODEL 1
REMARK minimizedAffinity 8.25539589
REMARK minimizedRMSD -1
REMARK  0 active torsions:
REMARK  status: ('A' for Active; 'I' for Inactive)
ROOT
ATOM      1  O1  BZF d   1      -3.633  -3.550  -2.596  0.00  0.00    -0.204 OA
ATOM      2  C2  BZF d   1      -3.954  -4.006  -3.860  0.00  0.00     0.174 A 
ATOM      3  C3  BZF d   1      -4.829  -5.029  -3.792  0.00  0.00    -0.012 A 
ATOM      4  C3A BZF d   1      -5.142  -5.165  -2.402  0.00  0.00    -0.107 A 
ATOM      5  C4  BZF d   1      -5.967  -5.998  -1.702  0.00  0.00     0.055 A 
ATOM      6  C5  BZF d   1      -5.989  -5.919  -0.346  0.00  0.00    -0.016 A 
ATOM      7  C6  BZF d   1      -5.197  -5.024   0.343  0.00  0.00     0.022 A 
ATOM      8  C7  BZF d   1      -4.367  -4.173  -0.308  0.00  0.00     0.029 A 
ATOM      9  C7A BZF d   1      -4.367  -4.228  -1.681  0.00  0.00     0.058 A 
ENDROOT
TORSDOF 0
ENDMDL
