MODEL 1
REMARK minimizedAffinity 16.6638012
REMARK minimizedRMSD -1
REMARK  0 active torsions:
REMARK  status: ('A' for Active; 'I' for Inactive)
ROOT
ATOM      1  O1  BZF d   1      -1.808   3.163  -4.757  0.00  0.00    -0.204 OA
ATOM      2  C2  BZF d   1      -2.610   2.232  -4.126  0.00  0.00     0.174 A 
ATOM      3  C3  BZF d   1      -2.300   2.143  -2.816  0.00  0.00    -0.012 A 
ATOM      4  C3A BZF d   1      -1.301   3.144  -2.597  0.00  0.00    -0.107 A 
ATOM      5  C4  BZF d   1      -0.609   3.554  -1.494  0.00  0.00     0.055 A 
ATOM      6  C5  BZF d   1       0.350   4.507  -1.632  0.00  0.00    -0.016 A 
ATOM      7  C6  BZF d   1       0.646   5.067  -2.857  0.00  0.00     0.022 A 
ATOM      8  C7  BZF d   1      -0.017   4.696  -3.979  0.00  0.00     0.029 A 
ATOM      9  C7A BZF d   1      -1.010   3.757  -3.838  0.00  0.00     0.058 A 
ENDROOT
TORSDOF 0
ENDMDL
