MODEL 1
REMARK minimizedAffinity 11.5567904
REMARK minimizedRMSD -1
REMARK  0 active torsions:
REMARK  status: ('A' for Active; 'I' for Inactive)
ROOT
ATOM      1  O1  BZF d   1      -2.835   2.706  -4.287  0.00  0.00    -0.204 OA
ATOM      2  C2  BZF d   1      -3.382   2.545  -3.029  0.00  0.00     0.174 A 
ATOM      3  C3  BZF d   1      -2.530   2.979  -2.077  0.00  0.00    -0.012 A 
ATOM      4  C3A BZF d   1      -1.416   3.525  -2.790  0.00  0.00    -0.107 A 
ATOM      5  C4  BZF d   1      -0.253   4.124  -2.398  0.00  0.00     0.055 A 
ATOM      6  C5  BZF d   1       0.658   4.478  -3.342  0.00  0.00    -0.016 A 
ATOM      7  C6  BZF d   1       0.442   4.244  -4.684  0.00  0.00     0.022 A 
ATOM      8  C7  BZF d   1      -0.699   3.657  -5.122  0.00  0.00     0.029 A 
ATOM      9  C7A BZF d   1      -1.636   3.328  -4.173  0.00  0.00     0.058 A 
ENDROOT
TORSDOF 0
ENDMDL
