MODEL 1
REMARK minimizedAffinity 8.26049328
REMARK minimizedRMSD -1
REMARK  0 active torsions:
REMARK  status: ('A' for Active; 'I' for Inactive)
ROOT
ATOM      1  O1  BZF d   1       5.180  -3.945  -5.440  0.00  0.00    -0.204 OA
ATOM      2  C2  BZF d   1       6.000  -5.045  -5.272  0.00  0.00     0.174 A 
ATOM      3  C3  BZF d   1       5.379  -5.998  -4.548  0.00  0.00    -0.012 A 
ATOM      4  C3A BZF d   1       4.057  -5.498  -4.322  0.00  0.00    -0.107 A 
ATOM      5  C4  BZF d   1       2.962  -5.998  -3.677  0.00  0.00     0.055 A 
ATOM      6  C5  BZF d   1       1.848  -5.227  -3.575  0.00  0.00    -0.016 A 
ATOM      7  C6  BZF d   1       1.795  -3.953  -4.099  0.00  0.00     0.022 A 
ATOM      8  C7  BZF d   1       2.855  -3.416  -4.752  0.00  0.00     0.029 A 
ATOM      9  C7A BZF d   1       3.971  -4.205  -4.886  0.00  0.00     0.058 A 
ENDROOT
TORSDOF 0
ENDMDL
