MODEL 1
REMARK minimizedAffinity -2.25498319
REMARK minimizedRMSD -1
REMARK  0 active torsions:
REMARK  status: ('A' for Active; 'I' for Inactive)
ROOT
ATOM      1  O1  BZF d   1       5.997  -2.652  -3.455  0.00  0.00    -0.204 OA
ATOM      2  C2  BZF d   1       5.357  -1.532  -3.950  0.00  0.00     0.174 A 
ATOM      3  C3  BZF d   1       4.583  -1.851  -5.007  0.00  0.00    -0.012 A 
ATOM      4  C3A BZF d   1       4.678  -3.274  -5.127  0.00  0.00    -0.107 A 
ATOM      5  C4  BZF d   1       4.120  -4.184  -5.979  0.00  0.00     0.055 A 
ATOM      6  C5  BZF d   1       4.475  -5.492  -5.873  0.00  0.00    -0.016 A 
ATOM      7  C6  BZF d   1       5.386  -5.923  -4.931  0.00  0.00     0.022 A 
ATOM      8  C7  BZF d   1       5.961  -5.058  -4.060  0.00  0.00     0.029 A 
ATOM      9  C7A BZF d   1       5.580  -3.741  -4.143  0.00  0.00     0.058 A 
ENDROOT
TORSDOF 0
ENDMDL
