MODEL 1
REMARK minimizedAffinity -3.33213711
REMARK minimizedRMSD -1
REMARK  0 active torsions:
REMARK  status: ('A' for Active; 'I' for Inactive)
ROOT
ATOM      1  O1  BZF d   1       1.004  -0.775   2.234  0.00  0.00    -0.204 OA
ATOM      2  C2  BZF d   1       1.616  -0.522   1.021  0.00  0.00     0.174 A 
ATOM      3  C3  BZF d   1       0.935  -1.103   0.012  0.00  0.00    -0.012 A 
ATOM      4  C3A BZF d   1      -0.223  -1.682   0.623  0.00  0.00    -0.107 A 
ATOM      5  C4  BZF d   1      -1.290  -2.382   0.138  0.00  0.00     0.055 A 
ATOM      6  C5  BZF d   1      -2.212  -2.869   1.009  0.00  0.00    -0.016 A 
ATOM      7  C6  BZF d   1      -2.096  -2.679   2.370  0.00  0.00     0.022 A 
ATOM      8  C7  BZF d   1      -1.057  -1.987   2.899  0.00  0.00     0.029 A 
ATOM      9  C7A BZF d   1      -0.141  -1.465   2.018  0.00  0.00     0.058 A 
ENDROOT
TORSDOF 0
ENDMDL
