MODEL 1
REMARK minimizedAffinity 7.10420847
REMARK minimizedRMSD -1
REMARK  0 active torsions:
REMARK  status: ('A' for Active; 'I' for Inactive)
ROOT
ATOM      1  O1  BZF d   1       1.138   4.936  -2.285  0.00  0.00    -0.204 OA
ATOM      2  C2  BZF d   1      -0.078   4.564  -2.825  0.00  0.00     0.174 A 
ATOM      3  C3  BZF d   1      -0.304   3.249  -2.635  0.00  0.00    -0.012 A 
ATOM      4  C3A BZF d   1       0.800   2.787  -1.851  0.00  0.00    -0.107 A 
ATOM      5  C4  BZF d   1       1.137   1.571  -1.327  0.00  0.00     0.055 A 
ATOM      6  C5  BZF d   1       2.320   1.439  -0.672  0.00  0.00    -0.016 A 
ATOM      7  C6  BZF d   1       3.192   2.498  -0.527  0.00  0.00     0.022 A 
ATOM      8  C7  BZF d   1       2.900   3.724  -1.025  0.00  0.00     0.029 A 
ATOM      9  C7A BZF d   1       1.690   3.869  -1.659  0.00  0.00     0.058 A 
ENDROOT
TORSDOF 0
ENDMDL
