MODEL 1
REMARK minimizedAffinity 13.2154818
REMARK minimizedRMSD -1
REMARK  0 active torsions:
REMARK  status: ('A' for Active; 'I' for Inactive)
ROOT
ATOM      1  O1  BZF d   1       2.349   0.827  -0.317  0.00  0.00    -0.204 OA
ATOM      2  C2  BZF d   1       3.235  -0.135   0.128  0.00  0.00     0.174 A 
ATOM      3  C3  BZF d   1       2.644  -0.952   1.024  0.00  0.00    -0.012 A 
ATOM      4  C3A BZF d   1       1.279  -0.527   1.078  0.00  0.00    -0.107 A 
ATOM      5  C4  BZF d   1       0.188  -0.961   1.775  0.00  0.00     0.055 A 
ATOM      6  C5  BZF d   1      -0.984  -0.283   1.656  0.00  0.00    -0.016 A 
ATOM      7  C6  BZF d   1      -1.099   0.833   0.854  0.00  0.00     0.022 A 
ATOM      8  C7  BZF d   1      -0.045   1.298   0.139  0.00  0.00     0.029 A 
ATOM      9  C7A BZF d   1       1.132   0.596   0.232  0.00  0.00     0.058 A 
ENDROOT
TORSDOF 0
ENDMDL
