MODEL 1
REMARK minimizedAffinity -0.524021566
REMARK minimizedRMSD -1
REMARK  0 active torsions:
REMARK  status: ('A' for Active; 'I' for Inactive)
ROOT
ATOM      1  O1  BZF d   1       1.229   0.564  -0.193  0.00  0.00    -0.204 OA
ATOM      2  C2  BZF d   1      -0.016   1.128   0.005  0.00  0.00     0.174 A 
ATOM      3  C3  BZF d   1      -0.928   0.182   0.307  0.00  0.00    -0.012 A 
ATOM      4  C3A BZF d   1      -0.188  -1.041   0.389  0.00  0.00    -0.107 A 
ATOM      5  C4  BZF d   1      -0.535  -2.331   0.672  0.00  0.00     0.055 A 
ATOM      6  C5  BZF d   1       0.413  -3.301   0.597  0.00  0.00    -0.016 A 
ATOM      7  C6  BZF d   1       1.714  -3.018   0.237  0.00  0.00     0.022 A 
ATOM      8  C7  BZF d   1       2.107  -1.753  -0.048  0.00  0.00     0.029 A 
ATOM      9  C7A BZF d   1       1.159  -0.765   0.059  0.00  0.00     0.058 A 
ENDROOT
TORSDOF 0
ENDMDL
