MODEL 1
REMARK minimizedAffinity 1.46674716
REMARK minimizedRMSD -1
REMARK  0 active torsions:
REMARK  status: ('A' for Active; 'I' for Inactive)
ROOT
ATOM      1  O1  BZF d   1       1.660   2.817  -0.778  0.00  0.00    -0.204 OA
ATOM      2  C2  BZF d   1       2.955   2.433  -1.070  0.00  0.00     0.174 A 
ATOM      3  C3  BZF d   1       3.117   1.108  -0.873  0.00  0.00    -0.012 A 
ATOM      4  C3A BZF d   1       1.820   0.619  -0.518  0.00  0.00    -0.107 A 
ATOM      5  C4  BZF d   1       1.335  -0.621  -0.217  0.00  0.00     0.055 A 
ATOM      6  C5  BZF d   1       0.034  -0.748   0.158  0.00  0.00    -0.016 A 
ATOM      7  C6  BZF d   1      -0.806   0.342   0.246  0.00  0.00     0.022 A 
ATOM      8  C7  BZF d   1      -0.371   1.592  -0.048  0.00  0.00     0.029 A 
ATOM      9  C7A BZF d   1       0.933   1.719  -0.459  0.00  0.00     0.058 A 
ENDROOT
TORSDOF 0
ENDMDL
