MODEL 1
REMARK minimizedAffinity 12.2547855
REMARK minimizedRMSD -1
REMARK  0 active torsions:
REMARK  status: ('A' for Active; 'I' for Inactive)
ROOT
ATOM      1  O1  BZF d   1       1.291   2.617  -5.693  0.00  0.00    -0.204 OA
ATOM      2  C2  BZF d   1       1.596   3.941  -5.944  0.00  0.00     0.174 A 
ATOM      3  C3  BZF d   1       0.838   4.759  -5.186  0.00  0.00    -0.012 A 
ATOM      4  C3A BZF d   1       0.073   3.890  -4.345  0.00  0.00    -0.107 A 
ATOM      5  C4  BZF d   1      -0.852   4.108  -3.364  0.00  0.00     0.055 A 
ATOM      6  C5  BZF d   1      -1.467   3.042  -2.787  0.00  0.00    -0.016 A 
ATOM      7  C6  BZF d   1      -1.185   1.747  -3.170  0.00  0.00     0.022 A 
ATOM      8  C7  BZF d   1      -0.272   1.481  -4.135  0.00  0.00     0.029 A 
ATOM      9  C7A BZF d   1       0.375   2.554  -4.697  0.00  0.00     0.058 A 
ENDROOT
TORSDOF 0
ENDMDL
