MODEL 1
REMARK minimizedAffinity 9.87166023
REMARK minimizedRMSD -1
REMARK  0 active torsions:
REMARK  status: ('A' for Active; 'I' for Inactive)
ROOT
ATOM      1  O1  BZF d   1       0.300   2.775  -0.413  0.00  0.00    -0.204 OA
ATOM      2  C2  BZF d   1       0.425   3.732  -1.402  0.00  0.00     0.174 A 
ATOM      3  C3  BZF d   1      -0.783   4.064  -1.901  0.00  0.00    -0.012 A 
ATOM      4  C3A BZF d   1      -1.729   3.331  -1.116  0.00  0.00    -0.107 A 
ATOM      5  C4  BZF d   1      -3.093   3.253  -1.120  0.00  0.00     0.055 A 
ATOM      6  C5  BZF d   1      -3.707   2.388  -0.272  0.00  0.00    -0.016 A 
ATOM      7  C6  BZF d   1      -2.991   1.583   0.589  0.00  0.00     0.022 A 
ATOM      8  C7  BZF d   1      -1.637   1.629   0.633  0.00  0.00     0.029 A 
ATOM      9  C7A BZF d   1      -1.014   2.526  -0.200  0.00  0.00     0.058 A 
ENDROOT
TORSDOF 0
ENDMDL
