MODEL 1
REMARK minimizedAffinity 13.2895718
REMARK minimizedRMSD -1
REMARK  0 active torsions:
REMARK  status: ('A' for Active; 'I' for Inactive)
ROOT
ATOM      1  O1  BZF d   1       1.732   1.297  -0.613  0.00  0.00    -0.204 OA
ATOM      2  C2  BZF d   1       2.453   2.248  -1.310  0.00  0.00     0.174 A 
ATOM      3  C3  BZF d   1       3.663   2.438  -0.746  0.00  0.00    -0.012 A 
ATOM      4  C3A BZF d   1       3.737   1.485   0.318  0.00  0.00    -0.107 A 
ATOM      5  C4  BZF d   1       4.699   1.175   1.236  0.00  0.00     0.055 A 
ATOM      6  C5  BZF d   1       4.429   0.242   2.187  0.00  0.00    -0.016 A 
ATOM      7  C6  BZF d   1       3.208  -0.395   2.253  0.00  0.00     0.022 A 
ATOM      8  C7  BZF d   1       2.223  -0.125   1.361  0.00  0.00     0.029 A 
ATOM      9  C7A BZF d   1       2.505   0.793   0.379  0.00  0.00     0.058 A 
ENDROOT
TORSDOF 0
ENDMDL
