MODEL 1
REMARK minimizedAffinity -0.466634303
REMARK minimizedRMSD -1
REMARK  0 active torsions:
REMARK  status: ('A' for Active; 'I' for Inactive)
ROOT
ATOM      1  C   UNL d   1       1.046   1.530  -1.763  0.00  0.00    -0.002 A 
ATOM      2  C1  UNL d   1       1.361   0.354  -2.430  0.00  0.00     0.010 A 
ATOM      3  C2  UNL d   1       1.172  -0.884  -1.815  0.00  0.00     0.041 A 
ATOM      4  C3  UNL d   1       0.653  -0.923  -0.506  0.00  0.00    -0.075 A 
ATOM      5  S   UNL d   1       0.336  -2.325   0.446  0.00  0.00     0.015 SA
ATOM      6  C4  UNL d   1      -0.227  -1.397   1.761  0.00  0.00     0.022 A 
ATOM      7  C5  UNL d   1      -0.180  -0.048   1.497  0.00  0.00     0.026 A 
ATOM      8  C6  UNL d   1       0.327   0.247   0.186  0.00  0.00    -0.082 A 
ATOM      9  C7  UNL d   1       0.532   1.488  -0.464  0.00  0.00     0.045 A 
ENDROOT
TORSDOF 0
ENDMDL
