MODEL 1
REMARK minimizedAffinity -4.13755131
REMARK minimizedRMSD -1
REMARK  0 active torsions:
REMARK  status: ('A' for Active; 'I' for Inactive)
ROOT
ATOM      1  C   UNL d   1       1.226  -1.607  -2.599  0.00  0.00    -0.002 A 
ATOM      2  C1  UNL d   1       1.742  -0.394  -3.031  0.00  0.00     0.010 A 
ATOM      3  C2  UNL d   1       1.572   0.763  -2.268  0.00  0.00     0.041 A 
ATOM      4  C3  UNL d   1       0.870   0.678  -1.050  0.00  0.00    -0.075 A 
ATOM      5  S   UNL d   1       0.540   1.963   0.051  0.00  0.00     0.015 SA
ATOM      6  C4  UNL d   1      -0.294   0.932   1.122  0.00  0.00     0.022 A 
ATOM      7  C5  UNL d   1      -0.329  -0.364   0.666  0.00  0.00     0.026 A 
ATOM      8  C6  UNL d   1       0.341  -0.532  -0.593  0.00  0.00    -0.082 A 
ATOM      9  C7  UNL d   1       0.529  -1.687  -1.390  0.00  0.00     0.045 A 
ENDROOT
TORSDOF 0
ENDMDL
