MODEL 1
REMARK minimizedAffinity -2.77093911
REMARK minimizedRMSD -1
REMARK  0 active torsions:
REMARK  status: ('A' for Active; 'I' for Inactive)
ROOT
ATOM      1  C   UNL d   1       2.244   1.380  -1.859  0.00  0.00    -0.002 A 
ATOM      2  C1  UNL d   1       1.809   0.226  -2.493  0.00  0.00     0.010 A 
ATOM      3  C2  UNL d   1       0.750  -0.517  -1.968  0.00  0.00     0.041 A 
ATOM      4  C3  UNL d   1       0.128  -0.074  -0.785  0.00  0.00    -0.075 A 
ATOM      5  S   UNL d   1      -1.189  -0.821   0.040  0.00  0.00     0.015 SA
ATOM      6  C4  UNL d   1      -1.205   0.375   1.254  0.00  0.00     0.022 A 
ATOM      7  C5  UNL d   1      -0.236   1.329   1.051  0.00  0.00     0.026 A 
ATOM      8  C6  UNL d   1       0.547   1.087  -0.128  0.00  0.00    -0.082 A 
ATOM      9  C7  UNL d   1       1.625   1.817  -0.685  0.00  0.00     0.045 A 
ENDROOT
TORSDOF 0
ENDMDL
