MODEL 1
REMARK minimizedAffinity -4.27783632
REMARK minimizedRMSD -1
REMARK  0 active torsions:
REMARK  status: ('A' for Active; 'I' for Inactive)
ROOT
ATOM      1  C   UNL d   1       2.472  -0.769  -2.743  0.00  0.00    -0.002 A 
ATOM      2  C1  UNL d   1       2.061  -2.008  -2.273  0.00  0.00     0.010 A 
ATOM      3  C2  UNL d   1       1.158  -2.102  -1.212  0.00  0.00     0.041 A 
ATOM      4  C3  UNL d   1       0.670  -0.917  -0.626  0.00  0.00    -0.075 A 
ATOM      5  S   UNL d   1      -0.443  -0.788   0.684  0.00  0.00     0.015 SA
ATOM      6  C4  UNL d   1      -0.399   0.916   0.651  0.00  0.00     0.022 A 
ATOM      7  C5  UNL d   1       0.440   1.391  -0.329  0.00  0.00     0.026 A 
ATOM      8  C6  UNL d   1       1.069   0.342  -1.082  0.00  0.00    -0.082 A 
ATOM      9  C7  UNL d   1       1.986   0.404  -2.159  0.00  0.00     0.045 A 
ENDROOT
TORSDOF 0
ENDMDL
