MODEL 1
REMARK minimizedAffinity -4.11718559
REMARK minimizedRMSD -1
REMARK  0 active torsions:
REMARK  status: ('A' for Active; 'I' for Inactive)
ROOT
ATOM      1  C   UNL d   1      -0.795  -1.146   1.697  0.00  0.00    -0.002 A 
ATOM      2  C1  UNL d   1      -0.500  -2.064   0.699  0.00  0.00     0.010 A 
ATOM      3  C2  UNL d   1       0.258  -1.687  -0.412  0.00  0.00     0.041 A 
ATOM      4  C3  UNL d   1       0.719  -0.359  -0.503  0.00  0.00    -0.075 A 
ATOM      5  S   UNL d   1       1.664   0.328  -1.770  0.00  0.00     0.015 SA
ATOM      6  C4  UNL d   1       1.699   1.857  -1.017  0.00  0.00     0.022 A 
ATOM      7  C5  UNL d   1       1.012   1.861   0.173  0.00  0.00     0.026 A 
ATOM      8  C6  UNL d   1       0.436   0.584   0.490  0.00  0.00    -0.082 A 
ATOM      9  C7  UNL d   1      -0.335   0.171   1.603  0.00  0.00     0.045 A 
ENDROOT
TORSDOF 0
ENDMDL
