MODEL 1
REMARK minimizedAffinity -4.01421261
REMARK minimizedRMSD -1
REMARK  0 active torsions:
REMARK  status: ('A' for Active; 'I' for Inactive)
ROOT
ATOM      1  C   UNL d   1      -0.945  -1.245   1.358  0.00  0.00    -0.002 A 
ATOM      2  C1  UNL d   1      -0.741   0.118   1.194  0.00  0.00     0.010 A 
ATOM      3  C2  UNL d   1       0.047   0.597   0.146  0.00  0.00     0.041 A 
ATOM      4  C3  UNL d   1       0.631  -0.325  -0.745  0.00  0.00    -0.075 A 
ATOM      5  S   UNL d   1       1.632   0.032  -2.102  0.00  0.00     0.015 SA
ATOM      6  C4  UNL d   1       1.812  -1.616  -2.497  0.00  0.00     0.022 A 
ATOM      7  C5  UNL d   1       1.132  -2.433  -1.625  0.00  0.00     0.026 A 
ATOM      8  C6  UNL d   1       0.439  -1.702  -0.601  0.00  0.00    -0.082 A 
ATOM      9  C7  UNL d   1      -0.364  -2.156   0.472  0.00  0.00     0.045 A 
ENDROOT
TORSDOF 0
ENDMDL
