MODEL 1
REMARK minimizedAffinity -4.45933342
REMARK minimizedRMSD -1
REMARK  0 active torsions:
REMARK  status: ('A' for Active; 'I' for Inactive)
ROOT
ATOM      1  C   UNL d   1       1.485   0.017  -2.675  0.00  0.00    -0.002 A 
ATOM      2  C1  UNL d   1       1.274   1.184  -1.955  0.00  0.00     0.010 A 
ATOM      3  C2  UNL d   1       0.736   1.137  -0.667  0.00  0.00     0.041 A 
ATOM      4  C3  UNL d   1       0.412  -0.116  -0.110  0.00  0.00    -0.075 A 
ATOM      5  S   UNL d   1      -0.257  -0.418   1.450  0.00  0.00     0.015 SA
ATOM      6  C4  UNL d   1      -0.279  -2.103   1.197  0.00  0.00     0.022 A 
ATOM      7  C5  UNL d   1       0.209  -2.445  -0.042  0.00  0.00     0.026 A 
ATOM      8  C6  UNL d   1       0.616  -1.305  -0.816  0.00  0.00    -0.082 A 
ATOM      9  C7  UNL d   1       1.162  -1.224  -2.119  0.00  0.00     0.045 A 
ENDROOT
TORSDOF 0
ENDMDL
