MODEL 1
REMARK minimizedAffinity -3.16388321
REMARK minimizedRMSD -1
REMARK  0 active torsions:
REMARK  status: ('A' for Active; 'I' for Inactive)
ROOT
ATOM      1  C   UNL d   1      -1.521  -0.318   1.138  0.00  0.00    -0.002 A 
ATOM      2  C1  UNL d   1      -0.539   0.356   1.850  0.00  0.00     0.010 A 
ATOM      3  C2  UNL d   1       0.613   0.818   1.209  0.00  0.00     0.041 A 
ATOM      4  C3  UNL d   1       0.761   0.590  -0.173  0.00  0.00    -0.075 A 
ATOM      5  S   UNL d   1       2.086   1.065  -1.169  0.00  0.00     0.015 SA
ATOM      6  C4  UNL d   1       1.380   0.385  -2.563  0.00  0.00     0.022 A 
ATOM      7  C5  UNL d   1       0.163  -0.194  -2.294  0.00  0.00     0.026 A 
ATOM      8  C6  UNL d   1      -0.214  -0.085  -0.912  0.00  0.00    -0.082 A 
ATOM      9  C7  UNL d   1      -1.370  -0.542  -0.233  0.00  0.00     0.045 A 
ENDROOT
TORSDOF 0
ENDMDL
