MODEL 1
REMARK minimizedAffinity -4.28856897
REMARK minimizedRMSD -1
REMARK  0 active torsions:
REMARK  status: ('A' for Active; 'I' for Inactive)
ROOT
ATOM      1  C   UNL d   1       1.799   0.044  -2.795  0.00  0.00    -0.002 A 
ATOM      2  C1  UNL d   1       1.473  -1.304  -2.860  0.00  0.00     0.010 A 
ATOM      3  C2  UNL d   1       0.784  -1.918  -1.812  0.00  0.00     0.041 A 
ATOM      4  C3  UNL d   1       0.423  -1.148  -0.689  0.00  0.00    -0.075 A 
ATOM      5  S   UNL d   1      -0.425  -1.687   0.712  0.00  0.00     0.015 SA
ATOM      6  C4  UNL d   1      -0.375  -0.141   1.428  0.00  0.00     0.022 A 
ATOM      7  C5  UNL d   1       0.269   0.775   0.632  0.00  0.00     0.026 A 
ATOM      8  C6  UNL d   1       0.739   0.211  -0.602  0.00  0.00    -0.082 A 
ATOM      9  C7  UNL d   1       1.439   0.804  -1.680  0.00  0.00     0.045 A 
ENDROOT
TORSDOF 0
ENDMDL
