MODEL 1
REMARK minimizedAffinity -3.78796911
REMARK minimizedRMSD -1
REMARK  0 active torsions:
REMARK  status: ('A' for Active; 'I' for Inactive)
ROOT
ATOM      1  C   UNL d   1       1.870   1.552  -1.971  0.00  0.00    -0.002 A 
ATOM      2  C1  UNL d   1       1.670   2.470  -0.950  0.00  0.00     0.010 A 
ATOM      3  C2  UNL d   1       0.870   2.148   0.148  0.00  0.00     0.041 A 
ATOM      4  C3  UNL d   1       0.271   0.874   0.204  0.00  0.00    -0.075 A 
ATOM      5  S   UNL d   1      -0.748   0.259   1.451  0.00  0.00     0.015 SA
ATOM      6  C4  UNL d   1      -0.941  -1.238   0.659  0.00  0.00     0.022 A 
ATOM      7  C5  UNL d   1      -0.252  -1.284  -0.530  0.00  0.00     0.026 A 
ATOM      8  C6  UNL d   1       0.458  -0.068  -0.812  0.00  0.00    -0.082 A 
ATOM      9  C7  UNL d   1       1.274   0.289  -1.912  0.00  0.00     0.045 A 
ENDROOT
TORSDOF 0
ENDMDL
