MODEL 1
REMARK minimizedAffinity -2.51426196
REMARK minimizedRMSD -1
REMARK  0 active torsions:
REMARK  status: ('A' for Active; 'I' for Inactive)
ROOT
ATOM      1  C   UNL d   1       1.106  -1.502  -2.491  0.00  0.00    -0.002 A 
ATOM      2  C1  UNL d   1       1.864  -0.347  -2.624  0.00  0.00     0.010 A 
ATOM      3  C2  UNL d   1       1.782   0.669  -1.671  0.00  0.00     0.041 A 
ATOM      4  C3  UNL d   1       0.918   0.504  -0.570  0.00  0.00    -0.075 A 
ATOM      5  S   UNL d   1       0.656   1.616   0.721  0.00  0.00     0.015 SA
ATOM      6  C4  UNL d   1      -0.469   0.583   1.480  0.00  0.00     0.022 A 
ATOM      7  C5  UNL d   1      -0.651  -0.585   0.779  0.00  0.00     0.026 A 
ATOM      8  C6  UNL d   1       0.146  -0.650  -0.414  0.00  0.00    -0.082 A 
ATOM      9  C7  UNL d   1       0.250  -1.663  -1.398  0.00  0.00     0.045 A 
ENDROOT
TORSDOF 0
ENDMDL
