MODEL 1
REMARK minimizedAffinity 8.71997452
REMARK minimizedRMSD -1
REMARK  0 active torsions:
REMARK  status: ('A' for Active; 'I' for Inactive)
ROOT
ATOM      1  C   UNL d   1       1.634   1.692   3.753  0.00  0.00     0.077 C 
ATOM      2  C1  UNL d   1       1.337   3.086   4.219  0.00  0.00    -0.074 A 
ATOM      3  C2  UNL d   1       0.071   3.652   4.035  0.00  0.00    -0.005 A 
ATOM      4  C3  UNL d   1      -0.192   4.947   4.481  0.00  0.00     0.006 A 
ATOM      5  C4  UNL d   1       0.806   5.688   5.115  0.00  0.00    -0.005 A 
ATOM      6  C5  UNL d   1       2.077   5.139   5.308  0.00  0.00    -0.074 A 
ATOM      7  C6  UNL d   1       3.158   5.919   5.996  0.00  0.00     0.077 C 
ATOM      8  C7  UNL d   1       2.332   3.835   4.863  0.00  0.00    -0.001 A 
ENDROOT
TORSDOF 0
ENDMDL
