MODEL 1
REMARK minimizedAffinity 7.35352802
REMARK minimizedRMSD -1
REMARK  0 active torsions:
REMARK  status: ('A' for Active; 'I' for Inactive)
ROOT
ATOM      1  C   UNL d   1       5.829  -3.318   0.903  0.00  0.00     0.077 C 
ATOM      2  C1  UNL d   1       4.440  -3.725   1.293  0.00  0.00    -0.074 A 
ATOM      3  C2  UNL d   1       4.160  -5.036   1.693  0.00  0.00    -0.005 A 
ATOM      4  C3  UNL d   1       2.864  -5.397   2.062  0.00  0.00     0.006 A 
ATOM      5  C4  UNL d   1       1.837  -4.453   2.035  0.00  0.00    -0.005 A 
ATOM      6  C5  UNL d   1       2.098  -3.137   1.639  0.00  0.00    -0.074 A 
ATOM      7  C6  UNL d   1       1.007  -2.108   1.615  0.00  0.00     0.077 C 
ATOM      8  C7  UNL d   1       3.404  -2.780   1.277  0.00  0.00    -0.001 A 
ENDROOT
TORSDOF 0
ENDMDL
