MODEL 1
REMARK minimizedAffinity 9.96738625
REMARK minimizedRMSD -1
REMARK  0 active torsions:
REMARK  status: ('A' for Active; 'I' for Inactive)
ROOT
ATOM      1  C   UNL d   1       2.112   1.397   0.882  0.00  0.00     0.077 C 
ATOM      2  C1  UNL d   1       2.198   1.096  -0.585  0.00  0.00    -0.074 A 
ATOM      3  C2  UNL d   1       1.057   1.126  -1.393  0.00  0.00    -0.005 A 
ATOM      4  C3  UNL d   1       1.154   0.852  -2.757  0.00  0.00     0.006 A 
ATOM      5  C4  UNL d   1       2.391   0.546  -3.326  0.00  0.00    -0.005 A 
ATOM      6  C5  UNL d   1       3.543   0.512  -2.534  0.00  0.00    -0.074 A 
ATOM      7  C6  UNL d   1       4.881   0.195  -3.132  0.00  0.00     0.077 C 
ATOM      8  C7  UNL d   1       3.438   0.795  -1.166  0.00  0.00    -0.001 A 
ENDROOT
TORSDOF 0
ENDMDL
