MODEL 1
REMARK minimizedAffinity 7.38564157
REMARK minimizedRMSD -1
REMARK  0 active torsions:
REMARK  status: ('A' for Active; 'I' for Inactive)
ROOT
ATOM      1  C   UNL d   1       5.242  -5.001  -1.745  0.00  0.00     0.077 C 
ATOM      2  C1  UNL d   1       4.751  -4.470  -0.430  0.00  0.00    -0.074 A 
ATOM      3  C2  UNL d   1       5.605  -4.386   0.675  0.00  0.00    -0.005 A 
ATOM      4  C3  UNL d   1       5.136  -3.882   1.888  0.00  0.00     0.006 A 
ATOM      5  C4  UNL d   1       3.812  -3.457   2.008  0.00  0.00    -0.005 A 
ATOM      6  C5  UNL d   1       2.945  -3.533   0.914  0.00  0.00    -0.074 A 
ATOM      7  C6  UNL d   1       1.522  -3.073   1.024  0.00  0.00     0.077 C 
ATOM      8  C7  UNL d   1       3.425  -4.035  -0.304  0.00  0.00    -0.001 A 
ENDROOT
TORSDOF 0
ENDMDL
