MODEL 1
REMARK minimizedAffinity 2.69116044
REMARK minimizedRMSD -1
REMARK  0 active torsions:
REMARK  status: ('A' for Active; 'I' for Inactive)
ROOT
ATOM      1  C   UNL d   1       3.994  -2.857   4.964  0.00  0.00     0.077 C 
ATOM      2  C1  UNL d   1       2.967  -2.897   3.872  0.00  0.00    -0.074 A 
ATOM      3  C2  UNL d   1       3.148  -3.704   2.744  0.00  0.00    -0.005 A 
ATOM      4  C3  UNL d   1       2.179  -3.737   1.741  0.00  0.00     0.006 A 
ATOM      5  C4  UNL d   1       1.022  -2.966   1.855  0.00  0.00    -0.005 A 
ATOM      6  C5  UNL d   1       0.824  -2.153   2.976  0.00  0.00    -0.074 A 
ATOM      7  C6  UNL d   1      -0.418  -1.325   3.119  0.00  0.00     0.077 C 
ATOM      8  C7  UNL d   1       1.799  -2.130   3.983  0.00  0.00    -0.001 A 
ENDROOT
TORSDOF 0
ENDMDL
