MODEL 1
REMARK minimizedAffinity 6.05027866
REMARK minimizedRMSD -1
REMARK  0 active torsions:
REMARK  status: ('A' for Active; 'I' for Inactive)
ROOT
ATOM      1  C   UNL d   1       5.804  -5.806  -1.586  0.00  0.00     0.077 C 
ATOM      2  C1  UNL d   1       5.222  -4.883  -0.558  0.00  0.00    -0.074 A 
ATOM      3  C2  UNL d   1       6.000  -3.883   0.033  0.00  0.00    -0.005 A 
ATOM      4  C3  UNL d   1       5.442  -3.025   0.981  0.00  0.00     0.006 A 
ATOM      5  C4  UNL d   1       4.102  -3.160   1.348  0.00  0.00    -0.005 A 
ATOM      6  C5  UNL d   1       3.308  -4.154   0.767  0.00  0.00    -0.074 A 
ATOM      7  C6  UNL d   1       1.864  -4.305   1.142  0.00  0.00     0.077 C 
ATOM      8  C7  UNL d   1       3.874  -5.007  -0.190  0.00  0.00    -0.001 A 
ENDROOT
TORSDOF 0
ENDMDL
