MODEL 1
REMARK minimizedAffinity 14.5192137
REMARK minimizedRMSD -1
REMARK  0 active torsions:
REMARK  status: ('A' for Active; 'I' for Inactive)
ROOT
ATOM      1  C   UNL d   1      -4.234  -0.070  -5.996  0.00  0.00     0.077 C 
ATOM      2  C1  UNL d   1      -4.378  -0.791  -4.689  0.00  0.00    -0.074 A 
ATOM      3  C2  UNL d   1      -5.283  -1.849  -4.548  0.00  0.00    -0.005 A 
ATOM      4  C3  UNL d   1      -5.399  -2.516  -3.328  0.00  0.00     0.006 A 
ATOM      5  C4  UNL d   1      -4.614  -2.134  -2.240  0.00  0.00    -0.005 A 
ATOM      6  C5  UNL d   1      -3.703  -1.079  -2.363  0.00  0.00    -0.074 A 
ATOM      7  C6  UNL d   1      -2.844  -0.662  -1.207  0.00  0.00     0.077 C 
ATOM      8  C7  UNL d   1      -3.587  -0.418  -3.594  0.00  0.00    -0.001 A 
ENDROOT
TORSDOF 0
ENDMDL
