MODEL 1
REMARK minimizedAffinity 2.17455816
REMARK minimizedRMSD -1
REMARK  0 active torsions:
REMARK  status: ('A' for Active; 'I' for Inactive)
ROOT
ATOM      1  C   UNL d   1       3.002  -2.985   1.486  0.00  0.00     0.077 C 
ATOM      2  C1  UNL d   1       1.599  -3.289   1.921  0.00  0.00    -0.074 A 
ATOM      3  C2  UNL d   1       1.063  -4.573   1.775  0.00  0.00    -0.005 A 
ATOM      4  C3  UNL d   1      -0.240  -4.842   2.193  0.00  0.00     0.006 A 
ATOM      5  C4  UNL d   1      -1.020  -3.833   2.759  0.00  0.00    -0.005 A 
ATOM      6  C5  UNL d   1      -0.501  -2.543   2.913  0.00  0.00    -0.074 A 
ATOM      7  C6  UNL d   1      -1.322  -1.449   3.529  0.00  0.00     0.077 C 
ATOM      8  C7  UNL d   1       0.812  -2.282   2.498  0.00  0.00    -0.001 A 
ENDROOT
TORSDOF 0
ENDMDL
