MODEL 1
REMARK minimizedAffinity 1.32181156
REMARK minimizedRMSD -1
REMARK  1 active torsions:
REMARK  status: ('A' for Active; 'I' for Inactive)
REMARK    1  A    between atoms: C1_2  and  C2_3 
ROOT
ATOM      1  C2  UNL d   1       2.590  -0.413  -0.963  0.00  0.00    -0.081 A 
ATOM      2  C3  UNL d   1       2.646   0.954  -0.668  0.00  0.00     0.006 A 
ATOM      3  C4  UNL d   1       1.515   1.623  -0.194  0.00  0.00     0.002 A 
ATOM      4  C5  UNL d   1       0.312   0.935   0.001  0.00  0.00    -0.080 A 
ATOM      5  C6  UNL d   1      -0.901   1.634   0.538  0.00  0.00     0.076 C 
ATOM      6  C7  UNL d   1       0.252  -0.428  -0.311  0.00  0.00     0.002 A 
ATOM      7  C8  UNL d   1       1.382  -1.097  -0.786  0.00  0.00     0.006 A 
ENDROOT
BRANCH   1   8
ATOM      8  C1  UNL d   1       3.825  -1.151  -1.413  0.00  0.00     0.054 C 
ATOM      9  C   UNL d   1       3.577  -2.651  -1.487  0.00  0.00     0.018 C 
ENDBRANCH   1   8
TORSDOF 1
ENDMDL
