MODEL 1
REMARK minimizedAffinity 3.69204807
REMARK minimizedRMSD -1
REMARK  1 active torsions:
REMARK  status: ('A' for Active; 'I' for Inactive)
REMARK    1  A    between atoms: C1_2  and  C2_3 
ROOT
ATOM      1  C2  UNL d   1       0.836  -0.453  -2.728  0.00  0.00    -0.081 A 
ATOM      2  C3  UNL d   1       2.061  -1.058  -3.038  0.00  0.00     0.006 A 
ATOM      3  C4  UNL d   1       3.182  -0.839  -2.235  0.00  0.00     0.002 A 
ATOM      4  C5  UNL d   1       3.097  -0.020  -1.104  0.00  0.00    -0.080 A 
ATOM      5  C6  UNL d   1       4.286   0.199  -0.217  0.00  0.00     0.076 C 
ATOM      6  C7  UNL d   1       1.879   0.598  -0.804  0.00  0.00     0.002 A 
ATOM      7  C8  UNL d   1       0.757   0.381  -1.607  0.00  0.00     0.006 A 
ENDROOT
BRANCH   1   8
ATOM      8  C1  UNL d   1      -0.391  -0.738  -3.555  0.00  0.00     0.054 C 
ATOM      9  C   UNL d   1      -0.663   0.384  -4.547  0.00  0.00     0.018 C 
ENDBRANCH   1   8
TORSDOF 1
ENDMDL
