MODEL 1
REMARK minimizedAffinity 2.53770828
REMARK minimizedRMSD -1
REMARK  1 active torsions:
REMARK  status: ('A' for Active; 'I' for Inactive)
REMARK    1  A    between atoms: C1_2  and  C2_3 
ROOT
ATOM      1  C2  UNL d   1      -5.105   1.344  -5.953  0.00  0.00    -0.081 A 
ATOM      2  C3  UNL d   1      -3.715   1.511  -5.982  0.00  0.00     0.006 A 
ATOM      3  C4  UNL d   1      -3.156   2.791  -5.991  0.00  0.00     0.002 A 
ATOM      4  C5  UNL d   1      -3.975   3.924  -5.964  0.00  0.00    -0.080 A 
ATOM      5  C6  UNL d   1      -3.387   5.304  -5.943  0.00  0.00     0.076 C 
ATOM      6  C7  UNL d   1      -5.364   3.758  -5.954  0.00  0.00     0.002 A 
ATOM      7  C8  UNL d   1      -5.924   2.479  -5.945  0.00  0.00     0.006 A 
ENDROOT
BRANCH   1   8
ATOM      8  C1  UNL d   1      -5.710  -0.034  -5.878  0.00  0.00     0.054 C 
ATOM      9  C   UNL d   1      -4.640  -1.113  -5.957  0.00  0.00     0.018 C 
ENDBRANCH   1   8
TORSDOF 1
ENDMDL
