MODEL 1
REMARK minimizedAffinity 0.239919573
REMARK minimizedRMSD -1
REMARK  1 active torsions:
REMARK  status: ('A' for Active; 'I' for Inactive)
REMARK    1  A    between atoms: C1_2  and  C2_3 
ROOT
ATOM      1  C2  UNL d   1      -4.145  -1.463   1.388  0.00  0.00    -0.081 A 
ATOM      2  C3  UNL d   1      -3.119  -2.113   2.084  0.00  0.00     0.006 A 
ATOM      3  C4  UNL d   1      -2.489  -3.233   1.535  0.00  0.00     0.002 A 
ATOM      4  C5  UNL d   1      -2.869  -3.715   0.278  0.00  0.00    -0.080 A 
ATOM      5  C6  UNL d   1      -2.180  -4.897  -0.337  0.00  0.00     0.076 C 
ATOM      6  C7  UNL d   1      -3.905  -3.075  -0.410  0.00  0.00     0.002 A 
ATOM      7  C8  UNL d   1      -4.536  -1.957   0.139  0.00  0.00     0.006 A 
ENDROOT
BRANCH   1   8
ATOM      8  C1  UNL d   1      -4.781  -0.217   1.949  0.00  0.00     0.054 C 
ATOM      9  C   UNL d   1      -3.823   0.964   1.901  0.00  0.00     0.018 C 
ENDBRANCH   1   8
TORSDOF 1
ENDMDL
