MODEL 1
REMARK minimizedAffinity 0.284352541
REMARK minimizedRMSD -1
REMARK  1 active torsions:
REMARK  status: ('A' for Active; 'I' for Inactive)
REMARK    1  A    between atoms: C1_2  and  C2_3 
ROOT
ATOM      1  C2  UNL d   1      -3.672   0.059  -5.937  0.00  0.00    -0.081 A 
ATOM      2  C3  UNL d   1      -4.884   0.759  -5.994  0.00  0.00     0.006 A 
ATOM      3  C4  UNL d   1      -4.895   2.156  -6.000  0.00  0.00     0.002 A 
ATOM      4  C5  UNL d   1      -3.697   2.876  -5.957  0.00  0.00    -0.080 A 
ATOM      5  C6  UNL d   1      -3.694   4.375  -5.993  0.00  0.00     0.076 C 
ATOM      6  C7  UNL d   1      -2.487   2.177  -5.883  0.00  0.00     0.002 A 
ATOM      7  C8  UNL d   1      -2.475   0.780  -5.876  0.00  0.00     0.006 A 
ENDROOT
BRANCH   1   8
ATOM      8  C1  UNL d   1      -3.653  -1.447  -5.996  0.00  0.00     0.054 C 
ATOM      9  C   UNL d   1      -5.034  -2.028  -5.731  0.00  0.00     0.018 C 
ENDBRANCH   1   8
TORSDOF 1
ENDMDL
