MODEL 1
REMARK minimizedAffinity -0.795913339
REMARK minimizedRMSD -1
REMARK  1 active torsions:
REMARK  status: ('A' for Active; 'I' for Inactive)
REMARK    1  A    between atoms: C1_2  and  C2_3 
ROOT
ATOM      1  C2  UNL d   1      -4.134   0.786  -5.937  0.00  0.00    -0.081 A 
ATOM      2  C3  UNL d   1      -5.028   1.862  -5.991  0.00  0.00     0.006 A 
ATOM      3  C4  UNL d   1      -4.554   3.176  -5.999  0.00  0.00     0.002 A 
ATOM      4  C5  UNL d   1      -3.180   3.436  -5.961  0.00  0.00    -0.080 A 
ATOM      5  C6  UNL d   1      -2.657   4.841  -5.999  0.00  0.00     0.076 C 
ATOM      6  C7  UNL d   1      -2.287   2.361  -5.888  0.00  0.00     0.002 A 
ATOM      7  C8  UNL d   1      -2.760   1.047  -5.880  0.00  0.00     0.006 A 
ENDROOT
BRANCH   1   8
ATOM      8  C1  UNL d   1      -4.638  -0.634  -5.993  0.00  0.00     0.054 C 
ATOM      9  C   UNL d   1      -3.490  -1.632  -5.940  0.00  0.00     0.018 C 
ENDBRANCH   1   8
TORSDOF 1
ENDMDL
