MODEL 1
REMARK minimizedAffinity 0.957143962
REMARK minimizedRMSD -1
REMARK  1 active torsions:
REMARK  status: ('A' for Active; 'I' for Inactive)
REMARK    1  A    between atoms: C1_2  and  C2_3 
ROOT
ATOM      1  C2  UNL d   1      -3.675   0.863  -5.789  0.00  0.00    -0.081 A 
ATOM      2  C3  UNL d   1      -2.610   1.762  -5.921  0.00  0.00     0.006 A 
ATOM      3  C4  UNL d   1      -2.850   3.137  -5.999  0.00  0.00     0.002 A 
ATOM      4  C5  UNL d   1      -4.156   3.634  -5.940  0.00  0.00    -0.080 A 
ATOM      5  C6  UNL d   1      -4.424   5.109  -5.993  0.00  0.00     0.076 C 
ATOM      6  C7  UNL d   1      -5.221   2.734  -5.826  0.00  0.00     0.002 A 
ATOM      7  C8  UNL d   1      -4.983   1.361  -5.748  0.00  0.00     0.006 A 
ENDROOT
BRANCH   1   8
ATOM      8  C1  UNL d   1      -3.417  -0.614  -5.639  0.00  0.00     0.054 C 
ATOM      9  C   UNL d   1      -4.718  -1.402  -5.591  0.00  0.00     0.018 C 
ENDBRANCH   1   8
TORSDOF 1
ENDMDL
