MODEL 1
REMARK minimizedAffinity -1.75274837
REMARK minimizedRMSD -1
REMARK  1 active torsions:
REMARK  status: ('A' for Active; 'I' for Inactive)
REMARK    1  A    between atoms: C1_2  and  C2_3 
ROOT
ATOM      1  C2  UNL d   1      -3.167  -0.598  -5.636  0.00  0.00    -0.081 A 
ATOM      2  C3  UNL d   1      -1.932   0.018  -5.871  0.00  0.00     0.006 A 
ATOM      3  C4  UNL d   1      -1.847   1.406  -6.000  0.00  0.00     0.002 A 
ATOM      4  C5  UNL d   1      -2.993   2.201  -5.889  0.00  0.00    -0.080 A 
ATOM      5  C6  UNL d   1      -2.910   3.695  -5.996  0.00  0.00     0.076 C 
ATOM      6  C7  UNL d   1      -4.229   1.584  -5.672  0.00  0.00     0.002 A 
ATOM      7  C8  UNL d   1      -4.315   0.196  -5.543  0.00  0.00     0.006 A 
ENDROOT
BRANCH   1   8
ATOM      8  C1  UNL d   1      -3.253  -2.089  -5.432  0.00  0.00     0.054 C 
ATOM      9  C   UNL d   1      -4.575  -2.643  -5.945  0.00  0.00     0.018 C 
ENDBRANCH   1   8
TORSDOF 1
ENDMDL
