MODEL 1
REMARK minimizedAffinity -2.0478003
REMARK minimizedRMSD -1
REMARK  1 active torsions:
REMARK  status: ('A' for Active; 'I' for Inactive)
REMARK    1  A    between atoms: C1_2  and  C2_3 
ROOT
ATOM      1  C2  UNL d   1      -2.906  -4.699  -5.941  0.00  0.00    -0.081 A 
ATOM      2  C3  UNL d   1      -2.252  -3.461  -5.967  0.00  0.00     0.006 A 
ATOM      3  C4  UNL d   1      -2.986  -2.273  -5.999  0.00  0.00     0.002 A 
ATOM      4  C5  UNL d   1      -4.384  -2.302  -5.997  0.00  0.00    -0.080 A 
ATOM      5  C6  UNL d   1      -5.184  -1.033  -6.000  0.00  0.00     0.076 C 
ATOM      6  C7  UNL d   1      -5.038  -3.539  -5.988  0.00  0.00     0.002 A 
ATOM      7  C8  UNL d   1      -4.305  -4.727  -5.957  0.00  0.00     0.006 A 
ENDROOT
BRANCH   1   8
ATOM      8  C1  UNL d   1      -2.119  -5.980  -5.841  0.00  0.00     0.054 C 
ATOM      9  C   UNL d   1      -0.803  -5.765  -5.107  0.00  0.00     0.018 C 
ENDBRANCH   1   8
TORSDOF 1
ENDMDL
