MODEL 1
REMARK minimizedAffinity -5.84734488
REMARK minimizedRMSD -1
REMARK  3 active torsions:
REMARK  status: ('A' for Active; 'I' for Inactive)
REMARK    1  A    between atoms: C3'_2  and  C2'_3 
REMARK    2  A    between atoms: C2'_3  and  C1'_4 
REMARK    3  A    between atoms: C1'_4  and  C1_5 
ROOT
ATOM      1  C1  N4B d   1      -2.972  -1.343  -5.771  0.00  0.00    -0.075 A 
ATOM      2  C2  N4B d   1      -2.368  -0.083  -5.562  0.00  0.00     0.002 A 
ATOM      3  C3  N4B d   1      -3.148   1.043  -5.456  0.00  0.00     0.002 A 
ATOM      4  C4  N4B d   1      -4.526   0.936  -5.575  0.00  0.00    -0.004 A 
ATOM      5  C5  N4B d   1      -5.102  -0.287  -5.751  0.00  0.00     0.002 A 
ATOM      6  C6  N4B d   1      -4.331  -1.428  -5.855  0.00  0.00     0.002 A 
ENDROOT
BRANCH   1   7
ATOM      7  C1' N4B d   1      -2.156  -2.589  -5.979  0.00  0.00     0.057 C 
BRANCH   7   8
ATOM      8  C2' N4B d   1      -2.250  -3.463  -4.731  0.00  0.00     0.009 C 
BRANCH   8   9
ATOM      9  C3' N4B d   1      -1.981  -4.926  -5.040  0.00  0.00     0.004 C 
ATOM     10  C4' N4B d   1      -0.577  -5.172  -5.506  0.00  0.00     0.003 C 
ENDBRANCH   8   9
ENDBRANCH   7   8
ENDBRANCH   1   7
TORSDOF 3
ENDMDL
