MODEL 1
REMARK minimizedAffinity -3.44370079
REMARK minimizedRMSD -1
REMARK  3 active torsions:
REMARK  status: ('A' for Active; 'I' for Inactive)
REMARK    1  A    between atoms: C3'_2  and  C2'_3 
REMARK    2  A    between atoms: C2'_3  and  C1'_4 
REMARK    3  A    between atoms: C1'_4  and  C1_5 
ROOT
ATOM      1  C1  N4B d   1      -2.994  -3.183  -5.375  0.00  0.00    -0.075 A 
ATOM      2  C2  N4B d   1      -3.688  -4.405  -5.519  0.00  0.00     0.002 A 
ATOM      3  C3  N4B d   1      -5.033  -4.402  -5.796  0.00  0.00     0.002 A 
ATOM      4  C4  N4B d   1      -5.706  -3.195  -5.916  0.00  0.00    -0.004 A 
ATOM      5  C5  N4B d   1      -5.023  -2.020  -5.801  0.00  0.00     0.002 A 
ATOM      6  C6  N4B d   1      -3.670  -2.007  -5.526  0.00  0.00     0.002 A 
ENDROOT
BRANCH   1   7
ATOM      7  C1' N4B d   1      -1.541  -3.136  -4.987  0.00  0.00     0.057 C 
BRANCH   7   8
ATOM      8  C2' N4B d   1      -1.202  -4.375  -4.164  0.00  0.00     0.009 C 
BRANCH   8   9
ATOM      9  C3' N4B d   1      -0.032  -5.145  -4.751  0.00  0.00     0.004 C 
ATOM     10  C4' N4B d   1      -0.416  -5.960  -5.950  0.00  0.00     0.003 C 
ENDBRANCH   8   9
ENDBRANCH   7   8
ENDBRANCH   1   7
TORSDOF 3
ENDMDL
