MODEL 1
REMARK minimizedAffinity -2.71566772
REMARK minimizedRMSD -1
REMARK  3 active torsions:
REMARK  status: ('A' for Active; 'I' for Inactive)
REMARK    1  A    between atoms: C3'_2  and  C2'_3 
REMARK    2  A    between atoms: C2'_3  and  C1'_4 
REMARK    3  A    between atoms: C1'_4  and  C1_5 
ROOT
ATOM      1  C1  N4B d   1      -2.861  -3.215  -4.449  0.00  0.00    -0.075 A 
ATOM      2  C2  N4B d   1      -3.823  -2.251  -4.825  0.00  0.00     0.002 A 
ATOM      3  C3  N4B d   1      -4.915  -2.624  -5.569  0.00  0.00     0.002 A 
ATOM      4  C4  N4B d   1      -5.057  -3.946  -5.963  0.00  0.00    -0.004 A 
ATOM      5  C5  N4B d   1      -4.137  -4.876  -5.575  0.00  0.00     0.002 A 
ATOM      6  C6  N4B d   1      -3.036  -4.516  -4.824  0.00  0.00     0.002 A 
ENDROOT
BRANCH   1   7
ATOM      7  C1' N4B d   1      -1.607  -2.839  -3.709  0.00  0.00     0.057 C 
BRANCH   7   8
ATOM      8  C2' N4B d   1      -1.979  -2.025  -2.473  0.00  0.00     0.009 C 
BRANCH   8   9
ATOM      9  C3' N4B d   1      -0.759  -1.414  -1.807  0.00  0.00     0.004 C 
ATOM     10  C4' N4B d   1      -1.115  -0.462  -0.704  0.00  0.00     0.003 C 
ENDBRANCH   8   9
ENDBRANCH   7   8
ENDBRANCH   1   7
TORSDOF 3
ENDMDL
