MODEL 1
REMARK minimizedAffinity 2.19299364
REMARK minimizedRMSD -1
REMARK  3 active torsions:
REMARK  status: ('A' for Active; 'I' for Inactive)
REMARK    1  A    between atoms: C3'_2  and  C2'_3 
REMARK    2  A    between atoms: C2'_3  and  C1'_4 
REMARK    3  A    between atoms: C1'_4  and  C1_5 
ROOT
ATOM      1  C1  N4B d   1       0.379  -0.590  -1.253  0.00  0.00    -0.075 A 
ATOM      2  C2  N4B d   1       0.648   0.589  -1.982  0.00  0.00     0.002 A 
ATOM      3  C3  N4B d   1       0.816   1.781  -1.320  0.00  0.00     0.002 A 
ATOM      4  C4  N4B d   1       0.700   1.821   0.061  0.00  0.00    -0.004 A 
ATOM      5  C5  N4B d   1       0.466   0.673   0.759  0.00  0.00     0.002 A 
ATOM      6  C6  N4B d   1       0.299  -0.533   0.108  0.00  0.00     0.002 A 
ENDROOT
BRANCH   1   7
ATOM      7  C1' N4B d   1       0.103  -1.901  -1.938  0.00  0.00     0.057 C 
BRANCH   7   8
ATOM      8  C2' N4B d   1      -1.328  -1.899  -2.466  0.00  0.00     0.009 C 
BRANCH   8   9
ATOM      9  C3' N4B d   1      -1.402  -2.362  -3.911  0.00  0.00     0.004 C 
ATOM     10  C4' N4B d   1      -1.059  -3.813  -4.073  0.00  0.00     0.003 C 
ENDBRANCH   8   9
ENDBRANCH   7   8
ENDBRANCH   1   7
TORSDOF 3
ENDMDL
