MODEL 1
REMARK minimizedAffinity 7.97708368
REMARK minimizedRMSD -1
REMARK  3 active torsions:
REMARK  status: ('A' for Active; 'I' for Inactive)
REMARK    1  A    between atoms: C3'_2  and  C2'_3 
REMARK    2  A    between atoms: C2'_3  and  C1'_4 
REMARK    3  A    between atoms: C1'_4  and  C1_5 
ROOT
ATOM      1  C1  N4B d   1      -3.710  -3.368  -4.828  0.00  0.00    -0.075 A 
ATOM      2  C2  N4B d   1      -4.826  -2.533  -5.057  0.00  0.00     0.002 A 
ATOM      3  C3  N4B d   1      -5.963  -3.049  -5.629  0.00  0.00     0.002 A 
ATOM      4  C4  N4B d   1      -6.000  -4.386  -5.997  0.00  0.00    -0.004 A 
ATOM      5  C5  N4B d   1      -4.926  -5.191  -5.749  0.00  0.00     0.002 A 
ATOM      6  C6  N4B d   1      -3.779  -4.687  -5.171  0.00  0.00     0.002 A 
ENDROOT
BRANCH   1   7
ATOM      7  C1' N4B d   1      -2.415  -2.830  -4.283  0.00  0.00     0.057 C 
BRANCH   7   8
ATOM      8  C2' N4B d   1      -1.664  -3.954  -3.576  0.00  0.00     0.009 C 
BRANCH   8   9
ATOM      9  C3' N4B d   1      -0.519  -4.490  -4.417  0.00  0.00     0.004 C 
ATOM     10  C4' N4B d   1      -0.416  -5.986  -4.372  0.00  0.00     0.003 C 
ENDBRANCH   8   9
ENDBRANCH   7   8
ENDBRANCH   1   7
TORSDOF 3
ENDMDL
