MODEL 1
REMARK minimizedAffinity 1.16589308
REMARK minimizedRMSD -1
REMARK  3 active torsions:
REMARK  status: ('A' for Active; 'I' for Inactive)
REMARK    1  A    between atoms: C3'_2  and  C2'_3 
REMARK    2  A    between atoms: C2'_3  and  C1'_4 
REMARK    3  A    between atoms: C1'_4  and  C1_5 
ROOT
ATOM      1  C1  N4B d   1       2.378   0.743  -0.918  0.00  0.00    -0.075 A 
ATOM      2  C2  N4B d   1       1.472  -0.335  -0.809  0.00  0.00     0.002 A 
ATOM      3  C3  N4B d   1       0.533  -0.344   0.193  0.00  0.00     0.002 A 
ATOM      4  C4  N4B d   1       0.493   0.700   1.105  0.00  0.00    -0.004 A 
ATOM      5  C5  N4B d   1       1.355   1.750   0.978  0.00  0.00     0.002 A 
ATOM      6  C6  N4B d   1       2.301   1.774  -0.027  0.00  0.00     0.002 A 
ENDROOT
BRANCH   1   7
ATOM      7  C1' N4B d   1       3.477   0.756  -1.945  0.00  0.00     0.057 C 
BRANCH   7   8
ATOM      8  C2' N4B d   1       4.810   1.017  -1.249  0.00  0.00     0.009 C 
BRANCH   8   9
ATOM      9  C3' N4B d   1       5.689  -0.221  -1.222  0.00  0.00     0.004 C 
ATOM     10  C4' N4B d   1       5.053  -1.400  -1.894  0.00  0.00     0.003 C 
ENDBRANCH   8   9
ENDBRANCH   7   8
ENDBRANCH   1   7
TORSDOF 3
ENDMDL
