MODEL 1
REMARK minimizedAffinity -2.24780059
REMARK minimizedRMSD -1
REMARK  3 active torsions:
REMARK  status: ('A' for Active; 'I' for Inactive)
REMARK    1  A    between atoms: C3'_2  and  C2'_3 
REMARK    2  A    between atoms: C2'_3  and  C1'_4 
REMARK    3  A    between atoms: C1'_4  and  C1_5 
ROOT
ATOM      1  C1  N4B d   1       2.216   2.244   2.236  0.00  0.00    -0.075 A 
ATOM      2  C2  N4B d   1       1.598   3.505   2.091  0.00  0.00     0.002 A 
ATOM      3  C3  N4B d   1       2.173   4.620   2.649  0.00  0.00     0.002 A 
ATOM      4  C4  N4B d   1       3.351   4.496   3.371  0.00  0.00    -0.004 A 
ATOM      5  C5  N4B d   1       3.955   3.279   3.485  0.00  0.00     0.002 A 
ATOM      6  C6  N4B d   1       3.391   2.150   2.926  0.00  0.00     0.002 A 
ENDROOT
BRANCH   1   7
ATOM      7  C1' N4B d   1       1.581   0.983   1.717  0.00  0.00     0.057 C 
BRANCH   7   8
ATOM      8  C2' N4B d   1       0.631   1.335   0.576  0.00  0.00     0.009 C 
BRANCH   8   9
ATOM      9  C3' N4B d   1       0.894   0.494  -0.662  0.00  0.00     0.004 C 
ATOM     10  C4' N4B d   1       0.739  -0.976  -0.410  0.00  0.00     0.003 C 
ENDBRANCH   8   9
ENDBRANCH   7   8
ENDBRANCH   1   7
TORSDOF 3
ENDMDL
