MODEL 1
REMARK minimizedAffinity 3.11231089
REMARK minimizedRMSD -1
REMARK  3 active torsions:
REMARK  status: ('A' for Active; 'I' for Inactive)
REMARK    1  A    between atoms: C3'_2  and  C2'_3 
REMARK    2  A    between atoms: C2'_3  and  C1'_4 
REMARK    3  A    between atoms: C1'_4  and  C1_5 
ROOT
ATOM      1  C1  N4B d   1       0.288  -0.084  -1.297  0.00  0.00    -0.075 A 
ATOM      2  C2  N4B d   1       1.003   1.111  -1.067  0.00  0.00     0.002 A 
ATOM      3  C3  N4B d   1       1.380   1.451   0.210  0.00  0.00     0.002 A 
ATOM      4  C4  N4B d   1       1.036   0.625   1.269  0.00  0.00    -0.004 A 
ATOM      5  C5  N4B d   1       0.367  -0.541   1.035  0.00  0.00     0.002 A 
ATOM      6  C6  N4B d   1      -0.014  -0.897  -0.243  0.00  0.00     0.002 A 
ENDROOT
BRANCH   1   7
ATOM      7  C1' N4B d   1      -0.220  -0.455  -2.664  0.00  0.00     0.057 C 
BRANCH   7   8
ATOM      8  C2' N4B d   1      -0.934  -1.801  -2.584  0.00  0.00     0.009 C 
BRANCH   8   9
ATOM      9  C3' N4B d   1      -1.618  -2.159  -3.893  0.00  0.00     0.004 C 
ATOM     10  C4' N4B d   1      -1.512  -3.618  -4.223  0.00  0.00     0.003 C 
ENDBRANCH   8   9
ENDBRANCH   7   8
ENDBRANCH   1   7
TORSDOF 3
ENDMDL
