MODEL 1
REMARK minimizedAffinity 4.88929462
REMARK minimizedRMSD -1
REMARK  3 active torsions:
REMARK  status: ('A' for Active; 'I' for Inactive)
REMARK    1  A    between atoms: C3'_2  and  C2'_3 
REMARK    2  A    between atoms: C2'_3  and  C1'_4 
REMARK    3  A    between atoms: C1'_4  and  C1_5 
ROOT
ATOM      1  C1  N4B d   1       0.387   0.758  -1.327  0.00  0.00    -0.075 A 
ATOM      2  C2  N4B d   1       1.163   1.937  -1.330  0.00  0.00     0.002 A 
ATOM      3  C3  N4B d   1       1.828   2.324  -0.192  0.00  0.00     0.002 A 
ATOM      4  C4  N4B d   1       1.717   1.561   0.961  0.00  0.00    -0.004 A 
ATOM      5  C5  N4B d   1       0.986   0.409   0.948  0.00  0.00     0.002 A 
ATOM      6  C6  N4B d   1       0.315   0.006  -0.190  0.00  0.00     0.002 A 
ENDROOT
BRANCH   1   7
ATOM      7  C1' N4B d   1      -0.427   0.340  -2.521  0.00  0.00     0.057 C 
BRANCH   7   8
ATOM      8  C2' N4B d   1      -0.838  -1.120  -2.361  0.00  0.00     0.009 C 
BRANCH   8   9
ATOM      9  C3' N4B d   1      -1.738  -1.585  -3.493  0.00  0.00     0.004 C 
ATOM     10  C4' N4B d   1      -1.488  -3.010  -3.887  0.00  0.00     0.003 C 
ENDBRANCH   8   9
ENDBRANCH   7   8
ENDBRANCH   1   7
TORSDOF 3
ENDMDL
