MODEL 1
REMARK minimizedAffinity 17.4402313
REMARK minimizedRMSD -1
REMARK  0 active torsions:
REMARK  status: ('A' for Active; 'I' for Inactive)
ROOT
ATOM      1  C2' OXE d   1       3.266  -6.000  -1.674  0.00  0.00     0.078 C 
ATOM      2  C1' OXE d   1       1.572  -4.414  -0.095  0.00  0.00     0.078 C 
ATOM      3  C1  OXE d   1       2.935  -3.864  -0.435  0.00  0.00    -0.078 A 
ATOM      4  C2  OXE d   1       3.775  -4.667  -1.169  0.00  0.00    -0.078 A 
ATOM      5  C3  OXE d   1       5.022  -4.186  -1.557  0.00  0.00     0.003 A 
ATOM      6  C4  OXE d   1       5.489  -2.956  -1.077  0.00  0.00    -0.002 A 
ATOM      7  C5  OXE d   1       4.664  -2.140  -0.296  0.00  0.00    -0.002 A 
ATOM      8  C6  OXE d   1       3.372  -2.560  -0.002  0.00  0.00     0.003 A 
ENDROOT
TORSDOF 0
ENDMDL
