MODEL 1
REMARK minimizedAffinity 7.89947271
REMARK minimizedRMSD -1
REMARK  0 active torsions:
REMARK  status: ('A' for Active; 'I' for Inactive)
ROOT
ATOM      1  C2' OXE d   1      -4.723   0.542   2.619  0.00  0.00     0.078 C 
ATOM      2  C1' OXE d   1      -3.137   0.437   4.933  0.00  0.00     0.078 C 
ATOM      3  C1  OXE d   1      -2.563  -0.134   3.660  0.00  0.00    -0.078 A 
ATOM      4  C2  OXE d   1      -3.364  -0.120   2.544  0.00  0.00    -0.078 A 
ATOM      5  C3  OXE d   1      -2.863  -0.585   1.331  0.00  0.00     0.003 A 
ATOM      6  C4  OXE d   1      -1.609  -1.205   1.272  0.00  0.00    -0.002 A 
ATOM      7  C5  OXE d   1      -0.793  -1.264   2.407  0.00  0.00    -0.002 A 
ATOM      8  C6  OXE d   1      -1.237  -0.696   3.596  0.00  0.00     0.003 A 
ENDROOT
TORSDOF 0
ENDMDL
