MODEL 1
REMARK minimizedAffinity 10.3413591
REMARK minimizedRMSD -1
REMARK  0 active torsions:
REMARK  status: ('A' for Active; 'I' for Inactive)
ROOT
ATOM      1  C2' OXE d   1      -3.723  -3.405   2.183  0.00  0.00     0.078 C 
ATOM      2  C1' OXE d   1      -1.420  -3.275   0.583  0.00  0.00     0.078 C 
ATOM      3  C1  OXE d   1      -1.760  -2.071   1.426  0.00  0.00    -0.078 A 
ATOM      4  C2  OXE d   1      -2.914  -2.126   2.170  0.00  0.00    -0.078 A 
ATOM      5  C3  OXE d   1      -3.245  -1.064   3.008  0.00  0.00     0.003 A 
ATOM      6  C4  OXE d   1      -2.497   0.119   2.982  0.00  0.00    -0.002 A 
ATOM      7  C5  OXE d   1      -1.340   0.211   2.201  0.00  0.00    -0.002 A 
ATOM      8  C6  OXE d   1      -0.935  -0.888   1.452  0.00  0.00     0.003 A 
ENDROOT
TORSDOF 0
ENDMDL
