MODEL 1
REMARK minimizedAffinity 4.59634447
REMARK minimizedRMSD -1
REMARK  0 active torsions:
REMARK  status: ('A' for Active; 'I' for Inactive)
ROOT
ATOM      1  C2' OXE d   1      -0.744   4.521  -3.526  0.00  0.00     0.078 C 
ATOM      2  C1' OXE d   1      -0.680   5.846  -6.000  0.00  0.00     0.078 C 
ATOM      3  C1  OXE d   1      -2.028   5.578  -5.380  0.00  0.00    -0.078 A 
ATOM      4  C2  OXE d   1      -2.052   4.888  -4.192  0.00  0.00    -0.078 A 
ATOM      5  C3  OXE d   1      -3.267   4.663  -3.550  0.00  0.00     0.003 A 
ATOM      6  C4  OXE d   1      -4.473   4.996  -4.178  0.00  0.00    -0.002 A 
ATOM      7  C5  OXE d   1      -4.473   5.664  -5.407  0.00  0.00    -0.002 A 
ATOM      8  C6  OXE d   1      -3.260   6.000  -6.000  0.00  0.00     0.003 A 
ENDROOT
TORSDOF 0
ENDMDL
