MODEL 1
REMARK minimizedAffinity -2.86464787
REMARK minimizedRMSD -1
REMARK  0 active torsions:
REMARK  status: ('A' for Active; 'I' for Inactive)
ROOT
ATOM      1  C2' OXE d   1      -4.896  -1.475   3.001  0.00  0.00     0.078 C 
ATOM      2  C1' OXE d   1      -5.641  -1.175   5.690  0.00  0.00     0.078 C 
ATOM      3  C1  OXE d   1      -4.514  -0.317   5.173  0.00  0.00    -0.078 A 
ATOM      4  C2  OXE d   1      -4.126  -0.504   3.868  0.00  0.00    -0.078 A 
ATOM      5  C3  OXE d   1      -3.128   0.300   3.324  0.00  0.00     0.003 A 
ATOM      6  C4  OXE d   1      -2.413   1.190   4.136  0.00  0.00    -0.002 A 
ATOM      7  C5  OXE d   1      -2.767   1.367   5.478  0.00  0.00    -0.002 A 
ATOM      8  C6  OXE d   1      -3.841   0.654   5.999  0.00  0.00     0.003 A 
ENDROOT
TORSDOF 0
ENDMDL
