MODEL 1
REMARK minimizedAffinity 5.30502081
REMARK minimizedRMSD -1
REMARK  0 active torsions:
REMARK  status: ('A' for Active; 'I' for Inactive)
ROOT
ATOM      1  C2' OXE d   1      -1.159  -2.529   0.373  0.00  0.00     0.078 C 
ATOM      2  C1' OXE d   1       0.655  -0.971   1.844  0.00  0.00     0.078 C 
ATOM      3  C1  OXE d   1      -0.809  -0.858   2.188  0.00  0.00    -0.078 A 
ATOM      4  C2  OXE d   1      -1.694  -1.589   1.431  0.00  0.00    -0.078 A 
ATOM      5  C3  OXE d   1      -3.051  -1.563   1.742  0.00  0.00     0.003 A 
ATOM      6  C4  OXE d   1      -3.538  -0.683   2.716  0.00  0.00    -0.002 A 
ATOM      7  C5  OXE d   1      -2.658   0.099   3.471  0.00  0.00    -0.002 A 
ATOM      8  C6  OXE d   1      -1.290  -0.008   3.249  0.00  0.00     0.003 A 
ENDROOT
TORSDOF 0
ENDMDL
