MODEL 1
REMARK minimizedAffinity 10.9929132
REMARK minimizedRMSD -1
REMARK  0 active torsions:
REMARK  status: ('A' for Active; 'I' for Inactive)
ROOT
ATOM      1  C2' OXE d   1       2.061  -1.323   1.851  0.00  0.00     0.078 C 
ATOM      2  C1' OXE d   1       4.322   0.208   1.203  0.00  0.00     0.078 C 
ATOM      3  C1  OXE d   1       4.141  -1.112   0.496  0.00  0.00    -0.078 A 
ATOM      4  C2  OXE d   1       3.056  -1.876   0.853  0.00  0.00    -0.078 A 
ATOM      5  C3  OXE d   1       2.812  -3.077   0.193  0.00  0.00     0.003 A 
ATOM      6  C4  OXE d   1       3.742  -3.586  -0.721  0.00  0.00    -0.002 A 
ATOM      7  C5  OXE d   1       4.874  -2.842  -1.070  0.00  0.00    -0.002 A 
ATOM      8  C6  OXE d   1       5.066  -1.586  -0.503  0.00  0.00     0.003 A 
ENDROOT
TORSDOF 0
ENDMDL
