MODEL 1
REMARK minimizedAffinity -2.33604336
REMARK minimizedRMSD -1
REMARK  0 active torsions:
REMARK  status: ('A' for Active; 'I' for Inactive)
ROOT
ATOM      1  C2' OXE d   1      -2.638   1.145   5.450  0.00  0.00     0.078 C 
ATOM      2  C1' OXE d   1      -1.628   0.241   2.991  0.00  0.00     0.078 C 
ATOM      3  C1  OXE d   1      -2.886  -0.405   3.515  0.00  0.00    -0.078 A 
ATOM      4  C2  OXE d   1      -3.347   0.011   4.741  0.00  0.00    -0.078 A 
ATOM      5  C3  OXE d   1      -4.534  -0.513   5.245  0.00  0.00     0.003 A 
ATOM      6  C4  OXE d   1      -5.179  -1.568   4.588  0.00  0.00    -0.002 A 
ATOM      7  C5  OXE d   1      -4.704  -2.034   3.358  0.00  0.00    -0.002 A 
ATOM      8  C6  OXE d   1      -3.585  -1.435   2.788  0.00  0.00     0.003 A 
ENDROOT
TORSDOF 0
ENDMDL
