MODEL 1
REMARK minimizedAffinity 2.79812217
REMARK minimizedRMSD -1
REMARK  0 active torsions:
REMARK  status: ('A' for Active; 'I' for Inactive)
ROOT
ATOM      1  C2' OXE d   1      -1.070   0.002   2.609  0.00  0.00     0.078 C 
ATOM      2  C1' OXE d   1      -1.918   0.979   5.101  0.00  0.00     0.078 C 
ATOM      3  C1  OXE d   1      -2.931   0.262   4.244  0.00  0.00    -0.078 A 
ATOM      4  C2  OXE d   1      -2.520  -0.172   3.007  0.00  0.00    -0.078 A 
ATOM      5  C3  OXE d   1      -3.399  -0.888   2.200  0.00  0.00     0.003 A 
ATOM      6  C4  OXE d   1      -4.741  -1.036   2.571  0.00  0.00    -0.002 A 
ATOM      7  C5  OXE d   1      -5.191  -0.567   3.809  0.00  0.00    -0.002 A 
ATOM      8  C6  OXE d   1      -4.291   0.045   4.674  0.00  0.00     0.003 A 
ENDROOT
TORSDOF 0
ENDMDL
