MODEL 1
REMARK minimizedAffinity 1.34339094
REMARK minimizedRMSD -1
REMARK  0 active torsions:
REMARK  status: ('A' for Active; 'I' for Inactive)
ROOT
ATOM      1  C2' OXE d   1      -4.394  -0.779   2.580  0.00  0.00     0.078 C 
ATOM      2  C1' OXE d   1      -6.000  -0.280   4.828  0.00  0.00     0.078 C 
ATOM      3  C1  OXE d   1      -4.571   0.202   4.863  0.00  0.00    -0.078 A 
ATOM      4  C2  OXE d   1      -3.779  -0.088   3.778  0.00  0.00    -0.078 A 
ATOM      5  C3  OXE d   1      -2.469   0.381   3.735  0.00  0.00     0.003 A 
ATOM      6  C4  OXE d   1      -1.905   1.010   4.851  0.00  0.00    -0.002 A 
ATOM      7  C5  OXE d   1      -2.682   1.280   5.983  0.00  0.00    -0.002 A 
ATOM      8  C6  OXE d   1      -4.026   0.921   5.988  0.00  0.00     0.003 A 
ENDROOT
TORSDOF 0
ENDMDL
