MODEL 1
REMARK minimizedAffinity 10.0524473
REMARK minimizedRMSD -1
REMARK  0 active torsions:
REMARK  status: ('A' for Active; 'I' for Inactive)
ROOT
ATOM      1  C2' OXE d   1      -5.975  -1.114   4.538  0.00  0.00     0.078 C 
ATOM      2  C1' OXE d   1      -4.333  -0.750   2.291  0.00  0.00     0.078 C 
ATOM      3  C1  OXE d   1      -3.916  -0.090   3.582  0.00  0.00    -0.078 A 
ATOM      4  C2  OXE d   1      -4.750  -0.236   4.664  0.00  0.00    -0.078 A 
ATOM      5  C3  OXE d   1      -4.384   0.306   5.893  0.00  0.00     0.003 A 
ATOM      6  C4  OXE d   1      -3.254   1.126   5.999  0.00  0.00    -0.002 A 
ATOM      7  C5  OXE d   1      -2.412   1.319   4.899  0.00  0.00    -0.002 A 
ATOM      8  C6  OXE d   1      -2.705   0.685   3.697  0.00  0.00     0.003 A 
ENDROOT
TORSDOF 0
ENDMDL
