MODEL 1
REMARK minimizedAffinity 6.46704721
REMARK minimizedRMSD -1
REMARK  0 active torsions:
REMARK  status: ('A' for Active; 'I' for Inactive)
ROOT
ATOM      1  C2' OXE d   1      -2.143   5.412  -4.646  0.00  0.00     0.078 C 
ATOM      2  C1' OXE d   1      -4.531   6.000  -6.000  0.00  0.00     0.078 C 
ATOM      3  C1  OXE d   1      -4.634   5.404  -4.618  0.00  0.00    -0.078 A 
ATOM      4  C2  OXE d   1      -3.461   5.076  -3.982  0.00  0.00    -0.078 A 
ATOM      5  C3  OXE d   1      -3.497   4.574  -2.684  0.00  0.00     0.003 A 
ATOM      6  C4  OXE d   1      -4.721   4.257  -2.081  0.00  0.00    -0.002 A 
ATOM      7  C5  OXE d   1      -5.927   4.546  -2.728  0.00  0.00    -0.002 A 
ATOM      8  C6  OXE d   1      -5.902   5.157  -3.976  0.00  0.00     0.003 A 
ENDROOT
TORSDOF 0
ENDMDL
