MODEL 1
REMARK minimizedAffinity 10.4547491
REMARK minimizedRMSD -1
REMARK  0 active torsions:
REMARK  status: ('A' for Active; 'I' for Inactive)
ROOT
ATOM      1  C2' OXE d   1      -5.763   5.721  -5.925  0.00  0.00     0.078 C 
ATOM      2  C1' OXE d   1      -5.512   4.367  -3.479  0.00  0.00     0.078 C 
ATOM      3  C1  OXE d   1      -4.250   4.855  -4.146  0.00  0.00    -0.078 A 
ATOM      4  C2  OXE d   1      -4.379   5.475  -5.365  0.00  0.00    -0.078 A 
ATOM      5  C3  OXE d   1      -3.252   5.993  -5.997  0.00  0.00     0.003 A 
ATOM      6  C4  OXE d   1      -1.974   5.753  -5.477  0.00  0.00    -0.002 A 
ATOM      7  C5  OXE d   1      -1.818   5.088  -4.257  0.00  0.00    -0.002 A 
ATOM      8  C6  OXE d   1      -2.946   4.671  -3.559  0.00  0.00     0.003 A 
ENDROOT
TORSDOF 0
ENDMDL
