MODEL 1
REMARK minimizedAffinity -0.970546961
REMARK minimizedRMSD -1
REMARK  0 active torsions:
REMARK  status: ('A' for Active; 'I' for Inactive)
ROOT
ATOM      1  C2' OXE d   1       2.237   1.622   1.080  0.00  0.00     0.078 C 
ATOM      2  C1' OXE d   1       3.169   2.155  -1.513  0.00  0.00     0.078 C 
ATOM      3  C1  OXE d   1       4.019   2.609  -0.353  0.00  0.00    -0.078 A 
ATOM      4  C2  OXE d   1       3.533   2.386   0.912  0.00  0.00    -0.078 A 
ATOM      5  C3  OXE d   1       4.302   2.736   2.018  0.00  0.00     0.003 A 
ATOM      6  C4  OXE d   1       5.495   3.451   1.854  0.00  0.00    -0.002 A 
ATOM      7  C5  OXE d   1       5.989   3.724   0.574  0.00  0.00    -0.002 A 
ATOM      8  C6  OXE d   1       5.286   3.274  -0.538  0.00  0.00     0.003 A 
ENDROOT
TORSDOF 0
ENDMDL
