MODEL 1
REMARK minimizedAffinity 9.09681797
REMARK minimizedRMSD -1
REMARK  0 active torsions:
REMARK  status: ('A' for Active; 'I' for Inactive)
ROOT
ATOM      1  C2' OXE d   1      -2.589   0.855   4.906  0.00  0.00     0.078 C 
ATOM      2  C1' OXE d   1      -4.340  -0.100   2.930  0.00  0.00     0.078 C 
ATOM      3  C1  OXE d   1      -2.864  -0.343   2.739  0.00  0.00    -0.078 A 
ATOM      4  C2  OXE d   1      -2.011   0.168   3.687  0.00  0.00    -0.078 A 
ATOM      5  C3  OXE d   1      -0.644  -0.075   3.587  0.00  0.00     0.003 A 
ATOM      6  C4  OXE d   1      -0.117  -0.702   2.452  0.00  0.00    -0.002 A 
ATOM      7  C5  OXE d   1      -0.965  -1.196   1.455  0.00  0.00    -0.002 A 
ATOM      8  C6  OXE d   1      -2.341  -1.062   1.604  0.00  0.00     0.003 A 
ENDROOT
TORSDOF 0
ENDMDL
