MODEL 1
REMARK minimizedAffinity 7.95939589
REMARK minimizedRMSD -1
REMARK  0 active torsions:
REMARK  status: ('A' for Active; 'I' for Inactive)
ROOT
ATOM      1  C2' OXE d   1      -4.445   0.726   2.996  0.00  0.00     0.078 C 
ATOM      2  C1' OXE d   1      -2.675   0.312   5.135  0.00  0.00     0.078 C 
ATOM      3  C1  OXE d   1      -2.228  -0.116   3.759  0.00  0.00    -0.078 A 
ATOM      4  C2  OXE d   1      -3.119   0.047   2.726  0.00  0.00    -0.078 A 
ATOM      5  C3  OXE d   1      -2.738  -0.280   1.428  0.00  0.00     0.003 A 
ATOM      6  C4  OXE d   1      -1.514  -0.917   1.189  0.00  0.00    -0.002 A 
ATOM      7  C5  OXE d   1      -0.607  -1.129   2.233  0.00  0.00    -0.002 A 
ATOM      8  C6  OXE d   1      -0.931  -0.697   3.515  0.00  0.00     0.003 A 
ENDROOT
TORSDOF 0
ENDMDL
