MODEL 1
REMARK minimizedAffinity 10.4918661
REMARK minimizedRMSD -1
REMARK  0 active torsions:
REMARK  status: ('A' for Active; 'I' for Inactive)
ROOT
ATOM      1  C2' OXE d   1      -1.297  -0.865  -0.422  0.00  0.00     0.078 C 
ATOM      2  C1' OXE d   1       0.372   0.753   1.152  0.00  0.00     0.078 C 
ATOM      3  C1  OXE d   1      -0.811   0.100   1.823  0.00  0.00    -0.078 A 
ATOM      4  C2  OXE d   1      -1.648  -0.652   1.035  0.00  0.00    -0.078 A 
ATOM      5  C3  OXE d   1      -2.723  -1.321   1.613  0.00  0.00     0.003 A 
ATOM      6  C4  OXE d   1      -3.047  -1.111   2.959  0.00  0.00    -0.002 A 
ATOM      7  C5  OXE d   1      -2.230  -0.317   3.771  0.00  0.00    -0.002 A 
ATOM      8  C6  OXE d   1      -1.087   0.260   3.229  0.00  0.00     0.003 A 
ENDROOT
TORSDOF 0
ENDMDL
