MODEL 1
REMARK minimizedAffinity 8.75946903
REMARK minimizedRMSD -1
REMARK  0 active torsions:
REMARK  status: ('A' for Active; 'I' for Inactive)
ROOT
ATOM      1  C2' OXE d   1       2.278   2.301  -2.644  0.00  0.00     0.078 C 
ATOM      2  C1' OXE d   1       3.876   3.039  -4.831  0.00  0.00     0.078 C 
ATOM      3  C1  OXE d   1       4.371   3.385  -3.449  0.00  0.00    -0.078 A 
ATOM      4  C2  OXE d   1       3.561   3.062  -2.388  0.00  0.00    -0.078 A 
ATOM      5  C3  OXE d   1       3.995   3.310  -1.089  0.00  0.00     0.003 A 
ATOM      6  C4  OXE d   1       5.178   4.023  -0.861  0.00  0.00    -0.002 A 
ATOM      7  C5  OXE d   1       5.999   4.397  -1.930  0.00  0.00    -0.002 A 
ATOM      8  C6  OXE d   1       5.632   4.049  -3.225  0.00  0.00     0.003 A 
ENDROOT
TORSDOF 0
ENDMDL
