MODEL 1
REMARK minimizedAffinity 9.41786003
REMARK minimizedRMSD -1
REMARK  0 active torsions:
REMARK  status: ('A' for Active; 'I' for Inactive)
ROOT
ATOM      1  C2' OXE d   1      -0.747   5.709  -5.914  0.00  0.00     0.078 C 
ATOM      2  C1' OXE d   1      -0.887   5.019  -3.196  0.00  0.00     0.078 C 
ATOM      3  C1  OXE d   1      -2.178   5.334  -3.909  0.00  0.00    -0.078 A 
ATOM      4  C2  OXE d   1      -2.096   5.716  -5.227  0.00  0.00    -0.078 A 
ATOM      5  C3  OXE d   1      -3.261   5.964  -5.947  0.00  0.00     0.003 A 
ATOM      6  C4  OXE d   1      -4.503   5.979  -5.301  0.00  0.00    -0.002 A 
ATOM      7  C5  OXE d   1      -4.605   5.631  -3.950  0.00  0.00    -0.002 A 
ATOM      8  C6  OXE d   1      -3.460   5.266  -3.252  0.00  0.00     0.003 A 
ENDROOT
TORSDOF 0
ENDMDL
