MODEL 1
REMARK minimizedAffinity 5.45729494
REMARK minimizedRMSD -1
REMARK  0 active torsions:
REMARK  status: ('A' for Active; 'I' for Inactive)
ROOT
ATOM      1  C2' OXE d   1      -3.793   2.127   4.760  0.00  0.00     0.078 C 
ATOM      2  C1' OXE d   1      -1.722   0.250   4.500  0.00  0.00     0.078 C 
ATOM      3  C1  OXE d   1      -3.057  -0.087   3.885  0.00  0.00    -0.078 A 
ATOM      4  C2  OXE d   1      -4.078   0.817   4.057  0.00  0.00    -0.078 A 
ATOM      5  C3  OXE d   1      -5.315   0.581   3.464  0.00  0.00     0.003 A 
ATOM      6  C4  OXE d   1      -5.573  -0.637   2.824  0.00  0.00    -0.002 A 
ATOM      7  C5  OXE d   1      -4.559  -1.589   2.672  0.00  0.00    -0.002 A 
ATOM      8  C6  OXE d   1      -3.286  -1.311   3.158  0.00  0.00     0.003 A 
ENDROOT
TORSDOF 0
ENDMDL
