MODEL 1
REMARK minimizedAffinity 5.93944454
REMARK minimizedRMSD -1
REMARK  1 active torsions:
REMARK  status: ('A' for Active; 'I' for Inactive)
REMARK    1  A    between atoms: C1_2  and  C2_3 
ROOT
ATOM      1  C2  UNL d   1      -0.189   3.003  -0.546  0.00  0.00    -0.081 A 
ATOM      2  C3  UNL d   1      -0.684   3.925   0.384  0.00  0.00     0.006 A 
ATOM      3  C4  UNL d   1      -0.947   3.533   1.699  0.00  0.00     0.002 A 
ATOM      4  C5  UNL d   1      -0.713   2.216   2.107  0.00  0.00    -0.080 A 
ATOM      5  C6  UNL d   1      -0.962   1.789   3.523  0.00  0.00     0.076 C 
ATOM      6  C7  UNL d   1      -0.235   1.290   1.173  0.00  0.00     0.002 A 
ATOM      7  C8  UNL d   1       0.028   1.682  -0.142  0.00  0.00     0.006 A 
ENDROOT
BRANCH   1   8
ATOM      8  C1  UNL d   1       0.157   3.439  -1.947  0.00  0.00     0.054 C 
ATOM      9  C   UNL d   1      -1.037   3.299  -2.881  0.00  0.00     0.018 C 
ENDBRANCH   1   8
TORSDOF 1
ENDMDL
