MODEL 1
REMARK minimizedAffinity -0.636898696
REMARK minimizedRMSD -1
REMARK  1 active torsions:
REMARK  status: ('A' for Active; 'I' for Inactive)
REMARK    1  A    between atoms: C1_2  and  C2_3 
ROOT
ATOM      1  C2  UNL d   1      -1.976   2.196  -2.338  0.00  0.00    -0.081 A 
ATOM      2  C3  UNL d   1      -1.843   1.717  -1.029  0.00  0.00     0.006 A 
ATOM      3  C4  UNL d   1      -0.950   2.321  -0.140  0.00  0.00     0.002 A 
ATOM      4  C5  UNL d   1      -0.182   3.419  -0.543  0.00  0.00    -0.080 A 
ATOM      5  C6  UNL d   1       0.758   4.096   0.409  0.00  0.00     0.076 C 
ATOM      6  C7  UNL d   1      -0.302   3.887  -1.856  0.00  0.00     0.002 A 
ATOM      7  C8  UNL d   1      -1.194   3.282  -2.745  0.00  0.00     0.006 A 
ENDROOT
BRANCH   1   8
ATOM      8  C1  UNL d   1      -2.984   1.587  -3.278  0.00  0.00     0.054 C 
ATOM      9  C   UNL d   1      -4.346   2.253  -3.136  0.00  0.00     0.018 C 
ENDBRANCH   1   8
TORSDOF 1
ENDMDL
