MODEL 1
REMARK minimizedAffinity 11.7006454
REMARK minimizedRMSD -1
REMARK  1 active torsions:
REMARK  status: ('A' for Active; 'I' for Inactive)
REMARK    1  A    between atoms: C1_2  and  C2_3 
ROOT
ATOM      1  C2  UNL d   1      -0.194   3.737  -1.893  0.00  0.00    -0.081 A 
ATOM      2  C3  UNL d   1      -0.573   2.580  -1.201  0.00  0.00     0.006 A 
ATOM      3  C4  UNL d   1      -0.086   2.334   0.085  0.00  0.00     0.002 A 
ATOM      4  C5  UNL d   1       0.779   3.243   0.703  0.00  0.00    -0.080 A 
ATOM      5  C6  UNL d   1       1.284   3.005   2.096  0.00  0.00     0.076 C 
ATOM      6  C7  UNL d   1       1.171   4.390   0.005  0.00  0.00     0.002 A 
ATOM      7  C8  UNL d   1       0.685   4.637  -1.281  0.00  0.00     0.006 A 
ENDROOT
BRANCH   1   8
ATOM      8  C1  UNL d   1      -0.768   4.038  -3.254  0.00  0.00     0.054 C 
ATOM      9  C   UNL d   1      -1.795   2.992  -3.665  0.00  0.00     0.018 C 
ENDBRANCH   1   8
TORSDOF 1
ENDMDL
