MODEL 1
REMARK minimizedAffinity 13.2640142
REMARK minimizedRMSD -1
REMARK  1 active torsions:
REMARK  status: ('A' for Active; 'I' for Inactive)
REMARK    1  A    between atoms: C1_2  and  C2_3 
ROOT
ATOM      1  C2  UNL d   1       0.153   3.383  -1.082  0.00  0.00    -0.081 A 
ATOM      2  C3  UNL d   1       1.112   4.025  -0.289  0.00  0.00     0.006 A 
ATOM      3  C4  UNL d   1       1.283   3.662   1.049  0.00  0.00     0.002 A 
ATOM      4  C5  UNL d   1       0.505   2.646   1.614  0.00  0.00    -0.080 A 
ATOM      5  C6  UNL d   1       0.699   2.225   3.040  0.00  0.00     0.076 C 
ATOM      6  C7  UNL d   1      -0.465   2.016   0.826  0.00  0.00     0.002 A 
ATOM      7  C8  UNL d   1      -0.638   2.379  -0.511  0.00  0.00     0.006 A 
ENDROOT
BRANCH   1   8
ATOM      8  C1  UNL d   1       0.010   3.728  -2.542  0.00  0.00     0.054 C 
ATOM      9  C   UNL d   1      -1.444   3.668  -2.986  0.00  0.00     0.018 C 
ENDBRANCH   1   8
TORSDOF 1
ENDMDL
