MODEL 1
REMARK minimizedAffinity -1.63864279
REMARK minimizedRMSD -1
REMARK  1 active torsions:
REMARK  status: ('A' for Active; 'I' for Inactive)
REMARK    1  A    between atoms: C1_2  and  C2_3 
ROOT
ATOM      1  C2  UNL d   1      -0.731   2.297   1.986  0.00  0.00    -0.081 A 
ATOM      2  C3  UNL d   1      -1.346   2.193   0.733  0.00  0.00     0.006 A 
ATOM      3  C4  UNL d   1      -0.745   2.748  -0.399  0.00  0.00     0.002 A 
ATOM      4  C5  UNL d   1       0.484   3.409  -0.298  0.00  0.00    -0.080 A 
ATOM      5  C6  UNL d   1       1.155   3.983  -1.511  0.00  0.00     0.076 C 
ATOM      6  C7  UNL d   1       1.091   3.528   0.957  0.00  0.00     0.002 A 
ATOM      7  C8  UNL d   1       0.490   2.974   2.089  0.00  0.00     0.006 A 
ENDROOT
BRANCH   1   8
ATOM      8  C1  UNL d   1      -1.345   1.644   3.198  0.00  0.00     0.054 C 
ATOM      9  C   UNL d   1      -0.890   2.322   4.483  0.00  0.00     0.018 C 
ENDBRANCH   1   8
TORSDOF 1
ENDMDL
