MODEL 1
REMARK minimizedAffinity 5.14535618
REMARK minimizedRMSD -1
REMARK  1 active torsions:
REMARK  status: ('A' for Active; 'I' for Inactive)
REMARK    1  A    between atoms: C1_2  and  C2_3 
ROOT
ATOM      1  C2  UNL d   1      -5.988  -2.149   0.574  0.00  0.00    -0.081 A 
ATOM      2  C3  UNL d   1      -5.994  -2.032   1.970  0.00  0.00     0.006 A 
ATOM      3  C4  UNL d   1      -5.997  -3.173   2.775  0.00  0.00     0.002 A 
ATOM      4  C5  UNL d   1      -5.986  -4.448   2.200  0.00  0.00    -0.080 A 
ATOM      5  C6  UNL d   1      -5.958  -5.681   3.054  0.00  0.00     0.076 C 
ATOM      6  C7  UNL d   1      -5.997  -4.565   0.806  0.00  0.00     0.002 A 
ATOM      7  C8  UNL d   1      -5.995  -3.425  -0.000  0.00  0.00     0.006 A 
ENDROOT
BRANCH   1   8
ATOM      8  C1  UNL d   1      -5.919  -0.921  -0.297  0.00  0.00     0.054 C 
ATOM      9  C   UNL d   1      -5.604   0.322   0.522  0.00  0.00     0.018 C 
ENDBRANCH   1   8
TORSDOF 1
ENDMDL
