MODEL 1
REMARK minimizedAffinity 21.9529915
REMARK minimizedRMSD -1
REMARK  1 active torsions:
REMARK  status: ('A' for Active; 'I' for Inactive)
REMARK    1  A    between atoms: C1_2  and  C2_3 
ROOT
ATOM      1  C2  UNL d   1      -3.598   5.254  -1.204  0.00  0.00    -0.081 A 
ATOM      2  C3  UNL d   1      -2.757   5.096  -0.095  0.00  0.00     0.006 A 
ATOM      3  C4  UNL d   1      -3.230   5.349   1.195  0.00  0.00     0.002 A 
ATOM      4  C5  UNL d   1      -4.553   5.755   1.398  0.00  0.00    -0.080 A 
ATOM      5  C6  UNL d   1      -5.083   5.999   2.780  0.00  0.00     0.076 C 
ATOM      6  C7  UNL d   1      -5.389   5.929   0.290  0.00  0.00     0.002 A 
ATOM      7  C8  UNL d   1      -4.916   5.678  -1.000  0.00  0.00     0.006 A 
ENDROOT
BRANCH   1   8
ATOM      8  C1  UNL d   1      -3.110   4.921  -2.590  0.00  0.00     0.054 C 
ATOM      9  C   UNL d   1      -1.783   4.177  -2.545  0.00  0.00     0.018 C 
ENDBRANCH   1   8
TORSDOF 1
ENDMDL
