MODEL 1
REMARK minimizedAffinity -1.3081665
REMARK minimizedRMSD -1
REMARK  1 active torsions:
REMARK  status: ('A' for Active; 'I' for Inactive)
REMARK    1  A    between atoms: C1_2  and  C2_3 
ROOT
ATOM      1  C2  UNL d   1      -0.506   2.136   1.970  0.00  0.00    -0.081 A 
ATOM      2  C3  UNL d   1      -0.879   1.501   0.778  0.00  0.00     0.006 A 
ATOM      3  C4  UNL d   1      -0.620   2.103  -0.455  0.00  0.00     0.002 A 
ATOM      4  C5  UNL d   1       0.023   3.344  -0.519  0.00  0.00    -0.080 A 
ATOM      5  C6  UNL d   1       0.334   3.987  -1.838  0.00  0.00     0.076 C 
ATOM      6  C7  UNL d   1       0.379   3.986   0.672  0.00  0.00     0.002 A 
ATOM      7  C8  UNL d   1       0.120   3.386   1.906  0.00  0.00     0.006 A 
ENDROOT
BRANCH   1   8
ATOM      8  C1  UNL d   1      -0.726   1.460   3.299  0.00  0.00     0.054 C 
ATOM      9  C   UNL d   1      -1.962   0.572   3.271  0.00  0.00     0.018 C 
ENDBRANCH   1   8
TORSDOF 1
ENDMDL
