MODEL 1
REMARK minimizedAffinity 15.9221706
REMARK minimizedRMSD -1
REMARK  1 active torsions:
REMARK  status: ('A' for Active; 'I' for Inactive)
REMARK    1  A    between atoms: C1_2  and  C2_3 
ROOT
ATOM      1  C2  UNL d   1      -1.927   5.225   0.564  0.00  0.00    -0.081 A 
ATOM      2  C3  UNL d   1      -1.715   5.922  -0.632  0.00  0.00     0.006 A 
ATOM      3  C4  UNL d   1      -0.772   5.468  -1.557  0.00  0.00     0.002 A 
ATOM      4  C5  UNL d   1      -0.032   4.308  -1.306  0.00  0.00    -0.080 A 
ATOM      5  C6  UNL d   1       0.962   3.794  -2.304  0.00  0.00     0.076 C 
ATOM      6  C7  UNL d   1      -0.231   3.622  -0.103  0.00  0.00     0.002 A 
ATOM      7  C8  UNL d   1      -1.174   4.075   0.823  0.00  0.00     0.006 A 
ENDROOT
BRANCH   1   8
ATOM      8  C1  UNL d   1      -2.989   5.675   1.535  0.00  0.00     0.054 C 
ATOM      9  C   UNL d   1      -4.293   5.997   0.818  0.00  0.00     0.018 C 
ENDBRANCH   1   8
TORSDOF 1
ENDMDL
