MODEL 1
REMARK minimizedAffinity -1.02890873
REMARK minimizedRMSD -1
REMARK  1 active torsions:
REMARK  status: ('A' for Active; 'I' for Inactive)
REMARK    1  A    between atoms: C1_2  and  C2_3 
ROOT
ATOM      1  C2  UNL d   1      -0.778   2.240   1.789  0.00  0.00    -0.081 A 
ATOM      2  C3  UNL d   1      -0.952   2.087   0.408  0.00  0.00     0.006 A 
ATOM      3  C4  UNL d   1      -0.281   2.924  -0.488  0.00  0.00     0.002 A 
ATOM      4  C5  UNL d   1       0.580   3.921  -0.018  0.00  0.00    -0.080 A 
ATOM      5  C6  UNL d   1       1.330   4.805  -0.969  0.00  0.00     0.076 C 
ATOM      6  C7  UNL d   1       0.741   4.085   1.362  0.00  0.00     0.002 A 
ATOM      7  C8  UNL d   1       0.069   3.250   2.258  0.00  0.00     0.006 A 
ENDROOT
BRANCH   1   8
ATOM      8  C1  UNL d   1      -1.450   1.298   2.755  0.00  0.00     0.054 C 
ATOM      9  C   UNL d   1      -2.894   1.032   2.354  0.00  0.00     0.018 C 
ENDBRANCH   1   8
TORSDOF 1
ENDMDL
