MODEL 1
REMARK minimizedAffinity -5.44495106
REMARK minimizedRMSD -1
REMARK  1 active torsions:
REMARK  status: ('A' for Active; 'I' for Inactive)
REMARK    1  A    between atoms: C1_2  and  C2_3 
ROOT
ATOM      1  C2  UNL d   1       0.353   3.844   0.735  0.00  0.00    -0.081 A 
ATOM      2  C3  UNL d   1       0.843   3.708   2.040  0.00  0.00     0.006 A 
ATOM      3  C4  UNL d   1       0.349   2.709   2.881  0.00  0.00     0.002 A 
ATOM      4  C5  UNL d   1      -0.637   1.824   2.429  0.00  0.00    -0.080 A 
ATOM      5  C6  UNL d   1      -1.154   0.727   3.312  0.00  0.00     0.076 C 
ATOM      6  C7  UNL d   1      -1.138   1.970   1.132  0.00  0.00     0.002 A 
ATOM      7  C8  UNL d   1      -0.645   2.970   0.290  0.00  0.00     0.006 A 
ENDROOT
BRANCH   1   8
ATOM      8  C1  UNL d   1       0.929   4.880  -0.196  0.00  0.00     0.054 C 
ATOM      9  C   UNL d   1      -0.166   5.597  -0.972  0.00  0.00     0.018 C 
ENDBRANCH   1   8
TORSDOF 1
ENDMDL
