MODEL 1
REMARK minimizedAffinity 2.65368748
REMARK minimizedRMSD -1
REMARK  1 active torsions:
REMARK  status: ('A' for Active; 'I' for Inactive)
REMARK    1  A    between atoms: C1_2  and  C2_3 
ROOT
ATOM      1  C2  UNL d   1      -1.980  -0.075   3.508  0.00  0.00    -0.081 A 
ATOM      2  C3  UNL d   1      -2.707   0.353   2.390  0.00  0.00     0.006 A 
ATOM      3  C4  UNL d   1      -2.171   1.306   1.520  0.00  0.00     0.002 A 
ATOM      4  C5  UNL d   1      -0.898   1.839   1.748  0.00  0.00    -0.080 A 
ATOM      5  C6  UNL d   1      -0.299   2.840   0.805  0.00  0.00     0.076 C 
ATOM      6  C7  UNL d   1      -0.180   1.424   2.874  0.00  0.00     0.002 A 
ATOM      7  C8  UNL d   1      -0.715   0.473   3.745  0.00  0.00     0.006 A 
ENDROOT
BRANCH   1   8
ATOM      8  C1  UNL d   1      -2.528  -1.149   4.412  0.00  0.00     0.054 C 
ATOM      9  C   UNL d   1      -1.570  -2.328   4.515  0.00  0.00     0.018 C 
ENDBRANCH   1   8
TORSDOF 1
ENDMDL
