MODEL 1
REMARK minimizedAffinity 3.45488811
REMARK minimizedRMSD -1
REMARK  1 active torsions:
REMARK  status: ('A' for Active; 'I' for Inactive)
REMARK    1  A    between atoms: C1_2  and  C2_3 
ROOT
ATOM      1  C2  UNL d   1      -1.366  -0.286   3.066  0.00  0.00    -0.081 A 
ATOM      2  C3  UNL d   1      -0.251  -0.964   2.558  0.00  0.00     0.006 A 
ATOM      3  C4  UNL d   1      -0.035  -2.307   2.875  0.00  0.00     0.002 A 
ATOM      4  C5  UNL d   1      -0.932  -2.996   3.698  0.00  0.00    -0.080 A 
ATOM      5  C6  UNL d   1      -0.728  -4.446   4.021  0.00  0.00     0.076 C 
ATOM      6  C7  UNL d   1      -2.037  -2.314   4.219  0.00  0.00     0.002 A 
ATOM      7  C8  UNL d   1      -2.254  -0.971   3.903  0.00  0.00     0.006 A 
ENDROOT
BRANCH   1   8
ATOM      8  C1  UNL d   1      -1.637   1.144   2.674  0.00  0.00     0.054 C 
ATOM      9  C   UNL d   1      -0.466   2.048   3.031  0.00  0.00     0.018 C 
ENDBRANCH   1   8
TORSDOF 1
ENDMDL
