MODEL 1
REMARK minimizedAffinity 5.98311186
REMARK minimizedRMSD -1
REMARK  1 active torsions:
REMARK  status: ('A' for Active; 'I' for Inactive)
REMARK    1  A    between atoms: C1_2  and  C2_3 
ROOT
ATOM      1  C2  UNL d   1      -4.005   3.273  -5.321  0.00  0.00    -0.073 A 
ATOM      2  C3  UNL d   1      -5.105   2.728  -5.992  0.00  0.00    -0.002 A 
ATOM      3  C4  UNL d   1      -5.925   1.794  -5.357  0.00  0.00     0.004 A 
ATOM      4  C5  UNL d   1      -5.659   1.401  -4.046  0.00  0.00    -0.004 A 
ATOM      5  C6  UNL d   1      -4.571   1.944  -3.354  0.00  0.00    -0.075 A 
ATOM      6  C7  UNL d   1      -4.269   1.531  -1.944  0.00  0.00     0.076 C 
ATOM      7  C8  UNL d   1      -3.750   2.880  -3.999  0.00  0.00     0.001 A 
ENDROOT
BRANCH   1   8
ATOM      8  C1  UNL d   1      -3.120   4.287  -5.999  0.00  0.00     0.053 C 
ATOM      9  C   UNL d   1      -1.842   4.543  -5.216  0.00  0.00     0.018 C 
ENDBRANCH   1   8
TORSDOF 1
ENDMDL
