MODEL 1
REMARK minimizedAffinity 4.28189754
REMARK minimizedRMSD -1
REMARK  1 active torsions:
REMARK  status: ('A' for Active; 'I' for Inactive)
REMARK    1  A    between atoms: C1_2  and  C2_3 
ROOT
ATOM      1  C2  UNL d   1      -3.862   2.893  -3.863  0.00  0.00    -0.073 A 
ATOM      2  C3  UNL d   1      -4.415   1.648  -4.182  0.00  0.00    -0.002 A 
ATOM      3  C4  UNL d   1      -5.481   1.558  -5.078  0.00  0.00     0.004 A 
ATOM      4  C5  UNL d   1      -5.999   2.710  -5.669  0.00  0.00    -0.004 A 
ATOM      5  C6  UNL d   1      -5.452   3.963  -5.373  0.00  0.00    -0.075 A 
ATOM      6  C7  UNL d   1      -5.999   5.211  -5.999  0.00  0.00     0.076 C 
ATOM      7  C8  UNL d   1      -4.383   4.044  -4.470  0.00  0.00     0.001 A 
ENDROOT
BRANCH   1   8
ATOM      8  C1  UNL d   1      -2.706   2.994  -2.901  0.00  0.00     0.053 C 
ATOM      9  C   UNL d   1      -2.697   1.849  -1.900  0.00  0.00     0.018 C 
ENDBRANCH   1   8
TORSDOF 1
ENDMDL
