MODEL 1
REMARK minimizedAffinity 9.7471714
REMARK minimizedRMSD -1
REMARK  1 active torsions:
REMARK  status: ('A' for Active; 'I' for Inactive)
REMARK    1  A    between atoms: C1_2  and  C2_3 
ROOT
ATOM      1  C2  UNL d   1      -4.401   1.749  -3.665  0.00  0.00    -0.073 A 
ATOM      2  C3  UNL d   1      -4.807   0.549  -4.260  0.00  0.00    -0.002 A 
ATOM      3  C4  UNL d   1      -5.601   0.564  -5.407  0.00  0.00     0.004 A 
ATOM      4  C5  UNL d   1      -5.992   1.776  -5.975  0.00  0.00    -0.004 A 
ATOM      5  C6  UNL d   1      -5.586   2.986  -5.403  0.00  0.00    -0.075 A 
ATOM      6  C7  UNL d   1      -5.999   4.299  -6.000  0.00  0.00     0.076 C 
ATOM      7  C8  UNL d   1      -4.791   2.963  -4.249  0.00  0.00     0.001 A 
ENDROOT
BRANCH   1   8
ATOM      8  C1  UNL d   1      -3.538   1.738  -2.430  0.00  0.00     0.053 C 
ATOM      9  C   UNL d   1      -4.239   1.083  -1.251  0.00  0.00     0.018 C 
ENDBRANCH   1   8
TORSDOF 1
ENDMDL
