MODEL 1
REMARK minimizedAffinity 10.8025093
REMARK minimizedRMSD -1
REMARK  1 active torsions:
REMARK  status: ('A' for Active; 'I' for Inactive)
REMARK    1  A    between atoms: C1_2  and  C2_3 
ROOT
ATOM      1  C2  UNL d   1       0.298   1.943   1.332  0.00  0.00    -0.073 A 
ATOM      2  C3  UNL d   1      -0.390   2.643   0.335  0.00  0.00    -0.002 A 
ATOM      3  C4  UNL d   1      -0.875   1.973  -0.790  0.00  0.00     0.004 A 
ATOM      4  C5  UNL d   1      -0.682   0.599  -0.926  0.00  0.00    -0.004 A 
ATOM      5  C6  UNL d   1      -0.007  -0.121   0.066  0.00  0.00    -0.075 A 
ATOM      6  C7  UNL d   1       0.211  -1.599  -0.066  0.00  0.00     0.076 C 
ATOM      7  C8  UNL d   1       0.479   0.559   1.191  0.00  0.00     0.001 A 
ENDROOT
BRANCH   1   8
ATOM      8  C1  UNL d   1       0.817   2.660   2.551  0.00  0.00     0.053 C 
ATOM      9  C   UNL d   1       0.810   4.169   2.371  0.00  0.00     0.018 C 
ENDBRANCH   1   8
TORSDOF 1
ENDMDL
