MODEL 1
REMARK minimizedAffinity 3.83335757
REMARK minimizedRMSD -1
REMARK  1 active torsions:
REMARK  status: ('A' for Active; 'I' for Inactive)
REMARK    1  A    between atoms: C1_2  and  C2_3 
ROOT
ATOM      1  C2  UNL d   1       0.460   1.153  -0.012  0.00  0.00    -0.073 A 
ATOM      2  C3  UNL d   1      -0.889   1.356  -0.324  0.00  0.00    -0.002 A 
ATOM      3  C4  UNL d   1      -1.639   2.304   0.373  0.00  0.00     0.004 A 
ATOM      4  C5  UNL d   1      -1.047   3.063   1.382  0.00  0.00    -0.004 A 
ATOM      5  C6  UNL d   1       0.303   2.884   1.700  0.00  0.00    -0.075 A 
ATOM      6  C7  UNL d   1       0.955   3.691   2.785  0.00  0.00     0.076 C 
ATOM      7  C8  UNL d   1       1.049   1.928   0.997  0.00  0.00     0.001 A 
ENDROOT
BRANCH   1   8
ATOM      8  C1  UNL d   1       1.275   0.135  -0.767  0.00  0.00     0.053 C 
ATOM      9  C   UNL d   1       1.401   0.484  -2.241  0.00  0.00     0.018 C 
ENDBRANCH   1   8
TORSDOF 1
ENDMDL
