MODEL 1
REMARK minimizedAffinity 7.67574406
REMARK minimizedRMSD -1
REMARK  1 active torsions:
REMARK  status: ('A' for Active; 'I' for Inactive)
REMARK    1  A    between atoms: C1_2  and  C2_3 
ROOT
ATOM      1  C2  UNL d   1       0.154   1.498  -1.084  0.00  0.00    -0.073 A 
ATOM      2  C3  UNL d   1      -0.222   0.319  -0.431  0.00  0.00    -0.002 A 
ATOM      3  C4  UNL d   1      -0.266   0.269   0.963  0.00  0.00     0.004 A 
ATOM      4  C5  UNL d   1       0.057   1.397   1.717  0.00  0.00    -0.004 A 
ATOM      5  C6  UNL d   1       0.423   2.588   1.082  0.00  0.00    -0.075 A 
ATOM      6  C7  UNL d   1       0.776   3.810   1.878  0.00  0.00     0.076 C 
ATOM      7  C8  UNL d   1       0.468   2.630  -0.318  0.00  0.00     0.001 A 
ENDROOT
BRANCH   1   8
ATOM      8  C1  UNL d   1       0.198   1.558  -2.589  0.00  0.00     0.053 C 
ATOM      9  C   UNL d   1       1.279   0.657  -3.165  0.00  0.00     0.018 C 
ENDBRANCH   1   8
TORSDOF 1
ENDMDL
