MODEL 1
REMARK minimizedAffinity 7.2150712
REMARK minimizedRMSD -1
REMARK  1 active torsions:
REMARK  status: ('A' for Active; 'I' for Inactive)
REMARK    1  A    between atoms: C1_2  and  C2_3 
ROOT
ATOM      1  C2  UNL d   1      -4.320   2.336  -3.754  0.00  0.00    -0.073 A 
ATOM      2  C3  UNL d   1      -4.778   1.152  -4.343  0.00  0.00    -0.002 A 
ATOM      3  C4  UNL d   1      -5.616   1.197  -5.458  0.00  0.00     0.004 A 
ATOM      4  C5  UNL d   1      -5.999   2.425  -5.999  0.00  0.00    -0.004 A 
ATOM      5  C6  UNL d   1      -5.543   3.619  -5.431  0.00  0.00    -0.075 A 
ATOM      6  C7  UNL d   1      -5.947   4.947  -6.000  0.00  0.00     0.076 C 
ATOM      7  C8  UNL d   1      -4.703   3.565  -4.310  0.00  0.00     0.001 A 
ENDROOT
BRANCH   1   8
ATOM      8  C1  UNL d   1      -3.410   2.292  -2.554  0.00  0.00     0.053 C 
ATOM      9  C   UNL d   1      -1.952   2.488  -2.937  0.00  0.00     0.018 C 
ENDBRANCH   1   8
TORSDOF 1
ENDMDL
