MODEL 1
REMARK minimizedAffinity 4.12039757
REMARK minimizedRMSD -1
REMARK  1 active torsions:
REMARK  status: ('A' for Active; 'I' for Inactive)
REMARK    1  A    between atoms: C1_2  and  C2_3 
ROOT
ATOM      1  C2  UNL d   1       0.128   1.552  -0.946  0.00  0.00    -0.073 A 
ATOM      2  C3  UNL d   1      -0.160   2.747  -0.276  0.00  0.00    -0.002 A 
ATOM      3  C4  UNL d   1       0.066   2.858   1.096  0.00  0.00     0.004 A 
ATOM      4  C5  UNL d   1       0.587   1.779   1.811  0.00  0.00    -0.004 A 
ATOM      5  C6  UNL d   1       0.892   0.581   1.158  0.00  0.00    -0.075 A 
ATOM      6  C7  UNL d   1       1.451  -0.589   1.913  0.00  0.00     0.076 C 
ATOM      7  C8  UNL d   1       0.660   0.476  -0.220  0.00  0.00     0.001 A 
ENDROOT
BRANCH   1   8
ATOM      8  C1  UNL d   1      -0.108   1.430  -2.429  0.00  0.00     0.053 C 
ATOM      9  C   UNL d   1       1.156   1.038  -3.177  0.00  0.00     0.018 C 
ENDBRANCH   1   8
TORSDOF 1
ENDMDL
