MODEL 1
REMARK minimizedAffinity 3.55702996
REMARK minimizedRMSD -1
REMARK  1 active torsions:
REMARK  status: ('A' for Active; 'I' for Inactive)
REMARK    1  A    between atoms: C1_2  and  C2_3 
ROOT
ATOM      1  C2  UNL d   1       0.036   2.266   1.215  0.00  0.00    -0.073 A 
ATOM      2  C3  UNL d   1       0.069   0.959   1.714  0.00  0.00    -0.002 A 
ATOM      3  C4  UNL d   1      -0.108  -0.128   0.857  0.00  0.00     0.004 A 
ATOM      4  C5  UNL d   1      -0.313   0.080  -0.507  0.00  0.00    -0.004 A 
ATOM      5  C6  UNL d   1      -0.337   1.378  -1.027  0.00  0.00    -0.075 A 
ATOM      6  C7  UNL d   1      -0.558   1.619  -2.491  0.00  0.00     0.076 C 
ATOM      7  C8  UNL d   1      -0.161   2.465  -0.159  0.00  0.00     0.001 A 
ENDROOT
BRANCH   1   8
ATOM      8  C1  UNL d   1       0.233   3.442   2.136  0.00  0.00     0.053 C 
ATOM      9  C   UNL d   1       0.884   4.619   1.426  0.00  0.00     0.018 C 
ENDBRANCH   1   8
TORSDOF 1
ENDMDL
