MODEL 1
REMARK minimizedAffinity 8.44434452
REMARK minimizedRMSD -1
REMARK  1 active torsions:
REMARK  status: ('A' for Active; 'I' for Inactive)
REMARK    1  A    between atoms: C1_2  and  C2_3 
ROOT
ATOM      1  C2  UNL d   1       1.203  -0.317   0.084  0.00  0.00    -0.073 A 
ATOM      2  C3  UNL d   1       1.399   0.306  -1.153  0.00  0.00    -0.002 A 
ATOM      3  C4  UNL d   1       1.054   1.646  -1.330  0.00  0.00     0.004 A 
ATOM      4  C5  UNL d   1       0.517   2.378  -0.271  0.00  0.00    -0.004 A 
ATOM      5  C6  UNL d   1       0.324   1.776   0.977  0.00  0.00    -0.075 A 
ATOM      6  C7  UNL d   1      -0.254   2.549   2.125  0.00  0.00     0.076 C 
ATOM      7  C8  UNL d   1       0.671   0.429   1.146  0.00  0.00     0.001 A 
ENDROOT
BRANCH   1   8
ATOM      8  C1  UNL d   1       1.580  -1.763   0.282  0.00  0.00     0.053 C 
ATOM      9  C   UNL d   1       0.708  -2.697  -0.542  0.00  0.00     0.018 C 
ENDBRANCH   1   8
TORSDOF 1
ENDMDL
