MODEL 1
REMARK minimizedAffinity 8.18700981
REMARK minimizedRMSD -1
REMARK  1 active torsions:
REMARK  status: ('A' for Active; 'I' for Inactive)
REMARK    1  A    between atoms: C1_2  and  C2_3 
ROOT
ATOM      1  C2  UNL d   1       0.339   1.036  -1.645  0.00  0.00    -0.073 A 
ATOM      2  C3  UNL d   1       0.396  -0.289  -1.196  0.00  0.00    -0.002 A 
ATOM      3  C4  UNL d   1       0.315  -0.575   0.168  0.00  0.00     0.004 A 
ATOM      4  C5  UNL d   1       0.171   0.458   1.094  0.00  0.00    -0.004 A 
ATOM      5  C6  UNL d   1       0.101   1.787   0.664  0.00  0.00    -0.075 A 
ATOM      6  C7  UNL d   1      -0.052   2.909   1.648  0.00  0.00     0.076 C 
ATOM      7  C8  UNL d   1       0.185   2.066  -0.706  0.00  0.00     0.001 A 
ENDROOT
BRANCH   1   8
ATOM      8  C1  UNL d   1       0.419   1.349  -3.117  0.00  0.00     0.053 C 
ATOM      9  C   UNL d   1       1.248   0.323  -3.874  0.00  0.00     0.018 C 
ENDBRANCH   1   8
TORSDOF 1
ENDMDL
