MODEL 1
REMARK minimizedAffinity 6.31134796
REMARK minimizedRMSD -1
REMARK  1 active torsions:
REMARK  status: ('A' for Active; 'I' for Inactive)
REMARK    1  A    between atoms: C1_2  and  C2_3 
ROOT
ATOM      1  C2  UNL d   1       0.280   2.296   0.853  0.00  0.00    -0.073 A 
ATOM      2  C3  UNL d   1       0.282   2.412   2.248  0.00  0.00    -0.002 A 
ATOM      3  C4  UNL d   1       0.633   3.620   2.854  0.00  0.00     0.004 A 
ATOM      4  C5  UNL d   1       0.977   4.723   2.074  0.00  0.00    -0.004 A 
ATOM      5  C6  UNL d   1       0.969   4.630   0.678  0.00  0.00    -0.075 A 
ATOM      6  C7  UNL d   1       1.340   5.807  -0.176  0.00  0.00     0.076 C 
ATOM      7  C8  UNL d   1       0.619   3.413   0.077  0.00  0.00     0.001 A 
ENDROOT
BRANCH   1   8
ATOM      8  C1  UNL d   1      -0.104   0.997   0.194  0.00  0.00     0.053 C 
ATOM      9  C   UNL d   1       1.109   0.239  -0.321  0.00  0.00     0.018 C 
ENDBRANCH   1   8
TORSDOF 1
ENDMDL
