MODEL 1
REMARK minimizedAffinity 1.94692326
REMARK minimizedRMSD -1
REMARK  1 active torsions:
REMARK  status: ('A' for Active; 'I' for Inactive)
REMARK    1  A    between atoms: C1_2  and  C2_3 
ROOT
ATOM      1  C2  UNL d   1      -2.719   2.964  -4.917  0.00  0.00    -0.073 A 
ATOM      2  C3  UNL d   1      -2.998   1.610  -5.136  0.00  0.00    -0.002 A 
ATOM      3  C4  UNL d   1      -4.246   1.217  -5.623  0.00  0.00     0.004 A 
ATOM      4  C5  UNL d   1      -5.223   2.172  -5.903  0.00  0.00    -0.004 A 
ATOM      5  C6  UNL d   1      -4.959   3.531  -5.702  0.00  0.00    -0.075 A 
ATOM      6  C7  UNL d   1      -6.000   4.571  -5.996  0.00  0.00     0.076 C 
ATOM      7  C8  UNL d   1      -3.705   3.917  -5.210  0.00  0.00     0.001 A 
ENDROOT
BRANCH   1   8
ATOM      8  C1  UNL d   1      -1.372   3.393  -4.397  0.00  0.00     0.053 C 
ATOM      9  C   UNL d   1      -0.598   2.233  -3.792  0.00  0.00     0.018 C 
ENDBRANCH   1   8
TORSDOF 1
ENDMDL
