MODEL 1
REMARK minimizedAffinity 10.3202152
REMARK minimizedRMSD -1
REMARK  0 active torsions:
REMARK  status: ('A' for Active; 'I' for Inactive)
ROOT
ATOM      1  C4' PXY d   1       1.054   4.660   5.440  0.00  0.00     0.077 C 
ATOM      2  C1' PXY d   1      -0.135   1.589   0.689  0.00  0.00     0.077 C 
ATOM      3  C1  PXY d   1       0.175   2.384   1.943  0.00  0.00    -0.082 A 
ATOM      4  C2  PXY d   1       0.051   3.701   1.929  0.00  0.00     0.003 A 
ATOM      5  C3  PXY d   1       0.357   4.438   3.044  0.00  0.00     0.003 A 
ATOM      6  C4  PXY d   1       0.744   3.816   4.201  0.00  0.00    -0.082 A 
ATOM      7  C5  PXY d   1       0.862   2.471   4.226  0.00  0.00     0.003 A 
ATOM      8  C6  PXY d   1       0.586   1.745   3.071  0.00  0.00     0.003 A 
ENDROOT
TORSDOF 0
ENDMDL
