MODEL 1
REMARK minimizedAffinity 5.54941988
REMARK minimizedRMSD -1
REMARK  0 active torsions:
REMARK  status: ('A' for Active; 'I' for Inactive)
ROOT
ATOM      1  C4' PXY d   1      -2.589   2.526  -2.303  0.00  0.00     0.077 C 
ATOM      2  C1' PXY d   1       0.934  -0.350   1.264  0.00  0.00     0.077 C 
ATOM      3  C1  PXY d   1       0.004   0.393   0.327  0.00  0.00    -0.082 A 
ATOM      4  C2  PXY d   1       0.417   1.504  -0.260  0.00  0.00     0.003 A 
ATOM      5  C3  PXY d   1      -0.422   2.207  -1.086  0.00  0.00     0.003 A 
ATOM      6  C4  PXY d   1      -1.680   1.738  -1.356  0.00  0.00    -0.082 A 
ATOM      7  C5  PXY d   1      -2.106   0.599  -0.769  0.00  0.00     0.003 A 
ATOM      8  C6  PXY d   1      -1.253  -0.077   0.098  0.00  0.00     0.003 A 
ENDROOT
TORSDOF 0
ENDMDL
