MODEL 1
REMARK minimizedAffinity -0.370162755
REMARK minimizedRMSD -1
REMARK  0 active torsions:
REMARK  status: ('A' for Active; 'I' for Inactive)
ROOT
ATOM      1  C4' PXY d   1       0.726   1.496  -2.055  0.00  0.00     0.077 C 
ATOM      2  C1' PXY d   1       0.357   4.205   3.039  0.00  0.00     0.077 C 
ATOM      3  C1  PXY d   1       0.455   3.483   1.709  0.00  0.00    -0.082 A 
ATOM      4  C2  PXY d   1       0.880   4.137   0.640  0.00  0.00     0.003 A 
ATOM      5  C3  PXY d   1       0.944   3.508  -0.577  0.00  0.00     0.003 A 
ATOM      6  C4  PXY d   1       0.620   2.182  -0.690  0.00  0.00    -0.082 A 
ATOM      7  C5  PXY d   1       0.196   1.506   0.399  0.00  0.00     0.003 A 
ATOM      8  C6  PXY d   1       0.099   2.174   1.616  0.00  0.00     0.003 A 
ENDROOT
TORSDOF 0
ENDMDL
