MODEL 1
REMARK minimizedAffinity 0.498995453
REMARK minimizedRMSD -1
REMARK  0 active torsions:
REMARK  status: ('A' for Active; 'I' for Inactive)
ROOT
ATOM      1  C4' PXY d   1      -0.278  -0.107   2.163  0.00  0.00     0.077 C 
ATOM      2  C1' PXY d   1       1.213   5.155   4.034  0.00  0.00     0.077 C 
ATOM      3  C1  PXY d   1       0.823   3.771   3.555  0.00  0.00    -0.082 A 
ATOM      4  C2  PXY d   1       1.040   3.429   2.296  0.00  0.00     0.003 A 
ATOM      5  C3  PXY d   1       0.664   2.192   1.838  0.00  0.00     0.003 A 
ATOM      6  C4  PXY d   1       0.108   1.277   2.692  0.00  0.00    -0.082 A 
ATOM      7  C5  PXY d   1      -0.106   1.615   3.981  0.00  0.00     0.003 A 
ATOM      8  C6  PXY d   1       0.245   2.889   4.416  0.00  0.00     0.003 A 
ENDROOT
TORSDOF 0
ENDMDL
