MODEL 1
REMARK minimizedAffinity 3.84959269
REMARK minimizedRMSD -1
REMARK  0 active torsions:
REMARK  status: ('A' for Active; 'I' for Inactive)
ROOT
ATOM      1  C4' PXY d   1       0.204   0.253   1.501  0.00  0.00     0.077 C 
ATOM      2  C1' PXY d   1       0.190   6.000   2.127  0.00  0.00     0.077 C 
ATOM      3  C1  PXY d   1       0.191   4.494   1.950  0.00  0.00    -0.082 A 
ATOM      4  C2  PXY d   1       0.005   3.712   3.002  0.00  0.00     0.003 A 
ATOM      5  C3  PXY d   1       0.034   2.348   2.865  0.00  0.00     0.003 A 
ATOM      6  C4  PXY d   1       0.202   1.779   1.631  0.00  0.00    -0.082 A 
ATOM      7  C5  PXY d   1       0.381   2.570   0.552  0.00  0.00     0.003 A 
ATOM      8  C6  PXY d   1       0.389   3.952   0.718  0.00  0.00     0.003 A 
ENDROOT
TORSDOF 0
ENDMDL
