MODEL 1
REMARK minimizedAffinity -0.536966443
REMARK minimizedRMSD -1
REMARK  0 active torsions:
REMARK  status: ('A' for Active; 'I' for Inactive)
ROOT
ATOM      1  C4' PXY d   1      -5.962   2.632  -6.000  0.00  0.00     0.077 C 
ATOM      2  C1' PXY d   1      -3.884   1.705  -0.686  0.00  0.00     0.077 C 
ATOM      3  C1  PXY d   1      -4.418   1.943  -2.085  0.00  0.00    -0.082 A 
ATOM      4  C2  PXY d   1      -5.341   2.871  -2.284  0.00  0.00     0.003 A 
ATOM      5  C3  PXY d   1      -5.858   3.077  -3.537  0.00  0.00     0.003 A 
ATOM      6  C4  PXY d   1      -5.387   2.364  -4.606  0.00  0.00    -0.082 A 
ATOM      7  C5  PXY d   1      -4.439   1.423  -4.413  0.00  0.00     0.003 A 
ATOM      8  C6  PXY d   1      -3.957   1.200  -3.127  0.00  0.00     0.003 A 
ENDROOT
TORSDOF 0
ENDMDL
