MODEL 1
REMARK minimizedAffinity 3.64809632
REMARK minimizedRMSD -1
REMARK  0 active torsions:
REMARK  status: ('A' for Active; 'I' for Inactive)
ROOT
ATOM      1  C4' PXY d   1      -4.495  -0.040  -4.080  0.00  0.00     0.077 C 
ATOM      2  C1' PXY d   1      -5.640   5.291  -6.000  0.00  0.00     0.077 C 
ATOM      3  C1  PXY d   1      -5.328   3.897  -5.493  0.00  0.00    -0.082 A 
ATOM      4  C2  PXY d   1      -5.999   2.862  -5.972  0.00  0.00     0.003 A 
ATOM      5  C3  PXY d   1      -5.751   1.598  -5.501  0.00  0.00     0.003 A 
ATOM      6  C4  PXY d   1      -4.771   1.385  -4.570  0.00  0.00    -0.082 A 
ATOM      7  C5  PXY d   1      -4.075   2.435  -4.084  0.00  0.00     0.003 A 
ATOM      8  C6  PXY d   1      -4.369   3.715  -4.545  0.00  0.00     0.003 A 
ENDROOT
TORSDOF 0
ENDMDL
