MODEL 1
REMARK minimizedAffinity -3.57506251
REMARK minimizedRMSD -1
REMARK  0 active torsions:
REMARK  status: ('A' for Active; 'I' for Inactive)
ROOT
ATOM      1  C4' PXY d   1      -5.539   4.187  -5.994  0.00  0.00     0.077 C 
ATOM      2  C1' PXY d   1      -4.682   2.121  -0.663  0.00  0.00     0.077 C 
ATOM      3  C1  PXY d   1      -4.898   2.654  -2.066  0.00  0.00    -0.082 A 
ATOM      4  C2  PXY d   1      -5.361   3.882  -2.235  0.00  0.00     0.003 A 
ATOM      5  C3  PXY d   1      -5.593   4.369  -3.495  0.00  0.00     0.003 A 
ATOM      6  C4  PXY d   1      -5.297   3.610  -4.596  0.00  0.00    -0.082 A 
ATOM      7  C5  PXY d   1      -4.814   2.360  -4.432  0.00  0.00     0.003 A 
ATOM      8  C6  PXY d   1      -4.625   1.870  -3.143  0.00  0.00     0.003 A 
ENDROOT
TORSDOF 0
ENDMDL
