MODEL 1
REMARK minimizedAffinity 6.71532297
REMARK minimizedRMSD -1
REMARK  0 active torsions:
REMARK  status: ('A' for Active; 'I' for Inactive)
ROOT
ATOM      1  C4' PXY d   1      -4.853   0.007  -4.121  0.00  0.00     0.077 C 
ATOM      2  C1' PXY d   1      -5.255   5.611  -5.481  0.00  0.00     0.077 C 
ATOM      3  C1  PXY d   1      -5.137   4.143  -5.122  0.00  0.00    -0.082 A 
ATOM      4  C2  PXY d   1      -5.999   3.275  -5.625  0.00  0.00     0.003 A 
ATOM      5  C3  PXY d   1      -5.927   1.949  -5.285  0.00  0.00     0.003 A 
ATOM      6  C4  PXY d   1      -4.928   1.498  -4.464  0.00  0.00    -0.082 A 
ATOM      7  C5  PXY d   1      -4.038   2.375  -3.955  0.00  0.00     0.003 A 
ATOM      8  C6  PXY d   1      -4.154   3.724  -4.279  0.00  0.00     0.003 A 
ENDROOT
TORSDOF 0
ENDMDL
