MODEL 1
REMARK minimizedAffinity 2.92381883
REMARK minimizedRMSD -1
REMARK  0 active torsions:
REMARK  status: ('A' for Active; 'I' for Inactive)
ROOT
ATOM      1  C4' PXY d   1      -4.190   2.252  -0.532  0.00  0.00     0.077 C 
ATOM      2  C1' PXY d   1      -5.995   2.759  -6.000  0.00  0.00     0.077 C 
ATOM      3  C1  PXY d   1      -5.524   2.639  -4.564  0.00  0.00    -0.082 A 
ATOM      4  C2  PXY d   1      -4.658   1.695  -4.237  0.00  0.00     0.003 A 
ATOM      5  C3  PXY d   1      -4.246   1.551  -2.937  0.00  0.00     0.003 A 
ATOM      6  C4  PXY d   1      -4.686   2.417  -1.971  0.00  0.00    -0.082 A 
ATOM      7  C5  PXY d   1      -5.562   3.390  -2.299  0.00  0.00     0.003 A 
ATOM      8  C6  PXY d   1      -5.999   3.493  -3.617  0.00  0.00     0.003 A 
ENDROOT
TORSDOF 0
ENDMDL
