MODEL 1
REMARK minimizedAffinity -2.90664458
REMARK minimizedRMSD -1
REMARK  0 active torsions:
REMARK  status: ('A' for Active; 'I' for Inactive)
ROOT
ATOM      1  C4' PXY d   1      -5.940   3.108  -6.000  0.00  0.00     0.077 C 
ATOM      2  C1' PXY d   1      -4.593   1.413  -0.640  0.00  0.00     0.077 C 
ATOM      3  C1  PXY d   1      -4.936   1.851  -2.051  0.00  0.00    -0.082 A 
ATOM      4  C2  PXY d   1      -5.653   2.946  -2.239  0.00  0.00     0.003 A 
ATOM      5  C3  PXY d   1      -5.999   3.339  -3.506  0.00  0.00     0.003 A 
ATOM      6  C4  PXY d   1      -5.562   2.633  -4.594  0.00  0.00    -0.082 A 
ATOM      7  C5  PXY d   1      -4.821   1.520  -4.411  0.00  0.00     0.003 A 
ATOM      8  C6  PXY d   1      -4.515   1.115  -3.115  0.00  0.00     0.003 A 
ENDROOT
TORSDOF 0
ENDMDL
