MODEL 1
REMARK minimizedAffinity 0.100026257
REMARK minimizedRMSD -1
REMARK  0 active torsions:
REMARK  status: ('A' for Active; 'I' for Inactive)
ROOT
ATOM      1  C4' PXY d   1      -5.258   5.397  -5.427  0.00  0.00     0.077 C 
ATOM      2  C1' PXY d   1      -5.055  -0.353  -4.869  0.00  0.00     0.077 C 
ATOM      3  C1  PXY d   1      -5.103   1.157  -5.004  0.00  0.00    -0.082 A 
ATOM      4  C2  PXY d   1      -5.965   1.712  -5.840  0.00  0.00     0.003 A 
ATOM      5  C3  PXY d   1      -6.000   3.073  -5.997  0.00  0.00     0.003 A 
ATOM      6  C4  PXY d   1      -5.180   3.878  -5.252  0.00  0.00    -0.082 A 
ATOM      7  C5  PXY d   1      -4.305   3.320  -4.389  0.00  0.00     0.003 A 
ATOM      8  C6  PXY d   1      -4.257   1.934  -4.274  0.00  0.00     0.003 A 
ENDROOT
TORSDOF 0
ENDMDL
