MODEL 1
REMARK minimizedAffinity 5.12354612
REMARK minimizedRMSD -1
REMARK  0 active torsions:
REMARK  status: ('A' for Active; 'I' for Inactive)
ROOT
ATOM      1  C4' PXY d   1      -1.225   2.638  -3.078  0.00  0.00     0.077 C 
ATOM      2  C1' PXY d   1      -5.996   4.094  -6.000  0.00  0.00     0.077 C 
ATOM      3  C1  PXY d   1      -4.737   3.719  -5.242  0.00  0.00    -0.082 A 
ATOM      4  C2  PXY d   1      -4.737   2.649  -4.464  0.00  0.00     0.003 A 
ATOM      5  C3  PXY d   1      -3.618   2.313  -3.747  0.00  0.00     0.003 A 
ATOM      6  C4  PXY d   1      -2.470   3.049  -3.869  0.00  0.00    -0.082 A 
ATOM      7  C5  PXY d   1      -2.459   4.136  -4.669  0.00  0.00     0.003 A 
ATOM      8  C6  PXY d   1      -3.618   4.484  -5.356  0.00  0.00     0.003 A 
ENDROOT
TORSDOF 0
ENDMDL
