MODEL 1
REMARK minimizedAffinity 0.791855097
REMARK minimizedRMSD -1
REMARK  0 active torsions:
REMARK  status: ('A' for Active; 'I' for Inactive)
ROOT
ATOM      1  C4' PXY d   1      -2.001  -1.791   2.018  0.00  0.00     0.077 C 
ATOM      2  C1' PXY d   1       2.704  -2.949   5.171  0.00  0.00     0.077 C 
ATOM      3  C1  PXY d   1       1.477  -2.636   4.337  0.00  0.00    -0.082 A 
ATOM      4  C2  PXY d   1       0.274  -2.909   4.816  0.00  0.00     0.003 A 
ATOM      5  C3  PXY d   1      -0.845  -2.662   4.063  0.00  0.00     0.003 A 
ATOM      6  C4  PXY d   1      -0.734  -2.081   2.828  0.00  0.00    -0.082 A 
ATOM      7  C5  PXY d   1       0.489  -1.790   2.337  0.00  0.00     0.003 A 
ATOM      8  C6  PXY d   1       1.614  -2.087   3.100  0.00  0.00     0.003 A 
ENDROOT
TORSDOF 0
ENDMDL
