MODEL 1
REMARK minimizedAffinity 2.04644823
REMARK minimizedRMSD -1
REMARK  0 active torsions:
REMARK  status: ('A' for Active; 'I' for Inactive)
ROOT
ATOM      1  C4' PXY d   1      -1.743   3.344  -2.653  0.00  0.00     0.077 C 
ATOM      2  C1' PXY d   1       1.275  -0.649   0.239  0.00  0.00     0.077 C 
ATOM      3  C1  PXY d   1       0.474   0.389  -0.522  0.00  0.00    -0.082 A 
ATOM      4  C2  PXY d   1       1.087   1.450  -1.023  0.00  0.00     0.003 A 
ATOM      5  C3  PXY d   1       0.373   2.414  -1.686  0.00  0.00     0.003 A 
ATOM      6  C4  PXY d   1      -0.973   2.265  -1.885  0.00  0.00    -0.082 A 
ATOM      7  C5  PXY d   1      -1.604   1.181  -1.387  0.00  0.00     0.003 A 
ATOM      8  C6  PXY d   1      -0.868   0.233  -0.681  0.00  0.00     0.003 A 
ENDROOT
TORSDOF 0
ENDMDL
