MODEL 1
REMARK minimizedAffinity 4.938519
REMARK minimizedRMSD -1
REMARK  0 active torsions:
REMARK  status: ('A' for Active; 'I' for Inactive)
ROOT
ATOM      1  C4' PXY d   1       0.368   4.144   2.179  0.00  0.00     0.077 C 
ATOM      2  C1' PXY d   1       0.177   0.004  -1.850  0.00  0.00     0.077 C 
ATOM      3  C1  PXY d   1       0.218   1.083  -0.786  0.00  0.00    -0.082 A 
ATOM      4  C2  PXY d   1       0.624   2.301  -1.106  0.00  0.00     0.003 A 
ATOM      5  C3  PXY d   1       0.698   3.281  -0.149  0.00  0.00     0.003 A 
ATOM      6  C4  PXY d   1       0.301   3.026   1.136  0.00  0.00    -0.082 A 
ATOM      7  C5  PXY d   1      -0.124   1.788   1.467  0.00  0.00     0.003 A 
ATOM      8  C6  PXY d   1      -0.153   0.797   0.491  0.00  0.00     0.003 A 
ENDROOT
TORSDOF 0
ENDMDL
