MODEL 1
REMARK minimizedAffinity -0.978277862
REMARK minimizedRMSD -1
REMARK  0 active torsions:
REMARK  status: ('A' for Active; 'I' for Inactive)
ROOT
ATOM      1  C4' PXY d   1       0.233  -3.837  -2.404  0.00  0.00     0.077 C 
ATOM      2  C1' PXY d   1       0.294   1.896  -1.668  0.00  0.00     0.077 C 
ATOM      3  C1  PXY d   1       0.286   0.391  -1.851  0.00  0.00    -0.082 A 
ATOM      4  C2  PXY d   1      -0.003  -0.122  -3.035  0.00  0.00     0.003 A 
ATOM      5  C3  PXY d   1      -0.046  -1.482  -3.210  0.00  0.00     0.003 A 
ATOM      6  C4  PXY d   1       0.262  -2.324  -2.176  0.00  0.00    -0.082 A 
ATOM      7  C5  PXY d   1       0.569  -1.807  -0.967  0.00  0.00     0.003 A 
ATOM      8  C6  PXY d   1       0.567  -0.425  -0.799  0.00  0.00     0.003 A 
ENDROOT
TORSDOF 0
ENDMDL
