MODEL 1
REMARK minimizedAffinity 2.74742699
REMARK minimizedRMSD -1
REMARK  0 active torsions:
REMARK  status: ('A' for Active; 'I' for Inactive)
ROOT
ATOM      1  C4' PXY d   1       5.255  -3.653  -2.274  0.00  0.00     0.077 C 
ATOM      2  C1' PXY d   1      -0.310  -4.222  -3.731  0.00  0.00     0.077 C 
ATOM      3  C1  PXY d   1       1.153  -4.076  -3.361  0.00  0.00    -0.082 A 
ATOM      4  C2  PXY d   1       1.523  -4.194  -2.096  0.00  0.00     0.003 A 
ATOM      5  C3  PXY d   1       2.837  -4.033  -1.740  0.00  0.00     0.003 A 
ATOM      6  C4  PXY d   1       3.790  -3.802  -2.695  0.00  0.00    -0.082 A 
ATOM      7  C5  PXY d   1       3.423  -3.691  -3.989  0.00  0.00     0.003 A 
ATOM      8  C6  PXY d   1       2.078  -3.817  -4.325  0.00  0.00     0.003 A 
ENDROOT
TORSDOF 0
ENDMDL
