MODEL 1
REMARK minimizedAffinity 3.31197405
REMARK minimizedRMSD -1
REMARK  0 active torsions:
REMARK  status: ('A' for Active; 'I' for Inactive)
ROOT
ATOM      1  C4' PXY d   1      -3.968   1.501  -0.736  0.00  0.00     0.077 C 
ATOM      2  C1' PXY d   1      -6.000   2.759  -6.000  0.00  0.00     0.077 C 
ATOM      3  C1  PXY d   1      -5.463   2.417  -4.624  0.00  0.00    -0.082 A 
ATOM      4  C2  PXY d   1      -5.980   3.002  -3.556  0.00  0.00     0.003 A 
ATOM      5  C3  PXY d   1      -5.485   2.729  -2.307  0.00  0.00     0.003 A 
ATOM      6  C4  PXY d   1      -4.486   1.808  -2.144  0.00  0.00    -0.082 A 
ATOM      7  C5  PXY d   1      -3.959   1.199  -3.228  0.00  0.00     0.003 A 
ATOM      8  C6  PXY d   1      -4.448   1.521  -4.491  0.00  0.00     0.003 A 
ENDROOT
TORSDOF 0
ENDMDL
