MODEL 1
REMARK minimizedAffinity 4.22883606
REMARK minimizedRMSD -1
REMARK  0 active torsions:
REMARK  status: ('A' for Active; 'I' for Inactive)
ROOT
ATOM      1  C4' PXY d   1       2.543  -5.932   2.194  0.00  0.00     0.077 C 
ATOM      2  C1' PXY d   1       0.131  -3.469  -2.446  0.00  0.00     0.077 C 
ATOM      3  C1  PXY d   1       0.753  -4.123  -1.228  0.00  0.00    -0.082 A 
ATOM      4  C2  PXY d   1       1.626  -3.448  -0.498  0.00  0.00     0.003 A 
ATOM      5  C3  PXY d   1       2.223  -4.036   0.588  0.00  0.00     0.003 A 
ATOM      6  C4  PXY d   1       1.882  -5.308   0.961  0.00  0.00    -0.082 A 
ATOM      7  C5  PXY d   1       0.985  -5.999   0.227  0.00  0.00     0.003 A 
ATOM      8  C6  PXY d   1       0.421  -5.400  -0.895  0.00  0.00     0.003 A 
ENDROOT
TORSDOF 0
ENDMDL
