MODEL 1
REMARK minimizedAffinity -4.06406212
REMARK minimizedRMSD -1
REMARK  1 active torsions:
REMARK  status: ('A' for Active; 'I' for Inactive)
REMARK    1  A    between atoms: N_2  and  C1_3 
ROOT
ATOM      1  C1  UNL d   1      -0.175   0.806   0.472  0.00  0.00     0.143 A 
ATOM      2  C2  UNL d   1       1.161   1.177   0.284  0.00  0.00    -0.057 A 
ATOM      3  C3  UNL d   1       1.533   2.523   0.180  0.00  0.00     0.033 A 
ATOM      4  C4  UNL d   1       0.569   3.523   0.235  0.00  0.00    -0.042 A 
ATOM      5  C5  UNL d   1      -0.768   3.177   0.396  0.00  0.00     0.033 A 
ATOM      6  C6  UNL d   1      -1.132   1.832   0.506  0.00  0.00    -0.057 A 
ENDROOT
BRANCH   1   7
ATOM      7  N   UNL d   1      -0.620  -0.518   0.484  0.00  0.00    -0.732 N 
ATOM      8  C   UNL d   1       0.301  -1.608   0.240  0.00  0.00     0.284 C 
ATOM      9  H3  UNL d   1      -1.288  -0.697   1.230  0.00  0.00     0.395 HD
ENDBRANCH   1   7
TORSDOF 1
ENDMDL
