MODEL 1
REMARK minimizedAffinity -5.28477049
REMARK minimizedRMSD -1
REMARK  1 active torsions:
REMARK  status: ('A' for Active; 'I' for Inactive)
REMARK    1  A    between atoms: N_2  and  C1_3 
ROOT
ATOM      1  C1  UNL d   1       0.992   0.801  -0.229  0.00  0.00     0.143 A 
ATOM      2  C2  UNL d   1      -0.037   1.743  -0.331  0.00  0.00    -0.057 A 
ATOM      3  C3  UNL d   1       0.190   3.098  -0.066  0.00  0.00     0.033 A 
ATOM      4  C4  UNL d   1       1.449   3.533   0.336  0.00  0.00    -0.042 A 
ATOM      5  C5  UNL d   1       2.481   2.610   0.469  0.00  0.00     0.033 A 
ATOM      6  C6  UNL d   1       2.249   1.259   0.196  0.00  0.00    -0.057 A 
ENDROOT
BRANCH   1   7
ATOM      7  N   UNL d   1       0.805  -0.575  -0.384  0.00  0.00    -0.732 N 
ATOM      8  C   UNL d   1      -0.406  -1.212   0.085  0.00  0.00     0.284 C 
ATOM      9  H3  UNL d   1       1.129  -0.912  -1.288  0.00  0.00     0.395 HD
ENDBRANCH   1   7
TORSDOF 1
ENDMDL
