MODEL 1
REMARK minimizedAffinity -4.33006907
REMARK minimizedRMSD -1
REMARK  1 active torsions:
REMARK  status: ('A' for Active; 'I' for Inactive)
REMARK    1  A    between atoms: N_2  and  C1_3 
ROOT
ATOM      1  C1  UNL d   1       0.215  -0.416   0.146  0.00  0.00     0.143 A 
ATOM      2  C2  UNL d   1       1.609  -0.359   0.244  0.00  0.00    -0.057 A 
ATOM      3  C3  UNL d   1       2.279   0.865   0.365  0.00  0.00     0.033 A 
ATOM      4  C4  UNL d   1       1.566   2.059   0.359  0.00  0.00    -0.042 A 
ATOM      5  C5  UNL d   1       0.181   2.028   0.237  0.00  0.00     0.033 A 
ATOM      6  C6  UNL d   1      -0.483   0.802   0.124  0.00  0.00    -0.057 A 
ENDROOT
BRANCH   1   7
ATOM      7  N   UNL d   1      -0.502  -1.594  -0.075  0.00  0.00    -0.732 N 
ATOM      8  C   UNL d   1      -0.172  -2.461  -1.186  0.00  0.00     0.284 C 
ATOM      9  H3  UNL d   1      -0.713  -2.088   0.789  0.00  0.00     0.395 HD
ENDBRANCH   1   7
TORSDOF 1
ENDMDL
