MODEL 1
REMARK minimizedAffinity -4.01782846
REMARK minimizedRMSD -1
REMARK  1 active torsions:
REMARK  status: ('A' for Active; 'I' for Inactive)
REMARK    1  A    between atoms: N_2  and  C1_3 
ROOT
ATOM      1  C1  UNL d   1       0.083   0.889   0.193  0.00  0.00     0.143 A 
ATOM      2  C2  UNL d   1       1.409   1.281   0.405  0.00  0.00    -0.057 A 
ATOM      3  C3  UNL d   1       1.756   2.631   0.531  0.00  0.00     0.033 A 
ATOM      4  C4  UNL d   1       0.784   3.619   0.417  0.00  0.00    -0.042 A 
ATOM      5  C5  UNL d   1      -0.537   3.255   0.182  0.00  0.00     0.033 A 
ATOM      6  C6  UNL d   1      -0.879   1.904   0.064  0.00  0.00    -0.057 A 
ENDROOT
BRANCH   1   7
ATOM      7  N   UNL d   1      -0.311  -0.431  -0.039  0.00  0.00    -0.732 N 
ATOM      8  C   UNL d   1       0.314  -1.523   0.675  0.00  0.00     0.284 C 
ATOM      9  H3  UNL d   1      -1.320  -0.523  -0.139  0.00  0.00     0.395 HD
ENDBRANCH   1   7
TORSDOF 1
ENDMDL
