MODEL 1
REMARK minimizedAffinity -5.01347113
REMARK minimizedRMSD -1
REMARK  1 active torsions:
REMARK  status: ('A' for Active; 'I' for Inactive)
REMARK    1  A    between atoms: N_2  and  C1_3 
ROOT
ATOM      1  C1  UNL d   1      -0.130   1.182   0.177  0.00  0.00     0.143 A 
ATOM      2  C2  UNL d   1      -0.823   2.348  -0.165  0.00  0.00    -0.057 A 
ATOM      3  C3  UNL d   1      -0.194   3.599  -0.148  0.00  0.00     0.033 A 
ATOM      4  C4  UNL d   1       1.137   3.709   0.240  0.00  0.00    -0.042 A 
ATOM      5  C5  UNL d   1       1.839   2.567   0.608  0.00  0.00     0.033 A 
ATOM      6  C6  UNL d   1       1.207   1.320   0.583  0.00  0.00    -0.057 A 
ENDROOT
BRANCH   1   7
ATOM      7  N   UNL d   1      -0.726  -0.077   0.275  0.00  0.00    -0.732 N 
ATOM      8  C   UNL d   1       0.042  -1.278   0.024  0.00  0.00     0.284 C 
ATOM      9  H3  UNL d   1      -1.359  -0.147   1.068  0.00  0.00     0.395 HD
ENDBRANCH   1   7
TORSDOF 1
ENDMDL
