MODEL 1
REMARK minimizedAffinity -4.39447451
REMARK minimizedRMSD -1
REMARK  1 active torsions:
REMARK  status: ('A' for Active; 'I' for Inactive)
REMARK    1  A    between atoms: N_2  and  C1_3 
ROOT
ATOM      1  C1  UNL d   1       0.040   0.387   0.116  0.00  0.00     0.143 A 
ATOM      2  C2  UNL d   1       0.867   1.184  -0.683  0.00  0.00    -0.057 A 
ATOM      3  C3  UNL d   1       0.810   2.581  -0.621  0.00  0.00     0.033 A 
ATOM      4  C4  UNL d   1      -0.101   3.209   0.223  0.00  0.00    -0.042 A 
ATOM      5  C5  UNL d   1      -0.951   2.437   1.007  0.00  0.00     0.033 A 
ATOM      6  C6  UNL d   1      -0.884   1.042   0.946  0.00  0.00    -0.057 A 
ENDROOT
BRANCH   1   7
ATOM      7  N   UNL d   1      -0.019  -1.006   0.028  0.00  0.00    -0.732 N 
ATOM      8  C   UNL d   1       1.027  -1.825   0.602  0.00  0.00     0.284 C 
ATOM      9  H3  UNL d   1      -0.959  -1.365   0.180  0.00  0.00     0.395 HD
ENDBRANCH   1   7
TORSDOF 1
ENDMDL
