MODEL 1
REMARK minimizedAffinity -4.81942225
REMARK minimizedRMSD -1
REMARK  1 active torsions:
REMARK  status: ('A' for Active; 'I' for Inactive)
REMARK    1  A    between atoms: N_2  and  C1_3 
ROOT
ATOM      1  C1  UNL d   1      -0.108   1.136   0.026  0.00  0.00     0.143 A 
ATOM      2  C2  UNL d   1      -0.677   2.414  -0.012  0.00  0.00    -0.057 A 
ATOM      3  C3  UNL d   1       0.076   3.553   0.298  0.00  0.00     0.033 A 
ATOM      4  C4  UNL d   1       1.407   3.431   0.682  0.00  0.00    -0.042 A 
ATOM      5  C5  UNL d   1       1.986   2.169   0.751  0.00  0.00     0.033 A 
ATOM      6  C6  UNL d   1       1.232   1.036   0.433  0.00  0.00    -0.057 A 
ENDROOT
BRANCH   1   7
ATOM      7  N   UNL d   1      -0.830  -0.043  -0.176  0.00  0.00    -0.732 N 
ATOM      8  C   UNL d   1      -0.149  -1.277  -0.502  0.00  0.00     0.284 C 
ATOM      9  H3  UNL d   1      -1.591  -0.151   0.490  0.00  0.00     0.395 HD
ENDBRANCH   1   7
TORSDOF 1
ENDMDL
