MODEL 1
REMARK minimizedAffinity -3.48163652
REMARK minimizedRMSD -1
REMARK  1 active torsions:
REMARK  status: ('A' for Active; 'I' for Inactive)
REMARK    1  A    between atoms: N_2  and  C1_3 
ROOT
ATOM      1  C1  UNL d   1      -0.433   1.313   0.422  0.00  0.00     0.143 A 
ATOM      2  C2  UNL d   1       0.557   0.479  -0.110  0.00  0.00    -0.057 A 
ATOM      3  C3  UNL d   1       0.363  -0.904  -0.211  0.00  0.00     0.033 A 
ATOM      4  C4  UNL d   1      -0.817  -1.482   0.245  0.00  0.00    -0.042 A 
ATOM      5  C5  UNL d   1      -1.804  -0.675   0.800  0.00  0.00     0.033 A 
ATOM      6  C6  UNL d   1      -1.607   0.706   0.893  0.00  0.00    -0.057 A 
ENDROOT
BRANCH   1   7
ATOM      7  N   UNL d   1      -0.261   2.683   0.640  0.00  0.00    -0.732 N 
ATOM      8  C   UNL d   1       0.444   3.500  -0.324  0.00  0.00     0.284 C 
ATOM      9  H3  UNL d   1      -1.093   3.122   1.028  0.00  0.00     0.395 HD
ENDBRANCH   1   7
TORSDOF 1
ENDMDL
