MODEL 1
REMARK minimizedAffinity -2.75873446
REMARK minimizedRMSD -1
REMARK  1 active torsions:
REMARK  status: ('A' for Active; 'I' for Inactive)
REMARK    1  A    between atoms: N_2  and  C1_3 
ROOT
ATOM      1  C1  UNL d   1      -0.102  -0.304   0.344  0.00  0.00     0.143 A 
ATOM      2  C2  UNL d   1      -1.342   0.219   0.725  0.00  0.00    -0.057 A 
ATOM      3  C3  UNL d   1      -1.525   1.595   0.905  0.00  0.00     0.033 A 
ATOM      4  C4  UNL d   1      -0.459   2.473   0.735  0.00  0.00    -0.042 A 
ATOM      5  C5  UNL d   1       0.789   1.972   0.381  0.00  0.00     0.033 A 
ATOM      6  C6  UNL d   1       0.963   0.598   0.196  0.00  0.00    -0.057 A 
ENDROOT
BRANCH   1   7
ATOM      7  N   UNL d   1       0.168  -1.672   0.245  0.00  0.00    -0.732 N 
ATOM      8  C   UNL d   1      -0.233  -2.419  -0.927  0.00  0.00     0.284 C 
ATOM      9  H3  UNL d   1       1.093  -1.911   0.595  0.00  0.00     0.395 HD
ENDBRANCH   1   7
TORSDOF 1
ENDMDL
