MODEL 1
REMARK minimizedAffinity -4.73942089
REMARK minimizedRMSD -1
REMARK  1 active torsions:
REMARK  status: ('A' for Active; 'I' for Inactive)
REMARK    1  A    between atoms: N_2  and  C1_3 
ROOT
ATOM      1  C1  UNL d   1       0.320   1.310  -0.371  0.00  0.00     0.143 A 
ATOM      2  C2  UNL d   1       0.017   2.669  -0.509  0.00  0.00    -0.057 A 
ATOM      3  C3  UNL d   1       1.010   3.649  -0.391  0.00  0.00     0.033 A 
ATOM      4  C4  UNL d   1       2.322   3.287  -0.103  0.00  0.00    -0.042 A 
ATOM      5  C5  UNL d   1       2.641   1.944   0.064  0.00  0.00     0.033 A 
ATOM      6  C6  UNL d   1       1.646   0.970  -0.062  0.00  0.00    -0.057 A 
ENDROOT
BRANCH   1   7
ATOM      7  N   UNL d   1      -0.640   0.295  -0.379  0.00  0.00    -0.732 N 
ATOM      8  C   UNL d   1      -0.265  -1.077  -0.113  0.00  0.00     0.284 C 
ATOM      9  H3  UNL d   1      -1.512   0.580   0.062  0.00  0.00     0.395 HD
ENDBRANCH   1   7
TORSDOF 1
ENDMDL
