MODEL 1
REMARK minimizedAffinity -5.56138992
REMARK minimizedRMSD -1
REMARK  1 active torsions:
REMARK  status: ('A' for Active; 'I' for Inactive)
REMARK    1  A    between atoms: N_2  and  C1_3 
ROOT
ATOM      1  C1  UNL d   1       0.487   0.479   0.452  0.00  0.00     0.143 A 
ATOM      2  C2  UNL d   1       1.671   1.223   0.399  0.00  0.00    -0.057 A 
ATOM      3  C3  UNL d   1       1.652   2.602   0.158  0.00  0.00     0.033 A 
ATOM      4  C4  UNL d   1       0.446   3.259  -0.065  0.00  0.00    -0.042 A 
ATOM      5  C5  UNL d   1      -0.741   2.535  -0.042  0.00  0.00     0.033 A 
ATOM      6  C6  UNL d   1      -0.716   1.159   0.206  0.00  0.00    -0.057 A 
ENDROOT
BRANCH   1   7
ATOM      7  N   UNL d   1       0.447  -0.910   0.589  0.00  0.00    -0.732 N 
ATOM      8  C   UNL d   1      -0.144  -1.737  -0.442  0.00  0.00     0.284 C 
ATOM      9  H3  UNL d   1       1.306  -1.287   0.982  0.00  0.00     0.395 HD
ENDBRANCH   1   7
TORSDOF 1
ENDMDL
