MODEL 1
REMARK minimizedAffinity -3.69510746
REMARK minimizedRMSD -1
REMARK  1 active torsions:
REMARK  status: ('A' for Active; 'I' for Inactive)
REMARK    1  A    between atoms: N_2  and  C1_3 
ROOT
ATOM      1  C1  UNL d   1       0.325  -2.372  -0.533  0.00  0.00     0.143 A 
ATOM      2  C2  UNL d   1      -0.718  -2.939   0.209  0.00  0.00    -0.057 A 
ATOM      3  C3  UNL d   1      -1.676  -3.760  -0.397  0.00  0.00     0.033 A 
ATOM      4  C4  UNL d   1      -1.626  -4.006  -1.765  0.00  0.00    -0.042 A 
ATOM      5  C5  UNL d   1      -0.613  -3.433  -2.526  0.00  0.00     0.033 A 
ATOM      6  C6  UNL d   1       0.345  -2.619  -1.914  0.00  0.00    -0.057 A 
ENDROOT
BRANCH   1   7
ATOM      7  N   UNL d   1       1.251  -1.468  -0.007  0.00  0.00    -0.732 N 
ATOM      8  C   UNL d   1       1.057  -0.042  -0.158  0.00  0.00     0.284 C 
ATOM      9  H3  UNL d   1       1.587  -1.747   0.912  0.00  0.00     0.395 HD
ENDBRANCH   1   7
TORSDOF 1
ENDMDL
