MODEL 1
REMARK minimizedAffinity -4.26318407
REMARK minimizedRMSD -1
REMARK  1 active torsions:
REMARK  status: ('A' for Active; 'I' for Inactive)
REMARK    1  A    between atoms: N_2  and  C1_3 
ROOT
ATOM      1  C1  UNL d   1      -0.159   0.739  -0.097  0.00  0.00     0.143 A 
ATOM      2  C2  UNL d   1      -0.890   1.902   0.170  0.00  0.00    -0.057 A 
ATOM      3  C3  UNL d   1      -0.300   3.168   0.080  0.00  0.00     0.033 A 
ATOM      4  C4  UNL d   1       1.046   3.293  -0.251  0.00  0.00    -0.042 A 
ATOM      5  C5  UNL d   1       1.798   2.150  -0.495  0.00  0.00     0.033 A 
ATOM      6  C6  UNL d   1       1.201   0.888  -0.411  0.00  0.00    -0.057 A 
ENDROOT
BRANCH   1   7
ATOM      7  N   UNL d   1      -0.663  -0.553   0.071  0.00  0.00    -0.732 N 
ATOM      8  C   UNL d   1      -0.018  -1.684  -0.561  0.00  0.00     0.284 C 
ATOM      9  H3  UNL d   1      -0.971  -0.729   1.025  0.00  0.00     0.395 HD
ENDBRANCH   1   7
TORSDOF 1
ENDMDL
