MODEL 1
REMARK minimizedAffinity 9.23196983
REMARK minimizedRMSD -1
REMARK  0 active torsions:
REMARK  status: ('A' for Active; 'I' for Inactive)
ROOT
ATOM      1  C1  DEN d   1       5.734  -2.380  -5.285  0.00  0.00     0.130 A 
ATOM      2  C2  DEN d   1       5.566  -1.351  -4.262  0.00  0.00    -0.031 A 
ATOM      3  C3  DEN d   1       5.556  -2.017  -2.943  0.00  0.00     0.027 A 
ATOM      4  C4  DEN d   1       5.788  -4.525  -2.390  0.00  0.00     0.027 A 
ATOM      5  C5  DEN d   1       5.940  -5.784  -2.928  0.00  0.00    -0.003 A 
ATOM      6  C6  DEN d   1       5.999  -5.998  -4.280  0.00  0.00     0.001 A 
ATOM      7  C7  DEN d   1       5.951  -4.932  -5.139  0.00  0.00     0.017 A 
ATOM      8  C8  DEN d   1       5.791  -3.660  -4.604  0.00  0.00    -0.094 A 
ATOM      9  C9  DEN d   1       5.745  -3.463  -3.234  0.00  0.00    -0.072 A 
ENDROOT
TORSDOF 0
ENDMDL
