MODEL 1
REMARK minimizedAffinity 5.84080696
REMARK minimizedRMSD -1
REMARK  0 active torsions:
REMARK  status: ('A' for Active; 'I' for Inactive)
ROOT
ATOM      1  C1  DEN d   1       3.758  -1.341  -2.645  0.00  0.00     0.130 A 
ATOM      2  C2  DEN d   1       4.916  -1.138  -1.779  0.00  0.00    -0.031 A 
ATOM      3  C3  DEN d   1       6.000  -2.023  -2.251  0.00  0.00     0.027 A 
ATOM      4  C4  DEN d   1       6.000  -3.674  -4.233  0.00  0.00     0.027 A 
ATOM      5  C5  DEN d   1       5.241  -4.201  -5.254  0.00  0.00    -0.003 A 
ATOM      6  C6  DEN d   1       3.935  -3.841  -5.455  0.00  0.00     0.001 A 
ATOM      7  C7  DEN d   1       3.361  -2.892  -4.650  0.00  0.00     0.017 A 
ATOM      8  C8  DEN d   1       4.117  -2.361  -3.613  0.00  0.00    -0.094 A 
ATOM      9  C9  DEN d   1       5.440  -2.730  -3.434  0.00  0.00    -0.072 A 
ENDROOT
TORSDOF 0
ENDMDL
