MODEL 1
REMARK minimizedAffinity 0.322169036
REMARK minimizedRMSD -1
REMARK  0 active torsions:
REMARK  status: ('A' for Active; 'I' for Inactive)
ROOT
ATOM      1  C1  DEN d   1       0.357   4.697  -2.248  0.00  0.00     0.130 A 
ATOM      2  C2  DEN d   1       0.756   5.999  -1.719  0.00  0.00    -0.031 A 
ATOM      3  C3  DEN d   1       0.932   5.864  -0.259  0.00  0.00     0.027 A 
ATOM      4  C4  DEN d   1       0.630   3.777   1.226  0.00  0.00     0.027 A 
ATOM      5  C5  DEN d   1       0.288   2.443   1.231  0.00  0.00    -0.003 A 
ATOM      6  C6  DEN d   1      -0.085   1.780   0.091  0.00  0.00     0.001 A 
ATOM      7  C7  DEN d   1      -0.081   2.440  -1.109  0.00  0.00     0.017 A 
ATOM      8  C8  DEN d   1       0.256   3.787  -1.121  0.00  0.00    -0.094 A 
ATOM      9  C9  DEN d   1       0.642   4.436   0.039  0.00  0.00    -0.072 A 
ENDROOT
TORSDOF 0
ENDMDL
