MODEL 1
REMARK minimizedAffinity 10.3058882
REMARK minimizedRMSD -1
REMARK  0 active torsions:
REMARK  status: ('A' for Active; 'I' for Inactive)
ROOT
ATOM      1  C1  DEN d   1       0.650  -2.450   5.999  0.00  0.00     0.130 A 
ATOM      2  C2  DEN d   1       0.030  -1.493   5.086  0.00  0.00    -0.031 A 
ATOM      3  C3  DEN d   1       0.986  -1.217   3.995  0.00  0.00     0.027 A 
ATOM      4  C4  DEN d   1       3.351  -2.179   3.628  0.00  0.00     0.027 A 
ATOM      5  C5  DEN d   1       4.314  -3.019   4.143  0.00  0.00    -0.003 A 
ATOM      6  C6  DEN d   1       4.137  -3.696   5.321  0.00  0.00     0.001 A 
ATOM      7  C7  DEN d   1       2.953  -3.580   6.000  0.00  0.00     0.017 A 
ATOM      8  C8  DEN d   1       1.981  -2.730   5.491  0.00  0.00    -0.094 A 
ATOM      9  C9  DEN d   1       2.173  -2.063   4.293  0.00  0.00    -0.072 A 
ENDROOT
TORSDOF 0
ENDMDL
