MODEL 1
REMARK minimizedAffinity -1.06853342
REMARK minimizedRMSD -1
REMARK  0 active torsions:
REMARK  status: ('A' for Active; 'I' for Inactive)
ROOT
ATOM      1  C1  DEN d   1       3.390  -2.838   0.105  0.00  0.00     0.130 A 
ATOM      2  C2  DEN d   1       4.492  -1.913  -0.147  0.00  0.00    -0.031 A 
ATOM      3  C3  DEN d   1       5.122  -2.292  -1.428  0.00  0.00     0.027 A 
ATOM      4  C4  DEN d   1       4.499  -4.207  -3.039  0.00  0.00     0.027 A 
ATOM      5  C5  DEN d   1       3.643  -5.266  -3.246  0.00  0.00    -0.003 A 
ATOM      6  C6  DEN d   1       2.672  -5.608  -2.342  0.00  0.00     0.001 A 
ATOM      7  C7  DEN d   1       2.504  -4.856  -1.209  0.00  0.00     0.017 A 
ATOM      8  C8  DEN d   1       3.369  -3.792  -0.990  0.00  0.00    -0.094 A 
ATOM      9  C9  DEN d   1       4.336  -3.455  -1.922  0.00  0.00    -0.072 A 
ENDROOT
TORSDOF 0
ENDMDL
