MODEL 1
REMARK minimizedAffinity 7.73459196
REMARK minimizedRMSD -1
REMARK  0 active torsions:
REMARK  status: ('A' for Active; 'I' for Inactive)
ROOT
ATOM      1  C1  DEN d   1       3.631  -5.597  -2.867  0.00  0.00     0.130 A 
ATOM      2  C2  DEN d   1       4.945  -4.964  -2.939  0.00  0.00    -0.031 A 
ATOM      3  C3  DEN d   1       4.991  -3.890  -1.926  0.00  0.00     0.027 A 
ATOM      4  C4  DEN d   1       3.165  -3.152  -0.260  0.00  0.00     0.027 A 
ATOM      5  C5  DEN d   1       1.877  -3.384   0.168  0.00  0.00    -0.003 A 
ATOM      6  C6  DEN d   1       1.077  -4.339  -0.403  0.00  0.00     0.001 A 
ATOM      7  C7  DEN d   1       1.575  -5.128  -1.406  0.00  0.00     0.017 A 
ATOM      8  C8  DEN d   1       2.870  -4.896  -1.848  0.00  0.00    -0.094 A 
ATOM      9  C9  DEN d   1       3.666  -3.934  -1.250  0.00  0.00    -0.072 A 
ENDROOT
TORSDOF 0
ENDMDL
