MODEL 1
REMARK minimizedAffinity 5.99370861
REMARK minimizedRMSD -1
REMARK  1 active torsions:
REMARK  status: ('A' for Active; 'I' for Inactive)
REMARK    1  A    between atoms: C1_2  and  C2_3 
ROOT
ATOM      1  C2  UNL d   1       3.672  -3.698   1.140  0.00  0.00    -0.077 A 
ATOM      2  C3  UNL d   1       4.435  -4.055   2.261  0.00  0.00     0.002 A 
ATOM      3  C4  UNL d   1       5.232  -5.201   2.237  0.00  0.00     0.002 A 
ATOM      4  C5  UNL d   1       5.278  -5.996   1.093  0.00  0.00    -0.004 A 
ATOM      5  C6  UNL d   1       4.522  -5.650  -0.026  0.00  0.00     0.002 A 
ATOM      6  C7  UNL d   1       3.723  -4.506  -0.003  0.00  0.00     0.002 A 
ENDROOT
BRANCH   1   7
ATOM      7  C1  UNL d   1       2.850  -2.436   1.147  0.00  0.00     0.055 C 
ATOM      8  C   UNL d   1       1.360  -2.746   1.162  0.00  0.00     0.019 C 
ENDBRANCH   1   7
TORSDOF 1
ENDMDL
