MODEL 1
REMARK minimizedAffinity -2.97933912
REMARK minimizedRMSD -1
REMARK  1 active torsions:
REMARK  status: ('A' for Active; 'I' for Inactive)
REMARK    1  A    between atoms: C1_2  and  C2_3 
ROOT
ATOM      1  C2  UNL d   1       0.206  -0.847   0.891  0.00  0.00    -0.077 A 
ATOM      2  C3  UNL d   1       1.402  -1.507   0.575  0.00  0.00     0.002 A 
ATOM      3  C4  UNL d   1       1.857  -1.551  -0.745  0.00  0.00     0.002 A 
ATOM      4  C5  UNL d   1       1.124  -0.935  -1.757  0.00  0.00    -0.004 A 
ATOM      5  C6  UNL d   1      -0.067  -0.278  -1.453  0.00  0.00     0.002 A 
ATOM      6  C7  UNL d   1      -0.524  -0.233  -0.135  0.00  0.00     0.002 A 
ENDROOT
BRANCH   1   7
ATOM      7  C1  UNL d   1      -0.260  -0.755   2.320  0.00  0.00     0.055 C 
ATOM      8  C   UNL d   1       0.671  -1.512   3.256  0.00  0.00     0.019 C 
ENDBRANCH   1   7
TORSDOF 1
ENDMDL
