MODEL 1
REMARK minimizedAffinity -2.04897213
REMARK minimizedRMSD -1
REMARK  1 active torsions:
REMARK  status: ('A' for Active; 'I' for Inactive)
REMARK    1  A    between atoms: C1_2  and  C2_3 
ROOT
ATOM      1  C2  UNL d   1       2.673   4.654  -5.977  0.00  0.00    -0.077 A 
ATOM      2  C3  UNL d   1       1.925   3.469  -5.988  0.00  0.00     0.002 A 
ATOM      3  C4  UNL d   1       2.566   2.229  -6.000  0.00  0.00     0.002 A 
ATOM      4  C5  UNL d   1       3.958   2.162  -5.996  0.00  0.00    -0.004 A 
ATOM      5  C6  UNL d   1       4.711   3.335  -5.987  0.00  0.00     0.002 A 
ATOM      6  C7  UNL d   1       4.072   4.576  -5.977  0.00  0.00     0.002 A 
ENDROOT
BRANCH   1   7
ATOM      7  C1  UNL d   1       1.984   5.992  -5.914  0.00  0.00     0.055 C 
ATOM      8  C   UNL d   1       0.750   5.938  -5.024  0.00  0.00     0.019 C 
ENDBRANCH   1   7
TORSDOF 1
ENDMDL
