MODEL 1
REMARK minimizedAffinity 4.57893753
REMARK minimizedRMSD -1
REMARK  1 active torsions:
REMARK  status: ('A' for Active; 'I' for Inactive)
REMARK    1  A    between atoms: C1_2  and  C2_3 
ROOT
ATOM      1  C2  UNL d   1       2.483   5.997   3.766  0.00  0.00    -0.077 A 
ATOM      2  C3  UNL d   1       2.546   5.996   2.366  0.00  0.00     0.002 A 
ATOM      3  C4  UNL d   1       3.780   5.998   1.714  0.00  0.00     0.002 A 
ATOM      4  C5  UNL d   1       4.961   5.997   2.454  0.00  0.00    -0.004 A 
ATOM      5  C6  UNL d   1       4.909   6.000   3.847  0.00  0.00     0.002 A 
ATOM      6  C7  UNL d   1       3.676   5.999   4.501  0.00  0.00     0.002 A 
ENDROOT
BRANCH   1   7
ATOM      7  C1  UNL d   1       1.153   5.945   4.471  0.00  0.00     0.055 C 
ATOM      8  C   UNL d   1       1.327   5.957   5.983  0.00  0.00     0.019 C 
ENDBRANCH   1   7
TORSDOF 1
ENDMDL
