MODEL 1
REMARK minimizedAffinity 2.25878477
REMARK minimizedRMSD -1
REMARK  1 active torsions:
REMARK  status: ('A' for Active; 'I' for Inactive)
REMARK    1  A    between atoms: C1_2  and  C2_3 
ROOT
ATOM      1  C2  UNL d   1       3.241   5.887   2.640  0.00  0.00    -0.077 A 
ATOM      2  C3  UNL d   1       3.972   5.924   3.836  0.00  0.00     0.002 A 
ATOM      3  C4  UNL d   1       3.312   5.980   5.065  0.00  0.00     0.002 A 
ATOM      4  C5  UNL d   1       1.920   5.996   5.111  0.00  0.00    -0.004 A 
ATOM      5  C6  UNL d   1       1.184   5.962   3.927  0.00  0.00     0.002 A 
ATOM      6  C7  UNL d   1       1.841   5.907   2.697  0.00  0.00     0.002 A 
ENDROOT
BRANCH   1   7
ATOM      7  C1  UNL d   1       3.949   5.777   1.315  0.00  0.00     0.055 C 
ATOM      8  C   UNL d   1       5.452   5.959   1.474  0.00  0.00     0.019 C 
ENDBRANCH   1   7
TORSDOF 1
ENDMDL
