MODEL 1
REMARK minimizedAffinity 2.4998765
REMARK minimizedRMSD -1
REMARK  1 active torsions:
REMARK  status: ('A' for Active; 'I' for Inactive)
REMARK    1  A    between atoms: C1_2  and  C2_3 
ROOT
ATOM      1  C2  UNL d   1       3.607   5.982   3.425  0.00  0.00    -0.077 A 
ATOM      2  C3  UNL d   1       3.949   5.996   4.785  0.00  0.00     0.002 A 
ATOM      3  C4  UNL d   1       2.954   5.989   5.764  0.00  0.00     0.002 A 
ATOM      4  C5  UNL d   1       1.611   5.965   5.394  0.00  0.00    -0.004 A 
ATOM      5  C6  UNL d   1       1.260   5.953   4.045  0.00  0.00     0.002 A 
ATOM      6  C7  UNL d   1       2.253   5.961   3.065  0.00  0.00     0.002 A 
ENDROOT
BRANCH   1   7
ATOM      7  C1  UNL d   1       4.679   5.939   2.368  0.00  0.00     0.055 C 
ATOM      8  C   UNL d   1       4.081   5.996   0.970  0.00  0.00     0.019 C 
ENDBRANCH   1   7
TORSDOF 1
ENDMDL
