MODEL 1
REMARK minimizedAffinity -1.57623935
REMARK minimizedRMSD -1
REMARK  0 active torsions:
REMARK  status: ('A' for Active; 'I' for Inactive)
ROOT
ATOM      1  C4' PXY d   1      -2.383  -0.185   1.517  0.00  0.00     0.077 C 
ATOM      2  C1' PXY d   1       1.650   0.451  -2.575  0.00  0.00     0.077 C 
ATOM      3  C1  PXY d   1       0.600   0.275  -1.497  0.00  0.00    -0.082 A 
ATOM      4  C2  PXY d   1      -0.652   0.630  -1.738  0.00  0.00     0.003 A 
ATOM      5  C3  PXY d   1      -1.608   0.507  -0.763  0.00  0.00     0.003 A 
ATOM      6  C4  PXY d   1      -1.291  -0.034   0.454  0.00  0.00    -0.082 A 
ATOM      7  C5  PXY d   1      -0.019  -0.408   0.705  0.00  0.00     0.003 A 
ATOM      8  C6  PXY d   1       0.946  -0.238  -0.284  0.00  0.00     0.003 A 
ENDROOT
TORSDOF 0
ENDMDL
