MODEL 1
REMARK minimizedAffinity -4.52623034
REMARK minimizedRMSD -1
REMARK  0 active torsions:
REMARK  status: ('A' for Active; 'I' for Inactive)
ROOT
ATOM      1  C4' PXY d   1      -2.400   0.569   1.614  0.00  0.00     0.077 C 
ATOM      2  C1' PXY d   1       2.149   0.531  -1.952  0.00  0.00     0.077 C 
ATOM      3  C1  PXY d   1       0.951   0.530  -1.023  0.00  0.00    -0.082 A 
ATOM      4  C2  PXY d   1       0.574   1.657  -0.442  0.00  0.00     0.003 A 
ATOM      5  C3  PXY d   1      -0.488   1.669   0.426  0.00  0.00     0.003 A 
ATOM      6  C4  PXY d   1      -1.203   0.525   0.661  0.00  0.00    -0.082 A 
ATOM      7  C5  PXY d   1      -0.830  -0.627   0.064  0.00  0.00     0.003 A 
ATOM      8  C6  PXY d   1       0.276  -0.626  -0.781  0.00  0.00     0.003 A 
ENDROOT
TORSDOF 0
ENDMDL
