MODEL 1
REMARK minimizedAffinity -3.68094039
REMARK minimizedRMSD -1
REMARK  0 active torsions:
REMARK  status: ('A' for Active; 'I' for Inactive)
ROOT
ATOM      1  C4' PXY d   1       1.174  -3.850  -1.868  0.00  0.00     0.077 C 
ATOM      2  C1' PXY d   1       1.246   1.928  -1.700  0.00  0.00     0.077 C 
ATOM      3  C1  PXY d   1       1.225   0.412  -1.731  0.00  0.00    -0.082 A 
ATOM      4  C2  PXY d   1       1.888  -0.232  -2.678  0.00  0.00     0.003 A 
ATOM      5  C3  PXY d   1       1.853  -1.601  -2.740  0.00  0.00     0.003 A 
ATOM      6  C4  PXY d   1       1.176  -2.321  -1.792  0.00  0.00    -0.082 A 
ATOM      7  C5  PXY d   1       0.506  -1.671  -0.817  0.00  0.00     0.003 A 
ATOM      8  C6  PXY d   1       0.520  -0.279  -0.795  0.00  0.00     0.003 A 
ENDROOT
TORSDOF 0
ENDMDL
