MODEL 1
REMARK minimizedAffinity -2.48831248
REMARK minimizedRMSD -1
REMARK  0 active torsions:
REMARK  status: ('A' for Active; 'I' for Inactive)
ROOT
ATOM      1  C4' PXY d   1      -2.166   0.367   2.238  0.00  0.00     0.077 C 
ATOM      2  C1' PXY d   1       2.011  -0.163  -1.723  0.00  0.00     0.077 C 
ATOM      3  C1  PXY d   1       0.911  -0.036  -0.687  0.00  0.00    -0.082 A 
ATOM      4  C2  PXY d   1       0.473   1.164  -0.342  0.00  0.00     0.003 A 
ATOM      5  C3  PXY d   1      -0.498   1.298   0.616  0.00  0.00     0.003 A 
ATOM      6  C4  PXY d   1      -1.064   0.191   1.189  0.00  0.00    -0.082 A 
ATOM      7  C5  PXY d   1      -0.630  -1.037   0.835  0.00  0.00     0.003 A 
ATOM      8  C6  PXY d   1       0.386  -1.151  -0.110  0.00  0.00     0.003 A 
ENDROOT
TORSDOF 0
ENDMDL
