MODEL 1
REMARK minimizedAffinity -3.4352181
REMARK minimizedRMSD -1
REMARK  0 active torsions:
REMARK  status: ('A' for Active; 'I' for Inactive)
ROOT
ATOM      1  C4' PXY d   1       0.737   1.973  -1.188  0.00  0.00     0.077 C 
ATOM      2  C1' PXY d   1       1.757  -3.634  -2.155  0.00  0.00     0.077 C 
ATOM      3  C1  PXY d   1       1.502  -2.161  -1.904  0.00  0.00    -0.082 A 
ATOM      4  C2  PXY d   1       0.501  -1.794  -1.120  0.00  0.00     0.003 A 
ATOM      5  C3  PXY d   1       0.236  -0.466  -0.908  0.00  0.00     0.003 A 
ATOM      6  C4  PXY d   1       1.037   0.497  -1.462  0.00  0.00    -0.082 A 
ATOM      7  C5  PXY d   1       2.067   0.131  -2.254  0.00  0.00     0.003 A 
ATOM      8  C6  PXY d   1       2.294  -1.222  -2.490  0.00  0.00     0.003 A 
ENDROOT
TORSDOF 0
ENDMDL
