MODEL 1
REMARK minimizedAffinity -3.17414522
REMARK minimizedRMSD -1
REMARK  0 active torsions:
REMARK  status: ('A' for Active; 'I' for Inactive)
ROOT
ATOM      1  C4' PXY d   1      -2.214   0.585   1.938  0.00  0.00     0.077 C 
ATOM      2  C1' PXY d   1       1.881   0.116  -2.115  0.00  0.00     0.077 C 
ATOM      3  C1  PXY d   1       0.801   0.228  -1.057  0.00  0.00    -0.082 A 
ATOM      4  C2  PXY d   1       0.507   1.412  -0.545  0.00  0.00     0.003 A 
ATOM      5  C3  PXY d   1      -0.444   1.527   0.436  0.00  0.00     0.003 A 
ATOM      6  C4  PXY d   1      -1.138   0.426   0.860  0.00  0.00    -0.082 A 
ATOM      7  C5  PXY d   1      -0.851  -0.785   0.335  0.00  0.00     0.003 A 
ATOM      8  C6  PXY d   1       0.146  -0.886  -0.630  0.00  0.00     0.003 A 
ENDROOT
TORSDOF 0
ENDMDL
