MODEL 1
REMARK minimizedAffinity -4.67774487
REMARK minimizedRMSD -1
REMARK  0 active torsions:
REMARK  status: ('A' for Active; 'I' for Inactive)
ROOT
ATOM      1  C4' PXY d   1       1.988   0.118  -3.054  0.00  0.00     0.077 C 
ATOM      2  C1' PXY d   1      -1.304  -0.904   1.586  0.00  0.00     0.077 C 
ATOM      3  C1  PXY d   1      -0.441  -0.623   0.372  0.00  0.00    -0.082 A 
ATOM      4  C2  PXY d   1      -0.397  -1.501  -0.617  0.00  0.00     0.003 A 
ATOM      5  C3  PXY d   1       0.402  -1.278  -1.708  0.00  0.00     0.003 A 
ATOM      6  C4  PXY d   1       1.123  -0.119  -1.813  0.00  0.00    -0.082 A 
ATOM      7  C5  PXY d   1       1.076   0.787  -0.814  0.00  0.00     0.003 A 
ATOM      8  C6  PXY d   1       0.290   0.523   0.304  0.00  0.00     0.003 A 
ENDROOT
TORSDOF 0
ENDMDL
