MODEL 1
REMARK minimizedAffinity -4.91030836
REMARK minimizedRMSD -1
REMARK  0 active torsions:
REMARK  status: ('A' for Active; 'I' for Inactive)
ROOT
ATOM      1  C4' PXY d   1       1.289   2.439   1.255  0.00  0.00     0.077 C 
ATOM      2  C1' PXY d   1       0.989  -1.845  -2.615  0.00  0.00     0.077 C 
ATOM      3  C1  PXY d   1       1.057  -0.725  -1.595  0.00  0.00    -0.082 A 
ATOM      4  C2  PXY d   1       1.771   0.357  -1.858  0.00  0.00     0.003 A 
ATOM      5  C3  PXY d   1       1.868   1.365  -0.933  0.00  0.00     0.003 A 
ATOM      6  C4  PXY d   1       1.185   1.288   0.251  0.00  0.00    -0.082 A 
ATOM      7  C5  PXY d   1       0.446   0.192   0.522  0.00  0.00     0.003 A 
ATOM      8  C6  PXY d   1       0.393  -0.839  -0.412  0.00  0.00     0.003 A 
ENDROOT
TORSDOF 0
ENDMDL
