MODEL 1
REMARK minimizedAffinity -1.42501295
REMARK minimizedRMSD -1
REMARK  0 active torsions:
REMARK  status: ('A' for Active; 'I' for Inactive)
ROOT
ATOM      1  C4' PXY d   1       2.429   0.372  -1.498  0.00  0.00     0.077 C 
ATOM      2  C1' PXY d   1      -2.224   0.625   1.922  0.00  0.00     0.077 C 
ATOM      3  C1  PXY d   1      -1.004   0.545   1.026  0.00  0.00    -0.082 A 
ATOM      4  C2  PXY d   1      -0.167   1.568   0.968  0.00  0.00     0.003 A 
ATOM      5  C3  PXY d   1       0.924   1.526   0.139  0.00  0.00     0.003 A 
ATOM      6  C4  PXY d   1       1.190   0.404  -0.600  0.00  0.00    -0.082 A 
ATOM      7  C5  PXY d   1       0.346  -0.648  -0.539  0.00  0.00     0.003 A 
ATOM      8  C6  PXY d   1      -0.778  -0.569   0.278  0.00  0.00     0.003 A 
ENDROOT
TORSDOF 0
ENDMDL
