MODEL 1
REMARK minimizedAffinity -5.02548981
REMARK minimizedRMSD -1
REMARK  0 active torsions:
REMARK  status: ('A' for Active; 'I' for Inactive)
ROOT
ATOM      1  C4' PXY d   1       1.853   0.356  -3.125  0.00  0.00     0.077 C 
ATOM      2  C1' PXY d   1      -1.340  -0.356   1.641  0.00  0.00     0.077 C 
ATOM      3  C1  PXY d   1      -0.506  -0.156   0.390  0.00  0.00    -0.082 A 
ATOM      4  C2  PXY d   1      -0.236  -1.192  -0.388  0.00  0.00     0.003 A 
ATOM      5  C3  PXY d   1       0.544  -1.036  -1.505  0.00  0.00     0.003 A 
ATOM      6  C4  PXY d   1       1.007   0.203  -1.858  0.00  0.00    -0.082 A 
ATOM      7  C5  PXY d   1       0.727   1.267  -1.076  0.00  0.00     0.003 A 
ATOM      8  C6  PXY d   1      -0.031   1.080   0.077  0.00  0.00     0.003 A 
ENDROOT
TORSDOF 0
ENDMDL
