MODEL 1
REMARK minimizedAffinity -3.42168427
REMARK minimizedRMSD -1
REMARK  0 active torsions:
REMARK  status: ('A' for Active; 'I' for Inactive)
ROOT
ATOM      1  C4' PXY d   1      -2.567   0.260   1.349  0.00  0.00     0.077 C 
ATOM      2  C1' PXY d   1       2.363   0.371  -1.667  0.00  0.00     0.077 C 
ATOM      3  C1  PXY d   1       1.066   0.332  -0.884  0.00  0.00    -0.082 A 
ATOM      4  C2  PXY d   1       0.672   1.406  -0.218  0.00  0.00     0.003 A 
ATOM      5  C3  PXY d   1      -0.483   1.378   0.521  0.00  0.00     0.003 A 
ATOM      6  C4  PXY d   1      -1.269   0.257   0.537  0.00  0.00    -0.082 A 
ATOM      7  C5  PXY d   1      -0.879  -0.839  -0.149  0.00  0.00     0.003 A 
ATOM      8  C6  PXY d   1       0.317  -0.803  -0.860  0.00  0.00     0.003 A 
ENDROOT
TORSDOF 0
ENDMDL
