MODEL 1
REMARK minimizedAffinity -4.24163532
REMARK minimizedRMSD -1
REMARK  0 active torsions:
REMARK  status: ('A' for Active; 'I' for Inactive)
ROOT
ATOM      1  C4' PXY d   1      -1.402   0.173   1.965  0.00  0.00     0.077 C 
ATOM      2  C1' PXY d   1       1.795  -0.585  -2.791  0.00  0.00     0.077 C 
ATOM      3  C1  PXY d   1       0.965  -0.377  -1.539  0.00  0.00    -0.082 A 
ATOM      4  C2  PXY d   1       0.158  -1.340  -1.122  0.00  0.00     0.003 A 
ATOM      5  C3  PXY d   1      -0.623  -1.156  -0.010  0.00  0.00     0.003 A 
ATOM      6  C4  PXY d   1      -0.539   0.004   0.712  0.00  0.00    -0.082 A 
ATOM      7  C5  PXY d   1       0.290   0.986   0.299  0.00  0.00     0.003 A 
ATOM      8  C6  PXY d   1       1.044   0.796  -0.855  0.00  0.00     0.003 A 
ENDROOT
TORSDOF 0
ENDMDL
