MODEL 1
REMARK minimizedAffinity -6.12831831
REMARK minimizedRMSD -1
REMARK  0 active torsions:
REMARK  status: ('A' for Active; 'I' for Inactive)
ROOT
ATOM      1  C4' PXY d   1      -1.137   0.034   1.668  0.00  0.00     0.077 C 
ATOM      2  C1' PXY d   1       1.839   0.025  -3.287  0.00  0.00     0.077 C 
ATOM      3  C1  PXY d   1       1.052   0.017  -1.992  0.00  0.00    -0.082 A 
ATOM      4  C2  PXY d   1       0.899   1.142  -1.312  0.00  0.00     0.003 A 
ATOM      5  C3  PXY d   1       0.218   1.146  -0.122  0.00  0.00     0.003 A 
ATOM      6  C4  PXY d   1      -0.359  -0.003   0.350  0.00  0.00    -0.082 A 
ATOM      7  C5  PXY d   1      -0.217  -1.152  -0.343  0.00  0.00     0.003 A 
ATOM      8  C6  PXY d   1       0.514  -1.144  -1.528  0.00  0.00     0.003 A 
ENDROOT
TORSDOF 0
ENDMDL
