MODEL 1
REMARK minimizedAffinity -4.54703856
REMARK minimizedRMSD -1
REMARK  0 active torsions:
REMARK  status: ('A' for Active; 'I' for Inactive)
ROOT
ATOM      1  C4' PXY d   1      -1.382  -0.005   1.141  0.00  0.00     0.077 C 
ATOM      2  C1' PXY d   1       2.212   0.308  -3.376  0.00  0.00     0.077 C 
ATOM      3  C1  PXY d   1       1.263   0.217  -2.198  0.00  0.00    -0.082 A 
ATOM      4  C2  PXY d   1       1.125   1.253  -1.386  0.00  0.00     0.003 A 
ATOM      5  C3  PXY d   1       0.295   1.176  -0.297  0.00  0.00     0.003 A 
ATOM      6  C4  PXY d   1      -0.442   0.046  -0.067  0.00  0.00    -0.082 A 
ATOM      7  C5  PXY d   1      -0.316  -1.012  -0.896  0.00  0.00     0.003 A 
ATOM      8  C6  PXY d   1       0.563  -0.928  -1.972  0.00  0.00     0.003 A 
ENDROOT
TORSDOF 0
ENDMDL
