MODEL 1
REMARK minimizedAffinity -3.79564857
REMARK minimizedRMSD -1
REMARK  0 active torsions:
REMARK  status: ('A' for Active; 'I' for Inactive)
ROOT
ATOM      1  C4' PXY d   1       2.391   0.137  -3.235  0.00  0.00     0.077 C 
ATOM      2  C1' PXY d   1      -1.090  -0.039   1.376  0.00  0.00     0.077 C 
ATOM      3  C1  PXY d   1      -0.178   0.020   0.167  0.00  0.00    -0.082 A 
ATOM      4  C2  PXY d   1      -0.063  -1.039  -0.618  0.00  0.00     0.003 A 
ATOM      5  C3  PXY d   1       0.782  -1.013  -1.698  0.00  0.00     0.003 A 
ATOM      6  C4  PXY d   1       1.475   0.126  -2.008  0.00  0.00    -0.082 A 
ATOM      7  C5  PXY d   1       1.355   1.214  -1.219  0.00  0.00     0.003 A 
ATOM      8  C6  PXY d   1       0.524   1.154  -0.104  0.00  0.00     0.003 A 
ENDROOT
TORSDOF 0
ENDMDL
