MODEL 1
REMARK minimizedAffinity -5.42288542
REMARK minimizedRMSD -1
REMARK  0 active torsions:
REMARK  status: ('A' for Active; 'I' for Inactive)
ROOT
ATOM      1  C4' PXY d   1       0.171  -3.577  -1.448  0.00  0.00     0.077 C 
ATOM      2  C1' PXY d   1       0.353   1.876   0.462  0.00  0.00     0.077 C 
ATOM      3  C1  PXY d   1       0.307   0.442  -0.026  0.00  0.00    -0.082 A 
ATOM      4  C2  PXY d   1       0.628   0.167  -1.280  0.00  0.00     0.003 A 
ATOM      5  C3  PXY d   1       0.561  -1.120  -1.748  0.00  0.00     0.003 A 
ATOM      6  C4  PXY d   1       0.213  -2.144  -0.908  0.00  0.00    -0.082 A 
ATOM      7  C5  PXY d   1      -0.106  -1.874   0.375  0.00  0.00     0.003 A 
ATOM      8  C6  PXY d   1      -0.071  -0.555   0.819  0.00  0.00     0.003 A 
ENDROOT
TORSDOF 0
ENDMDL
