MODEL 1
REMARK minimizedAffinity -3.66484427
REMARK minimizedRMSD -1
REMARK  0 active torsions:
REMARK  status: ('A' for Active; 'I' for Inactive)
ROOT
ATOM      1  C4' PXY d   1      -1.998  -0.319   2.116  0.00  0.00     0.077 C 
ATOM      2  C1' PXY d   1       1.880   0.306  -2.125  0.00  0.00     0.077 C 
ATOM      3  C1  PXY d   1       0.860   0.130  -1.017  0.00  0.00    -0.082 A 
ATOM      4  C2  PXY d   1       0.307   1.196  -0.462  0.00  0.00     0.003 A 
ATOM      5  C3  PXY d   1      -0.593   1.056   0.563  0.00  0.00     0.003 A 
ATOM      6  C4  PXY d   1      -0.971  -0.190   0.988  0.00  0.00    -0.082 A 
ATOM      7  C5  PXY d   1      -0.418  -1.283   0.420  0.00  0.00     0.003 A 
ATOM      8  C6  PXY d   1       0.524  -1.118  -0.591  0.00  0.00     0.003 A 
ENDROOT
TORSDOF 0
ENDMDL
