MODEL 1
REMARK minimizedAffinity -4.04484701
REMARK minimizedRMSD -1
REMARK  0 active torsions:
REMARK  status: ('A' for Active; 'I' for Inactive)
ROOT
ATOM      1  C4' PXY d   1      -2.698   0.610   1.806  0.00  0.00     0.077 C 
ATOM      2  C1' PXY d   1       1.871   0.415  -1.731  0.00  0.00     0.077 C 
ATOM      3  C1  PXY d   1       0.667   0.457  -0.810  0.00  0.00    -0.082 A 
ATOM      4  C2  PXY d   1       0.404   1.559  -0.127  0.00  0.00     0.003 A 
ATOM      5  C3  PXY d   1      -0.662   1.603   0.735  0.00  0.00     0.003 A 
ATOM      6  C4  PXY d   1      -1.498   0.526   0.857  0.00  0.00    -0.082 A 
ATOM      7  C5  PXY d   1      -1.243  -0.598   0.155  0.00  0.00     0.003 A 
ATOM      8  C6  PXY d   1      -0.132  -0.637  -0.682  0.00  0.00     0.003 A 
ENDROOT
TORSDOF 0
ENDMDL
