MODEL 1
REMARK minimizedAffinity -3.84446836
REMARK minimizedRMSD -1
REMARK  0 active torsions:
REMARK  status: ('A' for Active; 'I' for Inactive)
ROOT
ATOM      1  C4' PXY d   1      -0.915   0.031   1.904  0.00  0.00     0.077 C 
ATOM      2  C1' PXY d   1       1.861  -0.177  -3.162  0.00  0.00     0.077 C 
ATOM      3  C1  PXY d   1       1.141  -0.114  -1.830  0.00  0.00    -0.082 A 
ATOM      4  C2  PXY d   1       0.447  -1.159  -1.411  0.00  0.00     0.003 A 
ATOM      5  C3  PXY d   1      -0.236  -1.107  -0.223  0.00  0.00     0.003 A 
ATOM      6  C4  PXY d   1      -0.165   0.008   0.569  0.00  0.00    -0.082 A 
ATOM      7  C5  PXY d   1       0.551   1.074   0.154  0.00  0.00     0.003 A 
ATOM      8  C6  PXY d   1       1.204   1.016  -1.074  0.00  0.00     0.003 A 
ENDROOT
TORSDOF 0
ENDMDL
