MODEL 1
REMARK minimizedAffinity 12.9703741
REMARK minimizedRMSD -1
REMARK  0 active torsions:
REMARK  status: ('A' for Active; 'I' for Inactive)
ROOT
ATOM      1  O1  BZF d   1       3.249  -2.162   0.297  0.00  0.00    -0.204 OA
ATOM      2  C2  BZF d   1       2.954  -3.495   0.087  0.00  0.00     0.174 A 
ATOM      3  C3  BZF d   1       2.203  -3.651  -1.022  0.00  0.00    -0.012 A 
ATOM      4  C3A BZF d   1       2.094  -2.342  -1.589  0.00  0.00    -0.107 A 
ATOM      5  C4  BZF d   1       1.483  -1.851  -2.708  0.00  0.00     0.055 A 
ATOM      6  C5  BZF d   1       1.503  -0.512  -2.937  0.00  0.00    -0.016 A 
ATOM      7  C6  BZF d   1       2.119   0.365  -2.069  0.00  0.00     0.022 A 
ATOM      8  C7  BZF d   1       2.743  -0.075  -0.949  0.00  0.00     0.029 A 
ATOM      9  C7A BZF d   1       2.753  -1.432  -0.731  0.00  0.00     0.058 A 
ENDROOT
TORSDOF 0
ENDMDL
