MODEL 1
REMARK minimizedAffinity 6.43478823
REMARK minimizedRMSD -1
REMARK  0 active torsions:
REMARK  status: ('A' for Active; 'I' for Inactive)
ROOT
ATOM      1  O1  BZF d   1       4.155  -3.184  -0.483  0.00  0.00    -0.204 OA
ATOM      2  C2  BZF d   1       4.453  -4.352  -1.157  0.00  0.00     0.174 A 
ATOM      3  C3  BZF d   1       3.541  -4.595  -2.120  0.00  0.00    -0.012 A 
ATOM      4  C3A BZF d   1       2.665  -3.463  -2.103  0.00  0.00    -0.107 A 
ATOM      5  C4  BZF d   1       1.570  -3.113  -2.839  0.00  0.00     0.055 A 
ATOM      6  C5  BZF d   1       0.898  -1.975  -2.522  0.00  0.00    -0.016 A 
ATOM      7  C6  BZF d   1       1.290  -1.168  -1.474  0.00  0.00     0.022 A 
ATOM      8  C7  BZF d   1       2.374  -1.472  -0.719  0.00  0.00     0.029 A 
ATOM      9  C7A BZF d   1       3.074  -2.604  -1.058  0.00  0.00     0.058 A 
ENDROOT
TORSDOF 0
ENDMDL
