MODEL 1
REMARK minimizedAffinity 14.76719
REMARK minimizedRMSD -1
REMARK  0 active torsions:
REMARK  status: ('A' for Active; 'I' for Inactive)
ROOT
ATOM      1  O1  BZF d   1       3.449  -2.302  -0.426  0.00  0.00    -0.204 OA
ATOM      2  C2  BZF d   1       3.600  -0.933  -0.543  0.00  0.00     0.174 A 
ATOM      3  C3  BZF d   1       2.511  -0.379  -1.115  0.00  0.00    -0.012 A 
ATOM      4  C3A BZF d   1       1.587  -1.457  -1.288  0.00  0.00    -0.107 A 
ATOM      5  C4  BZF d   1       0.320  -1.536  -1.792  0.00  0.00     0.055 A 
ATOM      6  C5  BZF d   1      -0.279  -2.752  -1.887  0.00  0.00    -0.016 A 
ATOM      7  C6  BZF d   1       0.361  -3.909  -1.494  0.00  0.00     0.022 A 
ATOM      8  C7  BZF d   1       1.617  -3.881  -0.983  0.00  0.00     0.029 A 
ATOM      9  C7A BZF d   1       2.212  -2.649  -0.855  0.00  0.00     0.058 A 
ENDROOT
TORSDOF 0
ENDMDL
