MODEL 1
REMARK minimizedAffinity 6.15936947
REMARK minimizedRMSD -1
REMARK  0 active torsions:
REMARK  status: ('A' for Active; 'I' for Inactive)
ROOT
ATOM      1  O1  BZF d   1       4.527  -0.499  -1.142  0.00  0.00    -0.204 OA
ATOM      2  C2  BZF d   1       3.968   0.751  -1.326  0.00  0.00     0.174 A 
ATOM      3  C3  BZF d   1       2.635   0.657  -1.505  0.00  0.00    -0.012 A 
ATOM      4  C3A BZF d   1       2.329  -0.730  -1.336  0.00  0.00    -0.107 A 
ATOM      5  C4  BZF d   1       1.168  -1.448  -1.379  0.00  0.00     0.055 A 
ATOM      6  C5  BZF d   1       1.222  -2.799  -1.245  0.00  0.00    -0.016 A 
ATOM      7  C6  BZF d   1       2.417  -3.465  -1.072  0.00  0.00     0.022 A 
ATOM      8  C7  BZF d   1       3.595  -2.796  -1.018  0.00  0.00     0.029 A 
ATOM      9  C7A BZF d   1       3.541  -1.427  -1.120  0.00  0.00     0.058 A 
ENDROOT
TORSDOF 0
ENDMDL
