MODEL 1
REMARK minimizedAffinity 6.36478043
REMARK minimizedRMSD -1
REMARK  0 active torsions:
REMARK  status: ('A' for Active; 'I' for Inactive)
ROOT
ATOM      1  O1  BZF d   1       4.082  -3.080   0.081  0.00  0.00    -0.204 OA
ATOM      2  C2  BZF d   1       3.125  -4.048  -0.155  0.00  0.00     0.174 A 
ATOM      3  C3  BZF d   1       2.011  -3.502  -0.683  0.00  0.00    -0.012 A 
ATOM      4  C3A BZF d   1       2.323  -2.118  -0.870  0.00  0.00    -0.107 A 
ATOM      5  C4  BZF d   1       1.625  -1.058  -1.373  0.00  0.00     0.055 A 
ATOM      6  C5  BZF d   1       2.191   0.178  -1.348  0.00  0.00    -0.016 A 
ATOM      7  C6  BZF d   1       3.449   0.389  -0.823  0.00  0.00     0.022 A 
ATOM      8  C7  BZF d   1       4.182  -0.632  -0.317  0.00  0.00     0.029 A 
ATOM      9  C7A BZF d   1       3.626  -1.887  -0.371  0.00  0.00     0.058 A 
ENDROOT
TORSDOF 0
ENDMDL
