MODEL 1
REMARK minimizedAffinity 12.2786846
REMARK minimizedRMSD -1
REMARK  0 active torsions:
REMARK  status: ('A' for Active; 'I' for Inactive)
ROOT
ATOM      1  O1  BZF d   1       1.028   2.252  -2.176  0.00  0.00    -0.204 OA
ATOM      2  C2  BZF d   1       1.542   2.853  -1.044  0.00  0.00     0.174 A 
ATOM      3  C3  BZF d   1       2.317   1.991  -0.355  0.00  0.00    -0.012 A 
ATOM      4  C3A BZF d   1       2.360   0.803  -1.152  0.00  0.00    -0.107 A 
ATOM      5  C4  BZF d   1       2.983  -0.403  -1.007  0.00  0.00     0.055 A 
ATOM      6  C5  BZF d   1       2.761  -1.376  -1.929  0.00  0.00    -0.016 A 
ATOM      7  C6  BZF d   1       1.920  -1.179  -3.005  0.00  0.00     0.022 A 
ATOM      8  C7  BZF d   1       1.284   0.003  -3.194  0.00  0.00     0.029 A 
ATOM      9  C7A BZF d   1       1.532   0.999  -2.282  0.00  0.00     0.058 A 
ENDROOT
TORSDOF 0
ENDMDL
