MODEL 1
REMARK minimizedAffinity 6.84338284
REMARK minimizedRMSD -1
REMARK  0 active torsions:
REMARK  status: ('A' for Active; 'I' for Inactive)
ROOT
ATOM      1  O1  BZF d   1       0.282  -3.032   1.475  0.00  0.00    -0.204 OA
ATOM      2  C2  BZF d   1      -0.704  -2.076   1.321  0.00  0.00     0.174 A 
ATOM      3  C3  BZF d   1      -0.605  -1.477   0.117  0.00  0.00    -0.012 A 
ATOM      4  C3A BZF d   1       0.454  -2.161  -0.558  0.00  0.00    -0.107 A 
ATOM      5  C4  BZF d   1       1.015  -2.034  -1.797  0.00  0.00     0.055 A 
ATOM      6  C5  BZF d   1       2.083  -2.808  -2.121  0.00  0.00    -0.016 A 
ATOM      7  C6  BZF d   1       2.620  -3.715  -1.231  0.00  0.00     0.022 A 
ATOM      8  C7  BZF d   1       2.095  -3.881   0.008  0.00  0.00     0.029 A 
ATOM      9  C7A BZF d   1       0.994  -3.123   0.327  0.00  0.00     0.058 A 
ENDROOT
TORSDOF 0
ENDMDL
