MODEL 1
REMARK minimizedAffinity 13.3580856
REMARK minimizedRMSD -1
REMARK  0 active torsions:
REMARK  status: ('A' for Active; 'I' for Inactive)
ROOT
ATOM      1  O1  BZF d   1       1.205   1.033  -3.205  0.00  0.00    -0.204 OA
ATOM      2  C2  BZF d   1       1.603   2.212  -2.605  0.00  0.00     0.174 A 
ATOM      3  C3  BZF d   1       2.239   1.966  -1.442  0.00  0.00    -0.012 A 
ATOM      4  C3A BZF d   1       2.321   0.540  -1.351  0.00  0.00    -0.107 A 
ATOM      5  C4  BZF d   1       2.857  -0.313  -0.430  0.00  0.00     0.055 A 
ATOM      6  C5  BZF d   1       2.703  -1.652  -0.602  0.00  0.00    -0.016 A 
ATOM      7  C6  BZF d   1       2.016  -2.172  -1.680  0.00  0.00     0.022 A 
ATOM      8  C7  BZF d   1       1.471  -1.365  -2.623  0.00  0.00     0.029 A 
ATOM      9  C7A BZF d   1       1.653  -0.012  -2.469  0.00  0.00     0.058 A 
ENDROOT
TORSDOF 0
ENDMDL
