MODEL 1
REMARK minimizedAffinity 11.6870241
REMARK minimizedRMSD -1
REMARK  0 active torsions:
REMARK  status: ('A' for Active; 'I' for Inactive)
ROOT
ATOM      1  O1  BZF d   1      -4.028   1.078   2.311  0.00  0.00    -0.204 OA
ATOM      2  C2  BZF d   1      -2.935   0.251   2.142  0.00  0.00     0.174 A 
ATOM      3  C3  BZF d   1      -2.110   0.324   3.206  0.00  0.00    -0.012 A 
ATOM      4  C3A BZF d   1      -2.773   1.185   4.138  0.00  0.00    -0.107 A 
ATOM      5  C4  BZF d   1      -2.460   1.631   5.390  0.00  0.00     0.055 A 
ATOM      6  C5  BZF d   1      -3.287   2.521   5.999  0.00  0.00    -0.016 A 
ATOM      7  C6  BZF d   1      -4.429   2.989   5.384  0.00  0.00     0.022 A 
ATOM      8  C7  BZF d   1      -4.783   2.572   4.144  0.00  0.00     0.029 A 
ATOM      9  C7A BZF d   1      -3.968   1.647   3.539  0.00  0.00     0.058 A 
ENDROOT
TORSDOF 0
ENDMDL
