MODEL 1
REMARK minimizedAffinity 12.5506544
REMARK minimizedRMSD -1
REMARK  0 active torsions:
REMARK  status: ('A' for Active; 'I' for Inactive)
ROOT
ATOM      1  O1  BZF d   1      -3.228  -5.507   1.698  0.00  0.00    -0.204 OA
ATOM      2  C2  BZF d   1      -1.925  -5.510   1.239  0.00  0.00     0.174 A 
ATOM      3  C3  BZF d   1      -1.888  -5.720  -0.093  0.00  0.00    -0.012 A 
ATOM      4  C3A BZF d   1      -3.258  -5.765  -0.505  0.00  0.00    -0.107 A 
ATOM      5  C4  BZF d   1      -3.869  -5.931  -1.715  0.00  0.00     0.055 A 
ATOM      6  C5  BZF d   1      -5.225  -6.000  -1.765  0.00  0.00    -0.016 A 
ATOM      7  C6  BZF d   1      -6.000  -5.911  -0.627  0.00  0.00     0.022 A 
ATOM      8  C7  BZF d   1      -5.439  -5.741   0.595  0.00  0.00     0.029 A 
ATOM      9  C7A BZF d   1      -4.070  -5.638   0.645  0.00  0.00     0.058 A 
ENDROOT
TORSDOF 0
ENDMDL
