MODEL 1
REMARK minimizedAffinity 3.72237229
REMARK minimizedRMSD -1
REMARK  0 active torsions:
REMARK  status: ('A' for Active; 'I' for Inactive)
ROOT
ATOM      1  O1  BZF d   1      -0.529   1.711   3.289  0.00  0.00    -0.204 OA
ATOM      2  C2  BZF d   1       0.495   0.975   2.725  0.00  0.00     0.174 A 
ATOM      3  C3  BZF d   1       0.012  -0.121   2.106  0.00  0.00    -0.012 A 
ATOM      4  C3A BZF d   1      -1.411  -0.018   2.216  0.00  0.00    -0.107 A 
ATOM      5  C4  BZF d   1      -2.445  -0.798   1.783  0.00  0.00     0.055 A 
ATOM      6  C5  BZF d   1      -3.717  -0.455   2.118  0.00  0.00    -0.016 A 
ATOM      7  C6  BZF d   1      -3.990   0.656   2.889  0.00  0.00     0.022 A 
ATOM      8  C7  BZF d   1      -2.998   1.463   3.338  0.00  0.00     0.029 A 
ATOM      9  C7A BZF d   1      -1.714   1.137   2.973  0.00  0.00     0.058 A 
ENDROOT
TORSDOF 0
ENDMDL
