MODEL 1
REMARK minimizedAffinity 4.07096052
REMARK minimizedRMSD -1
REMARK  0 active torsions:
REMARK  status: ('A' for Active; 'I' for Inactive)
ROOT
ATOM      1  O1  BZF d   1      -5.743  -3.647  -5.999  0.00  0.00    -0.204 OA
ATOM      2  C2  BZF d   1      -5.570  -2.320  -5.655  0.00  0.00     0.174 A 
ATOM      3  C3  BZF d   1      -4.321  -2.104  -5.195  0.00  0.00    -0.012 A 
ATOM      4  C3A BZF d   1      -3.644  -3.356  -5.343  0.00  0.00    -0.107 A 
ATOM      5  C4  BZF d   1      -2.371  -3.772  -5.075  0.00  0.00     0.055 A 
ATOM      6  C5  BZF d   1      -2.050  -5.079  -5.264  0.00  0.00    -0.016 A 
ATOM      7  C6  BZF d   1      -2.976  -5.996  -5.715  0.00  0.00     0.022 A 
ATOM      8  C7  BZF d   1      -4.250  -5.630  -5.999  0.00  0.00     0.029 A 
ATOM      9  C7A BZF d   1      -4.568  -4.303  -5.840  0.00  0.00     0.058 A 
ENDROOT
TORSDOF 0
ENDMDL
