MODEL 1
REMARK minimizedAffinity 10.4916248
REMARK minimizedRMSD -1
REMARK  0 active torsions:
REMARK  status: ('A' for Active; 'I' for Inactive)
ROOT
ATOM      1  O1  BZF d   1       1.568   1.431  -4.002  0.00  0.00    -0.204 OA
ATOM      2  C2  BZF d   1       1.345   0.385  -4.876  0.00  0.00     0.174 A 
ATOM      3  C3  BZF d   1       1.628  -0.796  -4.290  0.00  0.00    -0.012 A 
ATOM      4  C3A BZF d   1       1.966  -0.475  -2.938  0.00  0.00    -0.107 A 
ATOM      5  C4  BZF d   1       2.325  -1.226  -1.856  0.00  0.00     0.055 A 
ATOM      6  C5  BZF d   1       2.661  -0.598  -0.698  0.00  0.00    -0.016 A 
ATOM      7  C6  BZF d   1       2.653   0.777  -0.589  0.00  0.00     0.022 A 
ATOM      8  C7  BZF d   1       2.299   1.564  -1.634  0.00  0.00     0.029 A 
ATOM      9  C7A BZF d   1       1.928   0.932  -2.795  0.00  0.00     0.058 A 
ENDROOT
TORSDOF 0
ENDMDL
