MODEL 1
REMARK minimizedAffinity 6.54873228
REMARK minimizedRMSD -1
REMARK  0 active torsions:
REMARK  status: ('A' for Active; 'I' for Inactive)
ROOT
ATOM      1  O1  BZF d   1       3.780  -3.477  -0.549  0.00  0.00    -0.204 OA
ATOM      2  C2  BZF d   1       3.490  -4.825  -0.462  0.00  0.00     0.174 A 
ATOM      3  C3  BZF d   1       2.179  -5.048  -0.689  0.00  0.00    -0.012 A 
ATOM      4  C3A BZF d   1       1.633  -3.769  -1.026  0.00  0.00    -0.107 A 
ATOM      5  C4  BZF d   1       0.382  -3.343  -1.371  0.00  0.00     0.055 A 
ATOM      6  C5  BZF d   1       0.167  -2.016  -1.566  0.00  0.00    -0.016 A 
ATOM      7  C6  BZF d   1       1.176  -1.087  -1.420  0.00  0.00     0.022 A 
ATOM      8  C7  BZF d   1       2.434  -1.462  -1.084  0.00  0.00     0.029 A 
ATOM      9  C7A BZF d   1       2.663  -2.806  -0.918  0.00  0.00     0.058 A 
ENDROOT
TORSDOF 0
ENDMDL
