MODEL 1
REMARK minimizedAffinity 4.77915287
REMARK minimizedRMSD -1
REMARK  0 active torsions:
REMARK  status: ('A' for Active; 'I' for Inactive)
ROOT
ATOM      1  O1  BZF d   1      -1.093  -3.639  -1.208  0.00  0.00    -0.204 OA
ATOM      2  C2  BZF d   1      -1.860  -3.349  -2.320  0.00  0.00     0.174 A 
ATOM      3  C3  BZF d   1      -1.223  -2.475  -3.126  0.00  0.00    -0.012 A 
ATOM      4  C3A BZF d   1       0.059  -2.273  -2.523  0.00  0.00    -0.107 A 
ATOM      5  C4  BZF d   1       1.149  -1.524  -2.863  0.00  0.00     0.055 A 
ATOM      6  C5  BZF d   1       2.215  -1.489  -2.021  0.00  0.00    -0.016 A 
ATOM      7  C6  BZF d   1       2.223  -2.185  -0.830  0.00  0.00     0.022 A 
ATOM      8  C7  BZF d   1       1.167  -2.946  -0.452  0.00  0.00     0.029 A 
ATOM      9  C7A BZF d   1       0.102  -3.010  -1.317  0.00  0.00     0.058 A 
ENDROOT
TORSDOF 0
ENDMDL
