MODEL 1
REMARK minimizedAffinity 9.82139683
REMARK minimizedRMSD -1
REMARK  0 active torsions:
REMARK  status: ('A' for Active; 'I' for Inactive)
ROOT
ATOM      1  O1  BZF d   1       3.050   1.526  -1.979  0.00  0.00    -0.204 OA
ATOM      2  C2  BZF d   1       2.078   1.105  -2.865  0.00  0.00     0.174 A 
ATOM      3  C3  BZF d   1       1.868  -0.222  -2.751  0.00  0.00    -0.012 A 
ATOM      4  C3A BZF d   1       2.700  -0.643  -1.665  0.00  0.00    -0.107 A 
ATOM      5  C4  BZF d   1       2.917  -1.848  -1.062  0.00  0.00     0.055 A 
ATOM      6  C5  BZF d   1       3.848  -1.934  -0.075  0.00  0.00    -0.016 A 
ATOM      7  C6  BZF d   1       4.581  -0.837   0.329  0.00  0.00     0.022 A 
ATOM      8  C7  BZF d   1       4.396   0.380  -0.236  0.00  0.00     0.029 A 
ATOM      9  C7A BZF d   1       3.434   0.477  -1.211  0.00  0.00     0.058 A 
ENDROOT
TORSDOF 0
ENDMDL
