MODEL 1
REMARK minimizedAffinity 9.47091579
REMARK minimizedRMSD -1
REMARK  0 active torsions:
REMARK  status: ('A' for Active; 'I' for Inactive)
ROOT
ATOM      1  O1  BZF d   1      -1.091  -2.278  -2.374  0.00  0.00    -0.204 OA
ATOM      2  C2  BZF d   1      -1.700  -3.503  -2.564  0.00  0.00     0.174 A 
ATOM      3  C3  BZF d   1      -0.910  -4.504  -2.127  0.00  0.00    -0.012 A 
ATOM      4  C3A BZF d   1       0.229  -3.859  -1.548  0.00  0.00    -0.107 A 
ATOM      5  C4  BZF d   1       1.356  -4.320  -0.931  0.00  0.00     0.055 A 
ATOM      6  C5  BZF d   1       2.309  -3.431  -0.545  0.00  0.00    -0.016 A 
ATOM      7  C6  BZF d   1       2.168  -2.076  -0.764  0.00  0.00     0.022 A 
ATOM      8  C7  BZF d   1       1.065  -1.571  -1.367  0.00  0.00     0.029 A 
ATOM      9  C7A BZF d   1       0.086  -2.464  -1.729  0.00  0.00     0.058 A 
ENDROOT
TORSDOF 0
ENDMDL
