MODEL 1
REMARK minimizedAffinity 13.8114271
REMARK minimizedRMSD -1
REMARK  1 active torsions:
REMARK  status: ('A' for Active; 'I' for Inactive)
REMARK    1  A    between atoms: C1_2  and  C2_3 
ROOT
ATOM      1  C2  UNL d   1       1.418  -3.483   4.202  0.00  0.00    -0.073 A 
ATOM      2  C3  UNL d   1       0.946  -2.222   4.582  0.00  0.00    -0.002 A 
ATOM      3  C4  UNL d   1       0.603  -1.277   3.614  0.00  0.00     0.004 A 
ATOM      4  C5  UNL d   1       0.721  -1.585   2.259  0.00  0.00    -0.004 A 
ATOM      5  C6  UNL d   1       1.180  -2.844   1.859  0.00  0.00    -0.075 A 
ATOM      6  C7  UNL d   1       1.315  -3.190   0.405  0.00  0.00     0.076 C 
ATOM      7  C8  UNL d   1       1.525  -3.787   2.837  0.00  0.00     0.001 A 
ENDROOT
BRANCH   1   8
ATOM      8  C1  UNL d   1       1.784  -4.510   5.243  0.00  0.00     0.053 C 
ATOM      9  C   UNL d   1       3.051  -4.133   5.994  0.00  0.00     0.018 C 
ENDBRANCH   1   8
TORSDOF 1
ENDMDL
