MODEL 1
REMARK minimizedAffinity 9.21019459
REMARK minimizedRMSD -1
REMARK  1 active torsions:
REMARK  status: ('A' for Active; 'I' for Inactive)
REMARK    1  A    between atoms: C1_2  and  C2_3 
ROOT
ATOM      1  C2  UNL d   1      -3.565   3.300  -3.539  0.00  0.00    -0.073 A 
ATOM      2  C3  UNL d   1      -4.219   4.013  -2.527  0.00  0.00    -0.002 A 
ATOM      3  C4  UNL d   1      -4.324   3.478  -1.243  0.00  0.00     0.004 A 
ATOM      4  C5  UNL d   1      -3.771   2.230  -0.954  0.00  0.00    -0.004 A 
ATOM      5  C6  UNL d   1      -3.103   1.508  -1.948  0.00  0.00    -0.075 A 
ATOM      6  C7  UNL d   1      -2.505   0.164  -1.655  0.00  0.00     0.076 C 
ATOM      7  C8  UNL d   1      -3.004   2.051  -3.237  0.00  0.00     0.001 A 
ENDROOT
BRANCH   1   8
ATOM      8  C1  UNL d   1      -3.443   3.876  -4.925  0.00  0.00     0.053 C 
ATOM      9  C   UNL d   1      -3.760   2.848  -6.000  0.00  0.00     0.018 C 
ENDBRANCH   1   8
TORSDOF 1
ENDMDL
