MODEL 1
REMARK minimizedAffinity 9.54074764
REMARK minimizedRMSD -1
REMARK  1 active torsions:
REMARK  status: ('A' for Active; 'I' for Inactive)
REMARK    1  A    between atoms: C1_2  and  C2_3 
ROOT
ATOM      1  C2  UNL d   1       1.312  -2.478   2.295  0.00  0.00    -0.073 A 
ATOM      2  C3  UNL d   1       1.145  -1.096   2.154  0.00  0.00    -0.002 A 
ATOM      3  C4  UNL d   1       0.780  -0.314   3.250  0.00  0.00     0.004 A 
ATOM      4  C5  UNL d   1       0.584  -0.904   4.499  0.00  0.00    -0.004 A 
ATOM      5  C6  UNL d   1       0.757  -2.282   4.663  0.00  0.00    -0.075 A 
ATOM      6  C7  UNL d   1       0.548  -2.932   5.999  0.00  0.00     0.076 C 
ATOM      7  C8  UNL d   1       1.121  -3.061   3.556  0.00  0.00     0.001 A 
ENDROOT
BRANCH   1   8
ATOM      8  C1  UNL d   1       1.713  -3.326   1.115  0.00  0.00     0.053 C 
ATOM      9  C   UNL d   1       0.515  -3.725   0.267  0.00  0.00     0.018 C 
ENDBRANCH   1   8
TORSDOF 1
ENDMDL
