MODEL 1
REMARK minimizedAffinity 8.76844788
REMARK minimizedRMSD -1
REMARK  1 active torsions:
REMARK  status: ('A' for Active; 'I' for Inactive)
REMARK    1  A    between atoms: C1_2  and  C2_3 
ROOT
ATOM      1  C2  UNL d   1       1.015  -5.184  -1.528  0.00  0.00    -0.073 A 
ATOM      2  C3  UNL d   1       1.718  -5.447  -0.347  0.00  0.00    -0.002 A 
ATOM      3  C4  UNL d   1       1.064  -5.415   0.885  0.00  0.00     0.004 A 
ATOM      4  C5  UNL d   1      -0.299  -5.127   0.949  0.00  0.00    -0.004 A 
ATOM      5  C6  UNL d   1      -1.022  -4.873  -0.221  0.00  0.00    -0.075 A 
ATOM      6  C7  UNL d   1      -2.489  -4.560  -0.169  0.00  0.00     0.076 C 
ATOM      7  C8  UNL d   1      -0.358  -4.905  -1.454  0.00  0.00     0.001 A 
ENDROOT
BRANCH   1   8
ATOM      8  C1  UNL d   1       1.716  -5.223  -2.861  0.00  0.00     0.053 C 
ATOM      9  C   UNL d   1       3.007  -4.421  -2.850  0.00  0.00     0.018 C 
ENDBRANCH   1   8
TORSDOF 1
ENDMDL
