MODEL 1
REMARK minimizedAffinity 6.40005732
REMARK minimizedRMSD -1
REMARK  1 active torsions:
REMARK  status: ('A' for Active; 'I' for Inactive)
REMARK    1  A    between atoms: C1_2  and  C2_3 
ROOT
ATOM      1  C2  UNL d   1      -0.699  -3.754   0.740  0.00  0.00    -0.073 A 
ATOM      2  C3  UNL d   1      -1.892  -4.479   0.841  0.00  0.00    -0.002 A 
ATOM      3  C4  UNL d   1      -2.110  -5.593   0.031  0.00  0.00     0.004 A 
ATOM      4  C5  UNL d   1      -1.137  -5.999  -0.883  0.00  0.00    -0.004 A 
ATOM      5  C6  UNL d   1       0.067  -5.295  -0.990  0.00  0.00    -0.075 A 
ATOM      6  C7  UNL d   1       1.123  -5.717  -1.969  0.00  0.00     0.076 C 
ATOM      7  C8  UNL d   1       0.278  -4.175  -0.174  0.00  0.00     0.001 A 
ENDROOT
BRANCH   1   8
ATOM      8  C1  UNL d   1      -0.456  -2.554   1.618  0.00  0.00     0.053 C 
ATOM      9  C   UNL d   1       1.027  -2.299   1.838  0.00  0.00     0.018 C 
ENDBRANCH   1   8
TORSDOF 1
ENDMDL
