MODEL 1
REMARK minimizedAffinity 7.70040369
REMARK minimizedRMSD -1
REMARK  1 active torsions:
REMARK  status: ('A' for Active; 'I' for Inactive)
REMARK    1  A    between atoms: C1_2  and  C2_3 
ROOT
ATOM      1  C2  UNL d   1       1.471  -2.229   3.610  0.00  0.00    -0.073 A 
ATOM      2  C3  UNL d   1       1.513  -1.156   2.713  0.00  0.00    -0.002 A 
ATOM      3  C4  UNL d   1       2.019  -1.334   1.424  0.00  0.00     0.004 A 
ATOM      4  C5  UNL d   1       2.480  -2.585   1.017  0.00  0.00    -0.004 A 
ATOM      5  C6  UNL d   1       2.435  -3.673   1.895  0.00  0.00    -0.075 A 
ATOM      6  C7  UNL d   1       2.929  -5.026   1.474  0.00  0.00     0.076 C 
ATOM      7  C8  UNL d   1       1.929  -3.486   3.188  0.00  0.00     0.001 A 
ENDROOT
BRANCH   1   8
ATOM      8  C1  UNL d   1       0.921  -2.044   5.000  0.00  0.00     0.053 C 
ATOM      9  C   UNL d   1       1.525  -3.028   5.988  0.00  0.00     0.018 C 
ENDBRANCH   1   8
TORSDOF 1
ENDMDL
