MODEL 1
REMARK minimizedAffinity -4.58369827
REMARK minimizedRMSD -1
REMARK  0 active torsions:
REMARK  status: ('A' for Active; 'I' for Inactive)
ROOT
ATOM      1  C   UNL d   1      -0.475   0.698  -1.508  0.00  0.00     0.077 C 
ATOM      2  C1  UNL d   1      -1.242  -0.352  -0.760  0.00  0.00    -0.074 A 
ATOM      3  C2  UNL d   1      -2.494  -0.783  -1.208  0.00  0.00    -0.005 A 
ATOM      4  C3  UNL d   1      -3.192  -1.766  -0.507  0.00  0.00     0.006 A 
ATOM      5  C4  UNL d   1      -2.644  -2.328   0.648  0.00  0.00    -0.005 A 
ATOM      6  C5  UNL d   1      -1.393  -1.910   1.110  0.00  0.00    -0.074 A 
ATOM      7  C6  UNL d   1      -0.786  -2.511   2.343  0.00  0.00     0.077 C 
ATOM      8  C7  UNL d   1      -0.695  -0.926   0.396  0.00  0.00    -0.001 A 
ENDROOT
TORSDOF 0
ENDMDL
