MODEL 1
REMARK minimizedAffinity -5.67952061
REMARK minimizedRMSD -1
REMARK  0 active torsions:
REMARK  status: ('A' for Active; 'I' for Inactive)
ROOT
ATOM      1  C   UNL d   1      -3.003  -2.430   0.779  0.00  0.00     0.077 C 
ATOM      2  C1  UNL d   1      -1.859  -1.556   0.357  0.00  0.00    -0.074 A 
ATOM      3  C2  UNL d   1      -0.655  -1.554   1.068  0.00  0.00    -0.005 A 
ATOM      4  C3  UNL d   1       0.403  -0.744   0.658  0.00  0.00     0.006 A 
ATOM      5  C4  UNL d   1       0.268   0.072  -0.466  0.00  0.00    -0.005 A 
ATOM      6  C5  UNL d   1      -0.928   0.083  -1.191  0.00  0.00    -0.074 A 
ATOM      7  C6  UNL d   1      -1.086   0.946  -2.407  0.00  0.00     0.077 C 
ATOM      8  C7  UNL d   1      -1.984  -0.740  -0.776  0.00  0.00    -0.001 A 
ENDROOT
TORSDOF 0
ENDMDL
