MODEL 1
REMARK minimizedAffinity -6.11990547
REMARK minimizedRMSD -1
REMARK  0 active torsions:
REMARK  status: ('A' for Active; 'I' for Inactive)
ROOT
ATOM      1  C   UNL d   1       1.443   0.573   0.044  0.00  0.00     0.077 C 
ATOM      2  C1  UNL d   1       0.066  -0.019  -0.015  0.00  0.00    -0.074 A 
ATOM      3  C2  UNL d   1      -0.853   0.394  -0.985  0.00  0.00    -0.005 A 
ATOM      4  C3  UNL d   1      -2.127  -0.172  -1.033  0.00  0.00     0.006 A 
ATOM      5  C4  UNL d   1      -2.494  -1.154  -0.113  0.00  0.00    -0.005 A 
ATOM      6  C5  UNL d   1      -1.588  -1.580   0.864  0.00  0.00    -0.074 A 
ATOM      7  C6  UNL d   1      -1.964  -2.642   1.854  0.00  0.00     0.077 C 
ATOM      8  C7  UNL d   1      -0.308  -1.012   0.901  0.00  0.00    -0.001 A 
ENDROOT
TORSDOF 0
ENDMDL
