MODEL 1
REMARK minimizedAffinity -4.08209467
REMARK minimizedRMSD -1
REMARK  0 active torsions:
REMARK  status: ('A' for Active; 'I' for Inactive)
ROOT
ATOM      1  C   UNL d   1       1.142  -1.487   1.536  0.00  0.00     0.077 C 
ATOM      2  C1  UNL d   1       0.230  -0.842   0.535  0.00  0.00    -0.074 A 
ATOM      3  C2  UNL d   1       0.738  -0.267  -0.634  0.00  0.00    -0.005 A 
ATOM      4  C3  UNL d   1      -0.124   0.322  -1.560  0.00  0.00     0.006 A 
ATOM      5  C4  UNL d   1      -1.499   0.341  -1.326  0.00  0.00    -0.005 A 
ATOM      6  C5  UNL d   1      -2.025  -0.230  -0.163  0.00  0.00    -0.074 A 
ATOM      7  C6  UNL d   1      -3.502  -0.227   0.099  0.00  0.00     0.077 C 
ATOM      8  C7  UNL d   1      -1.154  -0.826   0.759  0.00  0.00    -0.001 A 
ENDROOT
TORSDOF 0
ENDMDL
