MODEL 1
REMARK minimizedAffinity -2.98318148
REMARK minimizedRMSD -1
REMARK  0 active torsions:
REMARK  status: ('A' for Active; 'I' for Inactive)
ROOT
ATOM      1  C   UNL d   1       2.225   1.857   0.036  0.00  0.00     0.077 C 
ATOM      2  C1  UNL d   1       1.386   0.663   0.382  0.00  0.00    -0.074 A 
ATOM      3  C2  UNL d   1       1.957  -0.472   0.967  0.00  0.00    -0.005 A 
ATOM      4  C3  UNL d   1       1.162  -1.571   1.292  0.00  0.00     0.006 A 
ATOM      5  C4  UNL d   1      -0.210  -1.546   1.036  0.00  0.00    -0.005 A 
ATOM      6  C5  UNL d   1      -0.798  -0.420   0.453  0.00  0.00    -0.074 A 
ATOM      7  C6  UNL d   1      -2.273  -0.374   0.180  0.00  0.00     0.077 C 
ATOM      8  C7  UNL d   1       0.006   0.683   0.135  0.00  0.00    -0.001 A 
ENDROOT
TORSDOF 0
ENDMDL
