MODEL 1
REMARK minimizedAffinity 0.719797552
REMARK minimizedRMSD -1
REMARK  0 active torsions:
REMARK  status: ('A' for Active; 'I' for Inactive)
ROOT
ATOM      1  C   UNL d   1      -1.578  -0.006   2.352  0.00  0.00     0.077 C 
ATOM      2  C1  UNL d   1      -2.357  -0.222   3.615  0.00  0.00    -0.074 A 
ATOM      3  C2  UNL d   1      -3.068   0.826   4.208  0.00  0.00    -0.005 A 
ATOM      4  C3  UNL d   1      -3.796   0.608   5.378  0.00  0.00     0.006 A 
ATOM      5  C4  UNL d   1      -3.820  -0.658   5.965  0.00  0.00    -0.005 A 
ATOM      6  C5  UNL d   1      -3.116  -1.718   5.386  0.00  0.00    -0.074 A 
ATOM      7  C6  UNL d   1      -3.139  -3.086   5.999  0.00  0.00     0.077 C 
ATOM      8  C7  UNL d   1      -2.392  -1.492   4.207  0.00  0.00    -0.001 A 
ENDROOT
TORSDOF 0
ENDMDL
