MODEL 1
REMARK minimizedAffinity 1.72102153
REMARK minimizedRMSD -1
REMARK  0 active torsions:
REMARK  status: ('A' for Active; 'I' for Inactive)
ROOT
ATOM      1  C   UNL d   1       0.808   0.600  -4.568  0.00  0.00     0.077 C 
ATOM      2  C1  UNL d   1       0.368   0.285  -3.169  0.00  0.00    -0.074 A 
ATOM      3  C2  UNL d   1       1.292  -0.113  -2.197  0.00  0.00    -0.005 A 
ATOM      4  C3  UNL d   1       0.868  -0.394  -0.898  0.00  0.00     0.006 A 
ATOM      5  C4  UNL d   1      -0.480  -0.280  -0.558  0.00  0.00    -0.005 A 
ATOM      6  C5  UNL d   1      -1.418   0.117  -1.517  0.00  0.00    -0.074 A 
ATOM      7  C6  UNL d   1      -2.870   0.253  -1.166  0.00  0.00     0.077 C 
ATOM      8  C7  UNL d   1      -0.984   0.404  -2.818  0.00  0.00    -0.001 A 
ENDROOT
TORSDOF 0
ENDMDL
