MODEL 1
REMARK minimizedAffinity -2.13807654
REMARK minimizedRMSD -1
REMARK  0 active torsions:
REMARK  status: ('A' for Active; 'I' for Inactive)
ROOT
ATOM      1  C   UNL d   1       0.835   0.468  -0.967  0.00  0.00     0.077 C 
ATOM      2  C1  UNL d   1       1.631   1.402  -0.105  0.00  0.00    -0.074 A 
ATOM      3  C2  UNL d   1       1.522   2.788  -0.255  0.00  0.00    -0.005 A 
ATOM      4  C3  UNL d   1       2.262   3.644   0.560  0.00  0.00     0.006 A 
ATOM      5  C4  UNL d   1       3.117   3.124   1.532  0.00  0.00    -0.005 A 
ATOM      6  C5  UNL d   1       3.239   1.741   1.697  0.00  0.00    -0.074 A 
ATOM      7  C6  UNL d   1       4.147   1.165   2.744  0.00  0.00     0.077 C 
ATOM      8  C7  UNL d   1       2.487   0.887   0.879  0.00  0.00    -0.001 A 
ENDROOT
TORSDOF 0
ENDMDL
