MODEL 1
REMARK minimizedAffinity -4.67059422
REMARK minimizedRMSD -1
REMARK  0 active torsions:
REMARK  status: ('A' for Active; 'I' for Inactive)
ROOT
ATOM      1  C   UNL d   1       1.381   0.667  -0.020  0.00  0.00     0.077 C 
ATOM      2  C1  UNL d   1       0.128  -0.152  -0.111  0.00  0.00    -0.074 A 
ATOM      3  C2  UNL d   1      -0.889   0.185  -1.010  0.00  0.00    -0.005 A 
ATOM      4  C3  UNL d   1      -2.044  -0.592  -1.090  0.00  0.00     0.006 A 
ATOM      5  C4  UNL d   1      -2.195  -1.713  -0.272  0.00  0.00    -0.005 A 
ATOM      6  C5  UNL d   1      -1.189  -2.066   0.633  0.00  0.00    -0.074 A 
ATOM      7  C6  UNL d   1      -1.330  -3.273   1.512  0.00  0.00     0.077 C 
ATOM      8  C7  UNL d   1      -0.028  -1.284   0.702  0.00  0.00    -0.001 A 
ENDROOT
TORSDOF 0
ENDMDL
