MODEL 1
REMARK minimizedAffinity -3.95583844
REMARK minimizedRMSD -1
REMARK  0 active torsions:
REMARK  status: ('A' for Active; 'I' for Inactive)
ROOT
ATOM      1  C   UNL d   1       1.735   0.665   0.188  0.00  0.00     0.077 C 
ATOM      2  C1  UNL d   1       0.340   0.340  -0.255  0.00  0.00    -0.074 A 
ATOM      3  C2  UNL d   1      -0.208   0.930  -1.399  0.00  0.00    -0.005 A 
ATOM      4  C3  UNL d   1      -1.504   0.610  -1.803  0.00  0.00     0.006 A 
ATOM      5  C4  UNL d   1      -2.265  -0.301  -1.069  0.00  0.00    -0.005 A 
ATOM      6  C5  UNL d   1      -1.734  -0.901   0.077  0.00  0.00    -0.074 A 
ATOM      7  C6  UNL d   1      -2.534  -1.889   0.872  0.00  0.00     0.077 C 
ATOM      8  C7  UNL d   1      -0.428  -0.580   0.473  0.00  0.00    -0.001 A 
ENDROOT
TORSDOF 0
ENDMDL
