MODEL 1
REMARK minimizedAffinity -0.321586519
REMARK minimizedRMSD -1
REMARK  0 active torsions:
REMARK  status: ('A' for Active; 'I' for Inactive)
ROOT
ATOM      1  C   UNL d   1       4.004   4.141  -1.238  0.00  0.00     0.077 C 
ATOM      2  C1  UNL d   1       3.311   3.372  -0.151  0.00  0.00    -0.074 A 
ATOM      3  C2  UNL d   1       3.302   3.841   1.166  0.00  0.00    -0.005 A 
ATOM      4  C3  UNL d   1       2.646   3.120   2.164  0.00  0.00     0.006 A 
ATOM      5  C4  UNL d   1       1.994   1.926   1.855  0.00  0.00    -0.005 A 
ATOM      6  C5  UNL d   1       1.992   1.442   0.543  0.00  0.00    -0.074 A 
ATOM      7  C6  UNL d   1       1.287   0.166   0.192  0.00  0.00     0.077 C 
ATOM      8  C7  UNL d   1       2.647   2.176  -0.456  0.00  0.00    -0.001 A 
ENDROOT
TORSDOF 0
ENDMDL
