MODEL 1
REMARK minimizedAffinity -2.8342061
REMARK minimizedRMSD -1
REMARK  0 active torsions:
REMARK  status: ('A' for Active; 'I' for Inactive)
ROOT
ATOM      1  C   UNL d   1      -3.378  -0.644   0.299  0.00  0.00     0.077 C 
ATOM      2  C1  UNL d   1      -2.026  -0.358  -0.284  0.00  0.00    -0.074 A 
ATOM      3  C2  UNL d   1      -1.785  -0.522  -1.652  0.00  0.00    -0.005 A 
ATOM      4  C3  UNL d   1      -0.525  -0.243  -2.182  0.00  0.00     0.006 A 
ATOM      5  C4  UNL d   1       0.504   0.201  -1.351  0.00  0.00    -0.005 A 
ATOM      6  C5  UNL d   1       0.281   0.371   0.019  0.00  0.00    -0.074 A 
ATOM      7  C6  UNL d   1       1.374   0.857   0.924  0.00  0.00     0.077 C 
ATOM      8  C7  UNL d   1      -0.989   0.096   0.543  0.00  0.00    -0.001 A 
ENDROOT
TORSDOF 0
ENDMDL
