MODEL 1
REMARK minimizedAffinity -3.86143708
REMARK minimizedRMSD -1
REMARK  0 active torsions:
REMARK  status: ('A' for Active; 'I' for Inactive)
ROOT
ATOM      1  C   UNL d   1       0.238   1.039  -2.442  0.00  0.00     0.077 C 
ATOM      2  C1  UNL d   1      -0.086   0.218  -1.229  0.00  0.00    -0.074 A 
ATOM      3  C2  UNL d   1       0.885  -0.044  -0.258  0.00  0.00    -0.005 A 
ATOM      4  C3  UNL d   1       0.567  -0.800   0.870  0.00  0.00     0.006 A 
ATOM      5  C4  UNL d   1      -0.725  -1.302   1.038  0.00  0.00    -0.005 A 
ATOM      6  C5  UNL d   1      -1.710  -1.049   0.077  0.00  0.00    -0.074 A 
ATOM      7  C6  UNL d   1      -3.105  -1.572   0.247  0.00  0.00     0.077 C 
ATOM      8  C7  UNL d   1      -1.384  -0.282  -1.050  0.00  0.00    -0.001 A 
ENDROOT
TORSDOF 0
ENDMDL
