MODEL 1
REMARK minimizedAffinity -4.9065547
REMARK minimizedRMSD -1
REMARK  0 active torsions:
REMARK  status: ('A' for Active; 'I' for Inactive)
ROOT
ATOM      1  C   UNL d   1      -3.513  -1.228   0.378  0.00  0.00     0.077 C 
ATOM      2  C1  UNL d   1      -2.160  -0.667   0.058  0.00  0.00    -0.074 A 
ATOM      3  C2  UNL d   1      -1.935   0.032  -1.133  0.00  0.00    -0.005 A 
ATOM      4  C3  UNL d   1      -0.673   0.556  -1.413  0.00  0.00     0.006 A 
ATOM      5  C4  UNL d   1       0.374   0.388  -0.506  0.00  0.00    -0.005 A 
ATOM      6  C5  UNL d   1       0.168  -0.306   0.690  0.00  0.00    -0.074 A 
ATOM      7  C6  UNL d   1       1.280  -0.487   1.679  0.00  0.00     0.077 C 
ATOM      8  C7  UNL d   1      -1.104  -0.824   0.967  0.00  0.00    -0.001 A 
ENDROOT
TORSDOF 0
ENDMDL
