MODEL 1
REMARK minimizedAffinity -4.78865004
REMARK minimizedRMSD -1
REMARK  0 active torsions:
REMARK  status: ('A' for Active; 'I' for Inactive)
ROOT
ATOM      1  C   UNL d   1      -3.347  -0.930   0.333  0.00  0.00     0.077 C 
ATOM      2  C1  UNL d   1      -2.077  -0.431  -0.289  0.00  0.00    -0.074 A 
ATOM      3  C2  UNL d   1      -2.029  -0.075  -1.641  0.00  0.00    -0.005 A 
ATOM      4  C3  UNL d   1      -0.843   0.397  -2.202  0.00  0.00     0.006 A 
ATOM      5  C4  UNL d   1       0.306   0.518  -1.420  0.00  0.00    -0.005 A 
ATOM      6  C5  UNL d   1       0.277   0.168  -0.066  0.00  0.00    -0.074 A 
ATOM      7  C6  UNL d   1       1.500   0.301   0.792  0.00  0.00     0.077 C 
ATOM      8  C7  UNL d   1      -0.921  -0.299   0.493  0.00  0.00    -0.001 A 
ENDROOT
TORSDOF 0
ENDMDL
