MODEL 1
REMARK minimizedAffinity 28.3162899
REMARK minimizedRMSD -1
REMARK  0 active torsions:
REMARK  status: ('A' for Active; 'I' for Inactive)
ROOT
ATOM      1  C   UNL d   1      -1.161  -2.858   0.963  0.00  0.00     0.124 A 
ATOM      2  C1  UNL d   1      -1.707  -4.133   1.019  0.00  0.00     0.062 A 
ATOM      3  C2  UNL d   1      -3.088  -4.303   1.039  0.00  0.00     0.162 A 
ATOM      4  C3  UNL d   1      -3.934  -3.194   1.003  0.00  0.00    -0.034 A 
ATOM      5  C4  UNL d   1      -3.377  -1.915   0.949  0.00  0.00     0.162 A 
ATOM      6  C5  UNL d   1      -1.996  -1.751   0.928  0.00  0.00     0.062 A 
ATOM      7  F   UNL d   1      -1.471  -0.518   0.875  0.00  0.00    -0.097 F 
ATOM      8  F1  UNL d   1      -4.162  -0.827   0.913  0.00  0.00    -0.096 F 
ATOM      9  I   UNL d   1      -6.000  -3.444   1.034  0.00  0.00    -0.060 I 
ATOM     10  F2  UNL d   1      -3.588  -5.546   1.093  0.00  0.00    -0.096 F 
ATOM     11  F3  UNL d   1      -0.901  -5.204   1.054  0.00  0.00    -0.097 F 
ATOM     12  F4  UNL d   1       0.169  -2.697   0.945  0.00  0.00    -0.092 F 
ENDROOT
TORSDOF 0
ENDMDL
