MODEL 1
REMARK minimizedAffinity 6.48741531
REMARK minimizedRMSD -1
REMARK  0 active torsions:
REMARK  status: ('A' for Active; 'I' for Inactive)
ROOT
ATOM      1  C   UNL d   1      -1.277  -3.291  -1.397  0.00  0.00     0.124 A 
ATOM      2  C1  UNL d   1      -1.517  -2.008  -0.926  0.00  0.00     0.062 A 
ATOM      3  C2  UNL d   1      -1.475  -1.744   0.440  0.00  0.00     0.162 A 
ATOM      4  C3  UNL d   1      -1.190  -2.766   1.345  0.00  0.00    -0.034 A 
ATOM      5  C4  UNL d   1      -0.950  -4.055   0.864  0.00  0.00     0.162 A 
ATOM      6  C5  UNL d   1      -0.993  -4.313  -0.502  0.00  0.00     0.062 A 
ATOM      7  F   UNL d   1      -0.760  -5.554  -0.955  0.00  0.00    -0.097 F 
ATOM      8  F1  UNL d   1      -0.672  -5.061   1.707  0.00  0.00    -0.096 F 
ATOM      9  I   UNL d   1      -1.125  -2.376   3.389  0.00  0.00    -0.060 I 
ATOM     10  F2  UNL d   1      -1.711  -0.495   0.867  0.00  0.00    -0.096 F 
ATOM     11  F3  UNL d   1      -1.792  -1.019  -1.789  0.00  0.00    -0.097 F 
ATOM     12  F4  UNL d   1      -1.319  -3.543  -2.712  0.00  0.00    -0.092 F 
ENDROOT
TORSDOF 0
ENDMDL
