MODEL 1
REMARK minimizedAffinity 26.7341328
REMARK minimizedRMSD -1
REMARK  0 active torsions:
REMARK  status: ('A' for Active; 'I' for Inactive)
ROOT
ATOM      1  C   UNL d   1       2.728   2.246  -0.325  0.00  0.00     0.124 A 
ATOM      2  C1  UNL d   1       3.901   2.979  -0.445  0.00  0.00     0.062 A 
ATOM      3  C2  UNL d   1       4.836   2.648  -1.422  0.00  0.00     0.162 A 
ATOM      4  C3  UNL d   1       4.601   1.581  -2.288  0.00  0.00    -0.034 A 
ATOM      5  C4  UNL d   1       3.420   0.848  -2.161  0.00  0.00     0.162 A 
ATOM      6  C5  UNL d   1       2.489   1.182  -1.183  0.00  0.00     0.062 A 
ATOM      7  F   UNL d   1       1.356   0.473  -1.069  0.00  0.00    -0.097 F 
ATOM      8  F1  UNL d   1       3.162  -0.185  -2.977  0.00  0.00    -0.096 F 
ATOM      9  I   UNL d   1       5.997   1.084  -3.750  0.00  0.00    -0.060 I 
ATOM     10  F2  UNL d   1       5.961   3.373  -1.515  0.00  0.00    -0.096 F 
ATOM     11  F3  UNL d   1       4.136   4.007   0.383  0.00  0.00    -0.097 F 
ATOM     12  F4  UNL d   1       1.831   2.566   0.616  0.00  0.00    -0.092 F 
ENDROOT
TORSDOF 0
ENDMDL
