MODEL 1
REMARK minimizedAffinity 33.3680191
REMARK minimizedRMSD -1
REMARK  0 active torsions:
REMARK  status: ('A' for Active; 'I' for Inactive)
ROOT
ATOM      1  C   UNL d   1      -1.547  -3.044  -2.500  0.00  0.00     0.124 A 
ATOM      2  C1  UNL d   1      -1.015  -4.049  -1.704  0.00  0.00     0.062 A 
ATOM      3  C2  UNL d   1      -0.818  -3.834  -0.343  0.00  0.00     0.162 A 
ATOM      4  C3  UNL d   1      -1.155  -2.608   0.232  0.00  0.00    -0.034 A 
ATOM      5  C4  UNL d   1      -1.688  -1.601  -0.575  0.00  0.00     0.162 A 
ATOM      6  C5  UNL d   1      -1.883  -1.821  -1.935  0.00  0.00     0.062 A 
ATOM      7  F   UNL d   1      -2.396  -0.849  -2.703  0.00  0.00    -0.097 F 
ATOM      8  F1  UNL d   1      -2.022  -0.411  -0.056  0.00  0.00    -0.096 F 
ATOM      9  I   UNL d   1      -0.862  -2.282   2.267  0.00  0.00    -0.060 I 
ATOM     10  F2  UNL d   1      -0.303  -4.823   0.403  0.00  0.00    -0.096 F 
ATOM     11  F3  UNL d   1      -0.689  -5.230  -2.247  0.00  0.00    -0.097 F 
ATOM     12  F4  UNL d   1      -1.734  -3.253  -3.809  0.00  0.00    -0.092 F 
ENDROOT
TORSDOF 0
ENDMDL
