MODEL 1
REMARK minimizedAffinity 24.9411373
REMARK minimizedRMSD -1
REMARK  0 active torsions:
REMARK  status: ('A' for Active; 'I' for Inactive)
ROOT
ATOM      1  C   UNL d   1      -2.081  -1.482  -0.330  0.00  0.00     0.124 A 
ATOM      2  C1  UNL d   1      -1.827  -1.052  -1.625  0.00  0.00     0.062 A 
ATOM      3  C2  UNL d   1      -0.516  -0.919  -2.073  0.00  0.00     0.162 A 
ATOM      4  C3  UNL d   1       0.552  -1.217  -1.226  0.00  0.00    -0.034 A 
ATOM      5  C4  UNL d   1       0.288  -1.648   0.075  0.00  0.00     0.162 A 
ATOM      6  C5  UNL d   1      -1.024  -1.780   0.519  0.00  0.00     0.062 A 
ATOM      7  F   UNL d   1      -1.267  -2.196   1.770  0.00  0.00    -0.097 F 
ATOM      8  F1  UNL d   1       1.291  -1.943   0.916  0.00  0.00    -0.096 F 
ATOM      9  I   UNL d   1       2.513  -1.019  -1.893  0.00  0.00    -0.060 I 
ATOM     10  F2  UNL d   1      -0.300  -0.501  -3.330  0.00  0.00    -0.096 F 
ATOM     11  F3  UNL d   1      -2.846  -0.763  -2.446  0.00  0.00    -0.097 F 
ATOM     12  F4  UNL d   1      -3.343  -1.609   0.100  0.00  0.00    -0.092 F 
ENDROOT
TORSDOF 0
ENDMDL
