MODEL 1
REMARK minimizedAffinity 24.9804935
REMARK minimizedRMSD -1
REMARK  0 active torsions:
REMARK  status: ('A' for Active; 'I' for Inactive)
ROOT
ATOM      1  C   UNL d   1      -4.320  -0.887  -0.076  0.00  0.00     0.124 A 
ATOM      2  C1  UNL d   1      -4.206  -0.071  -1.193  0.00  0.00     0.062 A 
ATOM      3  C2  UNL d   1      -3.310  -0.395  -2.208  0.00  0.00     0.162 A 
ATOM      4  C3  UNL d   1      -2.521  -1.541  -2.111  0.00  0.00    -0.034 A 
ATOM      5  C4  UNL d   1      -2.641  -2.357  -0.984  0.00  0.00     0.162 A 
ATOM      6  C5  UNL d   1      -3.538  -2.028   0.028  0.00  0.00     0.062 A 
ATOM      7  F   UNL d   1      -3.647  -2.818   1.106  0.00  0.00    -0.097 F 
ATOM      8  F1  UNL d   1      -1.898  -3.466  -0.859  0.00  0.00    -0.096 F 
ATOM      9  I   UNL d   1      -1.181  -2.029  -3.626  0.00  0.00    -0.060 I 
ATOM     10  F2  UNL d   1      -3.221   0.412  -3.276  0.00  0.00    -0.096 F 
ATOM     11  F3  UNL d   1      -4.960   1.033  -1.295  0.00  0.00    -0.097 F 
ATOM     12  F4  UNL d   1      -5.182  -0.572   0.900  0.00  0.00    -0.092 F 
ENDROOT
TORSDOF 0
ENDMDL
