MODEL 1
REMARK minimizedAffinity 30.3048897
REMARK minimizedRMSD -1
REMARK  0 active torsions:
REMARK  status: ('A' for Active; 'I' for Inactive)
ROOT
ATOM      1  C   UNL d   1      -0.944  -3.323   0.253  0.00  0.00     0.124 A 
ATOM      2  C1  UNL d   1      -0.686  -3.893   1.492  0.00  0.00     0.062 A 
ATOM      3  C2  UNL d   1      -1.074  -3.239   2.658  0.00  0.00     0.162 A 
ATOM      4  C3  UNL d   1      -1.727  -2.008   2.591  0.00  0.00    -0.034 A 
ATOM      5  C4  UNL d   1      -1.983  -1.441   1.341  0.00  0.00     0.162 A 
ATOM      6  C5  UNL d   1      -1.592  -2.098   0.179  0.00  0.00     0.062 A 
ATOM      7  F   UNL d   1      -1.843  -1.545  -1.017  0.00  0.00    -0.097 F 
ATOM      8  F1  UNL d   1      -2.608  -0.259   1.240  0.00  0.00    -0.096 F 
ATOM      9  I   UNL d   1      -2.309  -1.028   4.332  0.00  0.00    -0.060 I 
ATOM     10  F2  UNL d   1      -0.811  -3.814   3.841  0.00  0.00    -0.096 F 
ATOM     11  F3  UNL d   1      -0.059  -5.076   1.566  0.00  0.00    -0.097 F 
ATOM     12  F4  UNL d   1      -0.569  -3.953  -0.867  0.00  0.00    -0.092 F 
ENDROOT
TORSDOF 0
ENDMDL
