MODEL 1
REMARK minimizedAffinity 20.0184422
REMARK minimizedRMSD -1
REMARK  0 active torsions:
REMARK  status: ('A' for Active; 'I' for Inactive)
ROOT
ATOM      1  C   UNL d   1      -1.170  -4.105  -0.856  0.00  0.00     0.124 A 
ATOM      2  C1  UNL d   1      -1.341  -2.985  -0.054  0.00  0.00     0.062 A 
ATOM      3  C2  UNL d   1      -2.040  -1.881  -0.533  0.00  0.00     0.162 A 
ATOM      4  C3  UNL d   1      -2.575  -1.891  -1.822  0.00  0.00    -0.034 A 
ATOM      5  C4  UNL d   1      -2.398  -3.021  -2.622  0.00  0.00     0.162 A 
ATOM      6  C5  UNL d   1      -1.698  -4.122  -2.139  0.00  0.00     0.062 A 
ATOM      7  F   UNL d   1      -1.534  -5.203  -2.915  0.00  0.00    -0.097 F 
ATOM      8  F1  UNL d   1      -2.899  -3.065  -3.866  0.00  0.00    -0.096 F 
ATOM      9  I   UNL d   1      -3.621  -0.243  -2.542  0.00  0.00    -0.060 I 
ATOM     10  F2  UNL d   1      -2.190  -0.812   0.263  0.00  0.00    -0.096 F 
ATOM     11  F3  UNL d   1      -0.831  -2.965   1.186  0.00  0.00    -0.097 F 
ATOM     12  F4  UNL d   1      -0.496  -5.165  -0.392  0.00  0.00    -0.092 F 
ENDROOT
TORSDOF 0
ENDMDL
