MODEL 1
REMARK minimizedAffinity 15.915081
REMARK minimizedRMSD -1
REMARK  0 active torsions:
REMARK  status: ('A' for Active; 'I' for Inactive)
ROOT
ATOM      1  C   UNL d   1      -3.195  -0.672  -1.167  0.00  0.00     0.124 A 
ATOM      2  C1  UNL d   1      -2.322  -1.365  -0.339  0.00  0.00     0.062 A 
ATOM      3  C2  UNL d   1      -0.961  -1.397  -0.627  0.00  0.00     0.162 A 
ATOM      4  C3  UNL d   1      -0.463  -0.734  -1.748  0.00  0.00    -0.034 A 
ATOM      5  C4  UNL d   1      -1.346  -0.041  -2.577  0.00  0.00     0.162 A 
ATOM      6  C5  UNL d   1      -2.706  -0.011  -2.285  0.00  0.00     0.062 A 
ATOM      7  F   UNL d   1      -3.547   0.658  -3.087  0.00  0.00    -0.097 F 
ATOM      8  F1  UNL d   1      -0.901   0.608  -3.664  0.00  0.00    -0.096 F 
ATOM      9  I   UNL d   1       1.572  -0.781  -2.183  0.00  0.00    -0.060 I 
ATOM     10  F2  UNL d   1      -0.141  -2.074   0.191  0.00  0.00    -0.096 F 
ATOM     11  F3  UNL d   1      -2.792  -2.005   0.741  0.00  0.00    -0.097 F 
ATOM     12  F4  UNL d   1      -4.504  -0.643  -0.888  0.00  0.00    -0.092 F 
ENDROOT
TORSDOF 0
ENDMDL
