MODEL 1
REMARK minimizedAffinity 29.6355515
REMARK minimizedRMSD -1
REMARK  0 active torsions:
REMARK  status: ('A' for Active; 'I' for Inactive)
ROOT
ATOM      1  C   UNL d   1      -0.677  -4.540  -0.834  0.00  0.00     0.124 A 
ATOM      2  C1  UNL d   1      -0.855  -4.633  -2.208  0.00  0.00     0.062 A 
ATOM      3  C2  UNL d   1      -1.071  -3.485  -2.964  0.00  0.00     0.162 A 
ATOM      4  C3  UNL d   1      -1.110  -2.233  -2.349  0.00  0.00    -0.034 A 
ATOM      5  C4  UNL d   1      -0.931  -2.148  -0.967  0.00  0.00     0.162 A 
ATOM      6  C5  UNL d   1      -0.715  -3.299  -0.215  0.00  0.00     0.062 A 
ATOM      7  F   UNL d   1      -0.544  -3.207   1.111  0.00  0.00    -0.097 F 
ATOM      8  F1  UNL d   1      -0.962  -0.961  -0.344  0.00  0.00    -0.096 F 
ATOM      9  I   UNL d   1      -1.433  -0.514  -3.477  0.00  0.00    -0.060 I 
ATOM     10  F2  UNL d   1      -1.240  -3.604  -4.290  0.00  0.00    -0.096 F 
ATOM     11  F3  UNL d   1      -0.820  -5.831  -2.808  0.00  0.00    -0.097 F 
ATOM     12  F4  UNL d   1      -0.470  -5.646  -0.108  0.00  0.00    -0.092 F 
ENDROOT
TORSDOF 0
ENDMDL
