MODEL 1
REMARK minimizedAffinity 31.2824516
REMARK minimizedRMSD -1
REMARK  0 active torsions:
REMARK  status: ('A' for Active; 'I' for Inactive)
ROOT
ATOM      1  C   UNL d   1      -2.518  -1.085  -2.757  0.00  0.00     0.124 A 
ATOM      2  C1  UNL d   1      -2.793  -0.768  -1.434  0.00  0.00     0.062 A 
ATOM      3  C2  UNL d   1      -2.187  -1.482  -0.404  0.00  0.00     0.162 A 
ATOM      4  C3  UNL d   1      -1.300  -2.519  -0.692  0.00  0.00    -0.034 A 
ATOM      5  C4  UNL d   1      -1.030  -2.832  -2.025  0.00  0.00     0.162 A 
ATOM      6  C5  UNL d   1      -1.637  -2.116  -3.052  0.00  0.00     0.062 A 
ATOM      7  F   UNL d   1      -1.371  -2.424  -4.330  0.00  0.00    -0.097 F 
ATOM      8  F1  UNL d   1      -0.182  -3.823  -2.338  0.00  0.00    -0.096 F 
ATOM      9  I   UNL d   1      -0.393  -3.588   0.846  0.00  0.00    -0.060 I 
ATOM     10  F2  UNL d   1      -2.471  -1.154   0.866  0.00  0.00    -0.096 F 
ATOM     11  F3  UNL d   1      -3.644   0.227  -1.147  0.00  0.00    -0.097 F 
ATOM     12  F4  UNL d   1      -3.103  -0.398  -3.747  0.00  0.00    -0.092 F 
ENDROOT
TORSDOF 0
ENDMDL
