MODEL 1
REMARK minimizedAffinity 21.4108753
REMARK minimizedRMSD -1
REMARK  0 active torsions:
REMARK  status: ('A' for Active; 'I' for Inactive)
ROOT
ATOM      1  C   UNL d   1       4.684   2.431  -1.910  0.00  0.00     0.124 A 
ATOM      2  C1  UNL d   1       4.014   2.259  -0.707  0.00  0.00     0.062 A 
ATOM      3  C2  UNL d   1       4.008   3.276   0.243  0.00  0.00     0.162 A 
ATOM      4  C3  UNL d   1       4.674   4.476  -0.006  0.00  0.00    -0.034 A 
ATOM      5  C4  UNL d   1       5.347   4.641  -1.218  0.00  0.00     0.162 A 
ATOM      6  C5  UNL d   1       5.350   3.622  -2.164  0.00  0.00     0.062 A 
ATOM      7  F   UNL d   1       5.999   3.790  -3.326  0.00  0.00    -0.097 F 
ATOM      8  F1  UNL d   1       5.998   5.782  -1.490  0.00  0.00    -0.096 F 
ATOM      9  I   UNL d   1       4.668   5.999   1.412  0.00  0.00    -0.060 I 
ATOM     10  F2  UNL d   1       3.352   3.082   1.397  0.00  0.00    -0.096 F 
ATOM     11  F3  UNL d   1       3.370   1.109  -0.458  0.00  0.00    -0.097 F 
ATOM     12  F4  UNL d   1       4.689   1.450  -2.822  0.00  0.00    -0.092 F 
ENDROOT
TORSDOF 0
ENDMDL
