MODEL 1
REMARK minimizedAffinity 22.1080952
REMARK minimizedRMSD -1
REMARK  0 active torsions:
REMARK  status: ('A' for Active; 'I' for Inactive)
ROOT
ATOM      1  C   UNL d   1      -1.972  -2.249   1.272  0.00  0.00     0.124 A 
ATOM      2  C1  UNL d   1      -2.498  -1.235   0.483  0.00  0.00     0.062 A 
ATOM      3  C2  UNL d   1      -2.401  -1.305  -0.903  0.00  0.00     0.162 A 
ATOM      4  C3  UNL d   1      -1.775  -2.394  -1.511  0.00  0.00    -0.034 A 
ATOM      5  C4  UNL d   1      -1.248  -3.409  -0.711  0.00  0.00     0.162 A 
ATOM      6  C5  UNL d   1      -1.348  -3.335   0.674  0.00  0.00     0.062 A 
ATOM      7  F   UNL d   1      -0.839  -4.315   1.434  0.00  0.00    -0.097 F 
ATOM      8  F1  UNL d   1      -0.640  -4.470  -1.263  0.00  0.00    -0.096 F 
ATOM      9  I   UNL d   1      -1.627  -2.502  -3.584  0.00  0.00    -0.060 I 
ATOM     10  F2  UNL d   1      -2.918  -0.311  -1.641  0.00  0.00    -0.096 F 
ATOM     11  F3  UNL d   1      -3.101  -0.185   1.058  0.00  0.00    -0.097 F 
ATOM     12  F4  UNL d   1      -2.066  -2.179   2.606  0.00  0.00    -0.092 F 
ENDROOT
TORSDOF 0
ENDMDL
