MODEL 1
REMARK minimizedAffinity 16.8449154
REMARK minimizedRMSD -1
REMARK  0 active torsions:
REMARK  status: ('A' for Active; 'I' for Inactive)
ROOT
ATOM      1  C   UNL d   1      -1.952  -1.771  -0.027  0.00  0.00     0.124 A 
ATOM      2  C1  UNL d   1      -0.793  -2.346   0.474  0.00  0.00     0.062 A 
ATOM      3  C2  UNL d   1      -0.642  -2.538   1.844  0.00  0.00     0.162 A 
ATOM      4  C3  UNL d   1      -1.653  -2.154   2.724  0.00  0.00    -0.034 A 
ATOM      5  C4  UNL d   1      -2.816  -1.575   2.213  0.00  0.00     0.162 A 
ATOM      6  C5  UNL d   1      -2.963  -1.386   0.843  0.00  0.00     0.062 A 
ATOM      7  F   UNL d   1      -4.084  -0.829   0.361  0.00  0.00    -0.097 F 
ATOM      8  F1  UNL d   1      -3.809  -1.195   3.031  0.00  0.00    -0.096 F 
ATOM      9  I   UNL d   1      -1.431  -2.439   4.774  0.00  0.00    -0.060 I 
ATOM     10  F2  UNL d   1       0.490  -3.096   2.300  0.00  0.00    -0.096 F 
ATOM     11  F3  UNL d   1       0.185  -2.718  -0.365  0.00  0.00    -0.097 F 
ATOM     12  F4  UNL d   1      -2.095  -1.587  -1.346  0.00  0.00    -0.092 F 
ENDROOT
TORSDOF 0
ENDMDL
