MODEL 1
REMARK minimizedAffinity 20.5804291
REMARK minimizedRMSD -1
REMARK  0 active torsions:
REMARK  status: ('A' for Active; 'I' for Inactive)
ROOT
ATOM      1  C   UNL d   1      -1.277  -2.873  -1.784  0.00  0.00     0.124 A 
ATOM      2  C1  UNL d   1      -1.882  -1.704  -1.345  0.00  0.00     0.062 A 
ATOM      3  C2  UNL d   1      -2.063  -1.477   0.016  0.00  0.00     0.162 A 
ATOM      4  C3  UNL d   1      -1.638  -2.422   0.949  0.00  0.00    -0.034 A 
ATOM      5  C4  UNL d   1      -1.031  -3.597   0.501  0.00  0.00     0.162 A 
ATOM      6  C5  UNL d   1      -0.852  -3.818  -0.861  0.00  0.00     0.062 A 
ATOM      7  F   UNL d   1      -0.267  -4.949  -1.282  0.00  0.00    -0.097 F 
ATOM      8  F1  UNL d   1      -0.610  -4.526   1.371  0.00  0.00    -0.096 F 
ATOM      9  I   UNL d   1      -1.907  -2.087   2.986  0.00  0.00    -0.060 I 
ATOM     10  F2  UNL d   1      -2.651  -0.338   0.411  0.00  0.00    -0.096 F 
ATOM     11  F3  UNL d   1      -2.294  -0.790  -2.235  0.00  0.00    -0.097 F 
ATOM     12  F4  UNL d   1      -1.105  -3.089  -3.094  0.00  0.00    -0.092 F 
ENDROOT
TORSDOF 0
ENDMDL
