MODEL 1
REMARK minimizedAffinity 18.1374512
REMARK minimizedRMSD -1
REMARK  0 active torsions:
REMARK  status: ('A' for Active; 'I' for Inactive)
ROOT
ATOM      1  C   UNL d   1      -0.888  -3.977   1.909  0.00  0.00     0.124 A 
ATOM      2  C1  UNL d   1      -1.037  -4.525   3.175  0.00  0.00     0.062 A 
ATOM      3  C2  UNL d   1      -1.533  -3.749   4.219  0.00  0.00     0.162 A 
ATOM      4  C3  UNL d   1      -1.885  -2.417   4.001  0.00  0.00    -0.034 A 
ATOM      5  C4  UNL d   1      -1.731  -1.873   2.725  0.00  0.00     0.162 A 
ATOM      6  C5  UNL d   1      -1.235  -2.652   1.685  0.00  0.00     0.062 A 
ATOM      7  F   UNL d   1      -1.091  -2.121   0.462  0.00  0.00    -0.097 F 
ATOM      8  F1  UNL d   1      -2.060  -0.596   2.480  0.00  0.00    -0.096 F 
ATOM      9  I   UNL d   1      -2.627  -1.254   5.560  0.00  0.00    -0.060 I 
ATOM     10  F2  UNL d   1      -1.667  -4.305   5.433  0.00  0.00    -0.096 F 
ATOM     11  F3  UNL d   1      -0.701  -5.804   3.395  0.00  0.00    -0.097 F 
ATOM     12  F4  UNL d   1      -0.409  -4.725   0.906  0.00  0.00    -0.092 F 
ENDROOT
TORSDOF 0
ENDMDL
