MODEL 1
REMARK minimizedAffinity 1.44675612
REMARK minimizedRMSD -1
REMARK  0 active torsions:
REMARK  status: ('A' for Active; 'I' for Inactive)
ROOT
ATOM      1  C   UNL d   1       0.047  -1.208   0.114  0.00  0.00     0.078 C 
ATOM      2  C1  UNL d   1       0.501   0.216   0.235  0.00  0.00    -0.077 A 
ATOM      3  C2  UNL d   1       0.245   0.959   1.394  0.00  0.00    -0.001 A 
ATOM      4  C3  UNL d   1       0.665   2.287   1.489  0.00  0.00     0.003 A 
ATOM      5  C4  UNL d   1       1.342   2.884   0.427  0.00  0.00    -0.005 A 
ATOM      6  C5  UNL d   1       1.599   2.154  -0.731  0.00  0.00     0.003 A 
ATOM      7  C6  UNL d   1       1.180   0.826  -0.828  0.00  0.00    -0.001 A 
ENDROOT
TORSDOF 0
ENDMDL
