MODEL 1
REMARK minimizedAffinity -1.09928191
REMARK minimizedRMSD -1
REMARK  0 active torsions:
REMARK  status: ('A' for Active; 'I' for Inactive)
ROOT
ATOM      1  C   UNL d   1       0.969   0.244   0.384  0.00  0.00     0.078 C 
ATOM      2  C1  UNL d   1      -0.047  -0.794   0.758  0.00  0.00    -0.077 A 
ATOM      3  C2  UNL d   1      -1.016  -0.535   1.735  0.00  0.00    -0.001 A 
ATOM      4  C3  UNL d   1      -1.949  -1.514   2.081  0.00  0.00     0.003 A 
ATOM      5  C4  UNL d   1      -1.921  -2.759   1.455  0.00  0.00    -0.005 A 
ATOM      6  C5  UNL d   1      -0.958  -3.026   0.484  0.00  0.00     0.003 A 
ATOM      7  C6  UNL d   1      -0.025  -2.049   0.137  0.00  0.00    -0.001 A 
ENDROOT
TORSDOF 0
ENDMDL
