MODEL 1
REMARK minimizedAffinity -1.9182483
REMARK minimizedRMSD -1
REMARK  0 active torsions:
REMARK  status: ('A' for Active; 'I' for Inactive)
ROOT
ATOM      1  C   UNL d   1       1.348   3.076   0.950  0.00  0.00     0.078 C 
ATOM      2  C1  UNL d   1       0.744   1.791   0.466  0.00  0.00    -0.077 A 
ATOM      3  C2  UNL d   1      -0.148   1.067   1.266  0.00  0.00    -0.001 A 
ATOM      4  C3  UNL d   1      -0.695  -0.132   0.806  0.00  0.00     0.003 A 
ATOM      5  C4  UNL d   1      -0.354  -0.619  -0.455  0.00  0.00    -0.005 A 
ATOM      6  C5  UNL d   1       0.535   0.094  -1.257  0.00  0.00     0.003 A 
ATOM      7  C6  UNL d   1       1.082   1.293  -0.799  0.00  0.00    -0.001 A 
ENDROOT
TORSDOF 0
ENDMDL
