MODEL 1
REMARK minimizedAffinity 12.5683861
REMARK minimizedRMSD -1
REMARK  0 active torsions:
REMARK  status: ('A' for Active; 'I' for Inactive)
ROOT
ATOM      1  C   UNL d   1      -2.295  -0.267   2.071  0.00  0.00     0.078 C 
ATOM      2  C1  UNL d   1      -1.186   0.166   1.159  0.00  0.00    -0.077 A 
ATOM      3  C2  UNL d   1      -1.395   1.151   0.186  0.00  0.00    -0.001 A 
ATOM      4  C3  UNL d   1      -0.357   1.538  -0.662  0.00  0.00     0.003 A 
ATOM      5  C4  UNL d   1       0.899   0.944  -0.547  0.00  0.00    -0.005 A 
ATOM      6  C5  UNL d   1       1.116  -0.038   0.417  0.00  0.00     0.003 A 
ATOM      7  C6  UNL d   1       0.079  -0.426   1.266  0.00  0.00    -0.001 A 
ENDROOT
TORSDOF 0
ENDMDL
