MODEL 1
REMARK minimizedAffinity 12.1953583
REMARK minimizedRMSD -1
REMARK  0 active torsions:
REMARK  status: ('A' for Active; 'I' for Inactive)
ROOT
ATOM      1  C   UNL d   1       0.085   0.334   1.761  0.00  0.00     0.078 C 
ATOM      2  C1  UNL d   1       1.075   0.649   0.680  0.00  0.00    -0.077 A 
ATOM      3  C2  UNL d   1       0.813   1.642  -0.272  0.00  0.00    -0.001 A 
ATOM      4  C3  UNL d   1       1.740   1.917  -1.279  0.00  0.00     0.003 A 
ATOM      5  C4  UNL d   1       2.935   1.203  -1.344  0.00  0.00    -0.005 A 
ATOM      6  C5  UNL d   1       3.204   0.212  -0.402  0.00  0.00     0.003 A 
ATOM      7  C6  UNL d   1       2.278  -0.065   0.605  0.00  0.00    -0.001 A 
ENDROOT
TORSDOF 0
ENDMDL
