MODEL 1
REMARK minimizedAffinity -0.504862785
REMARK minimizedRMSD -1
REMARK  0 active torsions:
REMARK  status: ('A' for Active; 'I' for Inactive)
ROOT
ATOM      1  C   UNL d   1       4.125   3.424  -4.151  0.00  0.00     0.078 C 
ATOM      2  C1  UNL d   1       2.962   4.111  -4.802  0.00  0.00    -0.077 A 
ATOM      3  C2  UNL d   1       3.111   5.367  -5.403  0.00  0.00    -0.001 A 
ATOM      4  C3  UNL d   1       2.017   6.000  -5.996  0.00  0.00     0.003 A 
ATOM      5  C4  UNL d   1       0.767   5.385  -5.994  0.00  0.00    -0.005 A 
ATOM      6  C5  UNL d   1       0.608   4.136  -5.396  0.00  0.00     0.003 A 
ATOM      7  C6  UNL d   1       1.701   3.502  -4.802  0.00  0.00    -0.001 A 
ENDROOT
TORSDOF 0
ENDMDL
