MODEL 1
REMARK minimizedAffinity 0.257463843
REMARK minimizedRMSD -1
REMARK  0 active torsions:
REMARK  status: ('A' for Active; 'I' for Inactive)
ROOT
ATOM      1  C   UNL d   1      -1.635   5.991  -2.356  0.00  0.00     0.078 C 
ATOM      2  C1  UNL d   1      -0.771   5.970  -3.581  0.00  0.00    -0.077 A 
ATOM      3  C2  UNL d   1       0.625   5.941  -3.479  0.00  0.00    -0.001 A 
ATOM      4  C3  UNL d   1       1.417   5.931  -4.628  0.00  0.00     0.003 A 
ATOM      5  C4  UNL d   1       0.822   5.951  -5.888  0.00  0.00    -0.005 A 
ATOM      6  C5  UNL d   1      -0.566   5.982  -6.000  0.00  0.00     0.003 A 
ATOM      7  C6  UNL d   1      -1.360   5.992  -4.852  0.00  0.00    -0.001 A 
ENDROOT
TORSDOF 0
ENDMDL
