MODEL 1
REMARK minimizedAffinity 0.500148356
REMARK minimizedRMSD -1
REMARK  0 active torsions:
REMARK  status: ('A' for Active; 'I' for Inactive)
ROOT
ATOM      1  C   UNL d   1      -3.528   5.990  -4.039  0.00  0.00     0.078 C 
ATOM      2  C1  UNL d   1      -2.029   5.998  -4.046  0.00  0.00    -0.077 A 
ATOM      3  C2  UNL d   1      -1.313   5.998  -5.250  0.00  0.00    -0.001 A 
ATOM      4  C3  UNL d   1       0.083   5.996  -5.241  0.00  0.00     0.003 A 
ATOM      5  C4  UNL d   1       0.775   5.993  -4.031  0.00  0.00    -0.005 A 
ATOM      6  C5  UNL d   1       0.071   5.991  -2.829  0.00  0.00     0.003 A 
ATOM      7  C6  UNL d   1      -1.324   5.993  -2.836  0.00  0.00    -0.001 A 
ENDROOT
TORSDOF 0
ENDMDL
