MODEL 1
REMARK minimizedAffinity 3.63010669
REMARK minimizedRMSD -1
REMARK  0 active torsions:
REMARK  status: ('A' for Active; 'I' for Inactive)
ROOT
ATOM      1  C   UNL d   1       1.798   2.270   0.423  0.00  0.00     0.078 C 
ATOM      2  C1  UNL d   1       0.892   1.120   0.751  0.00  0.00    -0.077 A 
ATOM      3  C2  UNL d   1       0.979  -0.089   0.051  0.00  0.00    -0.001 A 
ATOM      4  C3  UNL d   1       0.123  -1.147   0.361  0.00  0.00     0.003 A 
ATOM      5  C4  UNL d   1      -0.827  -1.006   1.370  0.00  0.00    -0.005 A 
ATOM      6  C5  UNL d   1      -0.923   0.195   2.071  0.00  0.00     0.003 A 
ATOM      7  C6  UNL d   1      -0.068   1.254   1.762  0.00  0.00    -0.001 A 
ENDROOT
TORSDOF 0
ENDMDL
