MODEL 1
REMARK minimizedAffinity 2.17386436
REMARK minimizedRMSD -1
REMARK  0 active torsions:
REMARK  status: ('A' for Active; 'I' for Inactive)
ROOT
ATOM      1  C   UNL d   1       0.249  -0.052   0.017  0.00  0.00     0.078 C 
ATOM      2  C1  UNL d   1      -0.311  -0.169  -1.369  0.00  0.00    -0.077 A 
ATOM      3  C2  UNL d   1      -1.693  -0.231  -1.586  0.00  0.00    -0.001 A 
ATOM      4  C3  UNL d   1      -2.200  -0.350  -2.881  0.00  0.00     0.003 A 
ATOM      5  C4  UNL d   1      -1.332  -0.410  -3.969  0.00  0.00    -0.005 A 
ATOM      6  C5  UNL d   1       0.045  -0.351  -3.763  0.00  0.00     0.003 A 
ATOM      7  C6  UNL d   1       0.553  -0.232  -2.469  0.00  0.00    -0.001 A 
ENDROOT
TORSDOF 0
ENDMDL
