MODEL 1
REMARK minimizedAffinity 2.91633129
REMARK minimizedRMSD -1
REMARK  0 active torsions:
REMARK  status: ('A' for Active; 'I' for Inactive)
ROOT
ATOM      1  C   UNL d   1       1.572   0.350  -0.573  0.00  0.00     0.078 C 
ATOM      2  C1  UNL d   1       0.764   0.699   0.641  0.00  0.00    -0.077 A 
ATOM      3  C2  UNL d   1      -0.432   0.031   0.927  0.00  0.00    -0.001 A 
ATOM      4  C3  UNL d   1      -1.179   0.373   2.056  0.00  0.00     0.003 A 
ATOM      5  C4  UNL d   1      -0.739   1.386   2.905  0.00  0.00    -0.005 A 
ATOM      6  C5  UNL d   1       0.449   2.058   2.627  0.00  0.00     0.003 A 
ATOM      7  C6  UNL d   1       1.197   1.717   1.499  0.00  0.00    -0.001 A 
ENDROOT
TORSDOF 0
ENDMDL
