MODEL 1
REMARK minimizedAffinity 0.771944106
REMARK minimizedRMSD -1
REMARK  0 active torsions:
REMARK  status: ('A' for Active; 'I' for Inactive)
ROOT
ATOM      1  C   UNL d   1       0.826   1.493   3.901  0.00  0.00     0.078 C 
ATOM      2  C1  UNL d   1       0.730   1.211   2.432  0.00  0.00    -0.077 A 
ATOM      3  C2  UNL d   1       1.614   1.806   1.524  0.00  0.00    -0.001 A 
ATOM      4  C3  UNL d   1       1.507   1.542   0.157  0.00  0.00     0.003 A 
ATOM      5  C4  UNL d   1       0.517   0.682  -0.314  0.00  0.00    -0.005 A 
ATOM      6  C5  UNL d   1      -0.369   0.087   0.582  0.00  0.00     0.003 A 
ATOM      7  C6  UNL d   1      -0.264   0.350   1.949  0.00  0.00    -0.001 A 
ENDROOT
TORSDOF 0
ENDMDL
