MODEL 1
REMARK minimizedAffinity 1.45181227
REMARK minimizedRMSD -1
REMARK  3 active torsions:
REMARK  status: ('A' for Active; 'I' for Inactive)
REMARK    1  A    between atoms: C3'_2  and  C2'_3 
REMARK    2  A    between atoms: C2'_3  and  C1'_4 
REMARK    3  A    between atoms: C1'_4  and  C1_5 
ROOT
ATOM      1  C1  N4B d   1      -4.718  -2.101   3.233  0.00  0.00    -0.075 A 
ATOM      2  C2  N4B d   1      -3.994  -3.213   3.716  0.00  0.00     0.002 A 
ATOM      3  C3  N4B d   1      -4.291  -4.475   3.263  0.00  0.00     0.002 A 
ATOM      4  C4  N4B d   1      -5.316  -4.651   2.345  0.00  0.00    -0.004 A 
ATOM      5  C5  N4B d   1      -5.994  -3.568   1.865  0.00  0.00     0.002 A 
ATOM      6  C6  N4B d   1      -5.703  -2.294   2.308  0.00  0.00     0.002 A 
ENDROOT
BRANCH   1   7
ATOM      7  C1' N4B d   1      -4.487  -0.712   3.763  0.00  0.00     0.057 C 
BRANCH   7   8
ATOM      8  C2' N4B d   1      -3.721   0.100   2.723  0.00  0.00     0.009 C 
BRANCH   8   9
ATOM      9  C3' N4B d   1      -3.186   1.400   3.298  0.00  0.00     0.004 C 
ATOM     10  C4' N4B d   1      -3.975   1.881   4.479  0.00  0.00     0.003 C 
ENDBRANCH   8   9
ENDBRANCH   7   8
ENDBRANCH   1   7
TORSDOF 3
ENDMDL
