MODEL 1
REMARK minimizedAffinity 2.74212384
REMARK minimizedRMSD -1
REMARK  3 active torsions:
REMARK  status: ('A' for Active; 'I' for Inactive)
REMARK    1  A    between atoms: C3'_2  and  C2'_3 
REMARK    2  A    between atoms: C2'_3  and  C1'_4 
REMARK    3  A    between atoms: C1'_4  and  C1_5 
ROOT
ATOM      1  C1  N4B d   1       3.777  -4.859  -2.061  0.00  0.00    -0.075 A 
ATOM      2  C2  N4B d   1       2.623  -4.089  -2.323  0.00  0.00     0.002 A 
ATOM      3  C3  N4B d   1       2.442  -3.522  -3.561  0.00  0.00     0.002 A 
ATOM      4  C4  N4B d   1       3.407  -3.694  -4.542  0.00  0.00    -0.004 A 
ATOM      5  C5  N4B d   1       4.507  -4.460  -4.288  0.00  0.00     0.002 A 
ATOM      6  C6  N4B d   1       4.700  -5.039  -3.050  0.00  0.00     0.002 A 
ENDROOT
BRANCH   1   7
ATOM      7  C1' N4B d   1       4.060  -5.427  -0.697  0.00  0.00     0.057 C 
BRANCH   7   8
ATOM      8  C2' N4B d   1       4.938  -4.451   0.080  0.00  0.00     0.009 C 
BRANCH   8   9
ATOM      9  C3' N4B d   1       4.274  -3.094   0.242  0.00  0.00     0.004 C 
ATOM     10  C4' N4B d   1       5.243  -2.015   0.624  0.00  0.00     0.003 C 
ENDBRANCH   8   9
ENDBRANCH   7   8
ENDBRANCH   1   7
TORSDOF 3
ENDMDL
