MODEL 1
REMARK minimizedAffinity 6.86140966
REMARK minimizedRMSD -1
REMARK  3 active torsions:
REMARK  status: ('A' for Active; 'I' for Inactive)
REMARK    1  A    between atoms: C3'_2  and  C2'_3 
REMARK    2  A    between atoms: C2'_3  and  C1'_4 
REMARK    3  A    between atoms: C1'_4  and  C1_5 
ROOT
ATOM      1  C1  N4B d   1      -4.715  -1.801   2.595  0.00  0.00    -0.075 A 
ATOM      2  C2  N4B d   1      -3.976  -2.549   3.539  0.00  0.00     0.002 A 
ATOM      3  C3  N4B d   1      -4.271  -3.874   3.748  0.00  0.00     0.002 A 
ATOM      4  C4  N4B d   1      -5.307  -4.465   3.041  0.00  0.00    -0.004 A 
ATOM      5  C5  N4B d   1      -5.999  -3.743   2.113  0.00  0.00     0.002 A 
ATOM      6  C6  N4B d   1      -5.711  -2.412   1.890  0.00  0.00     0.002 A 
ENDROOT
BRANCH   1   7
ATOM      7  C1' N4B d   1      -4.486  -0.328   2.394  0.00  0.00     0.057 C 
BRANCH   7   8
ATOM      8  C2' N4B d   1      -2.995  -0.031   2.519  0.00  0.00     0.009 C 
BRANCH   8   9
ATOM      9  C3' N4B d   1      -2.735   1.396   2.969  0.00  0.00     0.004 C 
ATOM     10  C4' N4B d   1      -3.660   1.837   4.065  0.00  0.00     0.003 C 
ENDBRANCH   8   9
ENDBRANCH   7   8
ENDBRANCH   1   7
TORSDOF 3
ENDMDL
