MODEL 1
REMARK minimizedAffinity 3.44234538
REMARK minimizedRMSD -1
REMARK  3 active torsions:
REMARK  status: ('A' for Active; 'I' for Inactive)
REMARK    1  A    between atoms: C3'_2  and  C2'_3 
REMARK    2  A    between atoms: C2'_3  and  C1'_4 
REMARK    3  A    between atoms: C1'_4  and  C1_5 
ROOT
ATOM      1  C1  N4B d   1      -5.139  -2.964   3.262  0.00  0.00    -0.075 A 
ATOM      2  C2  N4B d   1      -5.998  -3.914   2.667  0.00  0.00     0.002 A 
ATOM      3  C3  N4B d   1      -5.889  -5.242   3.001  0.00  0.00     0.002 A 
ATOM      4  C4  N4B d   1      -4.920  -5.644   3.908  0.00  0.00    -0.004 A 
ATOM      5  C5  N4B d   1      -4.111  -4.717   4.497  0.00  0.00     0.002 A 
ATOM      6  C6  N4B d   1      -4.212  -3.379   4.175  0.00  0.00     0.002 A 
ENDROOT
BRANCH   1   7
ATOM      7  C1' N4B d   1      -5.163  -1.513   2.866  0.00  0.00     0.057 C 
BRANCH   7   8
ATOM      8  C2' N4B d   1      -4.036  -0.779   3.585  0.00  0.00     0.009 C 
BRANCH   8   9
ATOM      9  C3' N4B d   1      -3.477   0.361   2.751  0.00  0.00     0.004 C 
ATOM     10  C4' N4B d   1      -2.968   1.497   3.587  0.00  0.00     0.003 C 
ENDBRANCH   8   9
ENDBRANCH   7   8
ENDBRANCH   1   7
TORSDOF 3
ENDMDL
