MODEL 1
REMARK minimizedAffinity 10.2129946
REMARK minimizedRMSD -1
REMARK  3 active torsions:
REMARK  status: ('A' for Active; 'I' for Inactive)
REMARK    1  A    between atoms: C3'_2  and  C2'_3 
REMARK    2  A    between atoms: C2'_3  and  C1'_4 
REMARK    3  A    between atoms: C1'_4  and  C1_5 
ROOT
ATOM      1  C1  N4B d   1      -4.679  -2.706   3.082  0.00  0.00    -0.075 A 
ATOM      2  C2  N4B d   1      -3.528  -3.448   3.424  0.00  0.00     0.002 A 
ATOM      3  C3  N4B d   1      -3.633  -4.533   4.260  0.00  0.00     0.002 A 
ATOM      4  C4  N4B d   1      -4.871  -4.881   4.778  0.00  0.00    -0.004 A 
ATOM      5  C5  N4B d   1      -5.983  -4.174   4.423  0.00  0.00     0.002 A 
ATOM      6  C6  N4B d   1      -5.892  -3.085   3.580  0.00  0.00     0.002 A 
ENDROOT
BRANCH   1   7
ATOM      7  C1' N4B d   1      -4.601  -1.461   2.240  0.00  0.00     0.057 C 
BRANCH   7   8
ATOM      8  C2' N4B d   1      -3.272  -0.760   2.507  0.00  0.00     0.009 C 
BRANCH   8   9
ATOM      9  C3' N4B d   1      -3.367   0.740   2.283  0.00  0.00     0.004 C 
ATOM     10  C4' N4B d   1      -3.359   1.520   3.564  0.00  0.00     0.003 C 
ENDBRANCH   8   9
ENDBRANCH   7   8
ENDBRANCH   1   7
TORSDOF 3
ENDMDL
