MODEL 1
REMARK minimizedAffinity 5.65662622
REMARK minimizedRMSD -1
REMARK  3 active torsions:
REMARK  status: ('A' for Active; 'I' for Inactive)
REMARK    1  A    between atoms: C3'_2  and  C2'_3 
REMARK    2  A    between atoms: C2'_3  and  C1'_4 
REMARK    3  A    between atoms: C1'_4  and  C1_5 
ROOT
ATOM      1  C1  N4B d   1       3.460  -4.621  -2.258  0.00  0.00    -0.075 A 
ATOM      2  C2  N4B d   1       4.394  -4.676  -3.316  0.00  0.00     0.002 A 
ATOM      3  C3  N4B d   1       4.186  -3.937  -4.455  0.00  0.00     0.002 A 
ATOM      4  C4  N4B d   1       3.046  -3.154  -4.565  0.00  0.00    -0.004 A 
ATOM      5  C5  N4B d   1       2.162  -3.087  -3.529  0.00  0.00     0.002 A 
ATOM      6  C6  N4B d   1       2.361  -3.821  -2.377  0.00  0.00     0.002 A 
ENDROOT
BRANCH   1   7
ATOM      7  C1' N4B d   1       3.601  -5.477  -1.029  0.00  0.00     0.057 C 
BRANCH   7   8
ATOM      8  C2' N4B d   1       4.333  -4.686   0.051  0.00  0.00     0.009 C 
BRANCH   8   9
ATOM      9  C3' N4B d   1       3.496  -3.534   0.577  0.00  0.00     0.004 C 
ATOM     10  C4' N4B d   1       4.319  -2.330   0.928  0.00  0.00     0.003 C 
ENDBRANCH   8   9
ENDBRANCH   7   8
ENDBRANCH   1   7
TORSDOF 3
ENDMDL
