MODEL 1
REMARK minimizedAffinity 5.75643873
REMARK minimizedRMSD -1
REMARK  3 active torsions:
REMARK  status: ('A' for Active; 'I' for Inactive)
REMARK    1  A    between atoms: C3'_2  and  C2'_3 
REMARK    2  A    between atoms: C2'_3  and  C1'_4 
REMARK    3  A    between atoms: C1'_4  and  C1_5 
ROOT
ATOM      1  C1  N4B d   1       3.068  -4.684  -2.568  0.00  0.00    -0.075 A 
ATOM      2  C2  N4B d   1       2.057  -3.841  -3.081  0.00  0.00     0.002 A 
ATOM      3  C3  N4B d   1       2.227  -3.227  -4.298  0.00  0.00     0.002 A 
ATOM      4  C4  N4B d   1       3.402  -3.425  -5.007  0.00  0.00    -0.004 A 
ATOM      5  C5  N4B d   1       4.363  -4.261  -4.517  0.00  0.00     0.002 A 
ATOM      6  C6  N4B d   1       4.204  -4.887  -3.297  0.00  0.00     0.002 A 
ENDROOT
BRANCH   1   7
ATOM      7  C1' N4B d   1       2.964  -5.308  -1.203  0.00  0.00     0.057 C 
BRANCH   7   8
ATOM      8  C2' N4B d   1       3.353  -4.275  -0.149  0.00  0.00     0.009 C 
BRANCH   8   9
ATOM      9  C3' N4B d   1       4.715  -4.566   0.457  0.00  0.00     0.004 C 
ATOM     10  C4' N4B d   1       5.590  -3.351   0.530  0.00  0.00     0.003 C 
ENDBRANCH   8   9
ENDBRANCH   7   8
ENDBRANCH   1   7
TORSDOF 3
ENDMDL
