MODEL 1
REMARK minimizedAffinity 2.14897656
REMARK minimizedRMSD -1
REMARK  3 active torsions:
REMARK  status: ('A' for Active; 'I' for Inactive)
REMARK    1  A    between atoms: C3'_2  and  C2'_3 
REMARK    2  A    between atoms: C2'_3  and  C1'_4 
REMARK    3  A    between atoms: C1'_4  and  C1_5 
ROOT
ATOM      1  C1  N4B d   1       3.609  -4.428  -2.231  0.00  0.00    -0.075 A 
ATOM      2  C2  N4B d   1       4.818  -4.565  -2.948  0.00  0.00     0.002 A 
ATOM      3  C3  N4B d   1       6.000  -4.745  -2.271  0.00  0.00     0.002 A 
ATOM      4  C4  N4B d   1       6.000  -4.771  -0.885  0.00  0.00    -0.004 A 
ATOM      5  C5  N4B d   1       4.824  -4.662  -0.201  0.00  0.00     0.002 A 
ATOM      6  C6  N4B d   1       3.629  -4.486  -0.868  0.00  0.00     0.002 A 
ENDROOT
BRANCH   1   7
ATOM      7  C1' N4B d   1       2.304  -4.144  -2.923  0.00  0.00     0.057 C 
BRANCH   7   8
ATOM      8  C2' N4B d   1       2.254  -2.670  -3.315  0.00  0.00     0.009 C 
BRANCH   8   9
ATOM      9  C3' N4B d   1       1.845  -1.786  -2.149  0.00  0.00     0.004 C 
ATOM     10  C4' N4B d   1       1.445  -0.406  -2.579  0.00  0.00     0.003 C 
ENDBRANCH   8   9
ENDBRANCH   7   8
ENDBRANCH   1   7
TORSDOF 3
ENDMDL
