MODEL 1
REMARK minimizedAffinity 5.00708437
REMARK minimizedRMSD -1
REMARK  3 active torsions:
REMARK  status: ('A' for Active; 'I' for Inactive)
REMARK    1  A    between atoms: C3'_2  and  C2'_3 
REMARK    2  A    between atoms: C2'_3  and  C1'_4 
REMARK    3  A    between atoms: C1'_4  and  C1_5 
ROOT
ATOM      1  C1  N4B d   1       3.806  -5.073  -2.321  0.00  0.00    -0.075 A 
ATOM      2  C2  N4B d   1       2.519  -4.515  -2.161  0.00  0.00     0.002 A 
ATOM      3  C3  N4B d   1       1.958  -3.778  -3.175  0.00  0.00     0.002 A 
ATOM      4  C4  N4B d   1       2.671  -3.571  -4.347  0.00  0.00    -0.004 A 
ATOM      5  C5  N4B d   1       3.904  -4.134  -4.503  0.00  0.00     0.002 A 
ATOM      6  C6  N4B d   1       4.478  -4.880  -3.494  0.00  0.00     0.002 A 
ENDROOT
BRANCH   1   7
ATOM      7  C1' N4B d   1       4.495  -5.813  -1.208  0.00  0.00     0.057 C 
BRANCH   7   8
ATOM      8  C2' N4B d   1       4.631  -4.890  -0.001  0.00  0.00     0.009 C 
BRANCH   8   9
ATOM      9  C3' N4B d   1       6.000  -4.233   0.061  0.00  0.00     0.004 C 
ATOM     10  C4' N4B d   1       5.991  -2.942   0.823  0.00  0.00     0.003 C 
ENDBRANCH   8   9
ENDBRANCH   7   8
ENDBRANCH   1   7
TORSDOF 3
ENDMDL
