MODEL 1
REMARK minimizedAffinity 1.24078262
REMARK minimizedRMSD -1
REMARK  3 active torsions:
REMARK  status: ('A' for Active; 'I' for Inactive)
REMARK    1  A    between atoms: C3'_2  and  C2'_3 
REMARK    2  A    between atoms: C2'_3  and  C1'_4 
REMARK    3  A    between atoms: C1'_4  and  C1_5 
ROOT
ATOM      1  C1  N4B d   1       3.012  -4.091  -2.376  0.00  0.00    -0.075 A 
ATOM      2  C2  N4B d   1       4.364  -4.499  -2.405  0.00  0.00     0.002 A 
ATOM      3  C3  N4B d   1       5.082  -4.581  -1.237  0.00  0.00     0.002 A 
ATOM      4  C4  N4B d   1       4.477  -4.244  -0.036  0.00  0.00    -0.004 A 
ATOM      5  C5  N4B d   1       3.164  -3.876  -0.013  0.00  0.00     0.002 A 
ATOM      6  C6  N4B d   1       2.429  -3.792  -1.178  0.00  0.00     0.002 A 
ENDROOT
BRANCH   1   7
ATOM      7  C1' N4B d   1       2.212  -3.903  -3.636  0.00  0.00     0.057 C 
BRANCH   7   8
ATOM      8  C2' N4B d   1       2.095  -2.412  -3.937  0.00  0.00     0.009 C 
BRANCH   8   9
ATOM      9  C3' N4B d   1       1.454  -1.649  -2.791  0.00  0.00     0.004 C 
ATOM     10  C4' N4B d   1       1.094  -0.241  -3.160  0.00  0.00     0.003 C 
ENDBRANCH   8   9
ENDBRANCH   7   8
ENDBRANCH   1   7
TORSDOF 3
ENDMDL
