MODEL 1
REMARK minimizedAffinity 7.79953575
REMARK minimizedRMSD -1
REMARK  3 active torsions:
REMARK  status: ('A' for Active; 'I' for Inactive)
REMARK    1  A    between atoms: C3'_2  and  C2'_3 
REMARK    2  A    between atoms: C2'_3  and  C1'_4 
REMARK    3  A    between atoms: C1'_4  and  C1_5 
ROOT
ATOM      1  C1  N4B d   1       1.851   2.973  -0.047  0.00  0.00    -0.075 A 
ATOM      2  C2  N4B d   1       1.751   3.538  -1.337  0.00  0.00     0.002 A 
ATOM      3  C3  N4B d   1       1.262   4.812  -1.493  0.00  0.00     0.002 A 
ATOM      4  C4  N4B d   1       0.852   5.530  -0.380  0.00  0.00    -0.004 A 
ATOM      5  C5  N4B d   1       0.976   4.987   0.865  0.00  0.00     0.002 A 
ATOM      6  C6  N4B d   1       1.469   3.710   1.037  0.00  0.00     0.002 A 
ENDROOT
BRANCH   1   7
ATOM      7  C1' N4B d   1       2.298   1.553   0.166  0.00  0.00     0.057 C 
BRANCH   7   8
ATOM      8  C2' N4B d   1       1.810   0.695  -0.997  0.00  0.00     0.009 C 
BRANCH   8   9
ATOM      9  C3' N4B d   1       1.863  -0.788  -0.671  0.00  0.00     0.004 C 
ATOM     10  C4' N4B d   1       1.804  -1.654  -1.893  0.00  0.00     0.003 C 
ENDBRANCH   8   9
ENDBRANCH   7   8
ENDBRANCH   1   7
TORSDOF 3
ENDMDL
