MODEL 1
REMARK minimizedAffinity 15.865365
REMARK minimizedRMSD -1
REMARK  3 active torsions:
REMARK  status: ('A' for Active; 'I' for Inactive)
REMARK    1  A    between atoms: C3'_2  and  C2'_3 
REMARK    2  A    between atoms: C2'_3  and  C1'_4 
REMARK    3  A    between atoms: C1'_4  and  C1_5 
ROOT
ATOM      1  C1  N4B d   1      -2.784  -4.153  -4.230  0.00  0.00    -0.075 A 
ATOM      2  C2  N4B d   1      -3.735  -4.971  -4.880  0.00  0.00     0.002 A 
ATOM      3  C3  N4B d   1      -4.627  -4.416  -5.764  0.00  0.00     0.002 A 
ATOM      4  C4  N4B d   1      -4.599  -3.049  -6.000  0.00  0.00    -0.004 A 
ATOM      5  C5  N4B d   1      -3.660  -2.271  -5.388  0.00  0.00     0.002 A 
ATOM      6  C6  N4B d   1      -2.755  -2.816  -4.500  0.00  0.00     0.002 A 
ENDROOT
BRANCH   1   7
ATOM      7  C1' N4B d   1      -1.844  -4.701  -3.191  0.00  0.00     0.057 C 
BRANCH   7   8
ATOM      8  C2' N4B d   1      -0.406  -4.473  -3.646  0.00  0.00     0.009 C 
BRANCH   8   9
ATOM      9  C3' N4B d   1       0.504  -4.101  -2.487  0.00  0.00     0.004 C 
ATOM     10  C4' N4B d   1       1.102  -2.734  -2.634  0.00  0.00     0.003 C 
ENDBRANCH   8   9
ENDBRANCH   7   8
ENDBRANCH   1   7
TORSDOF 3
ENDMDL
