MODEL 1
REMARK minimizedAffinity 5.94570541
REMARK minimizedRMSD -1
REMARK  1 active torsions:
REMARK  status: ('A' for Active; 'I' for Inactive)
REMARK    1  A    between atoms: C1_2  and  C2_3 
ROOT
ATOM      1  C2  UNL d   1       1.779  -3.472   3.978  0.00  0.00    -0.076 A 
ATOM      2  C3  UNL d   1       0.478  -3.112   3.588  0.00  0.00     0.004 A 
ATOM      3  C4  UNL d   1       0.239  -1.932   2.886  0.00  0.00    -0.003 A 
ATOM      4  C5  UNL d   1       1.300  -1.093   2.561  0.00  0.00     0.000 A 
ATOM      5  C6  UNL d   1       2.600  -1.443   2.924  0.00  0.00     0.000 A 
ATOM      6  C7  UNL d   1       2.859  -2.637   3.618  0.00  0.00    -0.073 A 
ATOM      7  C8  UNL d   1       4.280  -2.962   3.990  0.00  0.00     0.078 C 
ENDROOT
BRANCH   1   8
ATOM      8  C1  UNL d   1       1.973  -4.751   4.761  0.00  0.00     0.053 C 
ATOM      9  C   UNL d   1       1.992  -5.983   3.871  0.00  0.00     0.018 C 
ENDBRANCH   1   8
TORSDOF 1
ENDMDL
