MODEL 1
REMARK minimizedAffinity 6.21189213
REMARK minimizedRMSD -1
REMARK  1 active torsions:
REMARK  status: ('A' for Active; 'I' for Inactive)
REMARK    1  A    between atoms: C1_2  and  C2_3 
ROOT
ATOM      1  C2  UNL d   1       1.127  -1.483   1.621  0.00  0.00    -0.076 A 
ATOM      2  C3  UNL d   1       0.751  -2.648   2.312  0.00  0.00     0.004 A 
ATOM      3  C4  UNL d   1       1.125  -2.847   3.640  0.00  0.00    -0.003 A 
ATOM      4  C5  UNL d   1       1.880  -1.883   4.299  0.00  0.00     0.000 A 
ATOM      5  C6  UNL d   1       2.247  -0.714   3.635  0.00  0.00     0.000 A 
ATOM      6  C7  UNL d   1       1.865  -0.490   2.301  0.00  0.00    -0.073 A 
ATOM      7  C8  UNL d   1       2.293   0.787   1.631  0.00  0.00     0.078 C 
ENDROOT
BRANCH   1   8
ATOM      8  C1  UNL d   1       0.715  -1.335   0.174  0.00  0.00     0.053 C 
ATOM      9  C   UNL d   1       0.714  -2.661  -0.570  0.00  0.00     0.018 C 
ENDBRANCH   1   8
TORSDOF 1
ENDMDL
