MODEL 1
REMARK minimizedAffinity 7.95711994
REMARK minimizedRMSD -1
REMARK  1 active torsions:
REMARK  status: ('A' for Active; 'I' for Inactive)
REMARK    1  A    between atoms: C1_2  and  C2_3 
ROOT
ATOM      1  C2  UNL d   1       1.266  -1.937  -0.882  0.00  0.00    -0.076 A 
ATOM      2  C3  UNL d   1       2.449  -1.188  -1.007  0.00  0.00     0.004 A 
ATOM      3  C4  UNL d   1       3.491  -1.623  -1.825  0.00  0.00    -0.003 A 
ATOM      4  C5  UNL d   1       3.366  -2.814  -2.532  0.00  0.00     0.000 A 
ATOM      5  C6  UNL d   1       2.193  -3.561  -2.433  0.00  0.00     0.000 A 
ATOM      6  C7  UNL d   1       1.126  -3.128  -1.626  0.00  0.00    -0.073 A 
ATOM      7  C8  UNL d   1      -0.114  -3.976  -1.553  0.00  0.00     0.078 C 
ENDROOT
BRANCH   1   8
ATOM      8  C1  UNL d   1       0.181  -1.429   0.040  0.00  0.00     0.053 C 
ATOM      9  C   UNL d   1       0.596  -1.467   1.503  0.00  0.00     0.018 C 
ENDBRANCH   1   8
TORSDOF 1
ENDMDL
