MODEL 1
REMARK minimizedAffinity 4.11487961
REMARK minimizedRMSD -1
REMARK  1 active torsions:
REMARK  status: ('A' for Active; 'I' for Inactive)
REMARK    1  A    between atoms: C1_2  and  C2_3 
ROOT
ATOM      1  C2  UNL d   1      -5.978   1.950   0.258  0.00  0.00    -0.076 A 
ATOM      2  C3  UNL d   1      -5.992   1.853  -1.144  0.00  0.00     0.004 A 
ATOM      3  C4  UNL d   1      -6.000   2.995  -1.943  0.00  0.00    -0.003 A 
ATOM      4  C5  UNL d   1      -5.994   4.254  -1.352  0.00  0.00     0.000 A 
ATOM      5  C6  UNL d   1      -5.962   4.369   0.038  0.00  0.00     0.000 A 
ATOM      6  C7  UNL d   1      -5.937   3.228   0.857  0.00  0.00    -0.073 A 
ATOM      7  C8  UNL d   1      -5.909   3.411   2.350  0.00  0.00     0.078 C 
ENDROOT
BRANCH   1   8
ATOM      8  C1  UNL d   1      -5.997   0.677   1.073  0.00  0.00     0.053 C 
ATOM      9  C   UNL d   1      -4.603   0.224   1.479  0.00  0.00     0.018 C 
ENDBRANCH   1   8
TORSDOF 1
ENDMDL
