MODEL 1
REMARK minimizedAffinity 14.227951
REMARK minimizedRMSD -1
REMARK  1 active torsions:
REMARK  status: ('A' for Active; 'I' for Inactive)
REMARK    1  A    between atoms: C1_2  and  C2_3 
ROOT
ATOM      1  C2  UNL d   1       1.295  -1.711   1.523  0.00  0.00    -0.076 A 
ATOM      2  C3  UNL d   1       0.854  -2.920   0.956  0.00  0.00     0.004 A 
ATOM      3  C4  UNL d   1       0.819  -3.093  -0.427  0.00  0.00    -0.003 A 
ATOM      4  C5  UNL d   1       1.226  -2.060  -1.265  0.00  0.00     0.000 A 
ATOM      5  C6  UNL d   1       1.683  -0.861  -0.719  0.00  0.00     0.000 A 
ATOM      6  C7  UNL d   1       1.740  -0.676   0.673  0.00  0.00    -0.073 A 
ATOM      7  C8  UNL d   1       2.236   0.640   1.207  0.00  0.00     0.078 C 
ENDROOT
BRANCH   1   8
ATOM      8  C1  UNL d   1       1.285  -1.572   3.028  0.00  0.00     0.053 C 
ATOM      9  C   UNL d   1       2.100  -2.654   3.719  0.00  0.00     0.018 C 
ENDBRANCH   1   8
TORSDOF 1
ENDMDL
