MODEL 1
REMARK minimizedAffinity 4.05976105
REMARK minimizedRMSD -1
REMARK  1 active torsions:
REMARK  status: ('A' for Active; 'I' for Inactive)
REMARK    1  A    between atoms: C1_2  and  C2_3 
ROOT
ATOM      1  C2  UNL d   1      -5.098   2.171   0.399  0.00  0.00    -0.076 A 
ATOM      2  C3  UNL d   1      -5.051   3.224   1.329  0.00  0.00     0.004 A 
ATOM      3  C4  UNL d   1      -5.463   4.509   0.979  0.00  0.00    -0.003 A 
ATOM      4  C5  UNL d   1      -5.929   4.761  -0.307  0.00  0.00     0.000 A 
ATOM      5  C6  UNL d   1      -5.999   3.724  -1.237  0.00  0.00     0.000 A 
ATOM      6  C7  UNL d   1      -5.604   2.419  -0.895  0.00  0.00    -0.073 A 
ATOM      7  C8  UNL d   1      -5.695   1.340  -1.939  0.00  0.00     0.078 C 
ENDROOT
BRANCH   1   8
ATOM      8  C1  UNL d   1      -4.614   0.804   0.828  0.00  0.00     0.053 C 
ATOM      9  C   UNL d   1      -5.706  -0.019   1.493  0.00  0.00     0.018 C 
ENDBRANCH   1   8
TORSDOF 1
ENDMDL
