MODEL 1
REMARK minimizedAffinity -3.55496287
REMARK minimizedRMSD -1
REMARK  3 active torsions:
REMARK  status: ('A' for Active; 'I' for Inactive)
REMARK    1  A    between atoms: C3'_2  and  C2'_3 
REMARK    2  A    between atoms: C2'_3  and  C1'_4 
REMARK    3  A    between atoms: C1'_4  and  C1_5 
ROOT
ATOM      1  C1  N4B d   1       0.298  -0.315   0.022  0.00  0.00    -0.075 A 
ATOM      2  C2  N4B d   1      -0.802  -0.243   0.905  0.00  0.00     0.002 A 
ATOM      3  C3  N4B d   1      -0.664  -0.655   2.208  0.00  0.00     0.002 A 
ATOM      4  C4  N4B d   1       0.552  -1.158   2.643  0.00  0.00    -0.004 A 
ATOM      5  C5  N4B d   1       1.617  -1.201   1.791  0.00  0.00     0.002 A 
ATOM      6  C6  N4B d   1       1.495  -0.786   0.480  0.00  0.00     0.002 A 
ENDROOT
BRANCH   1   7
ATOM      7  C1' N4B d   1       0.173   0.043  -1.434  0.00  0.00     0.057 C 
BRANCH   7   8
ATOM      8  C2' N4B d   1      -0.913   1.102  -1.597  0.00  0.00     0.009 C 
BRANCH   8   9
ATOM      9  C3' N4B d   1      -0.468   2.238  -2.502  0.00  0.00     0.004 C 
ATOM     10  C4' N4B d   1      -1.173   3.528  -2.205  0.00  0.00     0.003 C 
ENDBRANCH   8   9
ENDBRANCH   7   8
ENDBRANCH   1   7
TORSDOF 3
ENDMDL
