MODEL 1
REMARK minimizedAffinity -4.23703051
REMARK minimizedRMSD -1
REMARK  3 active torsions:
REMARK  status: ('A' for Active; 'I' for Inactive)
REMARK    1  A    between atoms: C3'_2  and  C2'_3 
REMARK    2  A    between atoms: C2'_3  and  C1'_4 
REMARK    3  A    between atoms: C1'_4  and  C1_5 
ROOT
ATOM      1  C1  N4B d   1       0.389  -0.904   0.722  0.00  0.00    -0.075 A 
ATOM      2  C2  N4B d   1      -0.565  -0.149   0.006  0.00  0.00     0.002 A 
ATOM      3  C3  N4B d   1      -1.816   0.056   0.533  0.00  0.00     0.002 A 
ATOM      4  C4  N4B d   1      -2.141  -0.499   1.762  0.00  0.00    -0.004 A 
ATOM      5  C5  N4B d   1      -1.206  -1.206   2.460  0.00  0.00     0.002 A 
ATOM      6  C6  N4B d   1       0.057  -1.416   1.943  0.00  0.00     0.002 A 
ENDROOT
BRANCH   1   7
ATOM      7  C1' N4B d   1       1.741  -1.227   0.148  0.00  0.00     0.057 C 
BRANCH   7   8
ATOM      8  C2' N4B d   1       2.814  -0.503   0.955  0.00  0.00     0.009 C 
BRANCH   8   9
ATOM      9  C3' N4B d   1       2.256   0.094   2.235  0.00  0.00     0.004 C 
ATOM     10  C4' N4B d   1       2.311   1.593   2.249  0.00  0.00     0.003 C 
ENDBRANCH   8   9
ENDBRANCH   7   8
ENDBRANCH   1   7
TORSDOF 3
ENDMDL
