MODEL 1
REMARK minimizedAffinity -5.43435717
REMARK minimizedRMSD -1
REMARK  3 active torsions:
REMARK  status: ('A' for Active; 'I' for Inactive)
REMARK    1  A    between atoms: C3'_2  and  C2'_3 
REMARK    2  A    between atoms: C2'_3  and  C1'_4 
REMARK    3  A    between atoms: C1'_4  and  C1_5 
ROOT
ATOM      1  C1  N4B d   1       1.061  -0.260   0.712  0.00  0.00    -0.075 A 
ATOM      2  C2  N4B d   1      -0.191   0.335   0.439  0.00  0.00     0.002 A 
ATOM      3  C3  N4B d   1      -0.728   0.255  -0.822  0.00  0.00     0.002 A 
ATOM      4  C4  N4B d   1      -0.027  -0.395  -1.827  0.00  0.00    -0.004 A 
ATOM      5  C5  N4B d   1       1.170  -0.989  -1.548  0.00  0.00     0.002 A 
ATOM      6  C6  N4B d   1       1.720  -0.920  -0.284  0.00  0.00     0.002 A 
ENDROOT
BRANCH   1   7
ATOM      7  C1' N4B d   1       1.728  -0.125   2.054  0.00  0.00     0.057 C 
BRANCH   7   8
ATOM      8  C2' N4B d   1       1.334  -1.310   2.931  0.00  0.00     0.009 C 
BRANCH   8   9
ATOM      9  C3' N4B d   1      -0.084  -1.777   2.651  0.00  0.00     0.004 C 
ATOM     10  C4' N4B d   1      -0.352  -3.160   3.164  0.00  0.00     0.003 C 
ENDBRANCH   8   9
ENDBRANCH   7   8
ENDBRANCH   1   7
TORSDOF 3
ENDMDL
