MODEL 1
REMARK minimizedAffinity 18.4461155
REMARK minimizedRMSD -1
REMARK  0 active torsions:
REMARK  status: ('A' for Active; 'I' for Inactive)
ROOT
ATOM      1  O1  BZF d   1       4.299   2.444   2.785  0.00  0.00    -0.204 OA
ATOM      2  C2  BZF d   1       4.746   1.641   3.816  0.00  0.00     0.174 A 
ATOM      3  C3  BZF d   1       5.504   2.349   4.679  0.00  0.00    -0.012 A 
ATOM      4  C3A BZF d   1       5.456   3.697   4.203  0.00  0.00    -0.107 A 
ATOM      5  C4  BZF d   1       6.000   4.869   4.646  0.00  0.00     0.055 A 
ATOM      6  C5  BZF d   1       5.823   5.999   3.912  0.00  0.00    -0.016 A 
ATOM      7  C6  BZF d   1       5.114   5.992   2.729  0.00  0.00     0.022 A 
ATOM      8  C7  BZF d   1       4.552   4.855   2.251  0.00  0.00     0.029 A 
ATOM      9  C7A BZF d   1       4.701   3.718   3.008  0.00  0.00     0.058 A 
ENDROOT
TORSDOF 0
ENDMDL
