MODEL 1
REMARK minimizedAffinity 14.4137564
REMARK minimizedRMSD -1
REMARK  0 active torsions:
REMARK  status: ('A' for Active; 'I' for Inactive)
ROOT
ATOM      1  O1  BZF d   1       3.314  -0.506   4.414  0.00  0.00    -0.204 OA
ATOM      2  C2  BZF d   1       3.866   0.753   4.284  0.00  0.00     0.174 A 
ATOM      3  C3  BZF d   1       2.993   1.600   3.700  0.00  0.00    -0.012 A 
ATOM      4  C3A BZF d   1       1.790   0.844   3.533  0.00  0.00    -0.107 A 
ATOM      5  C4  BZF d   1       0.558   1.141   3.023  0.00  0.00     0.055 A 
ATOM      6  C5  BZF d   1      -0.375   0.157   2.938  0.00  0.00    -0.016 A 
ATOM      7  C6  BZF d   1      -0.110  -1.133   3.347  0.00  0.00     0.022 A 
ATOM      8  C7  BZF d   1       1.095  -1.474   3.865  0.00  0.00     0.029 A 
ATOM      9  C7A BZF d   1       2.030  -0.475   3.983  0.00  0.00     0.058 A 
ENDROOT
TORSDOF 0
ENDMDL
