MODEL 1
REMARK minimizedAffinity 12.3216581
REMARK minimizedRMSD -1
REMARK  0 active torsions:
REMARK  status: ('A' for Active; 'I' for Inactive)
ROOT
ATOM      1  O1  BZF d   1       2.645   0.860  -4.875  0.00  0.00    -0.204 OA
ATOM      2  C2  BZF d   1       3.776   0.368  -5.497  0.00  0.00     0.174 A 
ATOM      3  C3  BZF d   1       3.554  -0.868  -5.987  0.00  0.00    -0.012 A 
ATOM      4  C3A BZF d   1       2.171  -1.131  -5.732  0.00  0.00    -0.107 A 
ATOM      5  C4  BZF d   1       1.351  -2.190  -5.999  0.00  0.00     0.055 A 
ATOM      6  C5  BZF d   1       0.068  -2.162  -5.552  0.00  0.00    -0.016 A 
ATOM      7  C6  BZF d   1      -0.426  -1.095  -4.831  0.00  0.00     0.022 A 
ATOM      8  C7  BZF d   1       0.348  -0.019  -4.545  0.00  0.00     0.029 A 
ATOM      9  C7A BZF d   1       1.635  -0.030  -5.024  0.00  0.00     0.058 A 
ENDROOT
TORSDOF 0
ENDMDL
