MODEL 1
REMARK minimizedAffinity 10.4354877
REMARK minimizedRMSD -1
REMARK  0 active torsions:
REMARK  status: ('A' for Active; 'I' for Inactive)
ROOT
ATOM      1  O1  BZF d   1      -3.981   0.089   2.777  0.00  0.00    -0.204 OA
ATOM      2  C2  BZF d   1      -4.220  -1.219   3.151  0.00  0.00     0.174 A 
ATOM      3  C3  BZF d   1      -3.066  -1.850   3.448  0.00  0.00    -0.012 A 
ATOM      4  C3A BZF d   1      -2.050  -0.849   3.335  0.00  0.00    -0.107 A 
ATOM      5  C4  BZF d   1      -0.697  -0.859   3.523  0.00  0.00     0.055 A 
ATOM      6  C5  BZF d   1       0.014   0.268   3.259  0.00  0.00    -0.016 A 
ATOM      7  C6  BZF d   1      -0.593   1.420   2.803  0.00  0.00     0.022 A 
ATOM      8  C7  BZF d   1      -1.932   1.479   2.606  0.00  0.00     0.029 A 
ATOM      9  C7A BZF d   1      -2.658   0.352   2.903  0.00  0.00     0.058 A 
ENDROOT
TORSDOF 0
ENDMDL
