MODEL 1
REMARK minimizedAffinity 18.5897827
REMARK minimizedRMSD -1
REMARK  0 active torsions:
REMARK  status: ('A' for Active; 'I' for Inactive)
ROOT
ATOM      1  O1  BZF d   1       0.915  -2.004  -6.000  0.00  0.00    -0.204 OA
ATOM      2  C2  BZF d   1       1.495  -0.789  -5.690  0.00  0.00     0.174 A 
ATOM      3  C3  BZF d   1       0.692  -0.069  -4.880  0.00  0.00    -0.012 A 
ATOM      4  C3A BZF d   1      -0.420  -0.923  -4.596  0.00  0.00    -0.107 A 
ATOM      5  C4  BZF d   1      -1.544  -0.778  -3.834  0.00  0.00     0.055 A 
ATOM      6  C5  BZF d   1      -2.469  -1.774  -3.827  0.00  0.00    -0.016 A 
ATOM      7  C6  BZF d   1      -2.305  -2.923  -4.572  0.00  0.00     0.022 A 
ATOM      8  C7  BZF d   1      -1.204  -3.114  -5.339  0.00  0.00     0.029 A 
ATOM      9  C7A BZF d   1      -0.252  -2.124  -5.323  0.00  0.00     0.058 A 
ENDROOT
TORSDOF 0
ENDMDL
