MODEL 1
REMARK minimizedAffinity 10.4111691
REMARK minimizedRMSD -1
REMARK  0 active torsions:
REMARK  status: ('A' for Active; 'I' for Inactive)
ROOT
ATOM      1  O1  BZF d   1       1.063  -0.029  -5.358  0.00  0.00    -0.204 OA
ATOM      2  C2  BZF d   1       2.342   0.466  -5.195  0.00  0.00     0.174 A 
ATOM      3  C3  BZF d   1       3.252  -0.527  -5.263  0.00  0.00    -0.012 A 
ATOM      4  C3A BZF d   1       2.501  -1.704  -5.576  0.00  0.00    -0.107 A 
ATOM      5  C4  BZF d   1       2.846  -3.008  -5.788  0.00  0.00     0.055 A 
ATOM      6  C5  BZF d   1       1.864  -3.924  -6.000  0.00  0.00    -0.016 A 
ATOM      7  C6  BZF d   1       0.530  -3.573  -6.000  0.00  0.00     0.022 A 
ATOM      8  C7  BZF d   1       0.140  -2.290  -5.799  0.00  0.00     0.029 A 
ATOM      9  C7A BZF d   1       1.131  -1.357  -5.618  0.00  0.00     0.058 A 
ENDROOT
TORSDOF 0
ENDMDL
