MODEL 1
REMARK minimizedAffinity -3.82120633
REMARK minimizedRMSD -1
REMARK  0 active torsions:
REMARK  status: ('A' for Active; 'I' for Inactive)
ROOT
ATOM      1  C   UNL d   1       3.376  -1.656   0.688  0.00  0.00     0.078 C 
ATOM      2  C1  UNL d   1       2.056  -1.013   0.384  0.00  0.00    -0.077 A 
ATOM      3  C2  UNL d   1       1.024  -1.738  -0.226  0.00  0.00    -0.001 A 
ATOM      4  C3  UNL d   1      -0.196  -1.124  -0.512  0.00  0.00     0.003 A 
ATOM      5  C4  UNL d   1      -0.396   0.218  -0.193  0.00  0.00    -0.005 A 
ATOM      6  C5  UNL d   1       0.626   0.948   0.411  0.00  0.00     0.003 A 
ATOM      7  C6  UNL d   1       1.847   0.335   0.698  0.00  0.00    -0.001 A 
ENDROOT
TORSDOF 0
ENDMDL
