MODEL 1
REMARK minimizedAffinity -1.63780558
REMARK minimizedRMSD -1
REMARK  0 active torsions:
REMARK  status: ('A' for Active; 'I' for Inactive)
ROOT
ATOM      1  C   UNL d   1       1.895  -0.576   2.310  0.00  0.00     0.078 C 
ATOM      2  C1  UNL d   1       0.993  -0.230   1.163  0.00  0.00    -0.077 A 
ATOM      3  C2  UNL d   1       0.285   0.978   1.141  0.00  0.00    -0.001 A 
ATOM      4  C3  UNL d   1      -0.559   1.283   0.072  0.00  0.00     0.003 A 
ATOM      5  C4  UNL d   1      -0.704   0.384  -0.982  0.00  0.00    -0.005 A 
ATOM      6  C5  UNL d   1      -0.006  -0.822  -0.968  0.00  0.00     0.003 A 
ATOM      7  C6  UNL d   1       0.838  -1.128   0.100  0.00  0.00    -0.001 A 
ENDROOT
TORSDOF 0
ENDMDL
