MODEL 1
REMARK minimizedAffinity -5.87663603
REMARK minimizedRMSD -1
REMARK  0 active torsions:
REMARK  status: ('A' for Active; 'I' for Inactive)
ROOT
ATOM      1  C   UNL d   1      -0.760   0.562  -0.185  0.00  0.00     0.078 C 
ATOM      2  C1  UNL d   1       0.670   0.350   0.215  0.00  0.00    -0.077 A 
ATOM      3  C2  UNL d   1       1.618   1.370   0.070  0.00  0.00    -0.001 A 
ATOM      4  C3  UNL d   1       2.947   1.156   0.437  0.00  0.00     0.003 A 
ATOM      5  C4  UNL d   1       3.341  -0.078   0.951  0.00  0.00    -0.005 A 
ATOM      6  C5  UNL d   1       2.405  -1.100   1.097  0.00  0.00     0.003 A 
ATOM      7  C6  UNL d   1       1.075  -0.888   0.731  0.00  0.00    -0.001 A 
ENDROOT
TORSDOF 0
ENDMDL
