MODEL 1
REMARK minimizedAffinity -5.58401012
REMARK minimizedRMSD -1
REMARK  0 active torsions:
REMARK  status: ('A' for Active; 'I' for Inactive)
ROOT
ATOM      1  C   UNL d   1      -0.991   0.531  -0.412  0.00  0.00     0.078 C 
ATOM      2  C1  UNL d   1       0.468   0.357  -0.111  0.00  0.00    -0.077 A 
ATOM      3  C2  UNL d   1       1.023  -0.918   0.056  0.00  0.00    -0.001 A 
ATOM      4  C3  UNL d   1       2.380  -1.065   0.346  0.00  0.00     0.003 A 
ATOM      5  C4  UNL d   1       3.194   0.059   0.473  0.00  0.00    -0.005 A 
ATOM      6  C5  UNL d   1       2.650   1.332   0.311  0.00  0.00     0.003 A 
ATOM      7  C6  UNL d   1       1.293   1.481   0.021  0.00  0.00    -0.001 A 
ENDROOT
TORSDOF 0
ENDMDL
