MODEL 1
REMARK minimizedAffinity -1.48328984
REMARK minimizedRMSD -1
REMARK  0 active torsions:
REMARK  status: ('A' for Active; 'I' for Inactive)
ROOT
ATOM      1  C   UNL d   1       3.450  -1.033  -0.051  0.00  0.00     0.078 C 
ATOM      2  C1  UNL d   1       2.253  -0.130  -0.046  0.00  0.00    -0.077 A 
ATOM      3  C2  UNL d   1       0.955  -0.654  -0.001  0.00  0.00    -0.001 A 
ATOM      4  C3  UNL d   1      -0.150   0.199  -0.006  0.00  0.00     0.003 A 
ATOM      5  C4  UNL d   1       0.031   1.579  -0.058  0.00  0.00    -0.005 A 
ATOM      6  C5  UNL d   1       1.319   2.109  -0.105  0.00  0.00     0.003 A 
ATOM      7  C6  UNL d   1       2.425   1.259  -0.100  0.00  0.00    -0.001 A 
ENDROOT
TORSDOF 0
ENDMDL
