MODEL 1
REMARK minimizedAffinity -3.33637929
REMARK minimizedRMSD -1
REMARK  0 active torsions:
REMARK  status: ('A' for Active; 'I' for Inactive)
ROOT
ATOM      1  C   UNL d   1       0.071  -1.793  -0.892  0.00  0.00     0.078 C 
ATOM      2  C1  UNL d   1       1.047  -0.995  -0.081  0.00  0.00    -0.077 A 
ATOM      3  C2  UNL d   1       0.860   0.377   0.126  0.00  0.00    -0.001 A 
ATOM      4  C3  UNL d   1       1.782   1.110   0.876  0.00  0.00     0.003 A 
ATOM      5  C4  UNL d   1       2.898   0.479   1.423  0.00  0.00    -0.005 A 
ATOM      6  C5  UNL d   1       3.093  -0.885   1.220  0.00  0.00     0.003 A 
ATOM      7  C6  UNL d   1       2.172  -1.619   0.471  0.00  0.00    -0.001 A 
ENDROOT
TORSDOF 0
ENDMDL
