MODEL 1
REMARK minimizedAffinity -5.04966068
REMARK minimizedRMSD -1
REMARK  0 active torsions:
REMARK  status: ('A' for Active; 'I' for Inactive)
ROOT
ATOM      1  C   UNL d   1      -0.371  -1.259  -0.328  0.00  0.00     0.078 C 
ATOM      2  C1  UNL d   1       1.023  -0.799  -0.023  0.00  0.00    -0.077 A 
ATOM      3  C2  UNL d   1       2.118  -1.657  -0.186  0.00  0.00    -0.001 A 
ATOM      4  C3  UNL d   1       3.409  -1.218   0.112  0.00  0.00     0.003 A 
ATOM      5  C4  UNL d   1       3.618   0.080   0.574  0.00  0.00    -0.005 A 
ATOM      6  C5  UNL d   1       2.534   0.940   0.741  0.00  0.00     0.003 A 
ATOM      7  C6  UNL d   1       1.243   0.503   0.444  0.00  0.00    -0.001 A 
ENDROOT
TORSDOF 0
ENDMDL
