MODEL 1
REMARK minimizedAffinity 6.92951012
REMARK minimizedRMSD -1
REMARK  0 active torsions:
REMARK  status: ('A' for Active; 'I' for Inactive)
ROOT
ATOM      1  C   UNL d   1       0.658   3.679   0.653  0.00  0.00     0.020 A 
ATOM      2  C1  UNL d   1      -0.371   2.738   0.686  0.00  0.00     0.020 A 
ATOM      3  C2  UNL d   1      -0.292   1.649   1.557  0.00  0.00     0.034 A 
ATOM      4  C3  UNL d   1       0.817   1.498   2.397  0.00  0.00     0.017 A 
ATOM      5  C4  UNL d   1       1.849   2.443   2.362  0.00  0.00     0.017 A 
ATOM      6  C5  UNL d   1       1.765   3.531   1.489  0.00  0.00     0.034 A 
ATOM      7 Cl   UNL d   1       3.249   2.324   3.368  0.00  0.00    -0.070 Cl
ATOM      8 Cl1  UNL d   1       0.848   0.127   3.448  0.00  0.00    -0.070 Cl
ENDROOT
TORSDOF 0
ENDMDL
