MODEL 1
REMARK minimizedAffinity 7.45047235
REMARK minimizedRMSD -1
REMARK  0 active torsions:
REMARK  status: ('A' for Active; 'I' for Inactive)
ROOT
ATOM      1  C   UNL d   1       4.485  -4.424  -3.521  0.00  0.00     0.020 A 
ATOM      2  C1  UNL d   1       5.488  -4.097  -2.609  0.00  0.00     0.020 A 
ATOM      3  C2  UNL d   1       5.306  -4.356  -1.249  0.00  0.00     0.034 A 
ATOM      4  C3  UNL d   1       4.118  -4.944  -0.797  0.00  0.00     0.017 A 
ATOM      5  C4  UNL d   1       3.113  -5.272  -1.714  0.00  0.00     0.017 A 
ATOM      6  C5  UNL d   1       3.301  -5.010  -3.074  0.00  0.00     0.034 A 
ATOM      7 Cl   UNL d   1       1.621  -6.000  -1.232  0.00  0.00    -0.070 Cl
ATOM      8 Cl1  UNL d   1       3.961  -5.236   0.899  0.00  0.00    -0.070 Cl
ENDROOT
TORSDOF 0
ENDMDL
