MODEL 1
REMARK minimizedAffinity 6.82768393
REMARK minimizedRMSD -1
REMARK  0 active torsions:
REMARK  status: ('A' for Active; 'I' for Inactive)
ROOT
ATOM      1  C   UNL d   1       0.370   1.061   0.436  0.00  0.00     0.020 A 
ATOM      2  C1  UNL d   1      -0.814   1.547  -0.117  0.00  0.00     0.020 A 
ATOM      3  C2  UNL d   1      -0.945   2.909  -0.401  0.00  0.00     0.034 A 
ATOM      4  C3  UNL d   1       0.109   3.788  -0.131  0.00  0.00     0.017 A 
ATOM      5  C4  UNL d   1       1.298   3.300   0.424  0.00  0.00     0.017 A 
ATOM      6  C5  UNL d   1       1.424   1.936   0.705  0.00  0.00     0.034 A 
ATOM      7 Cl   UNL d   1       2.642   4.324   0.784  0.00  0.00    -0.070 Cl
ATOM      8 Cl1  UNL d   1      -0.122   5.459  -0.507  0.00  0.00    -0.070 Cl
ENDROOT
TORSDOF 0
ENDMDL
