MODEL 1
REMARK minimizedAffinity 1.67271554
REMARK minimizedRMSD -1
REMARK  0 active torsions:
REMARK  status: ('A' for Active; 'I' for Inactive)
ROOT
ATOM      1  C   UNL d   1       0.723   3.428   0.371  0.00  0.00     0.020 A 
ATOM      2  C1  UNL d   1       0.580   2.322  -0.466  0.00  0.00     0.020 A 
ATOM      3  C2  UNL d   1      -0.693   1.828  -0.758  0.00  0.00     0.034 A 
ATOM      4  C3  UNL d   1      -1.828   2.439  -0.212  0.00  0.00     0.017 A 
ATOM      5  C4  UNL d   1      -1.683   3.550   0.628  0.00  0.00     0.017 A 
ATOM      6  C5  UNL d   1      -0.406   4.041   0.916  0.00  0.00     0.034 A 
ATOM      7 Cl   UNL d   1      -3.036   4.357   1.338  0.00  0.00    -0.070 Cl
ATOM      8 Cl1  UNL d   1      -3.371   1.775  -0.616  0.00  0.00    -0.070 Cl
ENDROOT
TORSDOF 0
ENDMDL
