MODEL 1
REMARK minimizedAffinity 2.11830544
REMARK minimizedRMSD -1
REMARK  0 active torsions:
REMARK  status: ('A' for Active; 'I' for Inactive)
ROOT
ATOM      1  C   UNL d   1       3.992  -4.819   5.985  0.00  0.00     0.020 A 
ATOM      2  C1  UNL d   1       5.376  -4.655   5.947  0.00  0.00     0.020 A 
ATOM      3  C2  UNL d   1       5.927  -3.372   5.924  0.00  0.00     0.034 A 
ATOM      4  C3  UNL d   1       5.093  -2.247   5.939  0.00  0.00     0.017 A 
ATOM      5  C4  UNL d   1       3.704  -2.413   5.977  0.00  0.00     0.017 A 
ATOM      6  C5  UNL d   1       3.158  -3.700   6.000  0.00  0.00     0.034 A 
ATOM      7 Cl   UNL d   1       2.611  -1.074   5.998  0.00  0.00    -0.070 Cl
ATOM      8 Cl1  UNL d   1       5.843  -0.691   5.909  0.00  0.00    -0.070 Cl
ENDROOT
TORSDOF 0
ENDMDL
