MODEL 1
REMARK minimizedAffinity 10.1870661
REMARK minimizedRMSD -1
REMARK  0 active torsions:
REMARK  status: ('A' for Active; 'I' for Inactive)
ROOT
ATOM      1  C   UNL d   1      -0.314   5.625  -1.336  0.00  0.00     0.020 A 
ATOM      2  C1  UNL d   1       1.013   5.199  -1.315  0.00  0.00     0.020 A 
ATOM      3  C2  UNL d   1       1.351   3.998  -0.688  0.00  0.00     0.034 A 
ATOM      4  C3  UNL d   1       0.361   3.219  -0.078  0.00  0.00     0.017 A 
ATOM      5  C4  UNL d   1      -0.971   3.648  -0.099  0.00  0.00     0.017 A 
ATOM      6  C5  UNL d   1      -1.304   4.851  -0.729  0.00  0.00     0.034 A 
ATOM      7 Cl   UNL d   1      -2.248   2.741   0.632  0.00  0.00    -0.070 Cl
ATOM      8 Cl1  UNL d   1       0.851   1.745   0.679  0.00  0.00    -0.070 Cl
ENDROOT
TORSDOF 0
ENDMDL
