MODEL 1
REMARK minimizedAffinity 10.4410753
REMARK minimizedRMSD -1
REMARK  0 active torsions:
REMARK  status: ('A' for Active; 'I' for Inactive)
ROOT
ATOM      1  C   UNL d   1      -4.080   5.263  -5.244  0.00  0.00     0.020 A 
ATOM      2  C1  UNL d   1      -5.432   4.980  -5.428  0.00  0.00     0.020 A 
ATOM      3  C2  UNL d   1      -5.999   3.854  -4.825  0.00  0.00     0.034 A 
ATOM      4  C3  UNL d   1      -5.212   3.008  -4.035  0.00  0.00     0.017 A 
ATOM      5  C4  UNL d   1      -3.854   3.294  -3.851  0.00  0.00     0.017 A 
ATOM      6  C5  UNL d   1      -3.292   4.422  -4.457  0.00  0.00     0.034 A 
ATOM      7 Cl   UNL d   1      -2.820   2.296  -2.890  0.00  0.00    -0.070 Cl
ATOM      8 Cl1  UNL d   1      -5.978   1.635  -3.320  0.00  0.00    -0.070 Cl
ENDROOT
TORSDOF 0
ENDMDL
