MODEL 1
REMARK minimizedAffinity 14.6093407
REMARK minimizedRMSD -1
REMARK  0 active torsions:
REMARK  status: ('A' for Active; 'I' for Inactive)
ROOT
ATOM      1  C   UNL d   1       5.169  -4.542   6.000  0.00  0.00     0.020 A 
ATOM      2  C1  UNL d   1       3.818  -4.885   6.000  0.00  0.00     0.020 A 
ATOM      3  C2  UNL d   1       2.844  -3.885   5.964  0.00  0.00     0.034 A 
ATOM      4  C3  UNL d   1       3.219  -2.537   5.930  0.00  0.00     0.017 A 
ATOM      5  C4  UNL d   1       4.576  -2.194   5.930  0.00  0.00     0.017 A 
ATOM      6  C5  UNL d   1       5.547  -3.199   5.965  0.00  0.00     0.034 A 
ATOM      7 Cl   UNL d   1       5.117  -0.553   5.888  0.00  0.00    -0.070 Cl
ATOM      8 Cl1  UNL d   1       1.962  -1.353   5.887  0.00  0.00    -0.070 Cl
ENDROOT
TORSDOF 0
ENDMDL
