MODEL 1
REMARK minimizedAffinity 0.85872972
REMARK minimizedRMSD -1
REMARK  0 active torsions:
REMARK  status: ('A' for Active; 'I' for Inactive)
ROOT
ATOM      1  C   UNL d   1       1.873  -1.641   0.804  0.00  0.00     0.020 A 
ATOM      2  C1  UNL d   1       2.646  -0.667   0.174  0.00  0.00     0.020 A 
ATOM      3  C2  UNL d   1       3.870  -1.012  -0.404  0.00  0.00     0.034 A 
ATOM      4  C3  UNL d   1       4.323  -2.335  -0.354  0.00  0.00     0.017 A 
ATOM      5  C4  UNL d   1       3.546  -3.313   0.278  0.00  0.00     0.017 A 
ATOM      6  C5  UNL d   1       2.322  -2.961   0.856  0.00  0.00     0.034 A 
ATOM      7 Cl   UNL d   1       4.040  -4.966   0.380  0.00  0.00    -0.070 Cl
ATOM      8 Cl1  UNL d   1       5.845  -2.691  -1.090  0.00  0.00    -0.070 Cl
ENDROOT
TORSDOF 0
ENDMDL
