MODEL 1
REMARK minimizedAffinity 5.38318491
REMARK minimizedRMSD -1
REMARK  0 active torsions:
REMARK  status: ('A' for Active; 'I' for Inactive)
ROOT
ATOM      1  C   UNL d   1      -0.734  -5.360  -4.028  0.00  0.00     0.020 A 
ATOM      2  C1  UNL d   1      -1.203  -4.132  -3.563  0.00  0.00     0.020 A 
ATOM      3  C2  UNL d   1      -0.509  -3.453  -2.560  0.00  0.00     0.034 A 
ATOM      4  C3  UNL d   1       0.659  -4.002  -2.017  0.00  0.00     0.017 A 
ATOM      5  C4  UNL d   1       1.129  -5.235  -2.484  0.00  0.00     0.017 A 
ATOM      6  C5  UNL d   1       0.430  -5.910  -3.490  0.00  0.00     0.034 A 
ATOM      7 Cl   UNL d   1       2.563  -5.975  -1.864  0.00  0.00    -0.070 Cl
ATOM      8 Cl1  UNL d   1       1.467  -3.108  -0.779  0.00  0.00    -0.070 Cl
ENDROOT
TORSDOF 0
ENDMDL
