MODEL 1
REMARK minimizedAffinity 5.80255747
REMARK minimizedRMSD -1
REMARK  0 active torsions:
REMARK  status: ('A' for Active; 'I' for Inactive)
ROOT
ATOM      1  C   UNL d   1      -4.153   1.533  -3.002  0.00  0.00     0.020 A 
ATOM      2  C1  UNL d   1      -5.450   1.479  -3.512  0.00  0.00     0.020 A 
ATOM      3  C2  UNL d   1      -5.999   2.597  -4.143  0.00  0.00     0.034 A 
ATOM      4  C3  UNL d   1      -5.252   3.774  -4.265  0.00  0.00     0.017 A 
ATOM      5  C4  UNL d   1      -3.951   3.828  -3.752  0.00  0.00     0.017 A 
ATOM      6  C5  UNL d   1      -3.406   2.705  -3.122  0.00  0.00     0.034 A 
ATOM      7 Cl   UNL d   1      -2.968   5.245  -3.865  0.00  0.00    -0.070 Cl
ATOM      8 Cl1  UNL d   1      -5.994   5.119  -5.057  0.00  0.00    -0.070 Cl
ENDROOT
TORSDOF 0
ENDMDL
