MODEL 1
REMARK minimizedAffinity -3.73246479
REMARK minimizedRMSD -1
REMARK  0 active torsions:
REMARK  status: ('A' for Active; 'I' for Inactive)
ROOT
ATOM      1  C   UNL d   1      -0.268  -1.406  -0.303  0.00  0.00     0.078 C 
ATOM      2  C1  UNL d   1      -0.153  -0.002   0.210  0.00  0.00    -0.077 A 
ATOM      3  C2  UNL d   1      -1.278   0.690   0.674  0.00  0.00    -0.001 A 
ATOM      4  C3  UNL d   1      -1.158   2.000   1.140  0.00  0.00     0.003 A 
ATOM      5  C4  UNL d   1       0.085   2.630   1.146  0.00  0.00    -0.005 A 
ATOM      6  C5  UNL d   1       1.210   1.950   0.684  0.00  0.00     0.003 A 
ATOM      7  C6  UNL d   1       1.092   0.640   0.217  0.00  0.00    -0.001 A 
ENDROOT
TORSDOF 0
ENDMDL
