MODEL 1
REMARK minimizedAffinity -3.83975744
REMARK minimizedRMSD -1
REMARK  0 active torsions:
REMARK  status: ('A' for Active; 'I' for Inactive)
ROOT
ATOM      1  C   UNL d   1       2.585   2.409   1.424  0.00  0.00     0.078 C 
ATOM      2  C1  UNL d   1       1.332   1.880   0.793  0.00  0.00    -0.077 A 
ATOM      3  C2  UNL d   1       1.271   0.573   0.295  0.00  0.00    -0.001 A 
ATOM      4  C3  UNL d   1       0.100   0.098  -0.298  0.00  0.00     0.003 A 
ATOM      5  C4  UNL d   1      -1.017   0.923  -0.401  0.00  0.00    -0.005 A 
ATOM      6  C5  UNL d   1      -0.965   2.227   0.089  0.00  0.00     0.003 A 
ATOM      7  C6  UNL d   1       0.204   2.704   0.683  0.00  0.00    -0.001 A 
ENDROOT
TORSDOF 0
ENDMDL
