MODEL 1
REMARK minimizedAffinity -3.41321802
REMARK minimizedRMSD -1
REMARK  0 active torsions:
REMARK  status: ('A' for Active; 'I' for Inactive)
ROOT
ATOM      1  C   UNL d   1       0.004  -1.435  -0.369  0.00  0.00     0.078 C 
ATOM      2  C1  UNL d   1       0.095  -0.007   0.079  0.00  0.00    -0.077 A 
ATOM      3  C2  UNL d   1      -1.042   0.808   0.126  0.00  0.00    -0.001 A 
ATOM      4  C3  UNL d   1      -0.941   2.139   0.535  0.00  0.00     0.003 A 
ATOM      5  C4  UNL d   1       0.297   2.667   0.899  0.00  0.00    -0.005 A 
ATOM      6  C5  UNL d   1       1.435   1.864   0.853  0.00  0.00     0.003 A 
ATOM      7  C6  UNL d   1       1.335   0.533   0.444  0.00  0.00    -0.001 A 
ENDROOT
TORSDOF 0
ENDMDL
