MODEL 1
REMARK minimizedAffinity -2.2900455
REMARK minimizedRMSD -1
REMARK  0 active torsions:
REMARK  status: ('A' for Active; 'I' for Inactive)
ROOT
ATOM      1  C   UNL d   1      -1.004  -2.738  -2.451  0.00  0.00     0.078 C 
ATOM      2  C1  UNL d   1      -0.715  -1.657  -1.453  0.00  0.00    -0.077 A 
ATOM      3  C2  UNL d   1      -1.210  -0.359  -1.633  0.00  0.00    -0.001 A 
ATOM      4  C3  UNL d   1      -0.926   0.640  -0.701  0.00  0.00     0.003 A 
ATOM      5  C4  UNL d   1      -0.144   0.353   0.416  0.00  0.00    -0.005 A 
ATOM      6  C5  UNL d   1       0.354  -0.935   0.602  0.00  0.00     0.003 A 
ATOM      7  C6  UNL d   1       0.071  -1.935  -0.329  0.00  0.00    -0.001 A 
ENDROOT
TORSDOF 0
ENDMDL
