MODEL 1
REMARK minimizedAffinity -4.57637072
REMARK minimizedRMSD -1
REMARK  0 active torsions:
REMARK  status: ('A' for Active; 'I' for Inactive)
ROOT
ATOM      1  C   UNL d   1      -0.365  -1.873  -2.293  0.00  0.00     0.078 C 
ATOM      2  C1  UNL d   1      -0.471  -0.721  -1.339  0.00  0.00    -0.077 A 
ATOM      3  C2  UNL d   1      -1.304   0.371  -1.616  0.00  0.00    -0.001 A 
ATOM      4  C3  UNL d   1      -1.385   1.441  -0.724  0.00  0.00     0.003 A 
ATOM      5  C4  UNL d   1      -0.635   1.431   0.450  0.00  0.00    -0.005 A 
ATOM      6  C5  UNL d   1       0.198   0.351   0.733  0.00  0.00     0.003 A 
ATOM      7  C6  UNL d   1       0.280  -0.720  -0.158  0.00  0.00    -0.001 A 
ENDROOT
TORSDOF 0
ENDMDL
