MODEL 1
REMARK minimizedAffinity -3.64763093
REMARK minimizedRMSD -1
REMARK  0 active torsions:
REMARK  status: ('A' for Active; 'I' for Inactive)
ROOT
ATOM      1  C   UNL d   1      -1.000   0.537  -0.174  0.00  0.00     0.078 C 
ATOM      2  C1  UNL d   1      -0.662  -0.908  -0.395  0.00  0.00    -0.077 A 
ATOM      3  C2  UNL d   1      -1.452  -1.714  -1.223  0.00  0.00    -0.001 A 
ATOM      4  C3  UNL d   1      -1.132  -3.060  -1.412  0.00  0.00     0.003 A 
ATOM      5  C4  UNL d   1      -0.021  -3.610  -0.775  0.00  0.00    -0.005 A 
ATOM      6  C5  UNL d   1       0.769  -2.816   0.053  0.00  0.00     0.003 A 
ATOM      7  C6  UNL d   1       0.450  -1.470   0.243  0.00  0.00    -0.001 A 
ENDROOT
TORSDOF 0
ENDMDL
