MODEL 1
REMARK minimizedAffinity -3.08095193
REMARK minimizedRMSD -1
REMARK  0 active torsions:
REMARK  status: ('A' for Active; 'I' for Inactive)
ROOT
ATOM      1  C   UNL d   1      -0.348  -1.530  -0.465  0.00  0.00     0.078 C 
ATOM      2  C1  UNL d   1      -0.421  -0.081  -0.088  0.00  0.00    -0.077 A 
ATOM      3  C2  UNL d   1       0.699   0.590   0.419  0.00  0.00    -0.001 A 
ATOM      4  C3  UNL d   1       0.614   1.937   0.775  0.00  0.00     0.003 A 
ATOM      5  C4  UNL d   1      -0.589   2.624   0.630  0.00  0.00    -0.005 A 
ATOM      6  C5  UNL d   1      -1.710   1.965   0.128  0.00  0.00     0.003 A 
ATOM      7  C6  UNL d   1      -1.626   0.618  -0.229  0.00  0.00    -0.001 A 
ENDROOT
TORSDOF 0
ENDMDL
