MODEL 1
REMARK minimizedAffinity -2.36138034
REMARK minimizedRMSD -1
REMARK  0 active torsions:
REMARK  status: ('A' for Active; 'I' for Inactive)
ROOT
ATOM      1  C   UNL d   1      -0.970   2.306   0.739  0.00  0.00     0.078 C 
ATOM      2  C1  UNL d   1      -0.786   0.897   0.261  0.00  0.00    -0.077 A 
ATOM      3  C2  UNL d   1      -0.189  -0.070   1.080  0.00  0.00    -0.001 A 
ATOM      4  C3  UNL d   1      -0.015  -1.376   0.618  0.00  0.00     0.003 A 
ATOM      5  C4  UNL d   1      -0.435  -1.727  -0.663  0.00  0.00    -0.005 A 
ATOM      6  C5  UNL d   1      -1.028  -0.771  -1.485  0.00  0.00     0.003 A 
ATOM      7  C6  UNL d   1      -1.203   0.535  -1.026  0.00  0.00    -0.001 A 
ENDROOT
TORSDOF 0
ENDMDL
