MODEL 1
REMARK minimizedAffinity -3.35626316
REMARK minimizedRMSD -1
REMARK  0 active torsions:
REMARK  status: ('A' for Active; 'I' for Inactive)
ROOT
ATOM      1  C   UNL d   1      -0.213  -2.941  -1.633  0.00  0.00     0.078 C 
ATOM      2  C1  UNL d   1      -0.391  -1.739  -0.753  0.00  0.00    -0.077 A 
ATOM      3  C2  UNL d   1      -0.254  -1.836   0.637  0.00  0.00    -0.001 A 
ATOM      4  C3  UNL d   1      -0.432  -0.711   1.444  0.00  0.00     0.003 A 
ATOM      5  C4  UNL d   1      -0.748   0.518   0.870  0.00  0.00    -0.005 A 
ATOM      6  C5  UNL d   1      -0.889   0.624  -0.512  0.00  0.00     0.003 A 
ATOM      7  C6  UNL d   1      -0.712  -0.500  -1.321  0.00  0.00    -0.001 A 
ENDROOT
TORSDOF 0
ENDMDL
