MODEL 1
REMARK minimizedAffinity -3.21419024
REMARK minimizedRMSD -1
REMARK  0 active torsions:
REMARK  status: ('A' for Active; 'I' for Inactive)
ROOT
ATOM      1  C   UNL d   1      -1.298  -3.130  -1.740  0.00  0.00     0.078 C 
ATOM      2  C1  UNL d   1      -1.091  -1.789  -1.102  0.00  0.00    -0.077 A 
ATOM      3  C2  UNL d   1      -0.026  -1.566  -0.221  0.00  0.00    -0.001 A 
ATOM      4  C3  UNL d   1       0.150  -0.316   0.373  0.00  0.00     0.003 A 
ATOM      5  C4  UNL d   1      -0.737   0.722   0.093  0.00  0.00    -0.005 A 
ATOM      6  C5  UNL d   1      -1.801   0.510  -0.781  0.00  0.00     0.003 A 
ATOM      7  C6  UNL d   1      -1.978  -0.740  -1.376  0.00  0.00    -0.001 A 
ENDROOT
TORSDOF 0
ENDMDL
