MODEL 1
REMARK minimizedAffinity -1.02378929
REMARK minimizedRMSD -1
REMARK  0 active torsions:
REMARK  status: ('A' for Active; 'I' for Inactive)
ROOT
ATOM      1  C   UNL d   1      -1.271   2.356   0.963  0.00  0.00     0.078 C 
ATOM      2  C1  UNL d   1      -0.891   1.034   0.366  0.00  0.00    -0.077 A 
ATOM      3  C2  UNL d   1      -0.219   0.067   1.124  0.00  0.00    -0.001 A 
ATOM      4  C3  UNL d   1       0.137  -1.156   0.552  0.00  0.00     0.003 A 
ATOM      5  C4  UNL d   1      -0.174  -1.422  -0.780  0.00  0.00    -0.005 A 
ATOM      6  C5  UNL d   1      -0.840  -0.465  -1.542  0.00  0.00     0.003 A 
ATOM      7  C6  UNL d   1      -1.197   0.758  -0.972  0.00  0.00    -0.001 A 
ENDROOT
TORSDOF 0
ENDMDL
