MODEL 1
REMARK minimizedAffinity -3.60283065
REMARK minimizedRMSD -1
REMARK  0 active torsions:
REMARK  status: ('A' for Active; 'I' for Inactive)
ROOT
ATOM      1  C   UNL d   1      -0.365  -0.137   0.302  0.00  0.00     0.078 C 
ATOM      2  C1  UNL d   1      -0.462  -1.306  -0.632  0.00  0.00    -0.077 A 
ATOM      3  C2  UNL d   1      -0.026  -2.579  -0.242  0.00  0.00    -0.001 A 
ATOM      4  C3  UNL d   1      -0.114  -3.656  -1.125  0.00  0.00     0.003 A 
ATOM      5  C4  UNL d   1      -0.636  -3.471  -2.404  0.00  0.00    -0.005 A 
ATOM      6  C5  UNL d   1      -1.070  -2.208  -2.801  0.00  0.00     0.003 A 
ATOM      7  C6  UNL d   1      -0.983  -1.130  -1.920  0.00  0.00    -0.001 A 
ENDROOT
TORSDOF 0
ENDMDL
