MODEL 1
REMARK minimizedAffinity -1.42596138
REMARK minimizedRMSD -1
REMARK  0 active torsions:
REMARK  status: ('A' for Active; 'I' for Inactive)
ROOT
ATOM      1  C   UNL d   1      -0.456  -3.090  -1.160  0.00  0.00     0.078 C 
ATOM      2  C1  UNL d   1      -0.489  -1.709  -0.576  0.00  0.00    -0.077 A 
ATOM      3  C2  UNL d   1      -1.402  -0.753  -1.037  0.00  0.00    -0.001 A 
ATOM      4  C3  UNL d   1      -1.415   0.531  -0.491  0.00  0.00     0.003 A 
ATOM      5  C4  UNL d   1      -0.516   0.872   0.518  0.00  0.00    -0.005 A 
ATOM      6  C5  UNL d   1       0.399  -0.072   0.980  0.00  0.00     0.003 A 
ATOM      7  C6  UNL d   1       0.413  -1.357   0.436  0.00  0.00    -0.001 A 
ENDROOT
TORSDOF 0
ENDMDL
