MODEL 1
REMARK minimizedAffinity -2.7615962
REMARK minimizedRMSD -1
REMARK  0 active torsions:
REMARK  status: ('A' for Active; 'I' for Inactive)
ROOT
ATOM      1  C   UNL d   1      -0.085  -2.548  -1.341  0.00  0.00     0.078 C 
ATOM      2  C1  UNL d   1      -0.388  -1.213  -0.730  0.00  0.00    -0.077 A 
ATOM      3  C2  UNL d   1       0.585  -0.207  -0.675  0.00  0.00    -0.001 A 
ATOM      4  C3  UNL d   1       0.291   1.028  -0.095  0.00  0.00     0.003 A 
ATOM      5  C4  UNL d   1      -0.975   1.269   0.436  0.00  0.00    -0.005 A 
ATOM      6  C5  UNL d   1      -1.949   0.273   0.387  0.00  0.00     0.003 A 
ATOM      7  C6  UNL d   1      -1.657  -0.962  -0.193  0.00  0.00    -0.001 A 
ENDROOT
TORSDOF 0
ENDMDL
