MODEL 1
REMARK minimizedAffinity 8.38074493
REMARK minimizedRMSD -1
REMARK  3 active torsions:
REMARK  status: ('A' for Active; 'I' for Inactive)
REMARK    1  A    between atoms: C3'_2  and  C2'_3 
REMARK    2  A    between atoms: C2'_3  and  C1'_4 
REMARK    3  A    between atoms: C1'_4  and  C1_5 
ROOT
ATOM      1  C1  N4B d   1       3.322  -5.763  -4.551  0.00  0.00    -0.075 A 
ATOM      2  C2  N4B d   1       4.229  -5.719  -3.470  0.00  0.00     0.002 A 
ATOM      3  C3  N4B d   1       3.773  -5.467  -2.200  0.00  0.00     0.002 A 
ATOM      4  C4  N4B d   1       2.421  -5.239  -1.990  0.00  0.00    -0.004 A 
ATOM      5  C5  N4B d   1       1.547  -5.308  -3.035  0.00  0.00     0.002 A 
ATOM      6  C6  N4B d   1       1.992  -5.564  -4.317  0.00  0.00     0.002 A 
ENDROOT
BRANCH   1   7
ATOM      7  C1' N4B d   1       3.785  -5.950  -5.970  0.00  0.00     0.057 C 
BRANCH   7   8
ATOM      8  C2' N4B d   1       5.310  -5.999  -5.997  0.00  0.00     0.009 C 
BRANCH   8   9
ATOM      9  C3' N4B d   1       5.923  -4.609  -5.997  0.00  0.00     0.004 C 
ATOM     10  C4' N4B d   1       5.189  -3.650  -5.109  0.00  0.00     0.003 C 
ENDBRANCH   8   9
ENDBRANCH   7   8
ENDBRANCH   1   7
TORSDOF 3
ENDMDL
