MODEL 1
REMARK minimizedAffinity 2.07307434
REMARK minimizedRMSD -1
REMARK  3 active torsions:
REMARK  status: ('A' for Active; 'I' for Inactive)
REMARK    1  A    between atoms: C3'_2  and  C2'_3 
REMARK    2  A    between atoms: C2'_3  and  C1'_4 
REMARK    3  A    between atoms: C1'_4  and  C1_5 
ROOT
ATOM      1  C1  N4B d   1       3.032   4.178   1.130  0.00  0.00    -0.075 A 
ATOM      2  C2  N4B d   1       3.717   2.944   1.114  0.00  0.00     0.002 A 
ATOM      3  C3  N4B d   1       3.018   1.773   0.951  0.00  0.00     0.002 A 
ATOM      4  C4  N4B d   1       1.638   1.810   0.821  0.00  0.00    -0.004 A 
ATOM      5  C5  N4B d   1       0.986   3.009   0.812  0.00  0.00     0.002 A 
ATOM      6  C6  N4B d   1       1.676   4.194   0.971  0.00  0.00     0.002 A 
ENDROOT
BRANCH   1   7
ATOM      7  C1' N4B d   1       3.743   5.478   1.391  0.00  0.00     0.057 C 
BRANCH   7   8
ATOM      8  C2' N4B d   1       5.246   5.224   1.447  0.00  0.00     0.009 C 
BRANCH   8   9
ATOM      9  C3' N4B d   1       5.889   5.885   2.654  0.00  0.00     0.004 C 
ATOM     10  C4' N4B d   1       4.958   5.987   3.825  0.00  0.00     0.003 C 
ENDBRANCH   8   9
ENDBRANCH   7   8
ENDBRANCH   1   7
TORSDOF 3
ENDMDL
