MODEL 1
REMARK minimizedAffinity 1.42396295
REMARK minimizedRMSD -1
REMARK  3 active torsions:
REMARK  status: ('A' for Active; 'I' for Inactive)
REMARK    1  A    between atoms: C3'_2  and  C2'_3 
REMARK    2  A    between atoms: C2'_3  and  C1'_4 
REMARK    3  A    between atoms: C1'_4  and  C1_5 
ROOT
ATOM      1  C1  N4B d   1       5.205   4.465   2.611  0.00  0.00    -0.075 A 
ATOM      2  C2  N4B d   1       5.616   3.148   2.309  0.00  0.00     0.002 A 
ATOM      3  C3  N4B d   1       4.870   2.375   1.453  0.00  0.00     0.002 A 
ATOM      4  C4  N4B d   1       3.704   2.889   0.905  0.00  0.00    -0.004 A 
ATOM      5  C5  N4B d   1       3.327   4.170   1.182  0.00  0.00     0.002 A 
ATOM      6  C6  N4B d   1       4.070   4.960   2.037  0.00  0.00     0.002 A 
ENDROOT
BRANCH   1   7
ATOM      7  C1' N4B d   1       5.942   5.318   3.607  0.00  0.00     0.057 C 
BRANCH   7   8
ATOM      8  C2' N4B d   1       4.933   5.995   4.529  0.00  0.00     0.009 C 
BRANCH   8   9
ATOM      9  C3' N4B d   1       4.785   5.258   5.850  0.00  0.00     0.004 C 
ATOM     10  C4' N4B d   1       5.716   4.088   5.969  0.00  0.00     0.003 C 
ENDBRANCH   8   9
ENDBRANCH   7   8
ENDBRANCH   1   7
TORSDOF 3
ENDMDL
