MODEL 1
REMARK minimizedAffinity -0.901221275
REMARK minimizedRMSD -1
REMARK  3 active torsions:
REMARK  status: ('A' for Active; 'I' for Inactive)
REMARK    1  A    between atoms: C3'_2  and  C2'_3 
REMARK    2  A    between atoms: C2'_3  and  C1'_4 
REMARK    3  A    between atoms: C1'_4  and  C1_5 
ROOT
ATOM      1  C1  N4B d   1       1.867   2.222   1.039  0.00  0.00    -0.075 A 
ATOM      2  C2  N4B d   1       2.449   3.424   1.500  0.00  0.00     0.002 A 
ATOM      3  C3  N4B d   1       3.816   3.541   1.573  0.00  0.00     0.002 A 
ATOM      4  C4  N4B d   1       4.616   2.468   1.211  0.00  0.00    -0.004 A 
ATOM      5  C5  N4B d   1       4.047   1.320   0.742  0.00  0.00     0.002 A 
ATOM      6  C6  N4B d   1       2.675   1.190   0.660  0.00  0.00     0.002 A 
ENDROOT
BRANCH   1   7
ATOM      7  C1' N4B d   1       0.377   2.017   1.023  0.00  0.00     0.057 C 
BRANCH   7   8
ATOM      8  C2' N4B d   1      -0.311   3.310   1.449  0.00  0.00     0.009 C 
BRANCH   8   9
ATOM      9  C3' N4B d   1      -0.613   3.329   2.938  0.00  0.00     0.004 C 
ATOM     10  C4' N4B d   1       0.625   3.254   3.782  0.00  0.00     0.003 C 
ENDBRANCH   8   9
ENDBRANCH   7   8
ENDBRANCH   1   7
TORSDOF 3
ENDMDL
