MODEL 1
REMARK minimizedAffinity 4.14478159
REMARK minimizedRMSD -1
REMARK  3 active torsions:
REMARK  status: ('A' for Active; 'I' for Inactive)
REMARK    1  A    between atoms: C3'_2  and  C2'_3 
REMARK    2  A    between atoms: C2'_3  and  C1'_4 
REMARK    3  A    between atoms: C1'_4  and  C1_5 
ROOT
ATOM      1  C1  N4B d   1       3.469   3.570   1.143  0.00  0.00    -0.075 A 
ATOM      2  C2  N4B d   1       4.510   2.680   0.799  0.00  0.00     0.002 A 
ATOM      3  C3  N4B d   1       4.217   1.392   0.426  0.00  0.00     0.002 A 
ATOM      4  C4  N4B d   1       2.897   0.966   0.408  0.00  0.00    -0.004 A 
ATOM      5  C5  N4B d   1       1.895   1.839   0.717  0.00  0.00     0.002 A 
ATOM      6  C6  N4B d   1       2.175   3.139   1.090  0.00  0.00     0.002 A 
ENDROOT
BRANCH   1   7
ATOM      7  C1' N4B d   1       3.746   4.963   1.639  0.00  0.00     0.057 C 
BRANCH   7   8
ATOM      8  C2' N4B d   1       3.592   5.946   0.483  0.00  0.00     0.009 C 
BRANCH   8   9
ATOM      9  C3' N4B d   1       4.826   5.981  -0.403  0.00  0.00     0.004 C 
ATOM     10  C4' N4B d   1       4.492   5.997  -1.864  0.00  0.00     0.003 C 
ENDBRANCH   8   9
ENDBRANCH   7   8
ENDBRANCH   1   7
TORSDOF 3
ENDMDL
