MODEL 1
REMARK minimizedAffinity 7.70964289
REMARK minimizedRMSD -1
REMARK  3 active torsions:
REMARK  status: ('A' for Active; 'I' for Inactive)
REMARK    1  A    between atoms: C3'_2  and  C2'_3 
REMARK    2  A    between atoms: C2'_3  and  C1'_4 
REMARK    3  A    between atoms: C1'_4  and  C1_5 
ROOT
ATOM      1  C1  N4B d   1       4.309   2.361  -0.684  0.00  0.00    -0.075 A 
ATOM      2  C2  N4B d   1       4.335   3.556   0.067  0.00  0.00     0.002 A 
ATOM      3  C3  N4B d   1       3.855   3.568   1.354  0.00  0.00     0.002 A 
ATOM      4  C4  N4B d   1       3.329   2.407   1.901  0.00  0.00    -0.004 A 
ATOM      5  C5  N4B d   1       3.332   1.251   1.177  0.00  0.00     0.002 A 
ATOM      6  C6  N4B d   1       3.815   1.223  -0.115  0.00  0.00     0.002 A 
ENDROOT
BRANCH   1   7
ATOM      7  C1' N4B d   1       4.743   2.318  -2.124  0.00  0.00     0.057 C 
BRANCH   7   8
ATOM      8  C2' N4B d   1       3.906   1.283  -2.870  0.00  0.00     0.009 C 
BRANCH   8   9
ATOM      9  C3' N4B d   1       2.908   1.933  -3.813  0.00  0.00     0.004 C 
ATOM     10  C4' N4B d   1       1.485   1.629  -3.452  0.00  0.00     0.003 C 
ENDBRANCH   8   9
ENDBRANCH   7   8
ENDBRANCH   1   7
TORSDOF 3
ENDMDL
