MODEL 1
REMARK minimizedAffinity 8.42158222
REMARK minimizedRMSD -1
REMARK  3 active torsions:
REMARK  status: ('A' for Active; 'I' for Inactive)
REMARK    1  A    between atoms: C3'_2  and  C2'_3 
REMARK    2  A    between atoms: C2'_3  and  C1'_4 
REMARK    3  A    between atoms: C1'_4  and  C1_5 
ROOT
ATOM      1  C1  N4B d   1       3.963  -5.696  -3.295  0.00  0.00    -0.075 A 
ATOM      2  C2  N4B d   1       2.843  -5.990  -4.104  0.00  0.00     0.002 A 
ATOM      3  C3  N4B d   1       2.871  -5.704  -5.447  0.00  0.00     0.002 A 
ATOM      4  C4  N4B d   1       3.996  -5.107  -5.997  0.00  0.00    -0.004 A 
ATOM      5  C5  N4B d   1       5.083  -4.849  -5.214  0.00  0.00     0.002 A 
ATOM      6  C6  N4B d   1       5.070  -5.136  -3.864  0.00  0.00     0.002 A 
ENDROOT
BRANCH   1   7
ATOM      7  C1' N4B d   1       3.946  -5.912  -1.807  0.00  0.00     0.057 C 
BRANCH   7   8
ATOM      8  C2' N4B d   1       2.918  -4.978  -1.176  0.00  0.00     0.009 C 
BRANCH   8   9
ATOM      9  C3' N4B d   1       1.790  -5.744  -0.507  0.00  0.00     0.004 C 
ATOM     10  C4' N4B d   1       0.526  -4.943  -0.402  0.00  0.00     0.003 C 
ENDBRANCH   8   9
ENDBRANCH   7   8
ENDBRANCH   1   7
TORSDOF 3
ENDMDL
