MODEL 1
REMARK minimizedAffinity 3.46988106
REMARK minimizedRMSD -1
REMARK  3 active torsions:
REMARK  status: ('A' for Active; 'I' for Inactive)
REMARK    1  A    between atoms: C3'_2  and  C2'_3 
REMARK    2  A    between atoms: C2'_3  and  C1'_4 
REMARK    3  A    between atoms: C1'_4  and  C1_5 
ROOT
ATOM      1  C1  N4B d   1       2.538   2.009   0.963  0.00  0.00    -0.075 A 
ATOM      2  C2  N4B d   1       3.537   2.586   1.778  0.00  0.00     0.002 A 
ATOM      3  C3  N4B d   1       4.842   2.611   1.351  0.00  0.00     0.002 A 
ATOM      4  C4  N4B d   1       5.173   2.052   0.126  0.00  0.00    -0.004 A 
ATOM      5  C5  N4B d   1       4.198   1.520  -0.667  0.00  0.00     0.002 A 
ATOM      6  C6  N4B d   1       2.882   1.491  -0.251  0.00  0.00     0.002 A 
ENDROOT
BRANCH   1   7
ATOM      7  C1' N4B d   1       1.112   1.882   1.425  0.00  0.00     0.057 C 
BRANCH   7   8
ATOM      8  C2' N4B d   1       0.181   2.372   0.320  0.00  0.00     0.009 C 
BRANCH   8   9
ATOM      9  C3' N4B d   1      -1.193   2.735   0.854  0.00  0.00     0.004 C 
ATOM     10  C4' N4B d   1      -1.569   1.948   2.074  0.00  0.00     0.003 C 
ENDBRANCH   8   9
ENDBRANCH   7   8
ENDBRANCH   1   7
TORSDOF 3
ENDMDL
