MODEL 1
REMARK minimizedAffinity -0.326188326
REMARK minimizedRMSD -1
REMARK  1 active torsions:
REMARK  status: ('A' for Active; 'I' for Inactive)
REMARK    1  A    between atoms: C1_2  and  C2_3 
ROOT
ATOM      1  C2  UNL d   1       2.811  -2.844  -1.455  0.00  0.00    -0.073 A 
ATOM      2  C3  UNL d   1       3.129  -3.583  -0.310  0.00  0.00    -0.002 A 
ATOM      3  C4  UNL d   1       4.070  -4.612  -0.373  0.00  0.00     0.004 A 
ATOM      4  C5  UNL d   1       4.707  -4.907  -1.578  0.00  0.00    -0.004 A 
ATOM      5  C6  UNL d   1       4.412  -4.171  -2.731  0.00  0.00    -0.075 A 
ATOM      6  C7  UNL d   1       5.088  -4.477  -4.035  0.00  0.00     0.076 C 
ATOM      7  C8  UNL d   1       3.464  -3.142  -2.660  0.00  0.00     0.001 A 
ENDROOT
BRANCH   1   8
ATOM      8  C1  UNL d   1       1.800  -1.729  -1.390  0.00  0.00     0.053 C 
ATOM      9  C   UNL d   1       2.461  -0.360  -1.391  0.00  0.00     0.018 C 
ENDBRANCH   1   8
TORSDOF 1
ENDMDL
