MODEL 1
REMARK minimizedAffinity -2.41914916
REMARK minimizedRMSD -1
REMARK  1 active torsions:
REMARK  status: ('A' for Active; 'I' for Inactive)
REMARK    1  A    between atoms: C1_2  and  C2_3 
ROOT
ATOM      1  C2  UNL d   1       2.839  -2.761  -2.804  0.00  0.00    -0.073 A 
ATOM      2  C3  UNL d   1       3.453  -3.402  -3.887  0.00  0.00    -0.002 A 
ATOM      3  C4  UNL d   1       4.276  -4.508  -3.675  0.00  0.00     0.004 A 
ATOM      4  C5  UNL d   1       4.490  -4.989  -2.383  0.00  0.00    -0.004 A 
ATOM      5  C6  UNL d   1       3.876  -4.368  -1.290  0.00  0.00    -0.075 A 
ATOM      6  C7  UNL d   1       4.097  -4.871   0.106  0.00  0.00     0.076 C 
ATOM      7  C8  UNL d   1       3.052  -3.256  -1.510  0.00  0.00     0.001 A 
ENDROOT
BRANCH   1   8
ATOM      8  C1  UNL d   1       1.944  -1.569  -3.028  0.00  0.00     0.053 C 
ATOM      9  C   UNL d   1       2.279  -0.421  -2.090  0.00  0.00     0.018 C 
ENDBRANCH   1   8
TORSDOF 1
ENDMDL
