MODEL 1
REMARK minimizedAffinity 4.79845524
REMARK minimizedRMSD -1
REMARK  1 active torsions:
REMARK  status: ('A' for Active; 'I' for Inactive)
REMARK    1  A    between atoms: C1_2  and  C2_3 
ROOT
ATOM      1  C2  UNL d   1       3.420  -3.753  -1.514  0.00  0.00    -0.073 A 
ATOM      2  C3  UNL d   1       2.340  -3.370  -2.318  0.00  0.00    -0.002 A 
ATOM      3  C4  UNL d   1       2.448  -3.410  -3.709  0.00  0.00     0.004 A 
ATOM      4  C5  UNL d   1       3.632  -3.839  -4.309  0.00  0.00    -0.004 A 
ATOM      5  C6  UNL d   1       4.718  -4.237  -3.523  0.00  0.00    -0.075 A 
ATOM      6  C7  UNL d   1       5.999  -4.699  -4.153  0.00  0.00     0.076 C 
ATOM      7  C8  UNL d   1       4.603  -4.191  -2.127  0.00  0.00     0.001 A 
ENDROOT
BRANCH   1   8
ATOM      8  C1  UNL d   1       3.306  -3.717  -0.012  0.00  0.00     0.053 C 
ATOM      9  C   UNL d   1       4.595  -3.251   0.646  0.00  0.00     0.018 C 
ENDBRANCH   1   8
TORSDOF 1
ENDMDL
