MODEL 1
REMARK minimizedAffinity 2.50251317
REMARK minimizedRMSD -1
REMARK  1 active torsions:
REMARK  status: ('A' for Active; 'I' for Inactive)
REMARK    1  A    between atoms: C1_2  and  C2_3 
ROOT
ATOM      1  C2  UNL d   1       3.003  -3.109  -1.147  0.00  0.00    -0.073 A 
ATOM      2  C3  UNL d   1       3.881  -3.727  -0.249  0.00  0.00    -0.002 A 
ATOM      3  C4  UNL d   1       4.630  -4.835  -0.645  0.00  0.00     0.004 A 
ATOM      4  C5  UNL d   1       4.515  -5.333  -1.943  0.00  0.00    -0.004 A 
ATOM      5  C6  UNL d   1       3.651  -4.723  -2.858  0.00  0.00    -0.075 A 
ATOM      6  C7  UNL d   1       3.514  -5.247  -4.257  0.00  0.00     0.076 C 
ATOM      7  C8  UNL d   1       2.900  -3.612  -2.452  0.00  0.00     0.001 A 
ENDROOT
BRANCH   1   8
ATOM      8  C1  UNL d   1       2.196  -1.908  -0.726  0.00  0.00     0.053 C 
ATOM      9  C   UNL d   1       2.023  -0.911  -1.860  0.00  0.00     0.018 C 
ENDBRANCH   1   8
TORSDOF 1
ENDMDL
