MODEL 1
REMARK minimizedAffinity 1.33122921
REMARK minimizedRMSD -1
REMARK  1 active torsions:
REMARK  status: ('A' for Active; 'I' for Inactive)
REMARK    1  A    between atoms: C1_2  and  C2_3 
ROOT
ATOM      1  C2  UNL d   1       2.539  -1.887  -1.631  0.00  0.00    -0.073 A 
ATOM      2  C3  UNL d   1       2.847  -2.594  -0.463  0.00  0.00    -0.002 A 
ATOM      3  C4  UNL d   1       3.458  -3.846  -0.538  0.00  0.00     0.004 A 
ATOM      4  C5  UNL d   1       3.774  -4.401  -1.778  0.00  0.00    -0.004 A 
ATOM      5  C6  UNL d   1       3.485  -3.704  -2.956  0.00  0.00    -0.075 A 
ATOM      6  C7  UNL d   1       3.816  -4.287  -4.298  0.00  0.00     0.076 C 
ATOM      7  C8  UNL d   1       2.869  -2.448  -2.873  0.00  0.00     0.001 A 
ENDROOT
BRANCH   1   8
ATOM      8  C1  UNL d   1       1.885  -0.531  -1.555  0.00  0.00     0.053 C 
ATOM      9  C   UNL d   1       2.666   0.522  -2.325  0.00  0.00     0.018 C 
ENDBRANCH   1   8
TORSDOF 1
ENDMDL
