MODEL 1
REMARK minimizedAffinity -1.14286232
REMARK minimizedRMSD -1
REMARK  1 active torsions:
REMARK  status: ('A' for Active; 'I' for Inactive)
REMARK    1  A    between atoms: C1_2  and  C2_3 
ROOT
ATOM      1  C2  UNL d   1      -1.315  -1.793   4.194  0.00  0.00    -0.073 A 
ATOM      2  C3  UNL d   1      -0.313  -2.098   5.121  0.00  0.00    -0.002 A 
ATOM      3  C4  UNL d   1       0.168  -1.115   5.988  0.00  0.00     0.004 A 
ATOM      4  C5  UNL d   1      -0.353   0.178   5.942  0.00  0.00    -0.004 A 
ATOM      5  C6  UNL d   1      -1.364   0.499   5.030  0.00  0.00    -0.075 A 
ATOM      6  C7  UNL d   1      -1.933   1.886   4.965  0.00  0.00     0.076 C 
ATOM      7  C8  UNL d   1      -1.839  -0.493   4.160  0.00  0.00     0.001 A 
ENDROOT
BRANCH   1   8
ATOM      8  C1  UNL d   1      -1.842  -2.852   3.260  0.00  0.00     0.053 C 
ATOM      9  C   UNL d   1      -0.785  -3.316   2.270  0.00  0.00     0.018 C 
ENDBRANCH   1   8
TORSDOF 1
ENDMDL
