MODEL 1
REMARK minimizedAffinity 2.46216655
REMARK minimizedRMSD -1
REMARK  1 active torsions:
REMARK  status: ('A' for Active; 'I' for Inactive)
REMARK    1  A    between atoms: C1_2  and  C2_3 
ROOT
ATOM      1  C2  UNL d   1      -0.176   1.640   2.679  0.00  0.00    -0.073 A 
ATOM      2  C3  UNL d   1      -1.310   2.225   2.106  0.00  0.00    -0.002 A 
ATOM      3  C4  UNL d   1      -2.549   2.131   2.741  0.00  0.00     0.004 A 
ATOM      4  C5  UNL d   1      -2.665   1.459   3.958  0.00  0.00    -0.004 A 
ATOM      5  C6  UNL d   1      -1.540   0.878   4.553  0.00  0.00    -0.075 A 
ATOM      6  C7  UNL d   1      -1.649   0.149   5.860  0.00  0.00     0.076 C 
ATOM      7  C8  UNL d   1      -0.300   0.974   3.907  0.00  0.00     0.001 A 
ENDROOT
BRANCH   1   8
ATOM      8  C1  UNL d   1       1.166   1.744   2.000  0.00  0.00     0.053 C 
ATOM      9  C   UNL d   1       1.144   2.732   0.845  0.00  0.00     0.018 C 
ENDBRANCH   1   8
TORSDOF 1
ENDMDL
