MODEL 1
REMARK minimizedAffinity 7.83819485
REMARK minimizedRMSD -1
REMARK  1 active torsions:
REMARK  status: ('A' for Active; 'I' for Inactive)
REMARK    1  A    between atoms: C1_2  and  C2_3 
ROOT
ATOM      1  C2  UNL d   1       1.778   3.639  -1.416  0.00  0.00    -0.073 A 
ATOM      2  C3  UNL d   1       2.214   4.851  -1.965  0.00  0.00    -0.002 A 
ATOM      3  C4  UNL d   1       2.286   5.998  -1.173  0.00  0.00     0.004 A 
ATOM      4  C5  UNL d   1       1.931   5.944   0.175  0.00  0.00    -0.004 A 
ATOM      5  C6  UNL d   1       1.504   4.740   0.744  0.00  0.00    -0.075 A 
ATOM      6  C7  UNL d   1       1.116   4.667   2.192  0.00  0.00     0.076 C 
ATOM      7  C8  UNL d   1       1.431   3.593  -0.058  0.00  0.00     0.001 A 
ENDROOT
BRANCH   1   8
ATOM      8  C1  UNL d   1       1.704   2.397  -2.265  0.00  0.00     0.053 C 
ATOM      9  C   UNL d   1       0.680   2.529  -3.381  0.00  0.00     0.018 C 
ENDBRANCH   1   8
TORSDOF 1
ENDMDL
