MODEL 1
REMARK minimizedAffinity 0.497465312
REMARK minimizedRMSD -1
REMARK  1 active torsions:
REMARK  status: ('A' for Active; 'I' for Inactive)
REMARK    1  A    between atoms: C1_2  and  C2_3 
ROOT
ATOM      1  C2  UNL d   1      -2.593  -1.565   3.153  0.00  0.00    -0.073 A 
ATOM      2  C3  UNL d   1      -3.858  -2.072   2.837  0.00  0.00    -0.002 A 
ATOM      3  C4  UNL d   1      -4.904  -1.207   2.516  0.00  0.00     0.004 A 
ATOM      4  C5  UNL d   1      -4.696   0.172   2.500  0.00  0.00    -0.004 A 
ATOM      5  C6  UNL d   1      -3.435   0.698   2.802  0.00  0.00    -0.075 A 
ATOM      6  C7  UNL d   1      -3.195   2.179   2.792  0.00  0.00     0.076 C 
ATOM      7  C8  UNL d   1      -2.390  -0.177   3.126  0.00  0.00     0.001 A 
ENDROOT
BRANCH   1   8
ATOM      8  C1  UNL d   1      -1.458  -2.495   3.495  0.00  0.00     0.053 C 
ATOM      9  C   UNL d   1      -0.637  -1.987   4.669  0.00  0.00     0.018 C 
ENDBRANCH   1   8
TORSDOF 1
ENDMDL
