MODEL 1
REMARK minimizedAffinity 6.16078568
REMARK minimizedRMSD -1
REMARK  1 active torsions:
REMARK  status: ('A' for Active; 'I' for Inactive)
REMARK    1  A    between atoms: C1_2  and  C2_3 
ROOT
ATOM      1  C2  UNL d   1       2.103   1.712  -0.580  0.00  0.00    -0.073 A 
ATOM      2  C3  UNL d   1       1.608   3.018  -0.499  0.00  0.00    -0.002 A 
ATOM      3  C4  UNL d   1       1.536   3.670   0.732  0.00  0.00     0.004 A 
ATOM      4  C5  UNL d   1       1.964   3.027   1.893  0.00  0.00    -0.004 A 
ATOM      5  C6  UNL d   1       2.473   1.725   1.832  0.00  0.00    -0.075 A 
ATOM      6  C7  UNL d   1       2.935   1.018   3.072  0.00  0.00     0.076 C 
ATOM      7  C8  UNL d   1       2.539   1.076   0.591  0.00  0.00     0.001 A 
ENDROOT
BRANCH   1   8
ATOM      8  C1  UNL d   1       2.188   1.006  -1.909  0.00  0.00     0.053 C 
ATOM      9  C   UNL d   1       2.077  -0.503  -1.761  0.00  0.00     0.018 C 
ENDBRANCH   1   8
TORSDOF 1
ENDMDL
