MODEL 1
REMARK minimizedAffinity 13.0756226
REMARK minimizedRMSD -1
REMARK  1 active torsions:
REMARK  status: ('A' for Active; 'I' for Inactive)
REMARK    1  A    between atoms: C1_2  and  C2_3 
ROOT
ATOM      1  C2  UNL d   1      -3.822  -3.410   3.375  0.00  0.00    -0.073 A 
ATOM      2  C3  UNL d   1      -3.018  -4.330   2.693  0.00  0.00    -0.002 A 
ATOM      3  C4  UNL d   1      -1.627  -4.216   2.733  0.00  0.00     0.004 A 
ATOM      4  C5  UNL d   1      -1.028  -3.187   3.459  0.00  0.00    -0.004 A 
ATOM      5  C6  UNL d   1      -1.815  -2.265   4.157  0.00  0.00    -0.075 A 
ATOM      6  C7  UNL d   1      -1.186  -1.151   4.941  0.00  0.00     0.076 C 
ATOM      7  C8  UNL d   1      -3.210  -2.385   4.110  0.00  0.00     0.001 A 
ENDROOT
BRANCH   1   8
ATOM      8  C1  UNL d   1      -5.324  -3.533   3.340  0.00  0.00     0.053 C 
ATOM      9  C   UNL d   1      -5.999  -2.541   4.274  0.00  0.00     0.018 C 
ENDBRANCH   1   8
TORSDOF 1
ENDMDL
