MODEL 1
REMARK minimizedAffinity 10.4688549
REMARK minimizedRMSD -1
REMARK  1 active torsions:
REMARK  status: ('A' for Active; 'I' for Inactive)
REMARK    1  A    between atoms: C1_2  and  C2_3 
ROOT
ATOM      1  C2  UNL d   1      -1.645   2.967  -1.910  0.00  0.00    -0.081 A 
ATOM      2  C3  UNL d   1      -0.249   2.927  -2.011  0.00  0.00     0.006 A 
ATOM      3  C4  UNL d   1       0.537   2.707  -0.878  0.00  0.00     0.002 A 
ATOM      4  C5  UNL d   1      -0.059   2.516   0.373  0.00  0.00    -0.080 A 
ATOM      5  C6  UNL d   1       0.772   2.250   1.593  0.00  0.00     0.076 C 
ATOM      6  C7  UNL d   1      -1.453   2.574   0.477  0.00  0.00     0.002 A 
ATOM      7  C8  UNL d   1      -2.239   2.794  -0.656  0.00  0.00     0.006 A 
ENDROOT
BRANCH   1   8
ATOM      8  C1  UNL d   1      -2.498   3.139  -3.141  0.00  0.00     0.054 C 
ATOM      9  C   UNL d   1      -3.636   2.129  -3.171  0.00  0.00     0.018 C 
ENDBRANCH   1   8
TORSDOF 1
ENDMDL
