MODEL 1
REMARK minimizedAffinity 7.70261955
REMARK minimizedRMSD -1
REMARK  1 active torsions:
REMARK  status: ('A' for Active; 'I' for Inactive)
REMARK    1  A    between atoms: C1_2  and  C2_3 
ROOT
ATOM      1  C2  UNL d   1      -0.397   2.384   0.205  0.00  0.00    -0.081 A 
ATOM      2  C3  UNL d   1       0.269   3.615   0.245  0.00  0.00     0.006 A 
ATOM      3  C4  UNL d   1       0.927   4.027   1.406  0.00  0.00     0.002 A 
ATOM      4  C5  UNL d   1       0.937   3.213   2.543  0.00  0.00    -0.080 A 
ATOM      5  C6  UNL d   1       1.665   3.630   3.786  0.00  0.00     0.076 C 
ATOM      6  C7  UNL d   1       0.257   1.991   2.510  0.00  0.00     0.002 A 
ATOM      7  C8  UNL d   1      -0.402   1.579   1.350  0.00  0.00     0.006 A 
ENDROOT
BRANCH   1   8
ATOM      8  C1  UNL d   1      -1.053   1.908  -1.065  0.00  0.00     0.054 C 
ATOM      9  C   UNL d   1      -2.518   1.562  -0.836  0.00  0.00     0.018 C 
ENDBRANCH   1   8
TORSDOF 1
ENDMDL
