MODEL 1
REMARK minimizedAffinity 12.6684952
REMARK minimizedRMSD -1
REMARK  1 active torsions:
REMARK  status: ('A' for Active; 'I' for Inactive)
REMARK    1  A    between atoms: C1_2  and  C2_3 
ROOT
ATOM      1  C2  UNL d   1      -2.224  -4.066  -4.890  0.00  0.00    -0.081 A 
ATOM      2  C3  UNL d   1      -2.535  -5.291  -4.287  0.00  0.00     0.006 A 
ATOM      3  C4  UNL d   1      -3.761  -5.913  -4.537  0.00  0.00     0.002 A 
ATOM      4  C5  UNL d   1      -4.692  -5.324  -5.399  0.00  0.00    -0.080 A 
ATOM      5  C6  UNL d   1      -6.000  -5.995  -5.699  0.00  0.00     0.076 C 
ATOM      6  C7  UNL d   1      -4.389  -4.091  -5.987  0.00  0.00     0.002 A 
ATOM      7  C8  UNL d   1      -3.164  -3.470  -5.738  0.00  0.00     0.006 A 
ENDROOT
BRANCH   1   8
ATOM      8  C1  UNL d   1      -0.877  -3.426  -4.674  0.00  0.00     0.054 C 
ATOM      9  C   UNL d   1      -0.864  -1.985  -5.166  0.00  0.00     0.018 C 
ENDBRANCH   1   8
TORSDOF 1
ENDMDL
