MODEL 1
REMARK minimizedAffinity 7.9333849
REMARK minimizedRMSD -1
REMARK  1 active torsions:
REMARK  status: ('A' for Active; 'I' for Inactive)
REMARK    1  A    between atoms: C1_2  and  C2_3 
ROOT
ATOM      1  C2  UNL d   1      -0.102   2.218   1.658  0.00  0.00    -0.081 A 
ATOM      2  C3  UNL d   1       0.196   3.570   1.450  0.00  0.00     0.006 A 
ATOM      3  C4  UNL d   1       0.069   4.136   0.179  0.00  0.00     0.002 A 
ATOM      4  C5  UNL d   1      -0.367   3.363  -0.902  0.00  0.00    -0.080 A 
ATOM      5  C6  UNL d   1      -0.537   3.965  -2.265  0.00  0.00     0.076 C 
ATOM      6  C7  UNL d   1      -0.648   2.008  -0.698  0.00  0.00     0.002 A 
ATOM      7  C8  UNL d   1      -0.520   1.441   0.572  0.00  0.00     0.006 A 
ENDROOT
BRANCH   1   8
ATOM      8  C1  UNL d   1      -0.028   1.621   3.040  0.00  0.00     0.054 C 
ATOM      9  C   UNL d   1       0.657   0.262   3.019  0.00  0.00     0.018 C 
ENDBRANCH   1   8
TORSDOF 1
ENDMDL
