MODEL 1
REMARK minimizedAffinity 4.38887405
REMARK minimizedRMSD -1
REMARK  1 active torsions:
REMARK  status: ('A' for Active; 'I' for Inactive)
REMARK    1  A    between atoms: C1_2  and  C2_3 
ROOT
ATOM      1  C2  UNL d   1       0.128  -1.132  -1.542  0.00  0.00    -0.081 A 
ATOM      2  C3  UNL d   1      -1.103  -1.776  -1.718  0.00  0.00     0.006 A 
ATOM      3  C4  UNL d   1      -2.299  -1.067  -1.582  0.00  0.00     0.002 A 
ATOM      4  C5  UNL d   1      -2.284   0.298  -1.277  0.00  0.00    -0.080 A 
ATOM      5  C6  UNL d   1      -3.559   1.078  -1.158  0.00  0.00     0.076 C 
ATOM      6  C7  UNL d   1      -1.054   0.938  -1.085  0.00  0.00     0.002 A 
ATOM      7  C8  UNL d   1       0.141   0.229  -1.220  0.00  0.00     0.006 A 
ENDROOT
BRANCH   1   8
ATOM      8  C1  UNL d   1       1.420  -1.880  -1.752  0.00  0.00     0.054 C 
ATOM      9  C   UNL d   1       2.411  -1.596  -0.632  0.00  0.00     0.018 C 
ENDBRANCH   1   8
TORSDOF 1
ENDMDL
