MODEL 1
REMARK minimizedAffinity 11.0653811
REMARK minimizedRMSD -1
REMARK  1 active torsions:
REMARK  status: ('A' for Active; 'I' for Inactive)
REMARK    1  A    between atoms: C1_2  and  C2_3 
ROOT
ATOM      1  C2  UNL d   1       0.801  -0.246   3.675  0.00  0.00    -0.081 A 
ATOM      2  C3  UNL d   1       1.940   0.323   3.093  0.00  0.00     0.006 A 
ATOM      3  C4  UNL d   1       1.859   1.552   2.434  0.00  0.00     0.002 A 
ATOM      4  C5  UNL d   1       0.641   2.236   2.353  0.00  0.00    -0.080 A 
ATOM      5  C6  UNL d   1       0.547   3.570   1.675  0.00  0.00     0.076 C 
ATOM      6  C7  UNL d   1      -0.500   1.659   2.919  0.00  0.00     0.002 A 
ATOM      7  C8  UNL d   1      -0.420   0.429   3.578  0.00  0.00     0.006 A 
ENDROOT
BRANCH   1   8
ATOM      8  C1  UNL d   1       0.898  -1.540   4.442  0.00  0.00     0.054 C 
ATOM      9  C   UNL d   1       0.086  -1.483   5.728  0.00  0.00     0.018 C 
ENDBRANCH   1   8
TORSDOF 1
ENDMDL
