MODEL 1
REMARK minimizedAffinity 4.61980009
REMARK minimizedRMSD -1
REMARK  1 active torsions:
REMARK  status: ('A' for Active; 'I' for Inactive)
REMARK    1  A    between atoms: C1_2  and  C2_3 
ROOT
ATOM      1  C2  UNL d   1      -0.088   3.160   0.560  0.00  0.00    -0.081 A 
ATOM      2  C3  UNL d   1       1.059   3.961   0.633  0.00  0.00     0.006 A 
ATOM      3  C4  UNL d   1       1.621   4.280   1.871  0.00  0.00     0.002 A 
ATOM      4  C5  UNL d   1       1.051   3.799   3.055  0.00  0.00    -0.080 A 
ATOM      5  C6  UNL d   1       1.662   4.110   4.389  0.00  0.00     0.076 C 
ATOM      6  C7  UNL d   1      -0.105   3.014   2.983  0.00  0.00     0.002 A 
ATOM      7  C8  UNL d   1      -0.668   2.695   1.745  0.00  0.00     0.006 A 
ENDROOT
BRANCH   1   8
ATOM      8  C1  UNL d   1      -0.659   2.760  -0.777  0.00  0.00     0.054 C 
ATOM      9  C   UNL d   1      -0.655   3.929  -1.752  0.00  0.00     0.018 C 
ENDBRANCH   1   8
TORSDOF 1
ENDMDL
