MODEL 1
REMARK minimizedAffinity 7.00810242
REMARK minimizedRMSD -1
REMARK  1 active torsions:
REMARK  status: ('A' for Active; 'I' for Inactive)
REMARK    1  A    between atoms: C1_2  and  C2_3 
ROOT
ATOM      1  C2  UNL d   1       0.610   0.549   1.710  0.00  0.00    -0.081 A 
ATOM      2  C3  UNL d   1       0.794  -0.575   2.525  0.00  0.00     0.006 A 
ATOM      3  C4  UNL d   1       1.264  -1.774   1.983  0.00  0.00     0.002 A 
ATOM      4  C5  UNL d   1       1.565  -1.866   0.620  0.00  0.00    -0.080 A 
ATOM      5  C6  UNL d   1       2.099  -3.138   0.031  0.00  0.00     0.076 C 
ATOM      6  C7  UNL d   1       1.365  -0.749  -0.198  0.00  0.00     0.002 A 
ATOM      7  C8  UNL d   1       0.894   0.450   0.344  0.00  0.00     0.006 A 
ENDROOT
BRANCH   1   8
ATOM      8  C1  UNL d   1       0.165   1.861   2.303  0.00  0.00     0.054 C 
ATOM      9  C   UNL d   1       1.336   2.618   2.913  0.00  0.00     0.018 C 
ENDBRANCH   1   8
TORSDOF 1
ENDMDL
