MODEL 1
REMARK minimizedAffinity -4.11323023
REMARK minimizedRMSD -1
REMARK  0 active torsions:
REMARK  status: ('A' for Active; 'I' for Inactive)
ROOT
ATOM      1  C   UNL d   1       0.948   0.193   0.073  0.00  0.00     0.077 C 
ATOM      2  C1  UNL d   1       0.036  -0.897   0.553  0.00  0.00    -0.074 A 
ATOM      3  C2  UNL d   1       0.464  -1.823   1.509  0.00  0.00    -0.005 A 
ATOM      4  C3  UNL d   1      -0.398  -2.826   1.952  0.00  0.00     0.006 A 
ATOM      5  C4  UNL d   1      -1.695  -2.913   1.444  0.00  0.00    -0.005 A 
ATOM      6  C5  UNL d   1      -2.141  -1.995   0.488  0.00  0.00    -0.074 A 
ATOM      7  C6  UNL d   1      -3.535  -2.068  -0.061  0.00  0.00     0.077 C 
ATOM      8  C7  UNL d   1      -1.271  -0.986   0.053  0.00  0.00    -0.001 A 
ENDROOT
TORSDOF 0
ENDMDL
