MODEL 1
REMARK minimizedAffinity -4.62737083
REMARK minimizedRMSD -1
REMARK  0 active torsions:
REMARK  status: ('A' for Active; 'I' for Inactive)
ROOT
ATOM      1  C   UNL d   1       1.507   0.372   0.726  0.00  0.00     0.077 C 
ATOM      2  C1  UNL d   1       0.249   0.014  -0.008  0.00  0.00    -0.074 A 
ATOM      3  C2  UNL d   1       0.090   0.335  -1.360  0.00  0.00    -0.005 A 
ATOM      4  C3  UNL d   1      -1.082  -0.012  -2.032  0.00  0.00     0.006 A 
ATOM      5  C4  UNL d   1      -2.105  -0.682  -1.360  0.00  0.00    -0.005 A 
ATOM      6  C5  UNL d   1      -1.963  -1.012  -0.009  0.00  0.00    -0.074 A 
ATOM      7  C6  UNL d   1      -3.049  -1.742   0.726  0.00  0.00     0.077 C 
ATOM      8  C7  UNL d   1      -0.780  -0.666   0.658  0.00  0.00    -0.001 A 
ENDROOT
TORSDOF 0
ENDMDL
