MODEL 1
REMARK minimizedAffinity -5.17968798
REMARK minimizedRMSD -1
REMARK  0 active torsions:
REMARK  status: ('A' for Active; 'I' for Inactive)
ROOT
ATOM      1  C   UNL d   1      -3.642  -1.705  -0.664  0.00  0.00     0.077 C 
ATOM      2  C1  UNL d   1      -2.341  -1.444   0.035  0.00  0.00    -0.074 A 
ATOM      3  C2  UNL d   1      -2.070  -2.009   1.286  0.00  0.00    -0.005 A 
ATOM      4  C3  UNL d   1      -0.852  -1.765   1.919  0.00  0.00     0.006 A 
ATOM      5  C4  UNL d   1       0.107  -0.955   1.309  0.00  0.00    -0.005 A 
ATOM      6  C5  UNL d   1      -0.145  -0.383   0.059  0.00  0.00    -0.074 A 
ATOM      7  C6  UNL d   1       0.879   0.482  -0.615  0.00  0.00     0.077 C 
ATOM      8  C7  UNL d   1      -1.369  -0.638  -0.575  0.00  0.00    -0.001 A 
ENDROOT
TORSDOF 0
ENDMDL
