MODEL 1
REMARK minimizedAffinity -4.79974794
REMARK minimizedRMSD -1
REMARK  0 active torsions:
REMARK  status: ('A' for Active; 'I' for Inactive)
ROOT
ATOM      1  C   UNL d   1      -2.536  -1.766   0.629  0.00  0.00     0.077 C 
ATOM      2  C1  UNL d   1      -1.711  -0.803  -0.171  0.00  0.00    -0.074 A 
ATOM      3  C2  UNL d   1      -2.179  -0.291  -1.385  0.00  0.00    -0.005 A 
ATOM      4  C3  UNL d   1      -1.404   0.611  -2.114  0.00  0.00     0.006 A 
ATOM      5  C4  UNL d   1      -0.155   1.010  -1.637  0.00  0.00    -0.005 A 
ATOM      6  C5  UNL d   1       0.330   0.509  -0.425  0.00  0.00    -0.074 A 
ATOM      7  C6  UNL d   1       1.666   0.934   0.107  0.00  0.00     0.077 C 
ATOM      8  C7  UNL d   1      -0.458  -0.392   0.305  0.00  0.00    -0.001 A 
ENDROOT
TORSDOF 0
ENDMDL
