MODEL 1
REMARK minimizedAffinity -5.1920166
REMARK minimizedRMSD -1
REMARK  0 active torsions:
REMARK  status: ('A' for Active; 'I' for Inactive)
ROOT
ATOM      1  C   UNL d   1       1.362   0.232  -0.073  0.00  0.00     0.077 C 
ATOM      2  C1  UNL d   1       0.210  -0.609   0.391  0.00  0.00    -0.074 A 
ATOM      3  C2  UNL d   1       0.399  -1.637   1.320  0.00  0.00    -0.005 A 
ATOM      4  C3  UNL d   1      -0.683  -2.405   1.749  0.00  0.00     0.006 A 
ATOM      5  C4  UNL d   1      -1.963  -2.153   1.254  0.00  0.00    -0.005 A 
ATOM      6  C5  UNL d   1      -2.172  -1.129   0.325  0.00  0.00    -0.074 A 
ATOM      7  C6  UNL d   1      -3.543  -0.839  -0.210  0.00  0.00     0.077 C 
ATOM      8  C7  UNL d   1      -1.080  -0.357  -0.096  0.00  0.00    -0.001 A 
ENDROOT
TORSDOF 0
ENDMDL
