MODEL 1
REMARK minimizedAffinity -5.42704344
REMARK minimizedRMSD -1
REMARK  0 active torsions:
REMARK  status: ('A' for Active; 'I' for Inactive)
ROOT
ATOM      1  C   UNL d   1       1.354   0.431   0.254  0.00  0.00     0.077 C 
ATOM      2  C1  UNL d   1       0.004  -0.182   0.026  0.00  0.00    -0.074 A 
ATOM      3  C2  UNL d   1      -0.810   0.243  -1.029  0.00  0.00    -0.005 A 
ATOM      4  C3  UNL d   1      -2.059  -0.343  -1.234  0.00  0.00     0.006 A 
ATOM      5  C4  UNL d   1      -2.506  -1.358  -0.388  0.00  0.00    -0.005 A 
ATOM      6  C5  UNL d   1      -1.706  -1.798   0.671  0.00  0.00    -0.074 A 
ATOM      7  C6  UNL d   1      -2.167  -2.895   1.584  0.00  0.00     0.077 C 
ATOM      8  C7  UNL d   1      -0.449  -1.209   0.867  0.00  0.00    -0.001 A 
ENDROOT
TORSDOF 0
ENDMDL
