MODEL 1
REMARK minimizedAffinity -4.0789032
REMARK minimizedRMSD -1
REMARK  0 active torsions:
REMARK  status: ('A' for Active; 'I' for Inactive)
ROOT
ATOM      1  C   UNL d   1       1.502   0.182   0.759  0.00  0.00     0.077 C 
ATOM      2  C1  UNL d   1       0.235   0.012  -0.026  0.00  0.00    -0.074 A 
ATOM      3  C2  UNL d   1       0.075   0.623  -1.274  0.00  0.00    -0.005 A 
ATOM      4  C3  UNL d   1      -1.105   0.447  -1.996  0.00  0.00     0.006 A 
ATOM      5  C4  UNL d   1      -2.135  -0.340  -1.480  0.00  0.00    -0.005 A 
ATOM      6  C5  UNL d   1      -1.992  -0.960  -0.234  0.00  0.00    -0.074 A 
ATOM      7  C6  UNL d   1      -3.085  -1.817   0.331  0.00  0.00     0.077 C 
ATOM      8  C7  UNL d   1      -0.801  -0.784   0.483  0.00  0.00    -0.001 A 
ENDROOT
TORSDOF 0
ENDMDL
