MODEL 1
REMARK minimizedAffinity -6.05826092
REMARK minimizedRMSD -1
REMARK  0 active torsions:
REMARK  status: ('A' for Active; 'I' for Inactive)
ROOT
ATOM      1  C   UNL d   1       1.242   0.643   0.399  0.00  0.00     0.077 C 
ATOM      2  C1  UNL d   1      -0.109   0.063   0.105  0.00  0.00    -0.074 A 
ATOM      3  C2  UNL d   1      -0.794   0.396  -1.068  0.00  0.00    -0.005 A 
ATOM      4  C3  UNL d   1      -2.046  -0.159  -1.333  0.00  0.00     0.006 A 
ATOM      5  C4  UNL d   1      -2.624  -1.051  -0.430  0.00  0.00    -0.005 A 
ATOM      6  C5  UNL d   1      -1.954  -1.397   0.747  0.00  0.00    -0.074 A 
ATOM      7  C6  UNL d   1      -2.557  -2.362   1.724  0.00  0.00     0.077 C 
ATOM      8  C7  UNL d   1      -0.693  -0.841   1.003  0.00  0.00    -0.001 A 
ENDROOT
TORSDOF 0
ENDMDL
