MODEL 1
REMARK minimizedAffinity -5.94722319
REMARK minimizedRMSD -1
REMARK  0 active torsions:
REMARK  status: ('A' for Active; 'I' for Inactive)
ROOT
ATOM      1  C   UNL d   1      -2.228  -2.986   1.482  0.00  0.00     0.077 C 
ATOM      2  C1  UNL d   1      -1.855  -1.787   0.661  0.00  0.00    -0.074 A 
ATOM      3  C2  UNL d   1      -2.766  -1.219  -0.235  0.00  0.00    -0.005 A 
ATOM      4  C3  UNL d   1      -2.408  -0.098  -0.985  0.00  0.00     0.006 A 
ATOM      5  C4  UNL d   1      -1.139   0.465  -0.846  0.00  0.00    -0.005 A 
ATOM      6  C5  UNL d   1      -0.215  -0.090   0.046  0.00  0.00    -0.074 A 
ATOM      7  C6  UNL d   1       1.150   0.508   0.215  0.00  0.00     0.077 C 
ATOM      8  C7  UNL d   1      -0.585  -1.211   0.801  0.00  0.00    -0.001 A 
ENDROOT
TORSDOF 0
ENDMDL
