MODEL 1
REMARK minimizedAffinity -6.16284752
REMARK minimizedRMSD -1
REMARK  0 active torsions:
REMARK  status: ('A' for Active; 'I' for Inactive)
ROOT
ATOM      1  C   UNL d   1      -2.407  -2.602   1.843  0.00  0.00     0.077 C 
ATOM      2  C1  UNL d   1      -1.943  -1.551   0.879  0.00  0.00    -0.074 A 
ATOM      3  C2  UNL d   1      -2.775  -1.103  -0.152  0.00  0.00    -0.005 A 
ATOM      4  C3  UNL d   1      -2.333  -0.118  -1.035  0.00  0.00     0.006 A 
ATOM      5  C4  UNL d   1      -1.055   0.427  -0.898  0.00  0.00    -0.005 A 
ATOM      6  C5  UNL d   1      -0.209  -0.008   0.127  0.00  0.00    -0.074 A 
ATOM      7  C6  UNL d   1       1.163   0.574   0.295  0.00  0.00     0.077 C 
ATOM      8  C7  UNL d   1      -0.664  -0.993   1.015  0.00  0.00    -0.001 A 
ENDROOT
TORSDOF 0
ENDMDL
