MODEL 1
REMARK minimizedAffinity -4.86971903
REMARK minimizedRMSD -1
REMARK  0 active torsions:
REMARK  status: ('A' for Active; 'I' for Inactive)
ROOT
ATOM      1  C   UNL d   1       0.820   0.657  -0.325  0.00  0.00     0.077 C 
ATOM      2  C1  UNL d   1      -0.422  -0.165  -0.146  0.00  0.00    -0.074 A 
ATOM      3  C2  UNL d   1      -1.554   0.062  -0.935  0.00  0.00    -0.005 A 
ATOM      4  C3  UNL d   1      -2.699  -0.716  -0.763  0.00  0.00     0.006 A 
ATOM      5  C4  UNL d   1      -2.723  -1.727   0.198  0.00  0.00    -0.005 A 
ATOM      6  C5  UNL d   1      -1.600  -1.970   0.996  0.00  0.00    -0.074 A 
ATOM      7  C6  UNL d   1      -1.606  -3.059   2.026  0.00  0.00     0.077 C 
ATOM      8  C7  UNL d   1      -0.451  -1.188   0.812  0.00  0.00    -0.001 A 
ENDROOT
TORSDOF 0
ENDMDL
