MODEL 1
REMARK minimizedAffinity -3.52567196
REMARK minimizedRMSD -1
REMARK  0 active torsions:
REMARK  status: ('A' for Active; 'I' for Inactive)
ROOT
ATOM      1  C   UNL d   1      -3.154  -0.817   0.259  0.00  0.00     0.077 C 
ATOM      2  C1  UNL d   1      -1.845  -0.276  -0.236  0.00  0.00    -0.074 A 
ATOM      3  C2  UNL d   1      -1.789   0.554  -1.360  0.00  0.00    -0.005 A 
ATOM      4  C3  UNL d   1      -0.565   1.057  -1.802  0.00  0.00     0.006 A 
ATOM      5  C4  UNL d   1       0.612   0.735  -1.126  0.00  0.00    -0.005 A 
ATOM      6  C5  UNL d   1       0.575  -0.093   0.000  0.00  0.00    -0.074 A 
ATOM      7  C6  UNL d   1       1.831  -0.440   0.744  0.00  0.00     0.077 C 
ATOM      8  C7  UNL d   1      -0.659  -0.589   0.443  0.00  0.00    -0.001 A 
ENDROOT
TORSDOF 0
ENDMDL
