MODEL 1
REMARK minimizedAffinity -5.80023432
REMARK minimizedRMSD -1
REMARK  0 active torsions:
REMARK  status: ('A' for Active; 'I' for Inactive)
ROOT
ATOM      1  C   UNL d   1      -0.527   0.756  -1.480  0.00  0.00     0.077 C 
ATOM      2  C1  UNL d   1      -1.392  -0.183  -0.693  0.00  0.00    -0.074 A 
ATOM      3  C2  UNL d   1      -2.780  -0.196  -0.865  0.00  0.00    -0.005 A 
ATOM      4  C3  UNL d   1      -3.571  -1.081  -0.132  0.00  0.00     0.006 A 
ATOM      5  C4  UNL d   1      -2.984  -1.961   0.777  0.00  0.00    -0.005 A 
ATOM      6  C5  UNL d   1      -1.597  -1.963   0.962  0.00  0.00    -0.074 A 
ATOM      7  C6  UNL d   1      -0.949  -2.909   1.929  0.00  0.00     0.077 C 
ATOM      8  C7  UNL d   1      -0.809  -1.075   0.217  0.00  0.00    -0.001 A 
ENDROOT
TORSDOF 0
ENDMDL
