MODEL 1
REMARK minimizedAffinity -6.18994713
REMARK minimizedRMSD -1
REMARK  0 active torsions:
REMARK  status: ('A' for Active; 'I' for Inactive)
ROOT
ATOM      1  C   UNL d   1      -0.544   0.757  -1.483  0.00  0.00     0.077 C 
ATOM      2  C1  UNL d   1      -1.350  -0.285  -0.766  0.00  0.00    -0.074 A 
ATOM      3  C2  UNL d   1      -2.650  -0.597  -1.178  0.00  0.00    -0.005 A 
ATOM      4  C3  UNL d   1      -3.384  -1.576  -0.507  0.00  0.00     0.006 A 
ATOM      5  C4  UNL d   1      -2.826  -2.251   0.579  0.00  0.00    -0.005 A 
ATOM      6  C5  UNL d   1      -1.528  -1.953   1.004  0.00  0.00    -0.074 A 
ATOM      7  C6  UNL d   1      -0.910  -2.676   2.164  0.00  0.00     0.077 C 
ATOM      8  C7  UNL d   1      -0.794  -0.973   0.321  0.00  0.00    -0.001 A 
ENDROOT
TORSDOF 0
ENDMDL
