MODEL 1
REMARK minimizedAffinity -5.17308235
REMARK minimizedRMSD -1
REMARK  0 active torsions:
REMARK  status: ('A' for Active; 'I' for Inactive)
ROOT
ATOM      1  C   UNL d   1      -3.475  -0.772  -0.061  0.00  0.00     0.077 C 
ATOM      2  C1  UNL d   1      -2.063  -1.032   0.372  0.00  0.00    -0.074 A 
ATOM      3  C2  UNL d   1      -1.757  -2.097   1.225  0.00  0.00    -0.005 A 
ATOM      4  C3  UNL d   1      -0.437  -2.332   1.611  0.00  0.00     0.006 A 
ATOM      5  C4  UNL d   1       0.588  -1.505   1.150  0.00  0.00    -0.005 A 
ATOM      6  C5  UNL d   1       0.301  -0.436   0.296  0.00  0.00    -0.074 A 
ATOM      7  C6  UNL d   1       1.392   0.456  -0.218  0.00  0.00     0.077 C 
ATOM      8  C7  UNL d   1      -1.026  -0.210  -0.094  0.00  0.00    -0.001 A 
ENDROOT
TORSDOF 0
ENDMDL
