MODEL 1
REMARK minimizedAffinity -4.13322163
REMARK minimizedRMSD -1
REMARK  0 active torsions:
REMARK  status: ('A' for Active; 'I' for Inactive)
ROOT
ATOM      1  C   UNL d   1      -2.252  -1.920   1.404  0.00  0.00     0.077 C 
ATOM      2  C1  UNL d   1      -1.576  -1.067   0.372  0.00  0.00    -0.074 A 
ATOM      3  C2  UNL d   1      -2.276  -0.604  -0.747  0.00  0.00    -0.005 A 
ATOM      4  C3  UNL d   1      -1.637   0.197  -1.694  0.00  0.00     0.006 A 
ATOM      5  C4  UNL d   1      -0.295   0.542  -1.531  0.00  0.00    -0.005 A 
ATOM      6  C5  UNL d   1       0.420   0.090  -0.418  0.00  0.00    -0.074 A 
ATOM      7  C6  UNL d   1       1.860   0.460  -0.223  0.00  0.00     0.077 C 
ATOM      8  C7  UNL d   1      -0.231  -0.709   0.533  0.00  0.00    -0.001 A 
ENDROOT
TORSDOF 0
ENDMDL
