MODEL 1
REMARK minimizedAffinity -0.825846851
REMARK minimizedRMSD -1
REMARK  0 active torsions:
REMARK  status: ('A' for Active; 'I' for Inactive)
ROOT
ATOM      1  C   UNL d   1      -0.909   2.884   0.176  0.00  0.00     0.124 A 
ATOM      2  C1  UNL d   1      -1.972   3.746   0.407  0.00  0.00     0.062 A 
ATOM      3  C2  UNL d   1      -2.738   4.214  -0.657  0.00  0.00     0.162 A 
ATOM      4  C3  UNL d   1      -2.444   3.820  -1.963  0.00  0.00    -0.034 A 
ATOM      5  C4  UNL d   1      -1.374   2.952  -2.187  0.00  0.00     0.162 A 
ATOM      6  C5  UNL d   1      -0.611   2.488  -1.120  0.00  0.00     0.062 A 
ATOM      7  F   UNL d   1       0.415   1.654  -1.345  0.00  0.00    -0.097 F 
ATOM      8  F1  UNL d   1      -1.064   2.553  -3.430  0.00  0.00    -0.096 F 
ATOM      9  I   UNL d   1      -3.587   4.517  -3.557  0.00  0.00    -0.060 I 
ATOM     10  F2  UNL d   1      -3.758   5.047  -0.405  0.00  0.00    -0.096 F 
ATOM     11  F3  UNL d   1      -2.262   4.131   1.658  0.00  0.00    -0.097 F 
ATOM     12  F4  UNL d   1      -0.174   2.436   1.201  0.00  0.00    -0.092 F 
ENDROOT
TORSDOF 0
ENDMDL
