MODEL 1
REMARK minimizedAffinity 10.4465017
REMARK minimizedRMSD -1
REMARK  0 active torsions:
REMARK  status: ('A' for Active; 'I' for Inactive)
ROOT
ATOM      1  C   UNL d   1      -0.414   1.861   2.198  0.00  0.00     0.124 A 
ATOM      2  C1  UNL d   1       0.924   1.729   1.853  0.00  0.00     0.062 A 
ATOM      3  C2  UNL d   1       1.695   0.714   2.414  0.00  0.00     0.162 A 
ATOM      4  C3  UNL d   1       1.129  -0.178   3.325  0.00  0.00    -0.034 A 
ATOM      5  C4  UNL d   1      -0.217  -0.038   3.668  0.00  0.00     0.162 A 
ATOM      6  C5  UNL d   1      -0.983   0.978   3.105  0.00  0.00     0.062 A 
ATOM      7  F   UNL d   1      -2.275   1.104   3.440  0.00  0.00    -0.097 F 
ATOM      8  F1  UNL d   1      -0.793  -0.878   4.540  0.00  0.00    -0.096 F 
ATOM      9  I   UNL d   1       2.278  -1.696   4.165  0.00  0.00    -0.060 I 
ATOM     10  F2  UNL d   1       2.985   0.610   2.062  0.00  0.00    -0.096 F 
ATOM     11  F3  UNL d   1       1.476   2.582   0.978  0.00  0.00    -0.097 F 
ATOM     12  F4  UNL d   1      -1.153   2.839   1.659  0.00  0.00    -0.092 F 
ENDROOT
TORSDOF 0
ENDMDL
