MODEL 1
REMARK minimizedAffinity 17.5022049
REMARK minimizedRMSD -1
REMARK  0 active torsions:
REMARK  status: ('A' for Active; 'I' for Inactive)
ROOT
ATOM      1  C   UNL d   1      -0.188  -4.481  -3.640  0.00  0.00     0.124 A 
ATOM      2  C1  UNL d   1      -0.219  -4.440  -2.253  0.00  0.00     0.062 A 
ATOM      3  C2  UNL d   1       0.932  -4.707  -1.518  0.00  0.00     0.162 A 
ATOM      4  C3  UNL d   1       2.127  -5.016  -2.170  0.00  0.00    -0.034 A 
ATOM      5  C4  UNL d   1       2.150  -5.056  -3.565  0.00  0.00     0.162 A 
ATOM      6  C5  UNL d   1       0.997  -4.789  -4.294  0.00  0.00     0.062 A 
ATOM      7  F   UNL d   1       1.029  -4.829  -5.634  0.00  0.00    -0.097 F 
ATOM      8  F1  UNL d   1       3.282  -5.350  -4.223  0.00  0.00    -0.096 F 
ATOM      9  I   UNL d   1       3.851  -5.416  -1.075  0.00  0.00    -0.060 I 
ATOM     10  F2  UNL d   1       0.873  -4.660  -0.179  0.00  0.00    -0.096 F 
ATOM     11  F3  UNL d   1      -1.362  -4.144  -1.618  0.00  0.00    -0.097 F 
ATOM     12  F4  UNL d   1      -1.297  -4.224  -4.344  0.00  0.00    -0.092 F 
ENDROOT
TORSDOF 0
ENDMDL
