MODEL 1
REMARK minimizedAffinity 8.57672882
REMARK minimizedRMSD -1
REMARK  0 active torsions:
REMARK  status: ('A' for Active; 'I' for Inactive)
ROOT
ATOM      1  C   UNL d   1      -0.512   1.737  -2.229  0.00  0.00     0.124 A 
ATOM      2  C1  UNL d   1       0.165   0.677  -1.641  0.00  0.00     0.062 A 
ATOM      3  C2  UNL d   1       0.552   0.748  -0.306  0.00  0.00     0.162 A 
ATOM      4  C3  UNL d   1       0.263   1.884   0.451  0.00  0.00    -0.034 A 
ATOM      5  C4  UNL d   1      -0.417   2.946  -0.148  0.00  0.00     0.162 A 
ATOM      6  C5  UNL d   1      -0.802   2.870  -1.483  0.00  0.00     0.062 A 
ATOM      7  F   UNL d   1      -1.455   3.895  -2.049  0.00  0.00    -0.097 F 
ATOM      8  F1  UNL d   1      -0.711   4.053   0.551  0.00  0.00    -0.096 F 
ATOM      9  I   UNL d   1       0.840   1.994   2.447  0.00  0.00    -0.060 I 
ATOM     10  F2  UNL d   1       1.204  -0.291   0.236  0.00  0.00    -0.096 F 
ATOM     11  F3  UNL d   1       0.447  -0.418  -2.361  0.00  0.00    -0.097 F 
ATOM     12  F4  UNL d   1      -0.882   1.666  -3.514  0.00  0.00    -0.092 F 
ENDROOT
TORSDOF 0
ENDMDL
