MODEL 1
REMARK minimizedAffinity 16.0636063
REMARK minimizedRMSD -1
REMARK  0 active torsions:
REMARK  status: ('A' for Active; 'I' for Inactive)
ROOT
ATOM      1  C   UNL d   1      -2.436   2.185  -1.836  0.00  0.00     0.124 A 
ATOM      2  C1  UNL d   1      -3.421   1.208  -1.801  0.00  0.00     0.062 A 
ATOM      3  C2  UNL d   1      -3.101  -0.119  -2.074  0.00  0.00     0.162 A 
ATOM      4  C3  UNL d   1      -1.789  -0.477  -2.383  0.00  0.00    -0.034 A 
ATOM      5  C4  UNL d   1      -0.804   0.512  -2.418  0.00  0.00     0.162 A 
ATOM      6  C5  UNL d   1      -1.129   1.837  -2.145  0.00  0.00     0.062 A 
ATOM      7  F   UNL d   1      -0.176   2.780  -2.179  0.00  0.00    -0.097 F 
ATOM      8  F1  UNL d   1       0.468   0.203  -2.712  0.00  0.00    -0.096 F 
ATOM      9  I   UNL d   1      -1.305  -2.459  -2.792  0.00  0.00    -0.060 I 
ATOM     10  F2  UNL d   1      -4.073  -1.042  -2.032  0.00  0.00    -0.096 F 
ATOM     11  F3  UNL d   1      -4.685   1.543  -1.504  0.00  0.00    -0.097 F 
ATOM     12  F4  UNL d   1      -2.747   3.461  -1.574  0.00  0.00    -0.092 F 
ENDROOT
TORSDOF 0
ENDMDL
