MODEL 1
REMARK minimizedAffinity 12.7261
REMARK minimizedRMSD -1
REMARK  0 active torsions:
REMARK  status: ('A' for Active; 'I' for Inactive)
ROOT
ATOM      1  C   UNL d   1      -3.976   3.979  -2.309  0.00  0.00     0.124 A 
ATOM      2  C1  UNL d   1      -2.752   4.283  -2.888  0.00  0.00     0.062 A 
ATOM      3  C2  UNL d   1      -1.736   3.333  -2.918  0.00  0.00     0.162 A 
ATOM      4  C3  UNL d   1      -1.939   2.068  -2.366  0.00  0.00    -0.034 A 
ATOM      5  C4  UNL d   1      -3.173   1.770  -1.783  0.00  0.00     0.162 A 
ATOM      6  C5  UNL d   1      -4.185   2.724  -1.757  0.00  0.00     0.062 A 
ATOM      7  F   UNL d   1      -5.367   2.428  -1.196  0.00  0.00    -0.097 F 
ATOM      8  F1  UNL d   1      -3.402   0.564  -1.243  0.00  0.00    -0.096 F 
ATOM      9  I   UNL d   1      -0.423   0.643  -2.407  0.00  0.00    -0.060 I 
ATOM     10  F2  UNL d   1      -0.563   3.654  -3.484  0.00  0.00    -0.096 F 
ATOM     11  F3  UNL d   1      -2.547   5.496  -3.422  0.00  0.00    -0.097 F 
ATOM     12  F4  UNL d   1      -4.952   4.896  -2.281  0.00  0.00    -0.092 F 
ENDROOT
TORSDOF 0
ENDMDL
