MODEL 1
REMARK minimizedAffinity -0.916019976
REMARK minimizedRMSD -1
REMARK  0 active torsions:
REMARK  status: ('A' for Active; 'I' for Inactive)
ROOT
ATOM      1  C   UNL d   1      -5.243   0.193   2.373  0.00  0.00     0.124 A 
ATOM      2  C1  UNL d   1      -5.175   0.617   3.693  0.00  0.00     0.062 A 
ATOM      3  C2  UNL d   1      -5.386  -0.288   4.730  0.00  0.00     0.162 A 
ATOM      4  C3  UNL d   1      -5.665  -1.625   4.451  0.00  0.00    -0.034 A 
ATOM      5  C4  UNL d   1      -5.733  -2.044   3.121  0.00  0.00     0.162 A 
ATOM      6  C5  UNL d   1      -5.521  -1.136   2.088  0.00  0.00     0.062 A 
ATOM      7  F   UNL d   1      -5.587  -1.548   0.813  0.00  0.00    -0.097 F 
ATOM      8  F1  UNL d   1      -5.999  -3.323   2.817  0.00  0.00    -0.096 F 
ATOM      9  I   UNL d   1      -5.981  -2.981   5.999  0.00  0.00    -0.060 I 
ATOM     10  F2  UNL d   1      -5.314   0.150   5.996  0.00  0.00    -0.096 F 
ATOM     11  F3  UNL d   1      -4.907   1.901   3.970  0.00  0.00    -0.097 F 
ATOM     12  F4  UNL d   1      -5.041   1.065   1.377  0.00  0.00    -0.092 F 
ENDROOT
TORSDOF 0
ENDMDL
