MODEL 1
REMARK minimizedAffinity 13.9336262
REMARK minimizedRMSD -1
REMARK  0 active torsions:
REMARK  status: ('A' for Active; 'I' for Inactive)
ROOT
ATOM      1  C   UNL d   1       3.371  -2.245  -1.123  0.00  0.00     0.124 A 
ATOM      2  C1  UNL d   1       4.341  -2.059  -2.098  0.00  0.00     0.062 A 
ATOM      3  C2  UNL d   1       4.758  -3.129  -2.884  0.00  0.00     0.162 A 
ATOM      4  C3  UNL d   1       4.203  -4.396  -2.699  0.00  0.00    -0.034 A 
ATOM      5  C4  UNL d   1       3.229  -4.575  -1.716  0.00  0.00     0.162 A 
ATOM      6  C5  UNL d   1       2.816  -3.502  -0.933  0.00  0.00     0.062 A 
ATOM      7  F   UNL d   1       1.878  -3.684   0.008  0.00  0.00    -0.097 F 
ATOM      8  F1  UNL d   1       2.675  -5.780  -1.512  0.00  0.00    -0.096 F 
ATOM      9  I   UNL d   1       4.824  -5.999  -3.873  0.00  0.00    -0.060 I 
ATOM     10  F2  UNL d   1       5.697  -2.921  -3.819  0.00  0.00    -0.096 F 
ATOM     11  F3  UNL d   1       4.880  -0.845  -2.283  0.00  0.00    -0.097 F 
ATOM     12  F4  UNL d   1       2.972  -1.213  -0.368  0.00  0.00    -0.092 F 
ENDROOT
TORSDOF 0
ENDMDL
