MODEL 1
REMARK minimizedAffinity 15.6787119
REMARK minimizedRMSD -1
REMARK  0 active torsions:
REMARK  status: ('A' for Active; 'I' for Inactive)
ROOT
ATOM      1  C   UNL d   1       1.483   0.206   1.743  0.00  0.00     0.124 A 
ATOM      2  C1  UNL d   1       1.457   0.073   0.362  0.00  0.00     0.062 A 
ATOM      3  C2  UNL d   1       0.300   0.380  -0.349  0.00  0.00     0.162 A 
ATOM      4  C3  UNL d   1      -0.840   0.824   0.321  0.00  0.00    -0.034 A 
ATOM      5  C4  UNL d   1      -0.806   0.954   1.710  0.00  0.00     0.162 A 
ATOM      6  C5  UNL d   1       0.352   0.646   2.416  0.00  0.00     0.062 A 
ATOM      7  F   UNL d   1       0.376   0.775   3.751  0.00  0.00    -0.097 F 
ATOM      8  F1  UNL d   1      -1.884   1.379   2.386  0.00  0.00    -0.096 F 
ATOM      9  I   UNL d   1      -2.572   1.285  -0.738  0.00  0.00    -0.060 I 
ATOM     10  F2  UNL d   1       0.303   0.242  -1.683  0.00  0.00    -0.096 F 
ATOM     11  F3  UNL d   1       2.548  -0.354  -0.290  0.00  0.00    -0.097 F 
ATOM     12  F4  UNL d   1       2.597  -0.092   2.425  0.00  0.00    -0.092 F 
ENDROOT
TORSDOF 0
ENDMDL
