MODEL 1
REMARK minimizedAffinity 1.32703936
REMARK minimizedRMSD -1
REMARK  0 active torsions:
REMARK  status: ('A' for Active; 'I' for Inactive)
ROOT
ATOM      1  C   UNL d   1       0.989   1.420   2.122  0.00  0.00     0.124 A 
ATOM      2  C1  UNL d   1       1.105   0.091   1.739  0.00  0.00     0.062 A 
ATOM      3  C2  UNL d   1       0.882  -0.279   0.416  0.00  0.00     0.162 A 
ATOM      4  C3  UNL d   1       0.541   0.683  -0.535  0.00  0.00    -0.034 A 
ATOM      5  C4  UNL d   1       0.426   2.018  -0.142  0.00  0.00     0.162 A 
ATOM      6  C5  UNL d   1       0.650   2.382   1.181  0.00  0.00     0.062 A 
ATOM      7  F   UNL d   1       0.538   3.666   1.549  0.00  0.00    -0.097 F 
ATOM      8  F1  UNL d   1       0.100   2.968  -1.031  0.00  0.00    -0.096 F 
ATOM      9  I   UNL d   1       0.207   0.135  -2.515  0.00  0.00    -0.060 I 
ATOM     10  F2  UNL d   1       1.000  -1.570   0.074  0.00  0.00    -0.096 F 
ATOM     11  F3  UNL d   1       1.431  -0.841   2.647  0.00  0.00    -0.097 F 
ATOM     12  F4  UNL d   1       1.203   1.772   3.396  0.00  0.00    -0.092 F 
ENDROOT
TORSDOF 0
ENDMDL
