MODEL 1
REMARK minimizedAffinity 13.2178574
REMARK minimizedRMSD -1
REMARK  2 active torsions:
REMARK  status: ('A' for Active; 'I' for Inactive)
REMARK    1  A    between atoms: C1_2  and  C2_3 
REMARK    2  A    between atoms: C2_3  and  C3_4 
ROOT
ATOM      1  C3  UNL d   1      -3.853   2.964  -0.154  0.00  0.00    -0.075 A 
ATOM      2  C4  UNL d   1      -3.510   3.061   1.203  0.00  0.00     0.002 A 
ATOM      3  C5  UNL d   1      -4.387   3.647   2.115  0.00  0.00     0.002 A 
ATOM      4  C6  UNL d   1      -5.612   4.152   1.683  0.00  0.00    -0.004 A 
ATOM      5  C7  UNL d   1      -5.956   4.076   0.335  0.00  0.00     0.002 A 
ATOM      6  C8  UNL d   1      -5.082   3.486  -0.579  0.00  0.00     0.002 A 
ENDROOT
BRANCH   1   7
ATOM      7  C2  UNL d   1      -2.920   2.304  -1.141  0.00  0.00     0.056 C 
BRANCH   7   8
ATOM      8  C1  UNL d   1      -3.404   2.367  -2.594  0.00  0.00     0.007 C 
ATOM      9  C   UNL d   1      -4.047   1.071  -3.070  0.00  0.00     0.009 C 
ENDBRANCH   7   8
ENDBRANCH   1   7
TORSDOF 2
ENDMDL
