MODEL 1
REMARK minimizedAffinity 11.307025
REMARK minimizedRMSD -1
REMARK  2 active torsions:
REMARK  status: ('A' for Active; 'I' for Inactive)
REMARK    1  A    between atoms: C1_2  and  C2_3 
REMARK    2  A    between atoms: C2_3  and  C3_4 
ROOT
ATOM      1  C3  UNL d   1       1.887  -3.690   3.080  0.00  0.00    -0.075 A 
ATOM      2  C4  UNL d   1       1.915  -2.761   4.130  0.00  0.00     0.002 A 
ATOM      3  C5  UNL d   1       1.353  -1.494   3.970  0.00  0.00     0.002 A 
ATOM      4  C6  UNL d   1       0.765  -1.137   2.758  0.00  0.00    -0.004 A 
ATOM      5  C7  UNL d   1       0.746  -2.047   1.703  0.00  0.00     0.002 A 
ATOM      6  C8  UNL d   1       1.304  -3.316   1.861  0.00  0.00     0.002 A 
ENDROOT
BRANCH   1   7
ATOM      7  C2  UNL d   1       2.468  -5.073   3.256  0.00  0.00     0.056 C 
BRANCH   7   8
ATOM      8  C1  UNL d   1       2.257  -5.996   2.051  0.00  0.00     0.007 C 
ATOM      9  C   UNL d   1       3.434  -6.000   1.085  0.00  0.00     0.009 C 
ENDBRANCH   7   8
ENDBRANCH   1   7
TORSDOF 2
ENDMDL
