MODEL 1
REMARK minimizedAffinity 4.85556412
REMARK minimizedRMSD -1
REMARK  2 active torsions:
REMARK  status: ('A' for Active; 'I' for Inactive)
REMARK    1  A    between atoms: C1_2  and  C2_3 
REMARK    2  A    between atoms: C2_3  and  C3_4 
ROOT
ATOM      1  C3  UNL d   1      -0.146  -2.457   1.517  0.00  0.00    -0.075 A 
ATOM      2  C4  UNL d   1      -1.507  -2.122   1.541  0.00  0.00     0.002 A 
ATOM      3  C5  UNL d   1      -2.460  -2.994   1.013  0.00  0.00     0.002 A 
ATOM      4  C6  UNL d   1      -2.065  -4.204   0.447  0.00  0.00    -0.004 A 
ATOM      5  C7  UNL d   1      -0.713  -4.539   0.403  0.00  0.00     0.002 A 
ATOM      6  C8  UNL d   1       0.242  -3.671   0.934  0.00  0.00     0.002 A 
ENDROOT
BRANCH   1   7
ATOM      7  C2  UNL d   1       0.888  -1.531   2.113  0.00  0.00     0.056 C 
BRANCH   7   8
ATOM      8  C1  UNL d   1       1.677  -0.726   1.075  0.00  0.00     0.007 C 
ATOM      9  C   UNL d   1       1.437   0.775   1.171  0.00  0.00     0.009 C 
ENDBRANCH   7   8
ENDBRANCH   1   7
TORSDOF 2
ENDMDL
