MODEL 1
REMARK minimizedAffinity 1.16890454
REMARK minimizedRMSD -1
REMARK  2 active torsions:
REMARK  status: ('A' for Active; 'I' for Inactive)
REMARK    1  A    between atoms: C1_2  and  C2_3 
REMARK    2  A    between atoms: C2_3  and  C3_4 
ROOT
ATOM      1  C3  UNL d   1       4.521  -1.511  -3.812  0.00  0.00    -0.075 A 
ATOM      2  C4  UNL d   1       5.638  -1.833  -4.595  0.00  0.00     0.002 A 
ATOM      3  C5  UNL d   1       5.999  -1.032  -5.679  0.00  0.00     0.002 A 
ATOM      4  C6  UNL d   1       5.242   0.093  -5.999  0.00  0.00    -0.004 A 
ATOM      5  C7  UNL d   1       4.120   0.413  -5.238  0.00  0.00     0.002 A 
ATOM      6  C8  UNL d   1       3.760  -0.384  -4.151  0.00  0.00     0.002 A 
ENDROOT
BRANCH   1   7
ATOM      7  C2  UNL d   1       4.142  -2.358  -2.620  0.00  0.00     0.056 C 
BRANCH   7   8
ATOM      8  C1  UNL d   1       2.642  -2.649  -2.513  0.00  0.00     0.007 C 
ATOM      9  C   UNL d   1       2.306  -4.128  -2.652  0.00  0.00     0.009 C 
ENDBRANCH   7   8
ENDBRANCH   1   7
TORSDOF 2
ENDMDL
