MODEL 1
REMARK minimizedAffinity 2.82763457
REMARK minimizedRMSD -1
REMARK  2 active torsions:
REMARK  status: ('A' for Active; 'I' for Inactive)
REMARK    1  A    between atoms: C1_2  and  C2_3 
REMARK    2  A    between atoms: C2_3  and  C3_4 
ROOT
ATOM      1  C3  UNL d   1       1.852  -2.996   3.515  0.00  0.00    -0.075 A 
ATOM      2  C4  UNL d   1       3.166  -2.847   3.049  0.00  0.00     0.002 A 
ATOM      3  C5  UNL d   1       3.476  -1.866   2.107  0.00  0.00     0.002 A 
ATOM      4  C6  UNL d   1       2.477  -1.031   1.611  0.00  0.00    -0.004 A 
ATOM      5  C7  UNL d   1       1.165  -1.181   2.055  0.00  0.00     0.002 A 
ATOM      6  C8  UNL d   1       0.853  -2.159   3.001  0.00  0.00     0.002 A 
ENDROOT
BRANCH   1   7
ATOM      7  C2  UNL d   1       1.515  -4.036   4.556  0.00  0.00     0.056 C 
BRANCH   7   8
ATOM      8  C1  UNL d   1       2.428  -5.266   4.528  0.00  0.00     0.007 C 
ATOM      9  C   UNL d   1       2.494  -5.997   5.862  0.00  0.00     0.009 C 
ENDBRANCH   7   8
ENDBRANCH   1   7
TORSDOF 2
ENDMDL
