MODEL 1
REMARK minimizedAffinity 7.83363008
REMARK minimizedRMSD -1
REMARK  2 active torsions:
REMARK  status: ('A' for Active; 'I' for Inactive)
REMARK    1  A    between atoms: C1_2  and  C2_3 
REMARK    2  A    between atoms: C2_3  and  C3_4 
ROOT
ATOM      1  C3  UNL d   1       2.596  -1.100  -0.362  0.00  0.00    -0.075 A 
ATOM      2  C4  UNL d   1       1.746  -1.874  -1.165  0.00  0.00     0.002 A 
ATOM      3  C5  UNL d   1       2.150  -2.282  -2.436  0.00  0.00     0.002 A 
ATOM      4  C6  UNL d   1       3.402  -1.914  -2.925  0.00  0.00    -0.004 A 
ATOM      5  C7  UNL d   1       4.248  -1.131  -2.142  0.00  0.00     0.002 A 
ATOM      6  C8  UNL d   1       3.848  -0.725  -0.868  0.00  0.00     0.002 A 
ENDROOT
BRANCH   1   7
ATOM      7  C2  UNL d   1       2.177  -0.680   1.026  0.00  0.00     0.056 C 
BRANCH   7   8
ATOM      8  C1  UNL d   1       1.164  -1.623   1.684  0.00  0.00     0.007 C 
ATOM      9  C   UNL d   1       1.730  -2.372   2.883  0.00  0.00     0.009 C 
ENDBRANCH   7   8
ENDBRANCH   1   7
TORSDOF 2
ENDMDL
