MODEL 1
REMARK minimizedAffinity 1.0041219
REMARK minimizedRMSD -1
REMARK  2 active torsions:
REMARK  status: ('A' for Active; 'I' for Inactive)
REMARK    1  A    between atoms: C1_2  and  C2_3 
REMARK    2  A    between atoms: C2_3  and  C3_4 
ROOT
ATOM      1  C3  UNL d   1       3.594  -2.475   3.201  0.00  0.00    -0.075 A 
ATOM      2  C4  UNL d   1       2.539  -2.821   4.058  0.00  0.00     0.002 A 
ATOM      3  C5  UNL d   1       1.265  -2.286   3.866  0.00  0.00     0.002 A 
ATOM      4  C6  UNL d   1       1.032  -1.393   2.822  0.00  0.00    -0.004 A 
ATOM      5  C7  UNL d   1       2.076  -1.030   1.974  0.00  0.00     0.002 A 
ATOM      6  C8  UNL d   1       3.351  -1.567   2.162  0.00  0.00     0.002 A 
ENDROOT
BRANCH   1   7
ATOM      7  C2  UNL d   1       4.968  -3.074   3.387  0.00  0.00     0.056 C 
BRANCH   7   8
ATOM      8  C1  UNL d   1       5.917  -2.209   4.223  0.00  0.00     0.007 C 
ATOM      9  C   UNL d   1       5.959  -2.612   5.691  0.00  0.00     0.009 C 
ENDBRANCH   7   8
ENDBRANCH   1   7
TORSDOF 2
ENDMDL
