MODEL 1
REMARK minimizedAffinity 6.65828705
REMARK minimizedRMSD -1
REMARK  2 active torsions:
REMARK  status: ('A' for Active; 'I' for Inactive)
REMARK    1  A    between atoms: C1_2  and  C2_3 
REMARK    2  A    between atoms: C2_3  and  C3_4 
ROOT
ATOM      1  C3  UNL d   1      -4.330  -3.271  -5.552  0.00  0.00    -0.075 A 
ATOM      2  C4  UNL d   1      -5.649  -3.671  -5.810  0.00  0.00     0.002 A 
ATOM      3  C5  UNL d   1      -5.957  -5.019  -5.997  0.00  0.00     0.002 A 
ATOM      4  C6  UNL d   1      -4.950  -5.981  -5.938  0.00  0.00    -0.004 A 
ATOM      5  C7  UNL d   1      -3.634  -5.593  -5.699  0.00  0.00     0.002 A 
ATOM      6  C8  UNL d   1      -3.324  -4.245  -5.507  0.00  0.00     0.002 A 
ENDROOT
BRANCH   1   7
ATOM      7  C2  UNL d   1      -3.996  -1.817  -5.319  0.00  0.00     0.056 C 
BRANCH   7   8
ATOM      8  C1  UNL d   1      -3.912  -1.425  -3.840  0.00  0.00     0.007 C 
ATOM      9  C   UNL d   1      -3.775   0.077  -3.624  0.00  0.00     0.009 C 
ENDBRANCH   7   8
ENDBRANCH   1   7
TORSDOF 2
ENDMDL
