MODEL 1
REMARK minimizedAffinity 16.991045
REMARK minimizedRMSD -1
REMARK  2 active torsions:
REMARK  status: ('A' for Active; 'I' for Inactive)
REMARK    1  A    between atoms: C1_2  and  C2_3 
REMARK    2  A    between atoms: C2_3  and  C3_4 
ROOT
ATOM      1  C3  UNL d   1      -4.795   2.846  -1.691  0.00  0.00    -0.075 A 
ATOM      2  C4  UNL d   1      -3.679   2.878  -0.842  0.00  0.00     0.002 A 
ATOM      3  C5  UNL d   1      -2.565   2.080  -1.105  0.00  0.00     0.002 A 
ATOM      4  C6  UNL d   1      -2.557   1.235  -2.213  0.00  0.00    -0.004 A 
ATOM      5  C7  UNL d   1      -3.666   1.182  -3.053  0.00  0.00     0.002 A 
ATOM      6  C8  UNL d   1      -4.780   1.982  -2.794  0.00  0.00     0.002 A 
ENDROOT
BRANCH   1   7
ATOM      7  C2  UNL d   1      -5.992   3.728  -1.427  0.00  0.00     0.056 C 
BRANCH   7   8
ATOM      8  C1  UNL d   1      -5.949   4.450  -0.076  0.00  0.00     0.007 C 
ATOM      9  C   UNL d   1      -5.978   5.967  -0.205  0.00  0.00     0.009 C 
ENDBRANCH   7   8
ENDBRANCH   1   7
TORSDOF 2
ENDMDL
