MODEL 1
REMARK minimizedAffinity 7.20281982
REMARK minimizedRMSD -1
REMARK  0 active torsions:
REMARK  status: ('A' for Active; 'I' for Inactive)
ROOT
ATOM      1  O1  BZF d   1      -1.880   5.071   4.869  0.00  0.00    -0.204 OA
ATOM      2  C2  BZF d   1      -2.331   5.723   6.000  0.00  0.00     0.174 A 
ATOM      3  C3  BZF d   1      -3.647   6.000   5.900  0.00  0.00    -0.012 A 
ATOM      4  C3A BZF d   1      -4.064   5.406   4.666  0.00  0.00    -0.107 A 
ATOM      5  C4  BZF d   1      -5.264   5.326   4.021  0.00  0.00     0.055 A 
ATOM      6  C5  BZF d   1      -5.318   4.740   2.796  0.00  0.00    -0.016 A 
ATOM      7  C6  BZF d   1      -4.192   4.227   2.187  0.00  0.00     0.022 A 
ATOM      8  C7  BZF d   1      -2.980   4.278   2.790  0.00  0.00     0.029 A 
ATOM      9  C7A BZF d   1      -2.928   4.841   4.042  0.00  0.00     0.058 A 
ENDROOT
TORSDOF 0
ENDMDL
