MODEL 1
REMARK minimizedAffinity 14.3779078
REMARK minimizedRMSD -1
REMARK  0 active torsions:
REMARK  status: ('A' for Active; 'I' for Inactive)
ROOT
ATOM      1  O1  BZF d   1       0.243   1.021  -3.672  0.00  0.00    -0.204 OA
ATOM      2  C2  BZF d   1       1.115   1.377  -4.683  0.00  0.00     0.174 A 
ATOM      3  C3  BZF d   1       2.383   1.058  -4.355  0.00  0.00    -0.012 A 
ATOM      4  C3A BZF d   1       2.288   0.381  -3.098  0.00  0.00    -0.107 A 
ATOM      5  C4  BZF d   1       3.209  -0.191  -2.268  0.00  0.00     0.055 A 
ATOM      6  C5  BZF d   1       2.797  -0.704  -1.079  0.00  0.00    -0.016 A 
ATOM      7  C6  BZF d   1       1.476  -0.658  -0.686  0.00  0.00     0.022 A 
ATOM      8  C7  BZF d   1       0.525  -0.105  -1.478  0.00  0.00     0.029 A 
ATOM      9  C7A BZF d   1       0.933   0.385  -2.695  0.00  0.00     0.058 A 
ENDROOT
TORSDOF 0
ENDMDL
