MODEL 1
REMARK minimizedAffinity 2.14655447
REMARK minimizedRMSD -1
REMARK  0 active torsions:
REMARK  status: ('A' for Active; 'I' for Inactive)
ROOT
ATOM      1  O1  BZF d   1      -2.306   4.707   5.218  0.00  0.00    -0.204 OA
ATOM      2  C2  BZF d   1      -3.039   5.593   5.983  0.00  0.00     0.174 A 
ATOM      3  C3  BZF d   1      -4.141   6.000   5.320  0.00  0.00    -0.012 A 
ATOM      4  C3A BZF d   1      -4.141   5.254   4.099  0.00  0.00    -0.107 A 
ATOM      5  C4  BZF d   1      -4.989   5.206   3.029  0.00  0.00     0.055 A 
ATOM      6  C5  BZF d   1      -4.664   4.427   1.964  0.00  0.00    -0.016 A 
ATOM      7  C6  BZF d   1      -3.499   3.688   1.933  0.00  0.00     0.022 A 
ATOM      8  C7  BZF d   1      -2.630   3.701   2.972  0.00  0.00     0.029 A 
ATOM      9  C7A BZF d   1      -2.971   4.461   4.064  0.00  0.00     0.058 A 
ENDROOT
TORSDOF 0
ENDMDL
