MODEL 1
REMARK minimizedAffinity 13.3744221
REMARK minimizedRMSD -1
REMARK  0 active torsions:
REMARK  status: ('A' for Active; 'I' for Inactive)
ROOT
ATOM      1  O1  BZF d   1       1.161   2.435  -5.103  0.00  0.00    -0.204 OA
ATOM      2  C2  BZF d   1       0.524   1.599  -6.000  0.00  0.00     0.174 A 
ATOM      3  C3  BZF d   1       0.286   0.394  -5.444  0.00  0.00    -0.012 A 
ATOM      4  C3A BZF d   1       0.724   0.512  -4.087  0.00  0.00    -0.107 A 
ATOM      5  C4  BZF d   1       0.734  -0.347  -3.025  0.00  0.00     0.055 A 
ATOM      6  C5  BZF d   1       1.298   0.055  -1.856  0.00  0.00    -0.016 A 
ATOM      7  C6  BZF d   1       1.865   1.305  -1.715  0.00  0.00     0.022 A 
ATOM      8  C7  BZF d   1       1.875   2.193  -2.738  0.00  0.00     0.029 A 
ATOM      9  C7A BZF d   1       1.276   1.802  -3.911  0.00  0.00     0.058 A 
ENDROOT
TORSDOF 0
ENDMDL
