MODEL 1
REMARK minimizedAffinity -3.52334857
REMARK minimizedRMSD -1
REMARK  0 active torsions:
REMARK  status: ('A' for Active; 'I' for Inactive)
ROOT
ATOM      1  O1  BZF d   1       3.968  -5.003   5.106  0.00  0.00    -0.204 OA
ATOM      2  C2  BZF d   1       5.019  -5.557   5.812  0.00  0.00     0.174 A 
ATOM      3  C3  BZF d   1       6.000  -4.651   6.000  0.00  0.00    -0.012 A 
ATOM      4  C3A BZF d   1       5.494  -3.430   5.452  0.00  0.00    -0.107 A 
ATOM      5  C4  BZF d   1       6.000  -2.165   5.353  0.00  0.00     0.055 A 
ATOM      6  C5  BZF d   1       5.282  -1.216   4.696  0.00  0.00    -0.016 A 
ATOM      7  C6  BZF d   1       4.059  -1.498   4.123  0.00  0.00     0.022 A 
ATOM      8  C7  BZF d   1       3.514  -2.737   4.200  0.00  0.00     0.029 A 
ATOM      9  C7A BZF d   1       4.222  -3.689   4.892  0.00  0.00     0.058 A 
ENDROOT
TORSDOF 0
ENDMDL
