MODEL 1
REMARK minimizedAffinity 8.94926167
REMARK minimizedRMSD -1
REMARK  0 active torsions:
REMARK  status: ('A' for Active; 'I' for Inactive)
ROOT
ATOM      1  O1  BZF d   1      -4.862   4.819   3.463  0.00  0.00    -0.204 OA
ATOM      2  C2  BZF d   1      -4.501   3.798   2.606  0.00  0.00     0.174 A 
ATOM      3  C3  BZF d   1      -3.232   3.403   2.838  0.00  0.00    -0.012 A 
ATOM      4  C3A BZF d   1      -2.802   4.166   3.970  0.00  0.00    -0.107 A 
ATOM      5  C4  BZF d   1      -1.640   4.212   4.685  0.00  0.00     0.055 A 
ATOM      6  C5  BZF d   1      -1.517   5.120   5.688  0.00  0.00    -0.016 A 
ATOM      7  C6  BZF d   1      -2.532   6.000   6.000  0.00  0.00     0.022 A 
ATOM      8  C7  BZF d   1      -3.706   5.989   5.322  0.00  0.00     0.029 A 
ATOM      9  C7A BZF d   1      -3.846   5.051   4.329  0.00  0.00     0.058 A 
ENDROOT
TORSDOF 0
ENDMDL
