MODEL 1
REMARK minimizedAffinity -1.58751154
REMARK minimizedRMSD -1
REMARK  0 active torsions:
REMARK  status: ('A' for Active; 'I' for Inactive)
ROOT
ATOM      1  O1  BZF d   1      -2.239   5.458   4.484  0.00  0.00    -0.204 OA
ATOM      2  C2  BZF d   1      -3.022   5.862   5.548  0.00  0.00     0.174 A 
ATOM      3  C3  BZF d   1      -4.309   5.998   5.170  0.00  0.00    -0.012 A 
ATOM      4  C3A BZF d   1      -4.348   5.569   3.805  0.00  0.00    -0.107 A 
ATOM      5  C4  BZF d   1      -5.350   5.458   2.884  0.00  0.00     0.055 A 
ATOM      6  C5  BZF d   1      -5.042   5.075   1.617  0.00  0.00    -0.016 A 
ATOM      7  C6  BZF d   1      -3.745   4.801   1.236  0.00  0.00     0.022 A 
ATOM      8  C7  BZF d   1      -2.718   4.892   2.116  0.00  0.00     0.029 A 
ATOM      9  C7A BZF d   1      -3.030   5.247   3.405  0.00  0.00     0.058 A 
ENDROOT
TORSDOF 0
ENDMDL
