MODEL 1
REMARK minimizedAffinity 12.1887712
REMARK minimizedRMSD -1
REMARK  0 active torsions:
REMARK  status: ('A' for Active; 'I' for Inactive)
ROOT
ATOM      1  O1  BZF d   1      -1.865   4.921   4.892  0.00  0.00    -0.204 OA
ATOM      2  C2  BZF d   1      -2.220   5.686   5.985  0.00  0.00     0.174 A 
ATOM      3  C3  BZF d   1      -3.531   6.000   5.944  0.00  0.00    -0.012 A 
ATOM      4  C3A BZF d   1      -4.046   5.315   4.798  0.00  0.00    -0.107 A 
ATOM      5  C4  BZF d   1      -5.289   5.223   4.240  0.00  0.00     0.055 A 
ATOM      6  C5  BZF d   1      -5.441   4.533   3.079  0.00  0.00    -0.016 A 
ATOM      7  C6  BZF d   1      -4.374   3.928   2.448  0.00  0.00     0.022 A 
ATOM      8  C7  BZF d   1      -3.123   3.988   2.966  0.00  0.00     0.029 A 
ATOM      9  C7A BZF d   1      -2.972   4.657   4.156  0.00  0.00     0.058 A 
ENDROOT
TORSDOF 0
ENDMDL
