MODEL 1
REMARK minimizedAffinity 16.6755695
REMARK minimizedRMSD -1
REMARK  0 active torsions:
REMARK  status: ('A' for Active; 'I' for Inactive)
ROOT
ATOM      1  O1  BZF d   1       0.107   0.698  -3.319  0.00  0.00    -0.204 OA
ATOM      2  C2  BZF d   1       0.960   1.754  -3.066  0.00  0.00     0.174 A 
ATOM      3  C3  BZF d   1       1.937   1.387  -2.212  0.00  0.00    -0.012 A 
ATOM      4  C3A BZF d   1       1.732  -0.011  -1.985  0.00  0.00    -0.107 A 
ATOM      5  C4  BZF d   1       2.389  -0.948  -1.240  0.00  0.00     0.055 A 
ATOM      6  C5  BZF d   1       1.889  -2.210  -1.175  0.00  0.00    -0.016 A 
ATOM      7  C6  BZF d   1       0.733  -2.568  -1.837  0.00  0.00     0.022 A 
ATOM      8  C7  BZF d   1       0.049  -1.675  -2.593  0.00  0.00     0.029 A 
ATOM      9  C7A BZF d   1       0.570  -0.407  -2.687  0.00  0.00     0.058 A 
ENDROOT
TORSDOF 0
ENDMDL
