MODEL 1
REMARK minimizedAffinity 1.47821033
REMARK minimizedRMSD -1
REMARK  0 active torsions:
REMARK  status: ('A' for Active; 'I' for Inactive)
ROOT
ATOM      1  O1  BZF d   1       4.138  -5.574   5.847  0.00  0.00    -0.204 OA
ATOM      2  C2  BZF d   1       5.507  -5.753   5.893  0.00  0.00     0.174 A 
ATOM      3  C3  BZF d   1       6.000  -6.000   4.662  0.00  0.00    -0.012 A 
ATOM      4  C3A BZF d   1       4.880  -5.881   3.779  0.00  0.00    -0.107 A 
ATOM      5  C4  BZF d   1       4.735  -5.999   2.426  0.00  0.00     0.055 A 
ATOM      6  C5  BZF d   1       3.494  -5.897   1.883  0.00  0.00    -0.016 A 
ATOM      7  C6  BZF d   1       2.376  -5.683   2.663  0.00  0.00     0.022 A 
ATOM      8  C7  BZF d   1       2.471  -5.554   4.009  0.00  0.00     0.029 A 
ATOM      9  C7A BZF d   1       3.728  -5.623   4.557  0.00  0.00     0.058 A 
ENDROOT
TORSDOF 0
ENDMDL
