MODEL 1
REMARK minimizedAffinity 11.8205471
REMARK minimizedRMSD -1
REMARK  0 active torsions:
REMARK  status: ('A' for Active; 'I' for Inactive)
ROOT
ATOM      1  O1  BZF d   1      -4.377   5.661   5.120  0.00  0.00    -0.204 OA
ATOM      2  C2  BZF d   1      -3.099   5.198   5.361  0.00  0.00     0.174 A 
ATOM      3  C3  BZF d   1      -2.641   4.488   4.310  0.00  0.00    -0.012 A 
ATOM      4  C3A BZF d   1      -3.664   4.587   3.315  0.00  0.00    -0.107 A 
ATOM      5  C4  BZF d   1      -3.787   4.105   2.043  0.00  0.00     0.055 A 
ATOM      6  C5  BZF d   1      -4.944   4.320   1.364  0.00  0.00    -0.016 A 
ATOM      7  C6  BZF d   1      -6.000   5.006   1.927  0.00  0.00     0.022 A 
ATOM      8  C7  BZF d   1      -5.923   5.508   3.184  0.00  0.00     0.029 A 
ATOM      9  C7A BZF d   1      -4.742   5.322   3.860  0.00  0.00     0.058 A 
ENDROOT
TORSDOF 0
ENDMDL
