MODEL 1
REMARK minimizedAffinity 2.65448642
REMARK minimizedRMSD -1
REMARK  0 active torsions:
REMARK  status: ('A' for Active; 'I' for Inactive)
ROOT
ATOM      1  O1  BZF d   1      -2.830   4.033   4.590  0.00  0.00    -0.204 OA
ATOM      2  C2  BZF d   1      -3.739   4.855   5.227  0.00  0.00     0.174 A 
ATOM      3  C3  BZF d   1      -4.978   4.323   5.183  0.00  0.00    -0.012 A 
ATOM      4  C3A BZF d   1      -4.817   3.048   4.554  0.00  0.00    -0.107 A 
ATOM      5  C4  BZF d   1      -5.684   2.040   4.239  0.00  0.00     0.055 A 
ATOM      6  C5  BZF d   1      -5.220   0.958   3.561  0.00  0.00    -0.016 A 
ATOM      7  C6  BZF d   1      -3.899   0.852   3.179  0.00  0.00     0.022 A 
ATOM      8  C7  BZF d   1      -3.001   1.823   3.473  0.00  0.00     0.029 A 
ATOM      9  C7A BZF d   1      -3.459   2.904   4.186  0.00  0.00     0.058 A 
ENDROOT
TORSDOF 0
ENDMDL
