MODEL 1
REMARK minimizedAffinity 17.9761143
REMARK minimizedRMSD -1
REMARK  0 active torsions:
REMARK  status: ('A' for Active; 'I' for Inactive)
ROOT
ATOM      1  O1  BZF d   1      -3.795   0.279   4.132  0.00  0.00    -0.204 OA
ATOM      2  C2  BZF d   1      -4.926   0.384   4.917  0.00  0.00     0.174 A 
ATOM      3  C3  BZF d   1      -5.977  -0.221   4.326  0.00  0.00    -0.012 A 
ATOM      4  C3A BZF d   1      -5.448  -0.816   3.137  0.00  0.00    -0.107 A 
ATOM      5  C4  BZF d   1      -5.999  -1.567   2.139  0.00  0.00     0.055 A 
ATOM      6  C5  BZF d   1      -5.226  -1.930   1.082  0.00  0.00    -0.016 A 
ATOM      7  C6  BZF d   1      -3.901  -1.555   0.989  0.00  0.00     0.022 A 
ATOM      8  C7  BZF d   1      -3.310  -0.814   1.957  0.00  0.00     0.029 A 
ATOM      9  C7A BZF d   1      -4.080  -0.474   3.042  0.00  0.00     0.058 A 
ENDROOT
TORSDOF 0
ENDMDL
