MODEL 1
REMARK minimizedAffinity 12.8396273
REMARK minimizedRMSD -1
REMARK  0 active torsions:
REMARK  status: ('A' for Active; 'I' for Inactive)
ROOT
ATOM      1  O1  BZF d   1       0.283   0.797  -4.753  0.00  0.00    -0.204 OA
ATOM      2  C2  BZF d   1       0.741   1.895  -5.454  0.00  0.00     0.174 A 
ATOM      3  C3  BZF d   1       1.697   2.543  -4.758  0.00  0.00    -0.012 A 
ATOM      4  C3A BZF d   1       1.912   1.750  -3.587  0.00  0.00    -0.107 A 
ATOM      5  C4  BZF d   1       2.751   1.865  -2.516  0.00  0.00     0.055 A 
ATOM      6  C5  BZF d   1       2.660   0.961  -1.505  0.00  0.00    -0.016 A 
ATOM      7  C6  BZF d   1       1.740  -0.066  -1.530  0.00  0.00     0.022 A 
ATOM      8  C7  BZF d   1       0.889  -0.224  -2.574  0.00  0.00     0.029 A 
ATOM      9  C7A BZF d   1       1.001   0.668  -3.612  0.00  0.00     0.058 A 
ENDROOT
TORSDOF 0
ENDMDL
