MODEL 1
REMARK minimizedAffinity 5.74013996
REMARK minimizedRMSD -1
REMARK  0 active torsions:
REMARK  status: ('A' for Active; 'I' for Inactive)
ROOT
ATOM      1  O1  BZF d   1       2.161   2.087  -3.679  0.00  0.00    -0.204 OA
ATOM      2  C2  BZF d   1       1.422   1.118  -3.028  0.00  0.00     0.174 A 
ATOM      3  C3  BZF d   1       1.347   1.380  -1.707  0.00  0.00    -0.012 A 
ATOM      4  C3A BZF d   1       2.007   2.638  -1.536  0.00  0.00    -0.107 A 
ATOM      5  C4  BZF d   1       2.246   3.433  -0.451  0.00  0.00     0.055 A 
ATOM      6  C5  BZF d   1       2.983   4.564  -0.610  0.00  0.00    -0.016 A 
ATOM      7  C6  BZF d   1       3.500   4.927  -1.837  0.00  0.00     0.022 A 
ATOM      8  C7  BZF d   1       3.286   4.173  -2.942  0.00  0.00     0.029 A 
ATOM      9  C7A BZF d   1       2.514   3.047  -2.791  0.00  0.00     0.058 A 
ENDROOT
TORSDOF 0
ENDMDL
