MODEL 1
REMARK minimizedAffinity 10.8766489
REMARK minimizedRMSD -1
REMARK  0 active torsions:
REMARK  status: ('A' for Active; 'I' for Inactive)
ROOT
ATOM      1  O1  BZF d   1       1.029  -0.799  -4.811  0.00  0.00    -0.204 OA
ATOM      2  C2  BZF d   1       1.113   0.487  -5.307  0.00  0.00     0.174 A 
ATOM      3  C3  BZF d   1       1.504   1.347  -4.345  0.00  0.00    -0.012 A 
ATOM      4  C3A BZF d   1       1.765   0.534  -3.197  0.00  0.00    -0.107 A 
ATOM      5  C4  BZF d   1       2.199   0.807  -1.931  0.00  0.00     0.055 A 
ATOM      6  C5  BZF d   1       2.279  -0.205  -1.028  0.00  0.00    -0.016 A 
ATOM      7  C6  BZF d   1       1.928  -1.499  -1.353  0.00  0.00     0.022 A 
ATOM      8  C7  BZF d   1       1.497  -1.819  -2.597  0.00  0.00     0.029 A 
ATOM      9  C7A BZF d   1       1.447  -0.805  -3.522  0.00  0.00     0.058 A 
ENDROOT
TORSDOF 0
ENDMDL
