MODEL 1
REMARK minimizedAffinity 14.4091702
REMARK minimizedRMSD -1
REMARK  0 active torsions:
REMARK  status: ('A' for Active; 'I' for Inactive)
ROOT
ATOM      1  C2' OXE d   1      -4.313   0.192   3.286  0.00  0.00     0.078 C 
ATOM      2  C1' OXE d   1      -4.098   2.936   2.734  0.00  0.00     0.078 C 
ATOM      3  C1  OXE d   1      -2.833   2.115   2.721  0.00  0.00    -0.078 A 
ATOM      4  C2  OXE d   1      -2.941   0.782   3.038  0.00  0.00    -0.078 A 
ATOM      5  C3  OXE d   1      -1.814  -0.033   2.987  0.00  0.00     0.003 A 
ATOM      6  C4  OXE d   1      -0.548   0.523   2.767  0.00  0.00    -0.002 A 
ATOM      7  C5  OXE d   1      -0.410   1.885   2.481  0.00  0.00    -0.002 A 
ATOM      8  C6  OXE d   1      -1.545   2.685   2.412  0.00  0.00     0.003 A 
ENDROOT
TORSDOF 0
ENDMDL
