MODEL 1
REMARK minimizedAffinity -5.21257305
REMARK minimizedRMSD -1
REMARK  0 active torsions:
REMARK  status: ('A' for Active; 'I' for Inactive)
ROOT
ATOM      1  C2' OXE d   1       1.780   2.686   0.542  0.00  0.00     0.078 C 
ATOM      2  C1' OXE d   1       3.060   0.839  -1.140  0.00  0.00     0.078 C 
ATOM      3  C1  OXE d   1       1.710   0.464  -0.582  0.00  0.00    -0.078 A 
ATOM      4  C2  OXE d   1       1.112   1.354   0.278  0.00  0.00    -0.078 A 
ATOM      5  C3  OXE d   1      -0.158   1.083   0.778  0.00  0.00     0.003 A 
ATOM      6  C4  OXE d   1      -0.765  -0.156   0.537  0.00  0.00    -0.002 A 
ATOM      7  C5  OXE d   1      -0.155  -1.093  -0.304  0.00  0.00    -0.002 A 
ATOM      8  C6  OXE d   1       1.060  -0.782  -0.904  0.00  0.00     0.003 A 
ENDROOT
TORSDOF 0
ENDMDL
