MODEL 1
REMARK minimizedAffinity 7.34333897
REMARK minimizedRMSD -1
REMARK  0 active torsions:
REMARK  status: ('A' for Active; 'I' for Inactive)
ROOT
ATOM      1  C2' OXE d   1       0.110  -0.046   3.021  0.00  0.00     0.078 C 
ATOM      2  C1' OXE d   1      -1.756   2.027   2.706  0.00  0.00     0.078 C 
ATOM      3  C1  OXE d   1      -0.378   2.227   2.127  0.00  0.00    -0.078 A 
ATOM      4  C2  OXE d   1       0.543   1.227   2.326  0.00  0.00    -0.078 A 
ATOM      5  C3  OXE d   1       1.812   1.337   1.766  0.00  0.00     0.003 A 
ATOM      6  C4  OXE d   1       2.207   2.522   1.133  0.00  0.00    -0.002 A 
ATOM      7  C5  OXE d   1       1.297   3.569   0.954  0.00  0.00    -0.002 A 
ATOM      8  C6  OXE d   1      -0.010   3.421   1.406  0.00  0.00     0.003 A 
ENDROOT
TORSDOF 0
ENDMDL
