MODEL 1
REMARK minimizedAffinity 12.1917238
REMARK minimizedRMSD -1
REMARK  0 active torsions:
REMARK  status: ('A' for Active; 'I' for Inactive)
ROOT
ATOM      1  C2' OXE d   1       2.249  -0.448  -0.886  0.00  0.00     0.078 C 
ATOM      2  C1' OXE d   1       2.246   2.183  -1.863  0.00  0.00     0.078 C 
ATOM      3  C1  OXE d   1       1.783   1.959  -0.445  0.00  0.00    -0.078 A 
ATOM      4  C2  OXE d   1       1.743   0.662   0.009  0.00  0.00    -0.078 A 
ATOM      5  C3  OXE d   1       1.376   0.405   1.327  0.00  0.00     0.003 A 
ATOM      6  C4  OXE d   1       0.901   1.437   2.145  0.00  0.00    -0.002 A 
ATOM      7  C5  OXE d   1       0.895   2.759   1.689  0.00  0.00    -0.002 A 
ATOM      8  C6  OXE d   1       1.372   3.042   0.414  0.00  0.00     0.003 A 
ENDROOT
TORSDOF 0
ENDMDL
