MODEL 1
REMARK minimizedAffinity 6.87704372
REMARK minimizedRMSD -1
REMARK  0 active torsions:
REMARK  status: ('A' for Active; 'I' for Inactive)
ROOT
ATOM      1  C2' OXE d   1       0.263  -0.028   2.286  0.00  0.00     0.078 C 
ATOM      2  C1' OXE d   1      -1.022   2.449   2.588  0.00  0.00     0.078 C 
ATOM      3  C1  OXE d   1       0.339   2.438   1.940  0.00  0.00    -0.078 A 
ATOM      4  C2  OXE d   1       0.981   1.227   1.838  0.00  0.00    -0.078 A 
ATOM      5  C3  OXE d   1       2.215   1.152   1.200  0.00  0.00     0.003 A 
ATOM      6  C4  OXE d   1       2.877   2.318   0.797  0.00  0.00    -0.002 A 
ATOM      7  C5  OXE d   1       2.259   3.566   0.927  0.00  0.00    -0.002 A 
ATOM      8  C6  OXE d   1       0.975   3.639   1.456  0.00  0.00     0.003 A 
ENDROOT
TORSDOF 0
ENDMDL
