MODEL 1
REMARK minimizedAffinity 4.4651227
REMARK minimizedRMSD -1
REMARK  0 active torsions:
REMARK  status: ('A' for Active; 'I' for Inactive)
ROOT
ATOM      1  C2' OXE d   1       1.815  -0.519  -0.463  0.00  0.00     0.078 C 
ATOM      2  C1' OXE d   1       4.271   0.839  -0.531  0.00  0.00     0.078 C 
ATOM      3  C1  OXE d   1       3.135   1.478   0.226  0.00  0.00    -0.078 A 
ATOM      4  C2  OXE d   1       1.923   0.830   0.215  0.00  0.00    -0.078 A 
ATOM      5  C3  OXE d   1       0.857   1.348   0.944  0.00  0.00     0.003 A 
ATOM      6  C4  OXE d   1       0.962   2.601   1.560  0.00  0.00    -0.002 A 
ATOM      7  C5  OXE d   1       2.175   3.298   1.550  0.00  0.00    -0.002 A 
ATOM      8  C6  OXE d   1       3.281   2.732   0.925  0.00  0.00     0.003 A 
ENDROOT
TORSDOF 0
ENDMDL
