MODEL 1
REMARK minimizedAffinity 8.20284653
REMARK minimizedRMSD -1
REMARK  0 active torsions:
REMARK  status: ('A' for Active; 'I' for Inactive)
ROOT
ATOM      1  C2' OXE d   1       3.209   5.996  -5.096  0.00  0.00     0.078 C 
ATOM      2  C1' OXE d   1       5.986   5.773  -5.439  0.00  0.00     0.078 C 
ATOM      3  C1  OXE d   1       5.292   4.717  -4.617  0.00  0.00    -0.078 A 
ATOM      4  C2  OXE d   1       3.941   4.860  -4.415  0.00  0.00    -0.078 A 
ATOM      5  C3  OXE d   1       3.242   3.884  -3.709  0.00  0.00     0.003 A 
ATOM      6  C4  OXE d   1       3.928   2.841  -3.074  0.00  0.00    -0.002 A 
ATOM      7  C5  OXE d   1       5.310   2.700  -3.234  0.00  0.00    -0.002 A 
ATOM      8  C6  OXE d   1       6.000   3.603  -4.035  0.00  0.00     0.003 A 
ENDROOT
TORSDOF 0
ENDMDL
