MODEL 1
REMARK minimizedAffinity 3.20667505
REMARK minimizedRMSD -1
REMARK  0 active torsions:
REMARK  status: ('A' for Active; 'I' for Inactive)
ROOT
ATOM      1  C2' OXE d   1      -2.396   1.329   2.310  0.00  0.00     0.078 C 
ATOM      2  C1' OXE d   1      -0.474  -0.643   1.764  0.00  0.00     0.078 C 
ATOM      3  C1  OXE d   1       0.002   0.780   1.916  0.00  0.00    -0.078 A 
ATOM      4  C2  OXE d   1      -0.951   1.745   2.137  0.00  0.00    -0.078 A 
ATOM      5  C3  OXE d   1      -0.561   3.066   2.339  0.00  0.00     0.003 A 
ATOM      6  C4  OXE d   1       0.776   3.444   2.167  0.00  0.00    -0.002 A 
ATOM      7  C5  OXE d   1       1.758   2.483   1.903  0.00  0.00    -0.002 A 
ATOM      8  C6  OXE d   1       1.394   1.143   1.817  0.00  0.00     0.003 A 
ENDROOT
TORSDOF 0
ENDMDL
