MODEL 1
REMARK minimizedAffinity 9.57265282
REMARK minimizedRMSD -1
REMARK  0 active torsions:
REMARK  status: ('A' for Active; 'I' for Inactive)
ROOT
ATOM      1  C2' OXE d   1       1.068  -0.868  -3.663  0.00  0.00     0.078 C 
ATOM      2  C1' OXE d   1       0.500   1.879  -3.556  0.00  0.00     0.078 C 
ATOM      3  C1  OXE d   1       1.131   1.243  -2.342  0.00  0.00    -0.078 A 
ATOM      4  C2  OXE d   1       1.362  -0.110  -2.386  0.00  0.00    -0.078 A 
ATOM      5  C3  OXE d   1       1.992  -0.737  -1.315  0.00  0.00     0.003 A 
ATOM      6  C4  OXE d   1       2.252  -0.031  -0.134  0.00  0.00    -0.002 A 
ATOM      7  C5  OXE d   1       1.987   1.340  -0.053  0.00  0.00    -0.002 A 
ATOM      8  C6  OXE d   1       1.467   2.000  -1.162  0.00  0.00     0.003 A 
ENDROOT
TORSDOF 0
ENDMDL
