MODEL 1
REMARK minimizedAffinity 6.59146547
REMARK minimizedRMSD -1
REMARK  0 active torsions:
REMARK  status: ('A' for Active; 'I' for Inactive)
ROOT
ATOM      1  C2' OXE d   1      -0.301  -1.299  -2.502  0.00  0.00     0.078 C 
ATOM      2  C1' OXE d   1      -0.049   1.453  -2.995  0.00  0.00     0.078 C 
ATOM      3  C1  OXE d   1       0.584   0.902  -1.742  0.00  0.00    -0.078 A 
ATOM      4  C2  OXE d   1       0.416  -0.438  -1.485  0.00  0.00    -0.078 A 
ATOM      5  C3  OXE d   1       1.025  -1.008  -0.371  0.00  0.00     0.003 A 
ATOM      6  C4  OXE d   1       1.678  -0.202   0.570  0.00  0.00    -0.002 A 
ATOM      7  C5  OXE d   1       1.826   1.171   0.348  0.00  0.00    -0.002 A 
ATOM      8  C6  OXE d   1       1.323   1.730  -0.821  0.00  0.00     0.003 A 
ENDROOT
TORSDOF 0
ENDMDL
