MODEL 1
REMARK minimizedAffinity 10.751462
REMARK minimizedRMSD -1
REMARK  0 active torsions:
REMARK  status: ('A' for Active; 'I' for Inactive)
ROOT
ATOM      1  C2' OXE d   1       0.705  -0.618   0.808  0.00  0.00     0.078 C 
ATOM      2  C1' OXE d   1       0.293   1.597   2.482  0.00  0.00     0.078 C 
ATOM      3  C1  OXE d   1       1.421   1.670   1.484  0.00  0.00    -0.078 A 
ATOM      4  C2  OXE d   1       1.645   0.563   0.701  0.00  0.00    -0.078 A 
ATOM      5  C3  OXE d   1       2.638   0.597  -0.274  0.00  0.00     0.003 A 
ATOM      6  C4  OXE d   1       3.509   1.690  -0.360  0.00  0.00    -0.002 A 
ATOM      7  C5  OXE d   1       3.324   2.812   0.455  0.00  0.00    -0.002 A 
ATOM      8  C6  OXE d   1       2.261   2.835   1.351  0.00  0.00     0.003 A 
ENDROOT
TORSDOF 0
ENDMDL
