MODEL 1
REMARK minimizedAffinity 7.67160988
REMARK minimizedRMSD -1
REMARK  0 active torsions:
REMARK  status: ('A' for Active; 'I' for Inactive)
ROOT
ATOM      1  C2' OXE d   1      -2.456   1.331   2.973  0.00  0.00     0.078 C 
ATOM      2  C1' OXE d   1      -0.207  -0.263   3.504  0.00  0.00     0.078 C 
ATOM      3  C1  OXE d   1       0.019   1.072   2.841  0.00  0.00    -0.078 A 
ATOM      4  C2  OXE d   1      -1.092   1.825   2.543  0.00  0.00    -0.078 A 
ATOM      5  C3  OXE d   1      -0.937   3.089   1.980  0.00  0.00     0.003 A 
ATOM      6  C4  OXE d   1       0.328   3.535   1.576  0.00  0.00    -0.002 A 
ATOM      7  C5  OXE d   1       1.468   2.766   1.834  0.00  0.00    -0.002 A 
ATOM      8  C6  OXE d   1       1.335   1.554   2.503  0.00  0.00     0.003 A 
ENDROOT
TORSDOF 0
ENDMDL
