MODEL 1
REMARK minimizedAffinity 1.90091932
REMARK minimizedRMSD -1
REMARK  0 active torsions:
REMARK  status: ('A' for Active; 'I' for Inactive)
ROOT
ATOM      1  C2' OXE d   1      -2.490  -5.477  -1.706  0.00  0.00     0.078 C 
ATOM      2  C1' OXE d   1      -3.003  -2.738  -2.043  0.00  0.00     0.078 C 
ATOM      3  C1  OXE d   1      -3.984  -3.716  -2.638  0.00  0.00    -0.078 A 
ATOM      4  C2  OXE d   1      -3.701  -5.054  -2.509  0.00  0.00    -0.078 A 
ATOM      5  C3  OXE d   1      -4.601  -5.999  -2.992  0.00  0.00     0.003 A 
ATOM      6  C4  OXE d   1      -5.714  -5.600  -3.742  0.00  0.00    -0.002 A 
ATOM      7  C5  OXE d   1      -6.000  -4.242  -3.920  0.00  0.00    -0.002 A 
ATOM      8  C6  OXE d   1      -5.170  -3.289  -3.339  0.00  0.00     0.003 A 
ENDROOT
TORSDOF 0
ENDMDL
