MODEL 1
REMARK minimizedAffinity 8.72120857
REMARK minimizedRMSD -1
REMARK  0 active torsions:
REMARK  status: ('A' for Active; 'I' for Inactive)
ROOT
ATOM      1  C2' OXE d   1       0.317   4.193   1.052  0.00  0.00     0.078 C 
ATOM      2  C1' OXE d   1      -0.112   2.094   2.866  0.00  0.00     0.078 C 
ATOM      3  C1  OXE d   1       1.145   2.058   2.034  0.00  0.00    -0.078 A 
ATOM      4  C2  OXE d   1       1.324   3.064   1.115  0.00  0.00    -0.078 A 
ATOM      5  C3  OXE d   1       2.493   3.109   0.361  0.00  0.00     0.003 A 
ATOM      6  C4  OXE d   1       3.414   2.056   0.418  0.00  0.00    -0.002 A 
ATOM      7  C5  OXE d   1       3.231   1.001   1.318  0.00  0.00    -0.002 A 
ATOM      8  C6  OXE d   1       2.126   1.009   2.162  0.00  0.00     0.003 A 
ENDROOT
TORSDOF 0
ENDMDL
