MODEL 1
REMARK minimizedAffinity 12.3695984
REMARK minimizedRMSD -1
REMARK  0 active torsions:
REMARK  status: ('A' for Active; 'I' for Inactive)
ROOT
ATOM      1  C2' OXE d   1      -0.362   2.830  -2.528  0.00  0.00     0.078 C 
ATOM      2  C1' OXE d   1       0.910   3.102  -0.040  0.00  0.00     0.078 C 
ATOM      3  C1  OXE d   1       1.147   1.831  -0.816  0.00  0.00    -0.078 A 
ATOM      4  C2  OXE d   1       0.483   1.686  -2.011  0.00  0.00    -0.078 A 
ATOM      5  C3  OXE d   1       0.709   0.557  -2.792  0.00  0.00     0.003 A 
ATOM      6  C4  OXE d   1       1.484  -0.501  -2.302  0.00  0.00    -0.002 A 
ATOM      7  C5  OXE d   1       2.137  -0.391  -1.070  0.00  0.00    -0.002 A 
ATOM      8  C6  OXE d   1       2.014   0.783  -0.336  0.00  0.00     0.003 A 
ENDROOT
TORSDOF 0
ENDMDL
