MODEL 1
REMARK minimizedAffinity 13.5935087
REMARK minimizedRMSD -1
REMARK  0 active torsions:
REMARK  status: ('A' for Active; 'I' for Inactive)
ROOT
ATOM      1  C2' OXE d   1       5.797   5.994  -3.045  0.00  0.00     0.078 C 
ATOM      2  C1' OXE d   1       5.996   5.383  -5.778  0.00  0.00     0.078 C 
ATOM      3  C1  OXE d   1       5.879   4.235  -4.807  0.00  0.00    -0.078 A 
ATOM      4  C2  OXE d   1       5.830   4.541  -3.468  0.00  0.00    -0.078 A 
ATOM      5  C3  OXE d   1       5.667   3.523  -2.534  0.00  0.00     0.003 A 
ATOM      6  C4  OXE d   1       5.708   2.181  -2.933  0.00  0.00    -0.002 A 
ATOM      7  C5  OXE d   1       5.798   1.846  -4.288  0.00  0.00    -0.002 A 
ATOM      8  C6  OXE d   1       5.841   2.859  -5.239  0.00  0.00     0.003 A 
ENDROOT
TORSDOF 0
ENDMDL
