MODEL 1
REMARK minimizedAffinity 0.297037333
REMARK minimizedRMSD -1
REMARK  0 active torsions:
REMARK  status: ('A' for Active; 'I' for Inactive)
ROOT
ATOM      1  C2' OXE d   1      -0.158  -2.332   0.399  0.00  0.00     0.078 C 
ATOM      2  C1' OXE d   1       0.132  -0.280   2.294  0.00  0.00     0.078 C 
ATOM      3  C1  OXE d   1       1.061  -0.277   1.106  0.00  0.00    -0.078 A 
ATOM      4  C2  OXE d   1       0.943  -1.311   0.208  0.00  0.00    -0.078 A 
ATOM      5  C3  OXE d   1       1.739  -1.327  -0.934  0.00  0.00     0.003 A 
ATOM      6  C4  OXE d   1       2.762  -0.385  -1.098  0.00  0.00    -0.002 A 
ATOM      7  C5  OXE d   1       2.925   0.654  -0.175  0.00  0.00    -0.002 A 
ATOM      8  C6  OXE d   1       2.058   0.746   0.908  0.00  0.00     0.003 A 
ENDROOT
TORSDOF 0
ENDMDL
