MODEL 1
REMARK minimizedAffinity 8.25554466
REMARK minimizedRMSD -1
REMARK  0 active torsions:
REMARK  status: ('A' for Active; 'I' for Inactive)
ROOT
ATOM      1  C2' OXE d   1       0.015  -0.118   1.825  0.00  0.00     0.078 C 
ATOM      2  C1' OXE d   1      -0.852   2.423   2.645  0.00  0.00     0.078 C 
ATOM      3  C1  OXE d   1       0.505   2.319   1.996  0.00  0.00    -0.078 A 
ATOM      4  C2  OXE d   1       0.941   1.065   1.640  0.00  0.00    -0.078 A 
ATOM      5  C3  OXE d   1       2.162   0.919   0.989  0.00  0.00     0.003 A 
ATOM      6  C4  OXE d   1       3.017   2.017   0.831  0.00  0.00    -0.002 A 
ATOM      7  C5  OXE d   1       2.609   3.296   1.223  0.00  0.00    -0.002 A 
ATOM      8  C6  OXE d   1       1.342   3.471   1.767  0.00  0.00     0.003 A 
ENDROOT
TORSDOF 0
ENDMDL
