MODEL 1
REMARK minimizedAffinity -3.37302208
REMARK minimizedRMSD -1
REMARK  0 active torsions:
REMARK  status: ('A' for Active; 'I' for Inactive)
ROOT
ATOM      1  C1  BNZ d   1      -0.770   0.192  -0.154  0.00  0.00     0.000 A 
ATOM      2  C2  BNZ d   1      -1.909   0.924   0.047  0.00  0.00     0.000 A 
ATOM      3  C3  BNZ d   1      -2.121   1.580   1.227  0.00  0.00     0.000 A 
ATOM      4  C4  BNZ d   1      -1.214   1.469   2.219  0.00  0.00     0.000 A 
ATOM      5  C5  BNZ d   1      -0.065   0.727   2.036  0.00  0.00     0.000 A 
ATOM      6  C6  BNZ d   1       0.164   0.100   0.832  0.00  0.00     0.000 A 
ENDROOT
TORSDOF 0
ENDMDL
