MODEL 1
REMARK minimizedAffinity -3.1299274
REMARK minimizedRMSD -1
REMARK  0 active torsions:
REMARK  status: ('A' for Active; 'I' for Inactive)
ROOT
ATOM      1  C1  BNZ d   1       0.392  -1.482  -2.366  0.00  0.00     0.000 A 
ATOM      2  C2  BNZ d   1       1.039  -1.635  -1.168  0.00  0.00     0.000 A 
ATOM      3  C3  BNZ d   1       1.132  -2.863  -0.575  0.00  0.00     0.000 A 
ATOM      4  C4  BNZ d   1       0.545  -3.927  -1.159  0.00  0.00     0.000 A 
ATOM      5  C5  BNZ d   1      -0.118  -3.787  -2.362  0.00  0.00     0.000 A 
ATOM      6  C6  BNZ d   1      -0.177  -2.557  -2.975  0.00  0.00     0.000 A 
ENDROOT
TORSDOF 0
ENDMDL
