MODEL 1
REMARK minimizedAffinity -3.96019268
REMARK minimizedRMSD -1
REMARK  0 active torsions:
REMARK  status: ('A' for Active; 'I' for Inactive)
ROOT
ATOM      1  C1  BNZ d   1      -1.565   2.758   1.550  0.00  0.00     0.000 A 
ATOM      2  C2  BNZ d   1      -1.902   1.457   1.811  0.00  0.00     0.000 A 
ATOM      3  C3  BNZ d   1      -1.375   0.436   1.070  0.00  0.00     0.000 A 
ATOM      4  C4  BNZ d   1      -0.545   0.720   0.046  0.00  0.00     0.000 A 
ATOM      5  C5  BNZ d   1      -0.203   2.028  -0.235  0.00  0.00     0.000 A 
ATOM      6  C6  BNZ d   1      -0.705   3.050   0.537  0.00  0.00     0.000 A 
ENDROOT
TORSDOF 0
ENDMDL
