MODEL 1
REMARK minimizedAffinity -5.07605457
REMARK minimizedRMSD -1
REMARK  0 active torsions:
REMARK  status: ('A' for Active; 'I' for Inactive)
ROOT
ATOM      1  C1  BNZ d   1      -0.553   3.318  -0.380  0.00  0.00     0.000 A 
ATOM      2  C2  BNZ d   1      -1.290   3.162   0.764  0.00  0.00     0.000 A 
ATOM      3  C3  BNZ d   1      -1.402   1.938   1.362  0.00  0.00     0.000 A 
ATOM      4  C4  BNZ d   1      -0.811   0.866   0.796  0.00  0.00     0.000 A 
ATOM      5  C5  BNZ d   1      -0.072   1.006  -0.362  0.00  0.00     0.000 A 
ATOM      6  C6  BNZ d   1       0.070   2.247  -0.940  0.00  0.00     0.000 A 
ENDROOT
TORSDOF 0
ENDMDL
