MODEL 1
REMARK minimizedAffinity -5.07493258
REMARK minimizedRMSD -1
REMARK  0 active torsions:
REMARK  status: ('A' for Active; 'I' for Inactive)
ROOT
ATOM      1  C1  BNZ d   1      -1.797   2.987   1.127  0.00  0.00     0.000 A 
ATOM      2  C2  BNZ d   1      -1.858   1.696   1.579  0.00  0.00     0.000 A 
ATOM      3  C3  BNZ d   1      -1.103   0.715   1.000  0.00  0.00     0.000 A 
ATOM      4  C4  BNZ d   1      -0.319   1.018  -0.056  0.00  0.00     0.000 A 
ATOM      5  C5  BNZ d   1      -0.254   2.313  -0.529  0.00  0.00     0.000 A 
ATOM      6  C6  BNZ d   1      -0.986   3.306   0.081  0.00  0.00     0.000 A 
ENDROOT
TORSDOF 0
ENDMDL
