MODEL 1
REMARK minimizedAffinity -4.94270563
REMARK minimizedRMSD -1
REMARK  0 active torsions:
REMARK  status: ('A' for Active; 'I' for Inactive)
ROOT
ATOM      1  C1  BNZ d   1      -0.526   1.490  -0.166  0.00  0.00     0.000 A 
ATOM      2  C2  BNZ d   1      -1.222   1.080   0.940  0.00  0.00     0.000 A 
ATOM      3  C3  BNZ d   1      -2.047   1.942   1.607  0.00  0.00     0.000 A 
ATOM      4  C4  BNZ d   1      -2.143   3.222   1.193  0.00  0.00     0.000 A 
ATOM      5  C5  BNZ d   1      -1.440   3.653   0.085  0.00  0.00     0.000 A 
ATOM      6  C6  BNZ d   1      -0.641   2.772  -0.607  0.00  0.00     0.000 A 
ENDROOT
TORSDOF 0
ENDMDL
