MODEL 1
REMARK minimizedAffinity -4.83498955
REMARK minimizedRMSD -1
REMARK  0 active torsions:
REMARK  status: ('A' for Active; 'I' for Inactive)
ROOT
ATOM      1  C1  BNZ d   1       0.769   0.049  -0.445  0.00  0.00     0.000 A 
ATOM      2  C2  BNZ d   1       1.225   1.132  -1.149  0.00  0.00     0.000 A 
ATOM      3  C3  BNZ d   1       0.457   2.255  -1.281  0.00  0.00     0.000 A 
ATOM      4  C4  BNZ d   1      -0.780   2.279  -0.744  0.00  0.00     0.000 A 
ATOM      5  C5  BNZ d   1      -1.258   1.191  -0.040  0.00  0.00     0.000 A 
ATOM      6  C6  BNZ d   1      -0.467   0.078   0.124  0.00  0.00     0.000 A 
ENDROOT
TORSDOF 0
ENDMDL
