MODEL 1
REMARK minimizedAffinity -4.70957899
REMARK minimizedRMSD -1
REMARK  0 active torsions:
REMARK  status: ('A' for Active; 'I' for Inactive)
ROOT
ATOM      1  C1  BNZ d   1       0.323  -0.285   0.390  0.00  0.00     0.000 A 
ATOM      2  C2  BNZ d   1      -0.404  -0.313   1.551  0.00  0.00     0.000 A 
ATOM      3  C3  BNZ d   1      -1.186   0.748   1.912  0.00  0.00     0.000 A 
ATOM      4  C4  BNZ d   1      -1.210   1.850   1.135  0.00  0.00     0.000 A 
ATOM      5  C5  BNZ d   1      -0.476   1.897  -0.033  0.00  0.00     0.000 A 
ATOM      6  C6  BNZ d   1       0.280   0.812  -0.414  0.00  0.00     0.000 A 
ENDROOT
TORSDOF 0
ENDMDL
