MODEL 1
REMARK minimizedAffinity -4.1259985
REMARK minimizedRMSD -1
REMARK  0 active torsions:
REMARK  status: ('A' for Active; 'I' for Inactive)
ROOT
ATOM      1  C1  BNZ d   1      -0.116  -0.081   0.329  0.00  0.00     0.000 A 
ATOM      2  C2  BNZ d   1      -0.776  -0.082   1.529  0.00  0.00     0.000 A 
ATOM      3  C3  BNZ d   1      -1.472   1.017   1.946  0.00  0.00     0.000 A 
ATOM      4  C4  BNZ d   1      -1.475   2.129   1.182  0.00  0.00     0.000 A 
ATOM      5  C5  BNZ d   1      -0.807   2.149  -0.026  0.00  0.00     0.000 A 
ATOM      6  C6  BNZ d   1      -0.140   1.027  -0.461  0.00  0.00     0.000 A 
ENDROOT
TORSDOF 0
ENDMDL
