MODEL 1
REMARK minimizedAffinity -4.88997602
REMARK minimizedRMSD -1
REMARK  0 active torsions:
REMARK  status: ('A' for Active; 'I' for Inactive)
ROOT
ATOM      1  C1  BNZ d   1      -1.758   2.054   0.030  0.00  0.00     0.000 A 
ATOM      2  C2  BNZ d   1      -0.810   1.225  -0.510  0.00  0.00     0.000 A 
ATOM      3  C3  BNZ d   1      -0.118   0.348   0.277  0.00  0.00     0.000 A 
ATOM      4  C4  BNZ d   1      -0.345   0.329   1.607  0.00  0.00     0.000 A 
ATOM      5  C5  BNZ d   1      -1.290   1.165   2.167  0.00  0.00     0.000 A 
ATOM      6  C6  BNZ d   1      -2.013   2.020   1.366  0.00  0.00     0.000 A 
ENDROOT
TORSDOF 0
ENDMDL
