MODEL 1
REMARK minimizedAffinity -4.84120703
REMARK minimizedRMSD -1
REMARK  0 active torsions:
REMARK  status: ('A' for Active; 'I' for Inactive)
ROOT
ATOM      1  C1  BNZ d   1      -2.235   2.033   1.222  0.00  0.00     0.000 A 
ATOM      2  C2  BNZ d   1      -2.055   3.320   0.792  0.00  0.00     0.000 A 
ATOM      3  C3  BNZ d   1      -1.270   3.592  -0.294  0.00  0.00     0.000 A 
ATOM      4  C4  BNZ d   1      -0.636   2.582  -0.923  0.00  0.00     0.000 A 
ATOM      5  C5  BNZ d   1      -0.801   1.279  -0.496  0.00  0.00     0.000 A 
ATOM      6  C6  BNZ d   1      -1.622   1.005   0.574  0.00  0.00     0.000 A 
ENDROOT
TORSDOF 0
ENDMDL
