MODEL 1
REMARK minimizedAffinity -3.37791204
REMARK minimizedRMSD -1
REMARK  0 active torsions:
REMARK  status: ('A' for Active; 'I' for Inactive)
ROOT
ATOM      1  C1  BNZ d   1      -0.684   1.729  -0.116  0.00  0.00     0.000 A 
ATOM      2  C2  BNZ d   1       0.110   1.721  -1.231  0.00  0.00     0.000 A 
ATOM      3  C3  BNZ d   1       0.829   0.610  -1.571  0.00  0.00     0.000 A 
ATOM      4  C4  BNZ d   1       0.784  -0.478  -0.775  0.00  0.00     0.000 A 
ATOM      5  C5  BNZ d   1      -0.005  -0.483   0.358  0.00  0.00     0.000 A 
ATOM      6  C6  BNZ d   1      -0.757   0.625   0.676  0.00  0.00     0.000 A 
ENDROOT
TORSDOF 0
ENDMDL
