MODEL 1
REMARK minimizedAffinity -2.35128903
REMARK minimizedRMSD -1
REMARK  0 active torsions:
REMARK  status: ('A' for Active; 'I' for Inactive)
ROOT
ATOM      1  C1  BNZ d   1       0.388  -0.712   0.803  0.00  0.00     0.000 A 
ATOM      2  C2  BNZ d   1      -0.354  -0.905   1.938  0.00  0.00     0.000 A 
ATOM      3  C3  BNZ d   1      -1.208   0.063   2.389  0.00  0.00     0.000 A 
ATOM      4  C4  BNZ d   1      -1.289   1.236   1.728  0.00  0.00     0.000 A 
ATOM      5  C5  BNZ d   1      -0.540   1.449   0.587  0.00  0.00     0.000 A 
ATOM      6  C6  BNZ d   1       0.289   0.458   0.115  0.00  0.00     0.000 A 
ENDROOT
TORSDOF 0
ENDMDL
