MODEL 1
REMARK minimizedAffinity 3.79080248
REMARK minimizedRMSD -1
REMARK  1 active torsions:
REMARK  status: ('A' for Active; 'I' for Inactive)
REMARK    1  A    between atoms: C1_2  and  C2_3 
ROOT
ATOM      1  C2  UNL d   1       1.915   0.219   1.437  0.00  0.00    -0.081 A 
ATOM      2  C3  UNL d   1       3.000   0.678   0.679  0.00  0.00     0.006 A 
ATOM      3  C4  UNL d   1       2.885   1.836  -0.093  0.00  0.00     0.002 A 
ATOM      4  C5  UNL d   1       1.687   2.559  -0.115  0.00  0.00    -0.080 A 
ATOM      5  C6  UNL d   1       1.560   3.821  -0.916  0.00  0.00     0.076 C 
ATOM      6  C7  UNL d   1       0.598   2.091   0.628  0.00  0.00     0.002 A 
ATOM      7  C8  UNL d   1       0.712   0.933   1.400  0.00  0.00     0.006 A 
ENDROOT
BRANCH   1   8
ATOM      8  C1  UNL d   1       2.056  -0.993   2.321  0.00  0.00     0.054 C 
ATOM      9  C   UNL d   1       1.044  -2.068   1.951  0.00  0.00     0.018 C 
ENDBRANCH   1   8
TORSDOF 1
ENDMDL
