MODEL 1
REMARK minimizedAffinity 8.98515892
REMARK minimizedRMSD -1
REMARK  1 active torsions:
REMARK  status: ('A' for Active; 'I' for Inactive)
REMARK    1  A    between atoms: C1_2  and  C2_3 
ROOT
ATOM      1  C2  UNL d   1      -3.676   2.652  -0.853  0.00  0.00    -0.081 A 
ATOM      2  C3  UNL d   1      -3.031   2.098   0.259  0.00  0.00     0.006 A 
ATOM      3  C4  UNL d   1      -3.634   2.133   1.518  0.00  0.00     0.002 A 
ATOM      4  C5  UNL d   1      -4.895   2.715   1.685  0.00  0.00    -0.080 A 
ATOM      5  C6  UNL d   1      -5.567   2.733   3.026  0.00  0.00     0.076 C 
ATOM      6  C7  UNL d   1      -5.532   3.285   0.578  0.00  0.00     0.002 A 
ATOM      7  C8  UNL d   1      -4.929   3.251  -0.682  0.00  0.00     0.006 A 
ENDROOT
BRANCH   1   8
ATOM      8  C1  UNL d   1      -3.057   2.559  -2.224  0.00  0.00     0.054 C 
ATOM      9  C   UNL d   1      -4.108   2.696  -3.317  0.00  0.00     0.018 C 
ENDBRANCH   1   8
TORSDOF 1
ENDMDL
