MODEL 1
REMARK minimizedAffinity 8.0009594
REMARK minimizedRMSD -1
REMARK  1 active torsions:
REMARK  status: ('A' for Active; 'I' for Inactive)
REMARK    1  A    between atoms: C1_2  and  C2_3 
ROOT
ATOM      1  C2  UNL d   1       2.381  -1.053   2.557  0.00  0.00    -0.081 A 
ATOM      2  C3  UNL d   1       2.174   0.147   3.247  0.00  0.00     0.006 A 
ATOM      3  C4  UNL d   1       2.263   1.372   2.581  0.00  0.00     0.002 A 
ATOM      4  C5  UNL d   1       2.553   1.416   1.213  0.00  0.00    -0.080 A 
ATOM      5  C6  UNL d   1       2.622   2.722   0.479  0.00  0.00     0.076 C 
ATOM      6  C7  UNL d   1       2.778   0.217   0.527  0.00  0.00     0.002 A 
ATOM      7  C8  UNL d   1       2.689  -1.007   1.193  0.00  0.00     0.006 A 
ENDROOT
BRANCH   1   8
ATOM      8  C1  UNL d   1       2.222  -2.378   3.259  0.00  0.00     0.054 C 
ATOM      9  C   UNL d   1       3.565  -2.922   3.725  0.00  0.00     0.018 C 
ENDBRANCH   1   8
TORSDOF 1
ENDMDL
