MODEL 1
REMARK minimizedAffinity 8.69604778
REMARK minimizedRMSD -1
REMARK  1 active torsions:
REMARK  status: ('A' for Active; 'I' for Inactive)
REMARK    1  A    between atoms: C1_2  and  C2_3 
ROOT
ATOM      1  C2  UNL d   1      -1.077  -1.649  -0.651  0.00  0.00    -0.081 A 
ATOM      2  C3  UNL d   1      -0.758  -2.254  -1.873  0.00  0.00     0.006 A 
ATOM      3  C4  UNL d   1       0.445  -2.948  -2.026  0.00  0.00     0.002 A 
ATOM      4  C5  UNL d   1       1.344  -3.056  -0.960  0.00  0.00    -0.080 A 
ATOM      5  C6  UNL d   1       2.624  -3.824  -1.103  0.00  0.00     0.076 C 
ATOM      6  C7  UNL d   1       1.033  -2.436   0.255  0.00  0.00     0.002 A 
ATOM      7  C8  UNL d   1      -0.169  -1.741   0.409  0.00  0.00     0.006 A 
ENDROOT
BRANCH   1   8
ATOM      8  C1  UNL d   1      -2.401  -0.955  -0.462  0.00  0.00     0.054 C 
ATOM      9  C   UNL d   1      -2.212   0.518  -0.128  0.00  0.00     0.018 C 
ENDBRANCH   1   8
TORSDOF 1
ENDMDL
