MODEL 1
REMARK minimizedAffinity 4.83102322
REMARK minimizedRMSD -1
REMARK  1 active torsions:
REMARK  status: ('A' for Active; 'I' for Inactive)
REMARK    1  A    between atoms: C1_2  and  C2_3 
ROOT
ATOM      1  C2  UNL d   1       2.712   1.594   0.653  0.00  0.00    -0.081 A 
ATOM      2  C3  UNL d   1       2.803   0.289   0.155  0.00  0.00     0.006 A 
ATOM      3  C4  UNL d   1       2.621  -0.807   1.003  0.00  0.00     0.002 A 
ATOM      4  C5  UNL d   1       2.337  -0.615   2.359  0.00  0.00    -0.080 A 
ATOM      5  C6  UNL d   1       2.110  -1.782   3.274  0.00  0.00     0.076 C 
ATOM      6  C7  UNL d   1       2.264   0.689   2.860  0.00  0.00     0.002 A 
ATOM      7  C8  UNL d   1       2.446   1.785   2.014  0.00  0.00     0.006 A 
ENDROOT
BRANCH   1   8
ATOM      8  C1  UNL d   1       2.843   2.778  -0.271  0.00  0.00     0.054 C 
ATOM      9  C   UNL d   1       1.499   3.454  -0.499  0.00  0.00     0.018 C 
ENDBRANCH   1   8
TORSDOF 1
ENDMDL
