MODEL 1
REMARK minimizedAffinity 6.11966753
REMARK minimizedRMSD -1
REMARK  1 active torsions:
REMARK  status: ('A' for Active; 'I' for Inactive)
REMARK    1  A    between atoms: C1_2  and  C2_3 
ROOT
ATOM      1  C2  UNL d   1       1.232  -1.208   0.869  0.00  0.00    -0.081 A 
ATOM      2  C3  UNL d   1       1.294  -1.409   2.254  0.00  0.00     0.006 A 
ATOM      3  C4  UNL d   1       1.934  -0.478   3.076  0.00  0.00     0.002 A 
ATOM      4  C5  UNL d   1       2.513   0.672   2.529  0.00  0.00    -0.080 A 
ATOM      5  C6  UNL d   1       3.176   1.694   3.404  0.00  0.00     0.076 C 
ATOM      6  C7  UNL d   1       2.466   0.864   1.144  0.00  0.00     0.002 A 
ATOM      7  C8  UNL d   1       1.828  -0.067   0.322  0.00  0.00     0.006 A 
ENDROOT
BRANCH   1   8
ATOM      8  C1  UNL d   1       0.487  -2.177  -0.013  0.00  0.00     0.054 C 
ATOM      9  C   UNL d   1       0.587  -1.781  -1.479  0.00  0.00     0.018 C 
ENDBRANCH   1   8
TORSDOF 1
ENDMDL
