MODEL 1
REMARK minimizedAffinity 3.85899401
REMARK minimizedRMSD -1
REMARK  0 active torsions:
REMARK  status: ('A' for Active; 'I' for Inactive)
ROOT
ATOM      1  O1  BZF d   1      -1.870  -2.275  -2.400  0.00  0.00    -0.204 OA
ATOM      2  C2  BZF d   1      -0.767  -2.723  -3.101  0.00  0.00     0.174 A 
ATOM      3  C3  BZF d   1       0.230  -3.063  -2.259  0.00  0.00    -0.012 A 
ATOM      4  C3A BZF d   1      -0.314  -2.899  -0.946  0.00  0.00    -0.107 A 
ATOM      5  C4  BZF d   1       0.186  -3.095   0.310  0.00  0.00     0.055 A 
ATOM      6  C5  BZF d   1      -0.580  -2.771   1.384  0.00  0.00    -0.016 A 
ATOM      7  C6  BZF d   1      -1.847  -2.244   1.241  0.00  0.00     0.022 A 
ATOM      8  C7  BZF d   1      -2.388  -2.036   0.016  0.00  0.00     0.029 A 
ATOM      9  C7A BZF d   1      -1.629  -2.394  -1.072  0.00  0.00     0.058 A 
ENDROOT
TORSDOF 0
ENDMDL
