MODEL 1
REMARK minimizedAffinity 6.89782286
REMARK minimizedRMSD -1
REMARK  0 active torsions:
REMARK  status: ('A' for Active; 'I' for Inactive)
ROOT
ATOM      1  O1  BZF d   1      -3.562  -2.596  -0.647  0.00  0.00    -0.204 OA
ATOM      2  C2  BZF d   1      -3.511  -2.467   0.727  0.00  0.00     0.174 A 
ATOM      3  C3  BZF d   1      -2.233  -2.422   1.156  0.00  0.00    -0.012 A 
ATOM      4  C3A BZF d   1      -1.436  -2.436  -0.032  0.00  0.00    -0.107 A 
ATOM      5  C4  BZF d   1      -0.091  -2.394  -0.261  0.00  0.00     0.055 A 
ATOM      6  C5  BZF d   1       0.366  -2.499  -1.536  0.00  0.00    -0.016 A 
ATOM      7  C6  BZF d   1      -0.493  -2.653  -2.605  0.00  0.00     0.022 A 
ATOM      8  C7  BZF d   1      -1.836  -2.695  -2.428  0.00  0.00     0.029 A 
ATOM      9  C7A BZF d   1      -2.302  -2.556  -1.144  0.00  0.00     0.058 A 
ENDROOT
TORSDOF 0
ENDMDL
