MODEL 1
REMARK minimizedAffinity 7.25556183
REMARK minimizedRMSD -1
REMARK  0 active torsions:
REMARK  status: ('A' for Active; 'I' for Inactive)
ROOT
ATOM      1  O1  BZF d   1      -4.502   2.098  -0.202  0.00  0.00    -0.204 OA
ATOM      2  C2  BZF d   1      -3.377   1.575   0.406  0.00  0.00     0.174 A 
ATOM      3  C3  BZF d   1      -2.637   2.554   0.965  0.00  0.00    -0.012 A 
ATOM      4  C3A BZF d   1      -3.390   3.754   0.769  0.00  0.00    -0.107 A 
ATOM      5  C4  BZF d   1      -3.185   5.059   1.116  0.00  0.00     0.055 A 
ATOM      6  C5  BZF d   1      -4.078   5.999   0.711  0.00  0.00    -0.016 A 
ATOM      7  C6  BZF d   1      -5.184   5.671  -0.047  0.00  0.00     0.022 A 
ATOM      8  C7  BZF d   1      -5.433   4.390  -0.412  0.00  0.00     0.029 A 
ATOM      9  C7A BZF d   1      -4.549   3.433   0.025  0.00  0.00     0.058 A 
ENDROOT
TORSDOF 0
ENDMDL
