MODEL 1
REMARK minimizedAffinity 5.80255365
REMARK minimizedRMSD -1
REMARK  0 active torsions:
REMARK  status: ('A' for Active; 'I' for Inactive)
ROOT
ATOM      1  O1  BZF d   1      -1.598  -1.921  -2.521  0.00  0.00    -0.204 OA
ATOM      2  C2  BZF d   1      -0.572  -2.510  -3.235  0.00  0.00     0.174 A 
ATOM      3  C3  BZF d   1       0.334  -3.062  -2.402  0.00  0.00    -0.012 A 
ATOM      4  C3A BZF d   1      -0.204  -2.882  -1.088  0.00  0.00    -0.107 A 
ATOM      5  C4  BZF d   1       0.229  -3.232   0.159  0.00  0.00     0.055 A 
ATOM      6  C5  BZF d   1      -0.495  -2.844   1.242  0.00  0.00    -0.016 A 
ATOM      7  C6  BZF d   1      -1.651  -2.102   1.114  0.00  0.00     0.022 A 
ATOM      8  C7  BZF d   1      -2.122  -1.736  -0.102  0.00  0.00     0.029 A 
ATOM      9  C7A BZF d   1      -1.411  -2.155  -1.200  0.00  0.00     0.058 A 
ENDROOT
TORSDOF 0
ENDMDL
