MODEL 1
REMARK minimizedAffinity 17.7790546
REMARK minimizedRMSD -1
REMARK  0 active torsions:
REMARK  status: ('A' for Active; 'I' for Inactive)
ROOT
ATOM      1  O1  BZF d   1       0.201  -1.922  -1.410  0.00  0.00    -0.204 OA
ATOM      2  C2  BZF d   1      -0.953  -2.524  -1.873  0.00  0.00     0.174 A 
ATOM      3  C3  BZF d   1      -0.688  -3.314  -2.933  0.00  0.00    -0.012 A 
ATOM      4  C3A BZF d   1       0.734  -3.270  -3.089  0.00  0.00    -0.107 A 
ATOM      5  C4  BZF d   1       1.602  -3.864  -3.960  0.00  0.00     0.055 A 
ATOM      6  C5  BZF d   1       2.923  -3.556  -3.889  0.00  0.00    -0.016 A 
ATOM      7  C6  BZF d   1       3.410  -2.656  -2.964  0.00  0.00     0.022 A 
ATOM      8  C7  BZF d   1       2.589  -2.046  -2.075  0.00  0.00     0.029 A 
ATOM      9  C7A BZF d   1       1.258  -2.380  -2.123  0.00  0.00     0.058 A 
ENDROOT
TORSDOF 0
ENDMDL
