MODEL 1
REMARK minimizedAffinity 10.5508604
REMARK minimizedRMSD -1
REMARK  0 active torsions:
REMARK  status: ('A' for Active; 'I' for Inactive)
ROOT
ATOM      1  O1  BZF d   1      -1.929  -2.419  -2.631  0.00  0.00    -0.204 OA
ATOM      2  C2  BZF d   1      -0.693  -2.377  -3.247  0.00  0.00     0.174 A 
ATOM      3  C3  BZF d   1       0.298  -2.407  -2.334  0.00  0.00    -0.012 A 
ATOM      4  C3A BZF d   1      -0.357  -2.564  -1.072  0.00  0.00    -0.107 A 
ATOM      5  C4  BZF d   1       0.093  -2.674   0.213  0.00  0.00     0.055 A 
ATOM      6  C5  BZF d   1      -0.811  -2.742   1.226  0.00  0.00    -0.016 A 
ATOM      7  C6  BZF d   1      -2.169  -2.696   0.991  0.00  0.00     0.022 A 
ATOM      8  C7  BZF d   1      -2.664  -2.593  -0.267  0.00  0.00     0.029 A 
ATOM      9  C7A BZF d   1      -1.754  -2.557  -1.295  0.00  0.00     0.058 A 
ENDROOT
TORSDOF 0
ENDMDL
