MODEL 1
REMARK minimizedAffinity 6.10997486
REMARK minimizedRMSD -1
REMARK  0 active torsions:
REMARK  status: ('A' for Active; 'I' for Inactive)
ROOT
ATOM      1  O1  BZF d   1       4.699  -1.581   5.921  0.00  0.00    -0.204 OA
ATOM      2  C2  BZF d   1       3.349  -1.290   5.884  0.00  0.00     0.174 A 
ATOM      3  C3  BZF d   1       2.617  -2.422   5.836  0.00  0.00    -0.012 A 
ATOM      4  C3A BZF d   1       3.566  -3.488   5.937  0.00  0.00    -0.107 A 
ATOM      5  C4  BZF d   1       3.450  -4.849   5.963  0.00  0.00     0.055 A 
ATOM      6  C5  BZF d   1       4.577  -5.607   5.995  0.00  0.00    -0.016 A 
ATOM      7  C6  BZF d   1       5.835  -5.039   5.998  0.00  0.00     0.022 A 
ATOM      8  C7  BZF d   1       6.000  -3.694   5.979  0.00  0.00     0.029 A 
ATOM      9  C7A BZF d   1       4.862  -2.925   5.979  0.00  0.00     0.058 A 
ENDROOT
TORSDOF 0
ENDMDL
