MODEL 1
REMARK minimizedAffinity 10.0196714
REMARK minimizedRMSD -1
REMARK  0 active torsions:
REMARK  status: ('A' for Active; 'I' for Inactive)
ROOT
ATOM      1  O1  BZF d   1      -1.361  -2.976  -3.368  0.00  0.00    -0.204 OA
ATOM      2  C2  BZF d   1      -1.138  -2.703  -2.033  0.00  0.00     0.174 A 
ATOM      3  C3  BZF d   1       0.168  -2.846  -1.727  0.00  0.00    -0.012 A 
ATOM      4  C3A BZF d   1       0.814  -3.142  -2.968  0.00  0.00    -0.107 A 
ATOM      5  C4  BZF d   1       2.114  -3.375  -3.318  0.00  0.00     0.055 A 
ATOM      6  C5  BZF d   1       2.403  -3.707  -4.603  0.00  0.00    -0.016 A 
ATOM      7  C6  BZF d   1       1.418  -3.821  -5.563  0.00  0.00     0.022 A 
ATOM      8  C7  BZF d   1       0.116  -3.595  -5.265  0.00  0.00     0.029 A 
ATOM      9  C7A BZF d   1      -0.176  -3.226  -3.974  0.00  0.00     0.058 A 
ENDROOT
TORSDOF 0
ENDMDL
