MODEL 1
REMARK minimizedAffinity 7.07897806
REMARK minimizedRMSD -1
REMARK  0 active torsions:
REMARK  status: ('A' for Active; 'I' for Inactive)
ROOT
ATOM      1  O1  BZF d   1       2.060  -4.587  -5.762  0.00  0.00    -0.204 OA
ATOM      2  C2  BZF d   1       3.128  -4.344  -4.921  0.00  0.00     0.174 A 
ATOM      3  C3  BZF d   1       2.727  -3.680  -3.818  0.00  0.00    -0.012 A 
ATOM      4  C3A BZF d   1       1.304  -3.578  -3.937  0.00  0.00    -0.107 A 
ATOM      5  C4  BZF d   1       0.332  -3.037  -3.145  0.00  0.00     0.055 A 
ATOM      6  C5  BZF d   1      -0.954  -3.038  -3.584  0.00  0.00    -0.016 A 
ATOM      7  C6  BZF d   1      -1.302  -3.567  -4.810  0.00  0.00     0.022 A 
ATOM      8  C7  BZF d   1      -0.374  -4.119  -5.628  0.00  0.00     0.029 A 
ATOM      9  C7A BZF d   1       0.922  -4.149  -5.173  0.00  0.00     0.058 A 
ENDROOT
TORSDOF 0
ENDMDL
