MODEL 1
REMARK minimizedAffinity 10.6989384
REMARK minimizedRMSD -1
REMARK  0 active torsions:
REMARK  status: ('A' for Active; 'I' for Inactive)
ROOT
ATOM      1  O1  BZF d   1      -2.076  -3.033  -2.905  0.00  0.00    -0.204 OA
ATOM      2  C2  BZF d   1      -0.829  -3.256  -3.456  0.00  0.00     0.174 A 
ATOM      3  C3  BZF d   1       0.137  -3.118  -2.525  0.00  0.00    -0.012 A 
ATOM      4  C3A BZF d   1      -0.556  -2.879  -1.296  0.00  0.00    -0.107 A 
ATOM      5  C4  BZF d   1      -0.145  -2.676  -0.010  0.00  0.00     0.055 A 
ATOM      6  C5  BZF d   1      -1.072  -2.399   0.944  0.00  0.00    -0.016 A 
ATOM      7  C6  BZF d   1      -2.416  -2.311   0.647  0.00  0.00     0.022 A 
ATOM      8  C7  BZF d   1      -2.873  -2.509  -0.614  0.00  0.00     0.029 A 
ATOM      9  C7A BZF d   1      -1.942  -2.822  -1.574  0.00  0.00     0.058 A 
ENDROOT
TORSDOF 0
ENDMDL
