MODEL 1
REMARK minimizedAffinity 14.9043894
REMARK minimizedRMSD -1
REMARK  0 active torsions:
REMARK  status: ('A' for Active; 'I' for Inactive)
ROOT
ATOM      1  O1  BZF d   1       3.049  -1.156   4.688  0.00  0.00    -0.204 OA
ATOM      2  C2  BZF d   1       2.414  -1.530   3.519  0.00  0.00     0.174 A 
ATOM      3  C3  BZF d   1       2.991  -2.629   2.992  0.00  0.00    -0.012 A 
ATOM      4  C3A BZF d   1       3.993  -3.017   3.936  0.00  0.00    -0.107 A 
ATOM      5  C4  BZF d   1       4.891  -4.045   3.982  0.00  0.00     0.055 A 
ATOM      6  C5  BZF d   1       5.782  -4.099   5.008  0.00  0.00    -0.016 A 
ATOM      7  C6  BZF d   1       5.806  -3.139   5.999  0.00  0.00     0.022 A 
ATOM      8  C7  BZF d   1       4.932  -2.104   5.998  0.00  0.00     0.029 A 
ATOM      9  C7A BZF d   1       4.009  -2.065   4.981  0.00  0.00     0.058 A 
ENDROOT
TORSDOF 0
ENDMDL
