MODEL 1
REMARK minimizedAffinity 2.22046351
REMARK minimizedRMSD -1
REMARK  0 active torsions:
REMARK  status: ('A' for Active; 'I' for Inactive)
ROOT
ATOM      1  O1  BZF d   1      -0.339  -3.436   1.717  0.00  0.00    -0.204 OA
ATOM      2  C2  BZF d   1      -0.295  -3.295   0.343  0.00  0.00     0.174 A 
ATOM      3  C3  BZF d   1      -1.057  -2.256  -0.055  0.00  0.00    -0.012 A 
ATOM      4  C3A BZF d   1      -1.537  -1.657   1.152  0.00  0.00    -0.107 A 
ATOM      5  C4  BZF d   1      -2.331  -0.576   1.412  0.00  0.00     0.055 A 
ATOM      6  C5  BZF d   1      -2.671  -0.301   2.699  0.00  0.00    -0.016 A 
ATOM      7  C6  BZF d   1      -2.241  -1.088   3.747  0.00  0.00     0.022 A 
ATOM      8  C7  BZF d   1      -1.449  -2.167   3.539  0.00  0.00     0.029 A 
ATOM      9  C7A BZF d   1      -1.076  -2.428   2.243  0.00  0.00     0.058 A 
ENDROOT
TORSDOF 0
ENDMDL
