MODEL 1
REMARK minimizedAffinity 7.63554287
REMARK minimizedRMSD -1
REMARK  0 active torsions:
REMARK  status: ('A' for Active; 'I' for Inactive)
ROOT
ATOM      1  O1  BZF d   1      -1.575  -2.099  -3.081  0.00  0.00    -0.204 OA
ATOM      2  C2  BZF d   1      -0.887  -1.939  -1.893  0.00  0.00     0.174 A 
ATOM      3  C3  BZF d   1       0.375  -2.400  -2.006  0.00  0.00    -0.012 A 
ATOM      4  C3A BZF d   1       0.512  -2.794  -3.375  0.00  0.00    -0.107 A 
ATOM      5  C4  BZF d   1       1.542  -3.315  -4.104  0.00  0.00     0.055 A 
ATOM      6  C5  BZF d   1       1.327  -3.656  -5.401  0.00  0.00    -0.016 A 
ATOM      7  C6  BZF d   1       0.095  -3.495  -6.000  0.00  0.00     0.022 A 
ATOM      8  C7  BZF d   1      -0.956  -2.977  -5.319  0.00  0.00     0.029 A 
ATOM      9  C7A BZF d   1      -0.733  -2.601  -4.017  0.00  0.00     0.058 A 
ENDROOT
TORSDOF 0
ENDMDL
