MODEL 1
REMARK minimizedAffinity 13.4658165
REMARK minimizedRMSD -1
REMARK  0 active torsions:
REMARK  status: ('A' for Active; 'I' for Inactive)
ROOT
ATOM      1  O1  BZF d   1       0.823   4.069   1.285  0.00  0.00    -0.204 OA
ATOM      2  C2  BZF d   1       0.894   5.448   1.337  0.00  0.00     0.174 A 
ATOM      3  C3  BZF d   1      -0.294   6.000   1.016  0.00  0.00    -0.012 A 
ATOM      4  C3A BZF d   1      -1.186   4.896   0.838  0.00  0.00    -0.107 A 
ATOM      5  C4  BZF d   1      -2.512   4.801   0.524  0.00  0.00     0.055 A 
ATOM      6  C5  BZF d   1      -3.064   3.571   0.354  0.00  0.00    -0.016 A 
ATOM      7  C6  BZF d   1      -2.320   2.417   0.484  0.00  0.00     0.022 A 
ATOM      8  C7  BZF d   1      -1.003   2.460   0.799  0.00  0.00     0.029 A 
ATOM      9  C7A BZF d   1      -0.450   3.700   1.004  0.00  0.00     0.058 A 
ENDROOT
TORSDOF 0
ENDMDL
