MODEL 1
REMARK minimizedAffinity 21.7688007
REMARK minimizedRMSD -1
REMARK  0 active torsions:
REMARK  status: ('A' for Active; 'I' for Inactive)
ROOT
ATOM      1  O1  BZF d   1      -2.140  -2.282  -2.794  0.00  0.00    -0.204 OA
ATOM      2  C2  BZF d   1      -1.161  -2.765  -3.641  0.00  0.00     0.174 A 
ATOM      3  C3  BZF d   1       0.004  -2.929  -2.981  0.00  0.00    -0.012 A 
ATOM      4  C3A BZF d   1      -0.289  -2.611  -1.617  0.00  0.00    -0.107 A 
ATOM      5  C4  BZF d   1       0.459  -2.602  -0.474  0.00  0.00     0.055 A 
ATOM      6  C5  BZF d   1      -0.109  -2.171   0.683  0.00  0.00    -0.016 A 
ATOM      7  C6  BZF d   1      -1.418  -1.739   0.732  0.00  0.00     0.022 A 
ATOM      8  C7  BZF d   1      -2.200  -1.734  -0.374  0.00  0.00     0.029 A 
ATOM      9  C7A BZF d   1      -1.639  -2.200  -1.538  0.00  0.00     0.058 A 
ENDROOT
TORSDOF 0
ENDMDL
