MODEL 1
REMARK minimizedAffinity 13.6383734
REMARK minimizedRMSD -1
REMARK  0 active torsions:
REMARK  status: ('A' for Active; 'I' for Inactive)
ROOT
ATOM      1  O1  BZF d   1       0.493  -4.782   0.793  0.00  0.00    -0.204 OA
ATOM      2  C2  BZF d   1       0.755  -5.982   0.161  0.00  0.00     0.174 A 
ATOM      3  C3  BZF d   1       0.469  -5.903  -1.154  0.00  0.00    -0.012 A 
ATOM      4  C3A BZF d   1       0.085  -4.543  -1.375  0.00  0.00    -0.107 A 
ATOM      5  C4  BZF d   1      -0.299  -3.843  -2.483  0.00  0.00     0.055 A 
ATOM      6  C5  BZF d   1      -0.678  -2.545  -2.347  0.00  0.00    -0.016 A 
ATOM      7  C6  BZF d   1      -0.690  -1.918  -1.118  0.00  0.00     0.022 A 
ATOM      8  C7  BZF d   1      -0.313  -2.569   0.009  0.00  0.00     0.029 A 
ATOM      9  C7A BZF d   1       0.102  -3.871  -0.131  0.00  0.00     0.058 A 
ENDROOT
TORSDOF 0
ENDMDL
