MODEL 1
REMARK minimizedAffinity 10.6096973
REMARK minimizedRMSD -1
REMARK  0 active torsions:
REMARK  status: ('A' for Active; 'I' for Inactive)
ROOT
ATOM      1  O1  BZF d   1      -4.070   2.686   5.796  0.00  0.00    -0.204 OA
ATOM      2  C2  BZF d   1      -5.436   2.555   5.950  0.00  0.00     0.174 A 
ATOM      3  C3  BZF d   1      -5.790   1.254   6.000  0.00  0.00    -0.012 A 
ATOM      4  C3A BZF d   1      -4.558   0.528   5.961  0.00  0.00    -0.107 A 
ATOM      5  C4  BZF d   1      -4.250  -0.802   5.996  0.00  0.00     0.055 A 
ATOM      6  C5  BZF d   1      -2.953  -1.184   5.865  0.00  0.00    -0.016 A 
ATOM      7  C6  BZF d   1      -1.939  -0.264   5.694  0.00  0.00     0.022 A 
ATOM      8  C7  BZF d   1      -2.194   1.066   5.659  0.00  0.00     0.029 A 
ATOM      9  C7A BZF d   1      -3.500   1.457   5.823  0.00  0.00     0.058 A 
ENDROOT
TORSDOF 0
ENDMDL
