MODEL 1
REMARK minimizedAffinity -0.256114274
REMARK minimizedRMSD -1
REMARK  0 active torsions:
REMARK  status: ('A' for Active; 'I' for Inactive)
ROOT
ATOM      1  C4' PXY d   1       0.695   3.272  -0.290  0.00  0.00     0.077 C 
ATOM      2  C1' PXY d   1       0.152  -2.470   0.106  0.00  0.00     0.077 C 
ATOM      3  C1  PXY d   1       0.283  -0.963  -0.003  0.00  0.00    -0.082 A 
ATOM      4  C2  PXY d   1       1.485  -0.413  -0.059  0.00  0.00     0.003 A 
ATOM      5  C3  PXY d   1       1.621   0.950  -0.126  0.00  0.00     0.003 A 
ATOM      6  C4  PXY d   1       0.516   1.755  -0.189  0.00  0.00    -0.082 A 
ATOM      7  C5  PXY d   1      -0.714   1.200  -0.143  0.00  0.00     0.003 A 
ATOM      8  C6  PXY d   1      -0.831  -0.182  -0.033  0.00  0.00     0.003 A 
ENDROOT
TORSDOF 0
ENDMDL
