MODEL 1
REMARK minimizedAffinity -3.85273528
REMARK minimizedRMSD -1
REMARK  0 active torsions:
REMARK  status: ('A' for Active; 'I' for Inactive)
ROOT
ATOM      1  C4' PXY d   1      -1.309   1.117  -0.360  0.00  0.00     0.077 C 
ATOM      2  C1' PXY d   1      -0.533   4.679  -4.846  0.00  0.00     0.077 C 
ATOM      3  C1  PXY d   1      -0.747   3.740  -3.675  0.00  0.00    -0.082 A 
ATOM      4  C2  PXY d   1      -0.218   4.031  -2.498  0.00  0.00     0.003 A 
ATOM      5  C3  PXY d   1      -0.375   3.178  -1.437  0.00  0.00     0.003 A 
ATOM      6  C4  PXY d   1      -1.126   2.040  -1.568  0.00  0.00    -0.082 A 
ATOM      7  C5  PXY d   1      -1.678   1.742  -2.763  0.00  0.00     0.003 A 
ATOM      8  C6  PXY d   1      -1.472   2.600  -3.838  0.00  0.00     0.003 A 
ENDROOT
TORSDOF 0
ENDMDL
