MODEL 1
REMARK minimizedAffinity 5.3308754
REMARK minimizedRMSD -1
REMARK  0 active torsions:
REMARK  status: ('A' for Active; 'I' for Inactive)
ROOT
ATOM      1  C4' PXY d   1      -0.108   4.723   0.582  0.00  0.00     0.077 C 
ATOM      2  C1' PXY d   1       4.915   1.939  -0.080  0.00  0.00     0.077 C 
ATOM      3  C1  PXY d   1       3.592   2.662   0.084  0.00  0.00    -0.082 A 
ATOM      4  C2  PXY d   1       3.572   3.878   0.607  0.00  0.00     0.003 A 
ATOM      5  C3  PXY d   1       2.381   4.533   0.792  0.00  0.00     0.003 A 
ATOM      6  C4  PXY d   1       1.205   3.960   0.389  0.00  0.00    -0.082 A 
ATOM      7  C5  PXY d   1       1.219   2.724  -0.154  0.00  0.00     0.003 A 
ATOM      8  C6  PXY d   1       2.433   2.059  -0.296  0.00  0.00     0.003 A 
ENDROOT
TORSDOF 0
ENDMDL
