MODEL 1
REMARK minimizedAffinity -4.77115965
REMARK minimizedRMSD -1
REMARK  0 active torsions:
REMARK  status: ('A' for Active; 'I' for Inactive)
ROOT
ATOM      1  C4' PXY d   1       0.684   4.339   0.157  0.00  0.00     0.077 C 
ATOM      2  C1' PXY d   1      -2.691   1.769  -3.771  0.00  0.00     0.077 C 
ATOM      3  C1  PXY d   1      -1.813   2.438  -2.731  0.00  0.00    -0.082 A 
ATOM      4  C2  PXY d   1      -1.116   3.514  -3.058  0.00  0.00     0.003 A 
ATOM      5  C3  PXY d   1      -0.293   4.112  -2.140  0.00  0.00     0.003 A 
ATOM      6  C4  PXY d   1      -0.223   3.636  -0.858  0.00  0.00    -0.082 A 
ATOM      7  C5  PXY d   1      -0.940   2.545  -0.513  0.00  0.00     0.003 A 
ATOM      8  C6  PXY d   1      -1.738   1.928  -1.472  0.00  0.00     0.003 A 
ENDROOT
TORSDOF 0
ENDMDL
