MODEL 1
REMARK minimizedAffinity -1.40487826
REMARK minimizedRMSD -1
REMARK  0 active torsions:
REMARK  status: ('A' for Active; 'I' for Inactive)
ROOT
ATOM      1  C4' PXY d   1       1.796  -2.951   1.328  0.00  0.00     0.077 C 
ATOM      2  C1' PXY d   1      -1.358   1.334  -0.932  0.00  0.00     0.077 C 
ATOM      3  C1  PXY d   1      -0.540   0.208  -0.330  0.00  0.00    -0.082 A 
ATOM      4  C2  PXY d   1       0.770   0.179  -0.516  0.00  0.00     0.003 A 
ATOM      5  C3  PXY d   1       1.520  -0.849  -0.006  0.00  0.00     0.003 A 
ATOM      6  C4  PXY d   1       0.931  -1.829   0.747  0.00  0.00    -0.082 A 
ATOM      7  C5  PXY d   1      -0.403  -1.801   0.951  0.00  0.00     0.003 A 
ATOM      8  C6  PXY d   1      -1.152  -0.771   0.390  0.00  0.00     0.003 A 
ENDROOT
TORSDOF 0
ENDMDL
