MODEL 1
REMARK minimizedAffinity -2.55405021
REMARK minimizedRMSD -1
REMARK  0 active torsions:
REMARK  status: ('A' for Active; 'I' for Inactive)
ROOT
ATOM      1  C4' PXY d   1      -1.549   1.035  -0.387  0.00  0.00     0.077 C 
ATOM      2  C1' PXY d   1      -1.083   4.264  -5.160  0.00  0.00     0.077 C 
ATOM      3  C1  PXY d   1      -1.217   3.412  -3.913  0.00  0.00    -0.082 A 
ATOM      4  C2  PXY d   1      -0.619   3.791  -2.795  0.00  0.00     0.003 A 
ATOM      5  C3  PXY d   1      -0.703   3.016  -1.667  0.00  0.00     0.003 A 
ATOM      6  C4  PXY d   1      -1.449   1.869  -1.668  0.00  0.00    -0.082 A 
ATOM      7  C5  PXY d   1      -2.071   1.481  -2.802  0.00  0.00     0.003 A 
ATOM      8  C6  PXY d   1      -1.940   2.260  -3.948  0.00  0.00     0.003 A 
ENDROOT
TORSDOF 0
ENDMDL
