MODEL 1
REMARK minimizedAffinity -4.42376995
REMARK minimizedRMSD -1
REMARK  0 active torsions:
REMARK  status: ('A' for Active; 'I' for Inactive)
ROOT
ATOM      1  C4' PXY d   1       3.697   4.163  -0.123  0.00  0.00     0.077 C 
ATOM      2  C1' PXY d   1      -0.689   0.401  -0.283  0.00  0.00     0.077 C 
ATOM      3  C1  PXY d   1       0.453   1.397  -0.242  0.00  0.00    -0.082 A 
ATOM      4  C2  PXY d   1       1.665   1.019  -0.612  0.00  0.00     0.003 A 
ATOM      5  C3  PXY d   1       2.715   1.898  -0.551  0.00  0.00     0.003 A 
ATOM      6  C4  PXY d   1       2.512   3.193  -0.157  0.00  0.00    -0.082 A 
ATOM      7  C5  PXY d   1       1.276   3.591   0.212  0.00  0.00     0.003 A 
ATOM      8  C6  PXY d   1       0.231   2.671   0.182  0.00  0.00     0.003 A 
ENDROOT
TORSDOF 0
ENDMDL
