MODEL 1
REMARK minimizedAffinity -1.37622011
REMARK minimizedRMSD -1
REMARK  0 active torsions:
REMARK  status: ('A' for Active; 'I' for Inactive)
ROOT
ATOM      1  C4' PXY d   1       1.594  -2.893   0.826  0.00  0.00     0.077 C 
ATOM      2  C1' PXY d   1      -2.166   1.496   0.933  0.00  0.00     0.077 C 
ATOM      3  C1  PXY d   1      -1.178   0.347   0.892  0.00  0.00    -0.082 A 
ATOM      4  C2  PXY d   1      -1.210  -0.577   1.839  0.00  0.00     0.003 A 
ATOM      5  C3  PXY d   1      -0.304  -1.606   1.834  0.00  0.00     0.003 A 
ATOM      6  C4  PXY d   1       0.610  -1.720   0.822  0.00  0.00    -0.082 A 
ATOM      7  C5  PXY d   1       0.642  -0.787  -0.154  0.00  0.00     0.003 A 
ATOM      8  C6  PXY d   1      -0.259   0.272  -0.109  0.00  0.00     0.003 A 
ENDROOT
TORSDOF 0
ENDMDL
