MODEL 1
REMARK minimizedAffinity -1.52633941
REMARK minimizedRMSD -1
REMARK  0 active torsions:
REMARK  status: ('A' for Active; 'I' for Inactive)
ROOT
ATOM      1  C4' PXY d   1      -1.052   3.358  -1.292  0.00  0.00     0.077 C 
ATOM      2  C1' PXY d   1      -0.765  -1.944   0.992  0.00  0.00     0.077 C 
ATOM      3  C1  PXY d   1      -0.853  -0.553   0.396  0.00  0.00    -0.082 A 
ATOM      4  C2  PXY d   1       0.045  -0.166  -0.495  0.00  0.00     0.003 A 
ATOM      5  C3  PXY d   1      -0.001   1.100  -1.021  0.00  0.00     0.003 A 
ATOM      6  C4  PXY d   1      -1.007   1.960  -0.670  0.00  0.00    -0.082 A 
ATOM      7  C5  PXY d   1      -1.934   1.568   0.230  0.00  0.00     0.003 A 
ATOM      8  C6  PXY d   1      -1.846   0.294   0.783  0.00  0.00     0.003 A 
ENDROOT
TORSDOF 0
ENDMDL
