MODEL 1
REMARK minimizedAffinity -2.43519282
REMARK minimizedRMSD -1
REMARK  0 active torsions:
REMARK  status: ('A' for Active; 'I' for Inactive)
ROOT
ATOM      1  C4' PXY d   1      -3.638   0.507  -2.690  0.00  0.00     0.077 C 
ATOM      2  C1' PXY d   1       0.072   4.665  -4.227  0.00  0.00     0.077 C 
ATOM      3  C1  PXY d   1      -0.911   3.581  -3.830  0.00  0.00    -0.082 A 
ATOM      4  C2  PXY d   1      -0.673   2.843  -2.758  0.00  0.00     0.003 A 
ATOM      5  C3  PXY d   1      -1.534   1.837  -2.403  0.00  0.00     0.003 A 
ATOM      6  C4  PXY d   1      -2.679   1.619  -3.123  0.00  0.00    -0.082 A 
ATOM      7  C5  PXY d   1      -2.934   2.375  -4.211  0.00  0.00     0.003 A 
ATOM      8  C6  PXY d   1      -2.026   3.364  -4.579  0.00  0.00     0.003 A 
ENDROOT
TORSDOF 0
ENDMDL
