MODEL 1
REMARK minimizedAffinity -2.32822919
REMARK minimizedRMSD -1
REMARK  0 active torsions:
REMARK  status: ('A' for Active; 'I' for Inactive)
ROOT
ATOM      1  C4' PXY d   1      -0.007   2.066  -1.068  0.00  0.00     0.077 C 
ATOM      2  C1' PXY d   1       1.359  -2.973   1.414  0.00  0.00     0.077 C 
ATOM      3  C1  PXY d   1       1.013  -1.647   0.765  0.00  0.00    -0.082 A 
ATOM      4  C2  PXY d   1      -0.245  -1.238   0.744  0.00  0.00     0.003 A 
ATOM      5  C3  PXY d   1      -0.580  -0.057   0.133  0.00  0.00     0.003 A 
ATOM      6  C4  PXY d   1       0.390   0.739  -0.415  0.00  0.00    -0.082 A 
ATOM      7  C5  PXY d   1       1.677   0.333  -0.388  0.00  0.00     0.003 A 
ATOM      8  C6  PXY d   1       1.991  -0.888   0.200  0.00  0.00     0.003 A 
ENDROOT
TORSDOF 0
ENDMDL
