MODEL 1
REMARK minimizedAffinity -4.42210245
REMARK minimizedRMSD -1
REMARK  0 active torsions:
REMARK  status: ('A' for Active; 'I' for Inactive)
ROOT
ATOM      1  C4' PXY d   1      -0.544   1.925  -0.794  0.00  0.00     0.077 C 
ATOM      2  C1' PXY d   1       1.535  -3.189   0.919  0.00  0.00     0.077 C 
ATOM      3  C1  PXY d   1       1.002  -1.844   0.467  0.00  0.00    -0.082 A 
ATOM      4  C2  PXY d   1      -0.143  -1.396   0.956  0.00  0.00     0.003 A 
ATOM      5  C3  PXY d   1      -0.655  -0.197   0.534  0.00  0.00     0.003 A 
ATOM      6  C4  PXY d   1       0.037   0.577  -0.359  0.00  0.00    -0.082 A 
ATOM      7  C5  PXY d   1       1.211   0.132  -0.854  0.00  0.00     0.003 A 
ATOM      8  C6  PXY d   1       1.694  -1.107  -0.444  0.00  0.00     0.003 A 
ENDROOT
TORSDOF 0
ENDMDL
