MODEL 1
REMARK minimizedAffinity -4.02571154
REMARK minimizedRMSD -1
REMARK  0 active torsions:
REMARK  status: ('A' for Active; 'I' for Inactive)
ROOT
ATOM      1  C4' PXY d   1       1.729  -2.369   1.374  0.00  0.00     0.077 C 
ATOM      2  C1' PXY d   1      -1.807   0.886  -1.838  0.00  0.00     0.077 C 
ATOM      3  C1  PXY d   1      -0.881   0.041  -0.986  0.00  0.00    -0.082 A 
ATOM      4  C2  PXY d   1       0.019  -0.734  -1.569  0.00  0.00     0.003 A 
ATOM      5  C3  PXY d   1       0.843  -1.530  -0.814  0.00  0.00     0.003 A 
ATOM      6  C4  PXY d   1       0.780  -1.491   0.553  0.00  0.00    -0.082 A 
ATOM      7  C5  PXY d   1      -0.128  -0.695   1.156  0.00  0.00     0.003 A 
ATOM      8  C6  PXY d   1      -0.983   0.073   0.371  0.00  0.00     0.003 A 
ENDROOT
TORSDOF 0
ENDMDL
