MODEL 1
REMARK minimizedAffinity -3.23805881
REMARK minimizedRMSD -1
REMARK  0 active torsions:
REMARK  status: ('A' for Active; 'I' for Inactive)
ROOT
ATOM      1  C4' PXY d   1      -1.227   1.332  -1.577  0.00  0.00     0.077 C 
ATOM      2  C1' PXY d   1       0.895  -2.941   1.687  0.00  0.00     0.077 C 
ATOM      3  C1  PXY d   1       0.331  -1.817   0.841  0.00  0.00    -0.082 A 
ATOM      4  C2  PXY d   1       0.388  -1.899  -0.478  0.00  0.00     0.003 A 
ATOM      5  C3  PXY d   1      -0.088  -0.877  -1.258  0.00  0.00     0.003 A 
ATOM      6  C4  PXY d   1      -0.678   0.217  -0.683  0.00  0.00    -0.082 A 
ATOM      7  C5  PXY d   1      -0.750   0.303   0.662  0.00  0.00     0.003 A 
ATOM      8  C6  PXY d   1      -0.223  -0.726   1.437  0.00  0.00     0.003 A 
ENDROOT
TORSDOF 0
ENDMDL
