MODEL 1
REMARK minimizedAffinity -4.31903172
REMARK minimizedRMSD -1
REMARK  0 active torsions:
REMARK  status: ('A' for Active; 'I' for Inactive)
ROOT
ATOM      1  C4' PXY d   1       3.365   3.201  -0.120  0.00  0.00     0.077 C 
ATOM      2  C1' PXY d   1      -0.317  -1.233   0.325  0.00  0.00     0.077 C 
ATOM      3  C1  PXY d   1       0.639  -0.062   0.204  0.00  0.00    -0.082 A 
ATOM      4  C2  PXY d   1       1.936  -0.288   0.075  0.00  0.00     0.003 A 
ATOM      5  C3  PXY d   1       2.818   0.759  -0.003  0.00  0.00     0.003 A 
ATOM      6  C4  PXY d   1       2.362   2.050  -0.004  0.00  0.00    -0.082 A 
ATOM      7  C5  PXY d   1       1.039   2.288   0.116  0.00  0.00     0.003 A 
ATOM      8  C6  PXY d   1       0.164   1.212   0.236  0.00  0.00     0.003 A 
ENDROOT
TORSDOF 0
ENDMDL
