MODEL 1
REMARK minimizedAffinity -1.95908403
REMARK minimizedRMSD -1
REMARK  0 active torsions:
REMARK  status: ('A' for Active; 'I' for Inactive)
ROOT
ATOM      1  C4' PXY d   1       2.956  -1.381   2.258  0.00  0.00     0.077 C 
ATOM      2  C1' PXY d   1      -1.341   0.236  -1.254  0.00  0.00     0.077 C 
ATOM      3  C1  PXY d   1      -0.223  -0.195  -0.327  0.00  0.00    -0.082 A 
ATOM      4  C2  PXY d   1       0.842   0.577  -0.182  0.00  0.00     0.003 A 
ATOM      5  C3  PXY d   1       1.877   0.186   0.628  0.00  0.00     0.003 A 
ATOM      6  C4  PXY d   1       1.798  -0.981   1.339  0.00  0.00    -0.082 A 
ATOM      7  C5  PXY d   1       0.710  -1.769   1.205  0.00  0.00     0.003 A 
ATOM      8  C6  PXY d   1      -0.311  -1.375   0.346  0.00  0.00     0.003 A 
ENDROOT
TORSDOF 0
ENDMDL
