MODEL 1
REMARK minimizedAffinity -5.20648193
REMARK minimizedRMSD -1
REMARK  0 active torsions:
REMARK  status: ('A' for Active; 'I' for Inactive)
ROOT
ATOM      1  C4' PXY d   1       1.433  -3.425   1.081  0.00  0.00     0.077 C 
ATOM      2  C1' PXY d   1       0.064   2.033  -0.239  0.00  0.00     0.077 C 
ATOM      3  C1  PXY d   1       0.433   0.602   0.099  0.00  0.00    -0.082 A 
ATOM      4  C2  PXY d   1      -0.478  -0.203   0.621  0.00  0.00     0.003 A 
ATOM      5  C3  PXY d   1      -0.153  -1.490   0.961  0.00  0.00     0.003 A 
ATOM      6  C4  PXY d   1       1.103  -1.976   0.716  0.00  0.00    -0.082 A 
ATOM      7  C5  PXY d   1       2.036  -1.164   0.174  0.00  0.00     0.003 A 
ATOM      8  C6  PXY d   1       1.697   0.152  -0.127  0.00  0.00     0.003 A 
ENDROOT
TORSDOF 0
ENDMDL
