MODEL 1
REMARK minimizedAffinity -5.17179585
REMARK minimizedRMSD -1
REMARK  0 active torsions:
REMARK  status: ('A' for Active; 'I' for Inactive)
ROOT
ATOM      1  C4' PXY d   1       0.069   2.819  -0.354  0.00  0.00     0.077 C 
ATOM      2  C1' PXY d   1       1.440  -2.760   0.280  0.00  0.00     0.077 C 
ATOM      3  C1  PXY d   1       1.069  -1.300   0.111  0.00  0.00    -0.082 A 
ATOM      4  C2  PXY d   1       2.007  -0.417  -0.189  0.00  0.00     0.003 A 
ATOM      5  C3  PXY d   1       1.694   0.912  -0.314  0.00  0.00     0.003 A 
ATOM      6  C4  PXY d   1       0.397   1.334  -0.183  0.00  0.00    -0.082 A 
ATOM      7  C5  PXY d   1      -0.567   0.437   0.112  0.00  0.00     0.003 A 
ATOM      8  C6  PXY d   1      -0.222  -0.902   0.276  0.00  0.00     0.003 A 
ENDROOT
TORSDOF 0
ENDMDL
