MODEL 1
REMARK minimizedAffinity -0.140759811
REMARK minimizedRMSD -1
REMARK  0 active torsions:
REMARK  status: ('A' for Active; 'I' for Inactive)
ROOT
ATOM      1  O1  BZF d   1      -0.468  -1.934  -0.279  0.00  0.00    -0.204 OA
ATOM      2  C2  BZF d   1       0.748  -1.312  -0.486  0.00  0.00     0.174 A 
ATOM      3  C3  BZF d   1       0.805  -0.771  -1.720  0.00  0.00    -0.012 A 
ATOM      4  C3A BZF d   1      -0.488  -0.995  -2.289  0.00  0.00    -0.107 A 
ATOM      5  C4  BZF d   1      -1.054  -0.675  -3.490  0.00  0.00     0.055 A 
ATOM      6  C5  BZF d   1      -2.315  -1.104  -3.762  0.00  0.00    -0.016 A 
ATOM      7  C6  BZF d   1      -3.035  -1.857  -2.859  0.00  0.00     0.022 A 
ATOM      8  C7  BZF d   1      -2.519  -2.196  -1.653  0.00  0.00     0.029 A 
ATOM      9  C7A BZF d   1      -1.257  -1.736  -1.362  0.00  0.00     0.058 A 
ENDROOT
TORSDOF 0
ENDMDL
