MODEL 1
REMARK minimizedAffinity 1.05370128
REMARK minimizedRMSD -1
REMARK  0 active torsions:
REMARK  status: ('A' for Active; 'I' for Inactive)
ROOT
ATOM      1  O1  BZF d   1       0.525   1.356   1.702  0.00  0.00    -0.204 OA
ATOM      2  C2  BZF d   1      -0.800   1.400   2.089  0.00  0.00     0.174 A 
ATOM      3  C3  BZF d   1      -1.529   0.495   1.405  0.00  0.00    -0.012 A 
ATOM      4  C3A BZF d   1      -0.584  -0.219   0.602  0.00  0.00    -0.107 A 
ATOM      5  C4  BZF d   1      -0.696  -1.253  -0.284  0.00  0.00     0.055 A 
ATOM      6  C5  BZF d   1       0.409  -1.669  -0.956  0.00  0.00    -0.016 A 
ATOM      7  C6  BZF d   1       1.639  -1.073  -0.771  0.00  0.00     0.022 A 
ATOM      8  C7  BZF d   1       1.801  -0.048   0.101  0.00  0.00     0.029 A 
ATOM      9  C7A BZF d   1       0.692   0.354   0.806  0.00  0.00     0.058 A 
ENDROOT
TORSDOF 0
ENDMDL
