MODEL 1
REMARK minimizedAffinity 4.24688435
REMARK minimizedRMSD -1
REMARK  0 active torsions:
REMARK  status: ('A' for Active; 'I' for Inactive)
ROOT
ATOM      1  O1  BZF d   1       0.851  -1.113  -0.660  0.00  0.00    -0.204 OA
ATOM      2  C2  BZF d   1       1.989  -0.649  -1.292  0.00  0.00     0.174 A 
ATOM      3  C3  BZF d   1       2.359   0.548  -0.791  0.00  0.00    -0.012 A 
ATOM      4  C3A BZF d   1       1.446   0.807   0.279  0.00  0.00    -0.107 A 
ATOM      5  C4  BZF d   1       1.311   1.833   1.170  0.00  0.00     0.055 A 
ATOM      6  C5  BZF d   1       0.269   1.817   2.042  0.00  0.00    -0.016 A 
ATOM      7  C6  BZF d   1      -0.658   0.795   2.048  0.00  0.00     0.022 A 
ATOM      8  C7  BZF d   1      -0.562  -0.247   1.187  0.00  0.00     0.029 A 
ATOM      9  C7A BZF d   1       0.508  -0.250   0.326  0.00  0.00     0.058 A 
ENDROOT
TORSDOF 0
ENDMDL
