MODEL 1
REMARK minimizedAffinity 2.16975117
REMARK minimizedRMSD -1
REMARK  0 active torsions:
REMARK  status: ('A' for Active; 'I' for Inactive)
ROOT
ATOM      1  O1  BZF d   1      -0.735  -4.720   2.199  0.00  0.00    -0.204 OA
ATOM      2  C2  BZF d   1      -0.428  -3.380   2.330  0.00  0.00     0.174 A 
ATOM      3  C3  BZF d   1      -1.069  -2.648   1.396  0.00  0.00    -0.012 A 
ATOM      4  C3A BZF d   1      -1.896  -3.579   0.692  0.00  0.00    -0.107 A 
ATOM      5  C4  BZF d   1      -2.782  -3.455  -0.340  0.00  0.00     0.055 A 
ATOM      6  C5  BZF d   1      -3.371  -4.571  -0.843  0.00  0.00    -0.016 A 
ATOM      7  C6  BZF d   1      -3.093  -5.827  -0.344  0.00  0.00     0.022 A 
ATOM      8  C7  BZF d   1      -2.225  -6.000   0.682  0.00  0.00     0.029 A 
ATOM      9  C7A BZF d   1      -1.653  -4.870   1.215  0.00  0.00     0.058 A 
ENDROOT
TORSDOF 0
ENDMDL
