MODEL 1
REMARK minimizedAffinity -0.182198793
REMARK minimizedRMSD -1
REMARK  0 active torsions:
REMARK  status: ('A' for Active; 'I' for Inactive)
ROOT
ATOM      1  O1  BZF d   1      -0.524   0.321  -3.515  0.00  0.00    -0.204 OA
ATOM      2  C2  BZF d   1      -0.924  -1.001  -3.519  0.00  0.00     0.174 A 
ATOM      3  C3  BZF d   1      -0.237  -1.712  -2.602  0.00  0.00    -0.012 A 
ATOM      4  C3A BZF d   1       0.582  -0.756  -1.922  0.00  0.00    -0.107 A 
ATOM      5  C4  BZF d   1       1.478  -0.849  -0.895  0.00  0.00     0.055 A 
ATOM      6  C5  BZF d   1       2.165   0.261  -0.516  0.00  0.00    -0.016 A 
ATOM      7  C6  BZF d   1       1.985   1.476  -1.143  0.00  0.00     0.022 A 
ATOM      8  C7  BZF d   1       1.104   1.618  -2.163  0.00  0.00     0.029 A 
ATOM      9  C7A BZF d   1       0.384   0.507  -2.527  0.00  0.00     0.058 A 
ENDROOT
TORSDOF 0
ENDMDL
