MODEL 1
REMARK minimizedAffinity 5.24755001
REMARK minimizedRMSD -1
REMARK  0 active torsions:
REMARK  status: ('A' for Active; 'I' for Inactive)
ROOT
ATOM      1  O1  BZF d   1      -2.170   2.175   2.157  0.00  0.00    -0.204 OA
ATOM      2  C2  BZF d   1      -2.455   1.030   2.876  0.00  0.00     0.174 A 
ATOM      3  C3  BZF d   1      -1.341   0.292   3.061  0.00  0.00    -0.012 A 
ATOM      4  C3A BZF d   1      -0.278   1.068   2.498  0.00  0.00    -0.107 A 
ATOM      5  C4  BZF d   1       1.069   0.874   2.389  0.00  0.00     0.055 A 
ATOM      6  C5  BZF d   1       1.816   1.790   1.718  0.00  0.00    -0.016 A 
ATOM      7  C6  BZF d   1       1.248   2.906   1.139  0.00  0.00     0.022 A 
ATOM      8  C7  BZF d   1      -0.084   3.144   1.225  0.00  0.00     0.029 A 
ATOM      9  C7A BZF d   1      -0.836   2.237   1.931  0.00  0.00     0.058 A 
ENDROOT
TORSDOF 0
ENDMDL
