MODEL 1
REMARK minimizedAffinity 16.6288242
REMARK minimizedRMSD -1
REMARK  0 active torsions:
REMARK  status: ('A' for Active; 'I' for Inactive)
ROOT
ATOM      1  O1  BZF d   1       1.145   2.604   2.261  0.00  0.00    -0.204 OA
ATOM      2  C2  BZF d   1       1.464   1.591   3.144  0.00  0.00     0.174 A 
ATOM      3  C3  BZF d   1       0.381   0.833   3.414  0.00  0.00    -0.012 A 
ATOM      4  C3A BZF d   1      -0.659   1.353   2.580  0.00  0.00    -0.107 A 
ATOM      5  C4  BZF d   1      -1.966   1.009   2.386  0.00  0.00     0.055 A 
ATOM      6  C5  BZF d   1      -2.732   1.765   1.555  0.00  0.00    -0.016 A 
ATOM      7  C6  BZF d   1      -2.225   2.872   0.908  0.00  0.00     0.022 A 
ATOM      8  C7  BZF d   1      -0.933   3.250   1.066  0.00  0.00     0.029 A 
ATOM      9  C7A BZF d   1      -0.148   2.469   1.879  0.00  0.00     0.058 A 
ENDROOT
TORSDOF 0
ENDMDL
