MODEL 1
REMARK minimizedAffinity 5.77407742
REMARK minimizedRMSD -1
REMARK  0 active torsions:
REMARK  status: ('A' for Active; 'I' for Inactive)
ROOT
ATOM      1  O1  BZF d   1       1.482  -0.006  -3.613  0.00  0.00    -0.204 OA
ATOM      2  C2  BZF d   1       0.217   0.515  -3.421  0.00  0.00     0.174 A 
ATOM      3  C3  BZF d   1      -0.040   0.674  -2.107  0.00  0.00    -0.012 A 
ATOM      4  C3A BZF d   1       1.172   0.311  -1.439  0.00  0.00    -0.107 A 
ATOM      5  C4  BZF d   1       1.547   0.277  -0.127  0.00  0.00     0.055 A 
ATOM      6  C5  BZF d   1       2.780  -0.196   0.196  0.00  0.00    -0.016 A 
ATOM      7  C6  BZF d   1       3.659  -0.647  -0.767  0.00  0.00     0.022 A 
ATOM      8  C7  BZF d   1       3.334  -0.628  -2.082  0.00  0.00     0.029 A 
ATOM      9  C7A BZF d   1       2.102  -0.120  -2.414  0.00  0.00     0.058 A 
ENDROOT
TORSDOF 0
ENDMDL
