MODEL 1
REMARK minimizedAffinity 2.45074987
REMARK minimizedRMSD -1
REMARK  0 active torsions:
REMARK  status: ('A' for Active; 'I' for Inactive)
ROOT
ATOM      1  O1  BZF d   1      -5.094  -3.180  -2.147  0.00  0.00    -0.204 OA
ATOM      2  C2  BZF d   1      -5.992  -4.181  -2.463  0.00  0.00     0.174 A 
ATOM      3  C3  BZF d   1      -5.509  -5.388  -2.104  0.00  0.00    -0.012 A 
ATOM      4  C3A BZF d   1      -4.269  -5.116  -1.443  0.00  0.00    -0.107 A 
ATOM      5  C4  BZF d   1      -3.329  -5.907  -0.847  0.00  0.00     0.055 A 
ATOM      6  C5  BZF d   1      -2.197  -5.335  -0.359  0.00  0.00    -0.016 A 
ATOM      7  C6  BZF d   1      -1.971  -3.978  -0.454  0.00  0.00     0.022 A 
ATOM      8  C7  BZF d   1      -2.876  -3.151  -1.032  0.00  0.00     0.029 A 
ATOM      9  C7A BZF d   1      -4.036  -3.722  -1.497  0.00  0.00     0.058 A 
ENDROOT
TORSDOF 0
ENDMDL
