MODEL 1
REMARK minimizedAffinity 0.430318385
REMARK minimizedRMSD -1
REMARK  0 active torsions:
REMARK  status: ('A' for Active; 'I' for Inactive)
ROOT
ATOM      1  O1  BZF d   1      -5.114   3.960   4.126  0.00  0.00    -0.204 OA
ATOM      2  C2  BZF d   1      -5.840   5.008   4.660  0.00  0.00     0.174 A 
ATOM      3  C3  BZF d   1      -6.000   5.991   3.751  0.00  0.00    -0.012 A 
ATOM      4  C3A BZF d   1      -5.411   5.490   2.547  0.00  0.00    -0.107 A 
ATOM      5  C4  BZF d   1      -5.270   6.000   1.287  0.00  0.00     0.055 A 
ATOM      6  C5  BZF d   1      -4.581   5.286   0.359  0.00  0.00    -0.016 A 
ATOM      7  C6  BZF d   1      -4.015   4.064   0.657  0.00  0.00     0.022 A 
ATOM      8  C7  BZF d   1      -4.132   3.515   1.891  0.00  0.00     0.029 A 
ATOM      9  C7A BZF d   1      -4.856   4.219   2.821  0.00  0.00     0.058 A 
ENDROOT
TORSDOF 0
ENDMDL
