MODEL 1
REMARK minimizedAffinity 15.7857437
REMARK minimizedRMSD -1
REMARK  0 active torsions:
REMARK  status: ('A' for Active; 'I' for Inactive)
ROOT
ATOM      1  O1  BZF d   1      -0.600   2.682   2.875  0.00  0.00    -0.204 OA
ATOM      2  C2  BZF d   1       0.615   2.242   2.386  0.00  0.00     0.174 A 
ATOM      3  C3  BZF d   1       0.547   0.941   2.038  0.00  0.00    -0.012 A 
ATOM      4  C3A BZF d   1      -0.819   0.568   2.240  0.00  0.00    -0.107 A 
ATOM      5  C4  BZF d   1      -1.512  -0.594   2.055  0.00  0.00     0.055 A 
ATOM      6  C5  BZF d   1      -2.820  -0.648   2.418  0.00  0.00    -0.016 A 
ATOM      7  C6  BZF d   1      -3.465   0.438   2.974  0.00  0.00     0.022 A 
ATOM      8  C7  BZF d   1      -2.820   1.614   3.172  0.00  0.00     0.029 A 
ATOM      9  C7A BZF d   1      -1.507   1.681   2.775  0.00  0.00     0.058 A 
ENDROOT
TORSDOF 0
ENDMDL
