MODEL 1
REMARK minimizedAffinity 7.39228296
REMARK minimizedRMSD -1
REMARK  0 active torsions:
REMARK  status: ('A' for Active; 'I' for Inactive)
ROOT
ATOM      1  O1  BZF d   1       0.935  -0.611   0.327  0.00  0.00    -0.204 OA
ATOM      2  C2  BZF d   1       2.046  -0.048  -0.270  0.00  0.00     0.174 A 
ATOM      3  C3  BZF d   1       2.213   1.227   0.137  0.00  0.00    -0.012 A 
ATOM      4  C3A BZF d   1       1.193   1.446   1.116  0.00  0.00    -0.107 A 
ATOM      5  C4  BZF d   1       0.852   2.516   1.894  0.00  0.00     0.055 A 
ATOM      6  C5  BZF d   1      -0.243   2.429   2.693  0.00  0.00    -0.016 A 
ATOM      7  C6  BZF d   1      -1.022   1.291   2.736  0.00  0.00     0.022 A 
ATOM      8  C7  BZF d   1      -0.721   0.203   1.987  0.00  0.00     0.029 A 
ATOM      9  C7A BZF d   1       0.404   0.276   1.202  0.00  0.00     0.058 A 
ENDROOT
TORSDOF 0
ENDMDL
