MODEL 1
REMARK minimizedAffinity 11.9867868
REMARK minimizedRMSD -1
REMARK  0 active torsions:
REMARK  status: ('A' for Active; 'I' for Inactive)
ROOT
ATOM      1  O1  BZF d   1       1.272  -1.407  -0.488  0.00  0.00    -0.204 OA
ATOM      2  C2  BZF d   1       2.213  -1.535  -1.491  0.00  0.00     0.174 A 
ATOM      3  C3  BZF d   1       3.096  -0.516  -1.451  0.00  0.00    -0.012 A 
ATOM      4  C3A BZF d   1       2.736   0.249  -0.297  0.00  0.00    -0.107 A 
ATOM      5  C4  BZF d   1       3.249   1.375   0.281  0.00  0.00     0.055 A 
ATOM      6  C5  BZF d   1       2.619   1.910   1.360  0.00  0.00    -0.016 A 
ATOM      7  C6  BZF d   1       1.473   1.349   1.883  0.00  0.00     0.022 A 
ATOM      8  C7  BZF d   1       0.929   0.229   1.347  0.00  0.00     0.029 A 
ATOM      9  C7A BZF d   1       1.582  -0.333   0.277  0.00  0.00     0.058 A 
ENDROOT
TORSDOF 0
ENDMDL
