MODEL 1
REMARK minimizedAffinity 0.421593904
REMARK minimizedRMSD -1
REMARK  0 active torsions:
REMARK  status: ('A' for Active; 'I' for Inactive)
ROOT
ATOM      1  O1  BZF d   1       1.971   0.005  -0.508  0.00  0.00    -0.204 OA
ATOM      2  C2  BZF d   1       1.245  -1.159  -0.672  0.00  0.00     0.174 A 
ATOM      3  C3  BZF d   1       0.050  -1.068  -0.054  0.00  0.00    -0.012 A 
ATOM      4  C3A BZF d   1      -0.011   0.268   0.455  0.00  0.00    -0.107 A 
ATOM      5  C4  BZF d   1      -0.956   0.966   1.151  0.00  0.00     0.055 A 
ATOM      6  C5  BZF d   1      -0.675   2.231   1.560  0.00  0.00    -0.016 A 
ATOM      7  C6  BZF d   1       0.541   2.826   1.295  0.00  0.00     0.022 A 
ATOM      8  C7  BZF d   1       1.508   2.176   0.604  0.00  0.00     0.029 A 
ATOM      9  C7A BZF d   1       1.215   0.909   0.161  0.00  0.00     0.058 A 
ENDROOT
TORSDOF 0
ENDMDL
