MODEL 1
REMARK minimizedAffinity -2.29680085
REMARK minimizedRMSD -1
REMARK  0 active torsions:
REMARK  status: ('A' for Active; 'I' for Inactive)
ROOT
ATOM      1  O1  BZF d   1       0.470  -1.392  -0.377  0.00  0.00    -0.204 OA
ATOM      2  C2  BZF d   1       1.771  -1.267  -0.823  0.00  0.00     0.174 A 
ATOM      3  C3  BZF d   1       2.356  -0.174  -0.291  0.00  0.00    -0.012 A 
ATOM      4  C3A BZF d   1       1.387   0.369   0.611  0.00  0.00    -0.107 A 
ATOM      5  C4  BZF d   1       1.385   1.448   1.449  0.00  0.00     0.055 A 
ATOM      6  C5  BZF d   1       0.254   1.746   2.139  0.00  0.00    -0.016 A 
ATOM      7  C6  BZF d   1      -0.894   0.991   2.013  0.00  0.00     0.022 A 
ATOM      8  C7  BZF d   1      -0.939  -0.091   1.198  0.00  0.00     0.029 A 
ATOM      9  C7A BZF d   1       0.213  -0.414   0.524  0.00  0.00     0.058 A 
ENDROOT
TORSDOF 0
ENDMDL
