MODEL 1
REMARK minimizedAffinity -4.63150978
REMARK minimizedRMSD -1
REMARK  0 active torsions:
REMARK  status: ('A' for Active; 'I' for Inactive)
ROOT
ATOM      1  C   UNL d   1       3.060  -1.861  -2.584  0.00  0.00     0.078 C 
ATOM      2  C1  UNL d   1       2.668  -0.777  -1.624  0.00  0.00    -0.077 A 
ATOM      3  C2  UNL d   1       1.514  -0.890  -0.840  0.00  0.00    -0.001 A 
ATOM      4  C3  UNL d   1       1.156   0.131   0.042  0.00  0.00     0.003 A 
ATOM      5  C4  UNL d   1       1.947   1.274   0.146  0.00  0.00    -0.005 A 
ATOM      6  C5  UNL d   1       3.096   1.397  -0.632  0.00  0.00     0.003 A 
ATOM      7  C6  UNL d   1       3.455   0.377  -1.514  0.00  0.00    -0.001 A 
ENDROOT
TORSDOF 0
ENDMDL
