MODEL 1
REMARK minimizedAffinity 2.42234993
REMARK minimizedRMSD -1
REMARK  0 active torsions:
REMARK  status: ('A' for Active; 'I' for Inactive)
ROOT
ATOM      1  C   UNL d   1       2.120  -0.250  -0.510  0.00  0.00     0.078 C 
ATOM      2  C1  UNL d   1       3.365   0.535  -0.801  0.00  0.00    -0.077 A 
ATOM      3  C2  UNL d   1       4.504   0.402   0.002  0.00  0.00    -0.001 A 
ATOM      4  C3  UNL d   1       5.653   1.146  -0.274  0.00  0.00     0.003 A 
ATOM      5  C4  UNL d   1       5.672   2.028  -1.352  0.00  0.00    -0.005 A 
ATOM      6  C5  UNL d   1       4.542   2.168  -2.155  0.00  0.00     0.003 A 
ATOM      7  C6  UNL d   1       3.393   1.426  -1.881  0.00  0.00    -0.001 A 
ENDROOT
TORSDOF 0
ENDMDL
