MODEL 1
REMARK minimizedAffinity -1.50888276
REMARK minimizedRMSD -1
REMARK  0 active torsions:
REMARK  status: ('A' for Active; 'I' for Inactive)
ROOT
ATOM      1  C   UNL d   1       1.573  -1.130   0.321  0.00  0.00     0.078 C 
ATOM      2  C1  UNL d   1       2.422   0.025  -0.116  0.00  0.00    -0.077 A 
ATOM      3  C2  UNL d   1       3.820  -0.046  -0.063  0.00  0.00    -0.001 A 
ATOM      4  C3  UNL d   1       4.598   1.042  -0.464  0.00  0.00     0.003 A 
ATOM      5  C4  UNL d   1       3.988   2.208  -0.921  0.00  0.00    -0.005 A 
ATOM      6  C5  UNL d   1       2.598   2.289  -0.976  0.00  0.00     0.003 A 
ATOM      7  C6  UNL d   1       1.818   1.203  -0.575  0.00  0.00    -0.001 A 
ENDROOT
TORSDOF 0
ENDMDL
