MODEL 1
REMARK minimizedAffinity 0.152634695
REMARK minimizedRMSD -1
REMARK  0 active torsions:
REMARK  status: ('A' for Active; 'I' for Inactive)
ROOT
ATOM      1  C   UNL d   1       3.063   1.530  -0.813  0.00  0.00     0.078 C 
ATOM      2  C1  UNL d   1       2.536   0.130  -0.717  0.00  0.00    -0.077 A 
ATOM      3  C2  UNL d   1       2.204  -0.433   0.521  0.00  0.00    -0.001 A 
ATOM      4  C3  UNL d   1       1.723  -1.741   0.596  0.00  0.00     0.003 A 
ATOM      5  C4  UNL d   1       1.571  -2.498  -0.564  0.00  0.00    -0.005 A 
ATOM      6  C5  UNL d   1       1.901  -1.947  -1.801  0.00  0.00     0.003 A 
ATOM      7  C6  UNL d   1       2.382  -0.639  -1.878  0.00  0.00    -0.001 A 
ENDROOT
TORSDOF 0
ENDMDL
