MODEL 1
REMARK minimizedAffinity 2.96365166
REMARK minimizedRMSD -1
REMARK  0 active torsions:
REMARK  status: ('A' for Active; 'I' for Inactive)
ROOT
ATOM      1  C   UNL d   1       2.216  -0.935  -0.754  0.00  0.00     0.078 C 
ATOM      2  C1  UNL d   1       2.809   0.435  -0.610  0.00  0.00    -0.077 A 
ATOM      3  C2  UNL d   1       4.120   0.700  -1.021  0.00  0.00    -0.001 A 
ATOM      4  C3  UNL d   1       4.663   1.978  -0.871  0.00  0.00     0.003 A 
ATOM      5  C4  UNL d   1       3.900   3.000  -0.309  0.00  0.00    -0.005 A 
ATOM      6  C5  UNL d   1       2.595   2.745   0.105  0.00  0.00     0.003 A 
ATOM      7  C6  UNL d   1       2.051   1.468  -0.044  0.00  0.00    -0.001 A 
ENDROOT
TORSDOF 0
ENDMDL
