MODEL 1
REMARK minimizedAffinity -0.601621568
REMARK minimizedRMSD -1
REMARK  0 active torsions:
REMARK  status: ('A' for Active; 'I' for Inactive)
ROOT
ATOM      1  C   UNL d   1       4.332   2.428  -0.708  0.00  0.00     0.078 C 
ATOM      2  C1  UNL d   1       3.266   1.376  -0.632  0.00  0.00    -0.077 A 
ATOM      3  C2  UNL d   1       3.556   0.034  -0.908  0.00  0.00    -0.001 A 
ATOM      4  C3  UNL d   1       2.552  -0.933  -0.843  0.00  0.00     0.003 A 
ATOM      5  C4  UNL d   1       1.250  -0.569  -0.504  0.00  0.00    -0.005 A 
ATOM      6  C5  UNL d   1       0.952   0.764  -0.230  0.00  0.00     0.003 A 
ATOM      7  C6  UNL d   1       1.955   1.733  -0.294  0.00  0.00    -0.001 A 
ENDROOT
TORSDOF 0
ENDMDL
