MODEL 1
REMARK minimizedAffinity 6.92639875
REMARK minimizedRMSD -1
REMARK  0 active torsions:
REMARK  status: ('A' for Active; 'I' for Inactive)
ROOT
ATOM      1  C   UNL d   1       2.201   1.455  -0.372  0.00  0.00     0.078 C 
ATOM      2  C1  UNL d   1       3.528   2.114  -0.601  0.00  0.00    -0.077 A 
ATOM      3  C2  UNL d   1       4.491   2.169   0.414  0.00  0.00    -0.001 A 
ATOM      4  C3  UNL d   1       5.718   2.794   0.189  0.00  0.00     0.003 A 
ATOM      5  C4  UNL d   1       5.994   3.372  -1.049  0.00  0.00    -0.005 A 
ATOM      6  C5  UNL d   1       5.040   3.324  -2.064  0.00  0.00     0.003 A 
ATOM      7  C6  UNL d   1       3.813   2.699  -1.841  0.00  0.00    -0.001 A 
ENDROOT
TORSDOF 0
ENDMDL
