MODEL 1
REMARK minimizedAffinity -1.65572536
REMARK minimizedRMSD -1
REMARK  0 active torsions:
REMARK  status: ('A' for Active; 'I' for Inactive)
ROOT
ATOM      1  C   UNL d   1       2.008   0.139  -4.027  0.00  0.00     0.023 A 
ATOM      2  C1  UNL d   1       0.691  -0.317  -4.078  0.00  0.00     0.003 A 
ATOM      3  C2  UNL d   1      -0.058  -0.425  -2.904  0.00  0.00     0.048 A 
ATOM      4  C3  UNL d   1       0.516  -0.074  -1.683  0.00  0.00     0.023 A 
ATOM      5  C4  UNL d   1       1.833   0.384  -1.627  0.00  0.00     0.048 A 
ATOM      6  C5  UNL d   1       2.578   0.490  -2.803  0.00  0.00     0.003 A 
ATOM      7  I   UNL d   1      -0.597  -0.233   0.065  0.00  0.00    -0.146 I 
ENDROOT
TORSDOF 0
ENDMDL
