MODEL 1
REMARK minimizedAffinity -2.46461368
REMARK minimizedRMSD -1
REMARK  0 active torsions:
REMARK  status: ('A' for Active; 'I' for Inactive)
ROOT
ATOM      1  C   UNL d   1      -0.163   0.994   0.691  0.00  0.00     0.023 A 
ATOM      2  C1  UNL d   1      -0.192   1.038   2.085  0.00  0.00     0.003 A 
ATOM      3  C2  UNL d   1      -1.155   0.311   2.788  0.00  0.00     0.048 A 
ATOM      4  C3  UNL d   1      -2.086  -0.459   2.090  0.00  0.00     0.023 A 
ATOM      5  C4  UNL d   1      -2.059  -0.507   0.696  0.00  0.00     0.048 A 
ATOM      6  C5  UNL d   1      -1.095   0.222  -0.003  0.00  0.00     0.003 A 
ATOM      7  I   UNL d   1      -3.520  -1.542   3.134  0.00  0.00    -0.146 I 
ENDROOT
TORSDOF 0
ENDMDL
