MODEL 1
REMARK minimizedAffinity -3.42291188
REMARK minimizedRMSD -1
REMARK  0 active torsions:
REMARK  status: ('A' for Active; 'I' for Inactive)
ROOT
ATOM      1  C   UNL d   1       2.003   1.018  -3.932  0.00  0.00     0.023 A 
ATOM      2  C1  UNL d   1       2.230  -0.044  -3.056  0.00  0.00     0.003 A 
ATOM      3  C2  UNL d   1       1.237  -0.433  -2.155  0.00  0.00     0.048 A 
ATOM      4  C3  UNL d   1       0.018   0.244  -2.135  0.00  0.00     0.023 A 
ATOM      5  C4  UNL d   1      -0.215   1.306  -3.010  0.00  0.00     0.048 A 
ATOM      6  C5  UNL d   1       0.782   1.692  -3.909  0.00  0.00     0.003 A 
ATOM      7  I   UNL d   1      -1.462  -0.334  -0.795  0.00  0.00    -0.146 I 
ENDROOT
TORSDOF 0
ENDMDL
