MODEL 1
REMARK minimizedAffinity -4.23022985
REMARK minimizedRMSD -1
REMARK  0 active torsions:
REMARK  status: ('A' for Active; 'I' for Inactive)
ROOT
ATOM      1  C   UNL d   1      -1.039   0.981   2.726  0.00  0.00     0.023 A 
ATOM      2  C1  UNL d   1      -2.007   0.654   1.777  0.00  0.00     0.003 A 
ATOM      3  C2  UNL d   1      -1.624   0.277   0.488  0.00  0.00     0.048 A 
ATOM      4  C3  UNL d   1      -0.271   0.228   0.156  0.00  0.00     0.023 A 
ATOM      5  C4  UNL d   1       0.702   0.553   1.103  0.00  0.00     0.048 A 
ATOM      6  C5  UNL d   1       0.314   0.930   2.390  0.00  0.00     0.003 A 
ATOM      7  I   UNL d   1       0.302  -0.334  -1.762  0.00  0.00    -0.146 I 
ENDROOT
TORSDOF 0
ENDMDL
