MODEL 1
REMARK minimizedAffinity -3.74643087
REMARK minimizedRMSD -1
REMARK  0 active torsions:
REMARK  status: ('A' for Active; 'I' for Inactive)
ROOT
ATOM      1  C   UNL d   1      -2.021   0.819   2.647  0.00  0.00     0.023 A 
ATOM      2  C1  UNL d   1      -2.408   0.052   1.548  0.00  0.00     0.003 A 
ATOM      3  C2  UNL d   1      -1.535  -0.120   0.472  0.00  0.00     0.048 A 
ATOM      4  C3  UNL d   1      -0.275   0.477   0.502  0.00  0.00     0.023 A 
ATOM      5  C4  UNL d   1       0.118   1.244   1.600  0.00  0.00     0.048 A 
ATOM      6  C5  UNL d   1      -0.759   1.415   2.673  0.00  0.00     0.003 A 
ATOM      7  I   UNL d   1       1.027   0.222  -1.098  0.00  0.00    -0.146 I 
ENDROOT
TORSDOF 0
ENDMDL
