MODEL 1
REMARK minimizedAffinity -0.887099504
REMARK minimizedRMSD -1
REMARK  0 active torsions:
REMARK  status: ('A' for Active; 'I' for Inactive)
ROOT
ATOM      1  C   UNL d   1       0.263   0.732   0.001  0.00  0.00     0.023 A 
ATOM      2  C1  UNL d   1       0.305   1.117   1.341  0.00  0.00     0.003 A 
ATOM      3  C2  UNL d   1      -0.609   0.584   2.251  0.00  0.00     0.048 A 
ATOM      4  C3  UNL d   1      -1.562  -0.336   1.815  0.00  0.00     0.023 A 
ATOM      5  C4  UNL d   1      -1.608  -0.725   0.475  0.00  0.00     0.048 A 
ATOM      6  C5  UNL d   1      -0.692  -0.188  -0.431  0.00  0.00     0.003 A 
ATOM      7  I   UNL d   1      -2.924  -1.132   3.168  0.00  0.00    -0.146 I 
ENDROOT
TORSDOF 0
ENDMDL
