MODEL 1
REMARK minimizedAffinity -3.54766345
REMARK minimizedRMSD -1
REMARK  0 active torsions:
REMARK  status: ('A' for Active; 'I' for Inactive)
ROOT
ATOM      1  C   UNL d   1       0.169   0.550   1.578  0.00  0.00     0.023 A 
ATOM      2  C1  UNL d   1      -1.120   0.588   2.111  0.00  0.00     0.003 A 
ATOM      3  C2  UNL d   1      -2.193   0.071   1.383  0.00  0.00     0.048 A 
ATOM      4  C3  UNL d   1      -1.972  -0.483   0.123  0.00  0.00     0.023 A 
ATOM      5  C4  UNL d   1      -0.684  -0.524  -0.414  0.00  0.00     0.048 A 
ATOM      6  C5  UNL d   1       0.386  -0.006   0.317  0.00  0.00     0.003 A 
ATOM      7  I   UNL d   1      -3.568  -1.253  -0.962  0.00  0.00    -0.146 I 
ENDROOT
TORSDOF 0
ENDMDL
