MODEL 1
REMARK minimizedAffinity -2.72943974
REMARK minimizedRMSD -1
REMARK  0 active torsions:
REMARK  status: ('A' for Active; 'I' for Inactive)
ROOT
ATOM      1  C   UNL d   1       0.321  -0.017   1.420  0.00  0.00     0.023 A 
ATOM      2  C1  UNL d   1       0.123   1.256   0.886  0.00  0.00     0.003 A 
ATOM      3  C2  UNL d   1       0.352   1.488  -0.472  0.00  0.00     0.048 A 
ATOM      4  C3  UNL d   1       0.777   0.443  -1.290  0.00  0.00     0.023 A 
ATOM      5  C4  UNL d   1       0.975  -0.833  -0.760  0.00  0.00     0.048 A 
ATOM      6  C5  UNL d   1       0.746  -1.061   0.598  0.00  0.00     0.003 A 
ATOM      7  I   UNL d   1       1.118   0.786  -3.311  0.00  0.00    -0.146 I 
ENDROOT
TORSDOF 0
ENDMDL
