MODEL 1
REMARK minimizedAffinity -1.25566459
REMARK minimizedRMSD -1
REMARK  1 active torsions:
REMARK  status: ('A' for Active; 'I' for Inactive)
REMARK    1  A    between atoms: N_2  and  C1_3 
ROOT
ATOM      1  C1  UNL d   1       1.116  -0.023  -3.035  0.00  0.00     0.143 A 
ATOM      2  C2  UNL d   1       2.215   0.437  -2.302  0.00  0.00    -0.057 A 
ATOM      3  C3  UNL d   1       2.448   0.001  -0.992  0.00  0.00     0.033 A 
ATOM      4  C4  UNL d   1       1.567  -0.883  -0.380  0.00  0.00    -0.042 A 
ATOM      5  C5  UNL d   1       0.454  -1.334  -1.081  0.00  0.00     0.033 A 
ATOM      6  C6  UNL d   1       0.230  -0.900  -2.391  0.00  0.00    -0.057 A 
ENDROOT
BRANCH   1   7
ATOM      7  N   UNL d   1       0.776   0.449  -4.305  0.00  0.00    -0.732 N 
ATOM      8  C   UNL d   1      -0.337  -0.125  -5.031  0.00  0.00     0.284 C 
ATOM      9  H3  UNL d   1       0.838   1.462  -4.373  0.00  0.00     0.395 HD
ENDBRANCH   1   7
TORSDOF 1
ENDMDL
