MODEL 1
REMARK minimizedAffinity -2.85984445
REMARK minimizedRMSD -1
REMARK  1 active torsions:
REMARK  status: ('A' for Active; 'I' for Inactive)
REMARK    1  A    between atoms: N_2  and  C1_3 
ROOT
ATOM      1  C1  UNL d   1       1.610  -0.692  -1.178  0.00  0.00     0.143 A 
ATOM      2  C2  UNL d   1       0.519  -1.122  -1.940  0.00  0.00    -0.057 A 
ATOM      3  C3  UNL d   1       0.340  -0.689  -3.260  0.00  0.00     0.033 A 
ATOM      4  C4  UNL d   1       1.237   0.206  -3.833  0.00  0.00    -0.042 A 
ATOM      5  C5  UNL d   1       2.316   0.665  -3.085  0.00  0.00     0.033 A 
ATOM      6  C6  UNL d   1       2.492   0.225  -1.770  0.00  0.00    -0.057 A 
ENDROOT
BRANCH   1   7
ATOM      7  N   UNL d   1       1.789  -1.009   0.171  0.00  0.00    -0.732 N 
ATOM      8  C   UNL d   1       1.309  -0.119   1.207  0.00  0.00     0.284 C 
ATOM      9  H3  UNL d   1       1.630  -1.995   0.363  0.00  0.00     0.395 HD
ENDBRANCH   1   7
TORSDOF 1
ENDMDL
