MODEL 1
REMARK minimizedAffinity -0.32270512
REMARK minimizedRMSD -1
REMARK  1 active torsions:
REMARK  status: ('A' for Active; 'I' for Inactive)
REMARK    1  A    between atoms: N_2  and  C1_3 
ROOT
ATOM      1  C1  UNL d   1      -1.075  -0.540   2.573  0.00  0.00     0.143 A 
ATOM      2  C2  UNL d   1      -1.888   0.192   1.701  0.00  0.00    -0.057 A 
ATOM      3  C3  UNL d   1      -1.485   0.462   0.387  0.00  0.00     0.033 A 
ATOM      4  C4  UNL d   1      -0.246   0.028  -0.070  0.00  0.00    -0.042 A 
ATOM      5  C5  UNL d   1       0.590  -0.681   0.787  0.00  0.00     0.033 A 
ATOM      6  C6  UNL d   1       0.179  -0.953   2.095  0.00  0.00    -0.057 A 
ENDROOT
BRANCH   1   7
ATOM      7  N   UNL d   1      -1.376  -0.757   3.920  0.00  0.00    -0.732 N 
ATOM      8  C   UNL d   1      -0.527  -1.596   4.739  0.00  0.00     0.284 C 
ATOM      9  H3  UNL d   1      -1.700   0.087   4.386  0.00  0.00     0.395 HD
ENDBRANCH   1   7
TORSDOF 1
ENDMDL
