MODEL 1
REMARK minimizedAffinity -1.14490986
REMARK minimizedRMSD -1
REMARK  1 active torsions:
REMARK  status: ('A' for Active; 'I' for Inactive)
REMARK    1  A    between atoms: N_2  and  C1_3 
ROOT
ATOM      1  C1  UNL d   1      -0.044  -0.687   2.767  0.00  0.00     0.143 A 
ATOM      2  C2  UNL d   1       0.308  -0.673   1.413  0.00  0.00    -0.057 A 
ATOM      3  C3  UNL d   1      -0.594  -0.243   0.432  0.00  0.00     0.033 A 
ATOM      4  C4  UNL d   1      -1.879   0.153   0.787  0.00  0.00    -0.042 A 
ATOM      5  C5  UNL d   1      -2.260   0.123   2.124  0.00  0.00     0.033 A 
ATOM      6  C6  UNL d   1      -1.352  -0.300   3.099  0.00  0.00    -0.057 A 
ENDROOT
BRANCH   1   7
ATOM      7  N   UNL d   1       0.775  -1.196   3.778  0.00  0.00    -0.732 N 
ATOM      8  C   UNL d   1       0.339  -1.179   5.158  0.00  0.00     0.284 C 
ATOM      9  H3  UNL d   1       1.245  -2.055   3.501  0.00  0.00     0.395 HD
ENDBRANCH   1   7
TORSDOF 1
ENDMDL
