MODEL 1
REMARK minimizedAffinity 0.29244408
REMARK minimizedRMSD -1
REMARK  1 active torsions:
REMARK  status: ('A' for Active; 'I' for Inactive)
REMARK    1  A    between atoms: N_2  and  C1_3 
ROOT
ATOM      1  C1  UNL d   1      -0.588  -0.440   2.910  0.00  0.00     0.143 A 
ATOM      2  C2  UNL d   1       0.154  -0.273   1.735  0.00  0.00    -0.057 A 
ATOM      3  C3  UNL d   1      -0.476  -0.115   0.495  0.00  0.00     0.033 A 
ATOM      4  C4  UNL d   1      -1.864  -0.150   0.403  0.00  0.00    -0.042 A 
ATOM      5  C5  UNL d   1      -2.621  -0.339   1.554  0.00  0.00     0.033 A 
ATOM      6  C6  UNL d   1      -1.986  -0.489   2.791  0.00  0.00    -0.057 A 
ENDROOT
BRANCH   1   7
ATOM      7  N   UNL d   1      -0.019  -0.700   4.159  0.00  0.00    -0.732 N 
ATOM      8  C   UNL d   1       0.042  -2.052   4.673  0.00  0.00     0.284 C 
ATOM      9  H3  UNL d   1       0.823  -0.154   4.324  0.00  0.00     0.395 HD
ENDBRANCH   1   7
TORSDOF 1
ENDMDL
