MODEL 1
REMARK minimizedAffinity 14.229454
REMARK minimizedRMSD -1
REMARK  0 active torsions:
REMARK  status: ('A' for Active; 'I' for Inactive)
ROOT
ATOM      1  C   UNL d   1      -3.741  -5.428  -0.250  0.00  0.00     0.078 C 
ATOM      2  C1  UNL d   1      -3.742  -4.462   0.897  0.00  0.00    -0.077 A 
ATOM      3  C2  UNL d   1      -4.755  -3.504   1.032  0.00  0.00    -0.001 A 
ATOM      4  C3  UNL d   1      -4.738  -2.605   2.100  0.00  0.00     0.003 A 
ATOM      5  C4  UNL d   1      -3.710  -2.654   3.039  0.00  0.00    -0.005 A 
ATOM      6  C5  UNL d   1      -2.697  -3.603   2.912  0.00  0.00     0.003 A 
ATOM      7  C6  UNL d   1      -2.713  -4.502   1.845  0.00  0.00    -0.001 A 
ENDROOT
TORSDOF 0
ENDMDL
