MODEL 1
REMARK minimizedAffinity 4.99796486
REMARK minimizedRMSD -1
REMARK  0 active torsions:
REMARK  status: ('A' for Active; 'I' for Inactive)
ROOT
ATOM      1  C   UNL d   1       1.192  -5.998   3.160  0.00  0.00     0.078 C 
ATOM      2  C1  UNL d   1       0.446  -4.712   2.969  0.00  0.00    -0.077 A 
ATOM      3  C2  UNL d   1       0.679  -3.902   1.851  0.00  0.00    -0.001 A 
ATOM      4  C3  UNL d   1      -0.016  -2.702   1.691  0.00  0.00     0.003 A 
ATOM      5  C4  UNL d   1      -0.948  -2.300   2.646  0.00  0.00    -0.005 A 
ATOM      6  C5  UNL d   1      -1.185  -3.098   3.763  0.00  0.00     0.003 A 
ATOM      7  C6  UNL d   1      -0.491  -4.299   3.925  0.00  0.00    -0.001 A 
ENDROOT
TORSDOF 0
ENDMDL
