MODEL 1
REMARK minimizedAffinity 2.10820794
REMARK minimizedRMSD -1
REMARK  0 active torsions:
REMARK  status: ('A' for Active; 'I' for Inactive)
ROOT
ATOM      1  C   UNL d   1      -2.381  -3.692   3.734  0.00  0.00     0.078 C 
ATOM      2  C1  UNL d   1      -1.339  -2.620   3.855  0.00  0.00    -0.077 A 
ATOM      3  C2  UNL d   1      -1.373  -1.697   4.907  0.00  0.00    -0.001 A 
ATOM      4  C3  UNL d   1      -0.402  -0.698   5.001  0.00  0.00     0.003 A 
ATOM      5  C4  UNL d   1       0.609  -0.614   4.046  0.00  0.00    -0.005 A 
ATOM      6  C5  UNL d   1       0.650  -1.527   2.995  0.00  0.00     0.003 A 
ATOM      7  C6  UNL d   1      -0.320  -2.526   2.899  0.00  0.00    -0.001 A 
ENDROOT
TORSDOF 0
ENDMDL
