MODEL 1
REMARK minimizedAffinity 9.55251122
REMARK minimizedRMSD -1
REMARK  0 active torsions:
REMARK  status: ('A' for Active; 'I' for Inactive)
ROOT
ATOM      1  C   UNL d   1      -2.242  -2.884   3.350  0.00  0.00     0.078 C 
ATOM      2  C1  UNL d   1      -1.062  -2.053   2.941  0.00  0.00    -0.077 A 
ATOM      3  C2  UNL d   1      -0.680  -0.929   3.683  0.00  0.00    -0.001 A 
ATOM      4  C3  UNL d   1       0.414  -0.159   3.285  0.00  0.00     0.003 A 
ATOM      5  C4  UNL d   1       1.134  -0.504   2.143  0.00  0.00    -0.005 A 
ATOM      6  C5  UNL d   1       0.760  -1.620   1.397  0.00  0.00     0.003 A 
ATOM      7  C6  UNL d   1      -0.334  -2.391   1.794  0.00  0.00    -0.001 A 
ENDROOT
TORSDOF 0
ENDMDL
