MODEL 1
REMARK minimizedAffinity 3.96230793
REMARK minimizedRMSD -1
REMARK  0 active torsions:
REMARK  status: ('A' for Active; 'I' for Inactive)
ROOT
ATOM      1  C   UNL d   1      -3.794   2.051  -1.712  0.00  0.00     0.078 C 
ATOM      2  C1  UNL d   1      -2.358   2.467  -1.817  0.00  0.00    -0.077 A 
ATOM      3  C2  UNL d   1      -1.410   2.033  -0.882  0.00  0.00    -0.001 A 
ATOM      4  C3  UNL d   1      -0.078   2.437  -0.986  0.00  0.00     0.003 A 
ATOM      5  C4  UNL d   1       0.319   3.277  -2.024  0.00  0.00    -0.005 A 
ATOM      6  C5  UNL d   1      -0.617   3.716  -2.959  0.00  0.00     0.003 A 
ATOM      7  C6  UNL d   1      -1.950   3.314  -2.856  0.00  0.00    -0.001 A 
ENDROOT
TORSDOF 0
ENDMDL
