MODEL 1
REMARK minimizedAffinity 5.66833258
REMARK minimizedRMSD -1
REMARK  0 active torsions:
REMARK  status: ('A' for Active; 'I' for Inactive)
ROOT
ATOM      1  C   UNL d   1      -0.412  -0.715   5.518  0.00  0.00     0.078 C 
ATOM      2  C1  UNL d   1      -0.026  -1.144   4.134  0.00  0.00    -0.077 A 
ATOM      3  C2  UNL d   1      -0.528  -2.328   3.580  0.00  0.00    -0.001 A 
ATOM      4  C3  UNL d   1      -0.153  -2.720   2.294  0.00  0.00     0.003 A 
ATOM      5  C4  UNL d   1       0.727  -1.935   1.551  0.00  0.00    -0.005 A 
ATOM      6  C5  UNL d   1       1.233  -0.757   2.095  0.00  0.00     0.003 A 
ATOM      7  C6  UNL d   1       0.859  -0.363   3.381  0.00  0.00    -0.001 A 
ENDROOT
TORSDOF 0
ENDMDL
