MODEL 1
REMARK minimizedAffinity 8.51629448
REMARK minimizedRMSD -1
REMARK  0 active torsions:
REMARK  status: ('A' for Active; 'I' for Inactive)
ROOT
ATOM      1  C   UNL d   1      -0.674  -0.456   4.884  0.00  0.00     0.078 C 
ATOM      2  C1  UNL d   1       0.663  -0.166   4.269  0.00  0.00    -0.077 A 
ATOM      3  C2  UNL d   1       1.709   0.365   5.034  0.00  0.00    -0.001 A 
ATOM      4  C3  UNL d   1       2.944   0.640   4.446  0.00  0.00     0.003 A 
ATOM      5  C4  UNL d   1       3.146   0.389   3.090  0.00  0.00    -0.005 A 
ATOM      6  C5  UNL d   1       2.110  -0.137   2.320  0.00  0.00     0.003 A 
ATOM      7  C6  UNL d   1       0.874  -0.413   2.907  0.00  0.00    -0.001 A 
ENDROOT
TORSDOF 0
ENDMDL
