MODEL 1
REMARK minimizedAffinity 16.140789
REMARK minimizedRMSD -1
REMARK  0 active torsions:
REMARK  status: ('A' for Active; 'I' for Inactive)
ROOT
ATOM      1  C   UNL d   1      -1.994   2.384  -2.698  0.00  0.00     0.078 C 
ATOM      2  C1  UNL d   1      -1.796   3.614  -3.532  0.00  0.00    -0.077 A 
ATOM      3  C2  UNL d   1      -1.971   3.580  -4.921  0.00  0.00    -0.001 A 
ATOM      4  C3  UNL d   1      -1.774   4.731  -5.685  0.00  0.00     0.003 A 
ATOM      5  C4  UNL d   1      -1.399   5.924  -5.070  0.00  0.00    -0.005 A 
ATOM      6  C5  UNL d   1      -1.220   5.967  -3.689  0.00  0.00     0.003 A 
ATOM      7  C6  UNL d   1      -1.417   4.817  -2.923  0.00  0.00    -0.001 A 
ENDROOT
TORSDOF 0
ENDMDL
