MODEL 1
REMARK minimizedAffinity 13.0231104
REMARK minimizedRMSD -1
REMARK  0 active torsions:
REMARK  status: ('A' for Active; 'I' for Inactive)
ROOT
ATOM      1  C   UNL d   1      -5.142   1.427  -2.417  0.00  0.00     0.078 C 
ATOM      2  C1  UNL d   1      -4.138   2.537  -2.507  0.00  0.00    -0.077 A 
ATOM      3  C2  UNL d   1      -4.346   3.753  -1.845  0.00  0.00    -0.001 A 
ATOM      4  C3  UNL d   1      -3.407   4.781  -1.947  0.00  0.00     0.003 A 
ATOM      5  C4  UNL d   1      -2.255   4.604  -2.710  0.00  0.00    -0.005 A 
ATOM      6  C5  UNL d   1      -2.040   3.398  -3.374  0.00  0.00     0.003 A 
ATOM      7  C6  UNL d   1      -2.978   2.369  -3.274  0.00  0.00    -0.001 A 
ENDROOT
TORSDOF 0
ENDMDL
