MODEL 1
REMARK minimizedAffinity 2.8930285
REMARK minimizedRMSD -1
REMARK  0 active torsions:
REMARK  status: ('A' for Active; 'I' for Inactive)
ROOT
ATOM      1  C   UNL d   1      -4.503  -3.327   2.717  0.00  0.00     0.078 C 
ATOM      2  C1  UNL d   1      -4.228  -4.126   1.478  0.00  0.00    -0.077 A 
ATOM      3  C2  UNL d   1      -3.209  -3.756   0.592  0.00  0.00    -0.001 A 
ATOM      4  C3  UNL d   1      -2.972  -4.503  -0.563  0.00  0.00     0.003 A 
ATOM      5  C4  UNL d   1      -3.750  -5.625  -0.843  0.00  0.00    -0.005 A 
ATOM      6  C5  UNL d   1      -4.768  -6.000   0.032  0.00  0.00     0.003 A 
ATOM      7  C6  UNL d   1      -5.007  -5.254   1.187  0.00  0.00    -0.001 A 
ENDROOT
TORSDOF 0
ENDMDL
