MODEL 1
REMARK minimizedAffinity 3.15885472
REMARK minimizedRMSD -1
REMARK  0 active torsions:
REMARK  status: ('A' for Active; 'I' for Inactive)
ROOT
ATOM      1  C   UNL d   1       0.597  -0.512   2.975  0.00  0.00     0.078 C 
ATOM      2  C1  UNL d   1       1.440  -1.281   2.003  0.00  0.00    -0.077 A 
ATOM      3  C2  UNL d   1       1.288  -2.665   1.853  0.00  0.00    -0.001 A 
ATOM      4  C3  UNL d   1       2.086  -3.370   0.951  0.00  0.00     0.003 A 
ATOM      5  C4  UNL d   1       3.044  -2.699   0.193  0.00  0.00    -0.005 A 
ATOM      6  C5  UNL d   1       3.205  -1.323   0.337  0.00  0.00     0.003 A 
ATOM      7  C6  UNL d   1       2.407  -0.616   1.238  0.00  0.00    -0.001 A 
ENDROOT
TORSDOF 0
ENDMDL
