MODEL 1
REMARK minimizedAffinity 10.4852657
REMARK minimizedRMSD -1
REMARK  0 active torsions:
REMARK  status: ('A' for Active; 'I' for Inactive)
ROOT
ATOM      1  C   UNL d   1      -2.252   2.100  -2.997  0.00  0.00     0.078 C 
ATOM      2  C1  UNL d   1      -2.298   3.370  -3.793  0.00  0.00    -0.077 A 
ATOM      3  C2  UNL d   1      -2.383   3.342  -5.191  0.00  0.00    -0.001 A 
ATOM      4  C3  UNL d   1      -2.416   4.532  -5.920  0.00  0.00     0.003 A 
ATOM      5  C4  UNL d   1      -2.364   5.759  -5.260  0.00  0.00    -0.005 A 
ATOM      6  C5  UNL d   1      -2.277   5.796  -3.870  0.00  0.00     0.003 A 
ATOM      7  C6  UNL d   1      -2.244   4.607  -3.139  0.00  0.00    -0.001 A 
ENDROOT
TORSDOF 0
ENDMDL
