MODEL 1
REMARK minimizedAffinity 10.8100033
REMARK minimizedRMSD -1
REMARK  0 active torsions:
REMARK  status: ('A' for Active; 'I' for Inactive)
ROOT
ATOM      1  C   UNL d   1      -4.668   4.083  -0.777  0.00  0.00     0.078 C 
ATOM      2  C1  UNL d   1      -3.558   4.317  -1.757  0.00  0.00    -0.077 A 
ATOM      3  C2  UNL d   1      -3.116   5.613  -2.050  0.00  0.00    -0.001 A 
ATOM      4  C3  UNL d   1      -2.087   5.816  -2.971  0.00  0.00     0.003 A 
ATOM      5  C4  UNL d   1      -1.493   4.729  -3.608  0.00  0.00    -0.005 A 
ATOM      6  C5  UNL d   1      -1.927   3.436  -3.325  0.00  0.00     0.003 A 
ATOM      7  C6  UNL d   1      -2.956   3.230  -2.404  0.00  0.00    -0.001 A 
ENDROOT
TORSDOF 0
ENDMDL
