MODEL 1
REMARK minimizedAffinity 9.67184067
REMARK minimizedRMSD -1
REMARK  1 active torsions:
REMARK  status: ('A' for Active; 'I' for Inactive)
REMARK    1  A    between atoms: C1_2  and  C2_3 
ROOT
ATOM      1  C2  UNL d   1       3.429  -2.554   4.584  0.00  0.00    -0.073 A 
ATOM      2  C3  UNL d   1       4.264  -1.931   5.519  0.00  0.00    -0.002 A 
ATOM      3  C4  UNL d   1       5.399  -2.586   5.997  0.00  0.00     0.004 A 
ATOM      4  C5  UNL d   1       5.715  -3.866   5.542  0.00  0.00    -0.004 A 
ATOM      5  C6  UNL d   1       4.900  -4.501   4.599  0.00  0.00    -0.075 A 
ATOM      6  C7  UNL d   1       5.225  -5.878   4.100  0.00  0.00     0.076 C 
ATOM      7  C8  UNL d   1       3.760  -3.837   4.125  0.00  0.00     0.001 A 
ENDROOT
BRANCH   1   8
ATOM      8  C1  UNL d   1       2.205  -1.848   4.060  0.00  0.00     0.053 C 
ATOM      9  C   UNL d   1       1.261  -1.438   5.179  0.00  0.00     0.018 C 
ENDBRANCH   1   8
TORSDOF 1
ENDMDL
