MODEL 1
REMARK minimizedAffinity -0.559508562
REMARK minimizedRMSD -1
REMARK  1 active torsions:
REMARK  status: ('A' for Active; 'I' for Inactive)
REMARK    1  A    between atoms: C1_2  and  C2_3 
ROOT
ATOM      1  C2  UNL d   1      -0.717   4.232  -0.727  0.00  0.00    -0.073 A 
ATOM      2  C3  UNL d   1       0.666   4.053  -0.844  0.00  0.00    -0.002 A 
ATOM      3  C4  UNL d   1       1.385   3.433   0.179  0.00  0.00     0.004 A 
ATOM      4  C5  UNL d   1       0.730   2.981   1.324  0.00  0.00    -0.004 A 
ATOM      5  C6  UNL d   1      -0.654   3.140   1.454  0.00  0.00    -0.075 A 
ATOM      6  C7  UNL d   1      -1.374   2.661   2.680  0.00  0.00     0.076 C 
ATOM      7  C8  UNL d   1      -1.369   3.765   0.423  0.00  0.00     0.001 A 
ENDROOT
BRANCH   1   8
ATOM      8  C1  UNL d   1      -1.499   4.894  -1.832  0.00  0.00     0.053 C 
ATOM      9  C   UNL d   1      -0.633   5.830  -2.661  0.00  0.00     0.018 C 
ENDBRANCH   1   8
TORSDOF 1
ENDMDL
