MODEL 1
REMARK minimizedAffinity 7.70875883
REMARK minimizedRMSD -1
REMARK  1 active torsions:
REMARK  status: ('A' for Active; 'I' for Inactive)
REMARK    1  A    between atoms: C1_2  and  C2_3 
ROOT
ATOM      1  C2  UNL d   1       0.231   3.449   0.107  0.00  0.00    -0.073 A 
ATOM      2  C3  UNL d   1       1.463   4.096   0.258  0.00  0.00    -0.002 A 
ATOM      3  C4  UNL d   1       1.707   5.308  -0.390  0.00  0.00     0.004 A 
ATOM      4  C5  UNL d   1       0.721   5.887  -1.190  0.00  0.00    -0.004 A 
ATOM      5  C6  UNL d   1      -0.520   5.261  -1.343  0.00  0.00    -0.075 A 
ATOM      6  C7  UNL d   1      -1.590   5.871  -2.201  0.00  0.00     0.076 C 
ATOM      7  C8  UNL d   1      -0.756   4.044  -0.691  0.00  0.00     0.001 A 
ENDROOT
BRANCH   1   8
ATOM      8  C1  UNL d   1      -0.039   2.144   0.810  0.00  0.00     0.053 C 
ATOM      9  C   UNL d   1      -0.122   2.316   2.318  0.00  0.00     0.018 C 
ENDBRANCH   1   8
TORSDOF 1
ENDMDL
