MODEL 1
REMARK minimizedAffinity 16.3074608
REMARK minimizedRMSD -1
REMARK  1 active torsions:
REMARK  status: ('A' for Active; 'I' for Inactive)
REMARK    1  A    between atoms: C1_2  and  C2_3 
ROOT
ATOM      1  C2  UNL d   1      -5.953   2.204  -2.811  0.00  0.00    -0.073 A 
ATOM      2  C3  UNL d   1      -5.918   3.422  -3.498  0.00  0.00    -0.002 A 
ATOM      3  C4  UNL d   1      -5.896   3.444  -4.893  0.00  0.00     0.004 A 
ATOM      4  C5  UNL d   1      -5.915   2.251  -5.615  0.00  0.00    -0.004 A 
ATOM      5  C6  UNL d   1      -5.962   1.023  -4.946  0.00  0.00    -0.075 A 
ATOM      6  C7  UNL d   1      -5.981  -0.270  -5.707  0.00  0.00     0.076 C 
ATOM      7  C8  UNL d   1      -5.981   1.009  -3.545  0.00  0.00     0.001 A 
ENDROOT
BRANCH   1   8
ATOM      8  C1  UNL d   1      -5.983   2.175  -1.304  0.00  0.00     0.053 C 
ATOM      9  C   UNL d   1      -5.934   3.572  -0.707  0.00  0.00     0.018 C 
ENDBRANCH   1   8
TORSDOF 1
ENDMDL
