MODEL 1
REMARK minimizedAffinity 13.5563412
REMARK minimizedRMSD -1
REMARK  1 active torsions:
REMARK  status: ('A' for Active; 'I' for Inactive)
REMARK    1  A    between atoms: C1_2  and  C2_3 
ROOT
ATOM      1  C2  UNL d   1      -3.707   4.146  -1.996  0.00  0.00    -0.073 A 
ATOM      2  C3  UNL d   1      -4.529   4.012  -0.872  0.00  0.00    -0.002 A 
ATOM      3  C4  UNL d   1      -5.672   3.213  -0.925  0.00  0.00     0.004 A 
ATOM      4  C5  UNL d   1      -6.000   2.534  -2.098  0.00  0.00    -0.004 A 
ATOM      5  C6  UNL d   1      -5.184   2.645  -3.229  0.00  0.00    -0.075 A 
ATOM      6  C7  UNL d   1      -5.524   1.923  -4.499  0.00  0.00     0.076 C 
ATOM      7  C8  UNL d   1      -4.040   3.452  -3.169  0.00  0.00     0.001 A 
ENDROOT
BRANCH   1   8
ATOM      8  C1  UNL d   1      -2.469   5.002  -1.942  0.00  0.00     0.053 C 
ATOM      9  C   UNL d   1      -1.242   4.205  -1.527  0.00  0.00     0.018 C 
ENDBRANCH   1   8
TORSDOF 1
ENDMDL
