MODEL 1
REMARK minimizedAffinity -3.83202004
REMARK minimizedRMSD -1
REMARK  0 active torsions:
REMARK  status: ('A' for Active; 'I' for Inactive)
ROOT
ATOM      1  C   UNL d   1       2.172  -1.238   2.654  0.00  0.00     0.020 A 
ATOM      2  C1  UNL d   1       2.856  -1.255   1.439  0.00  0.00     0.020 A 
ATOM      3  C2  UNL d   1       2.173  -0.987   0.250  0.00  0.00     0.034 A 
ATOM      4  C3  UNL d   1       0.803  -0.702   0.274  0.00  0.00     0.017 A 
ATOM      5  C4  UNL d   1       0.118  -0.686   1.494  0.00  0.00     0.017 A 
ATOM      6  C5  UNL d   1       0.806  -0.955   2.681  0.00  0.00     0.034 A 
ATOM      7 Cl   UNL d   1      -1.572  -0.343   1.603  0.00  0.00    -0.070 Cl
ATOM      8 Cl1  UNL d   1       0.024  -0.380  -1.234  0.00  0.00    -0.070 Cl
ENDROOT
TORSDOF 0
ENDMDL
