MODEL 1
REMARK minimizedAffinity -2.9388845
REMARK minimizedRMSD -1
REMARK  0 active torsions:
REMARK  status: ('A' for Active; 'I' for Inactive)
ROOT
ATOM      1  C   UNL d   1       1.098  -1.453   3.036  0.00  0.00     0.020 A 
ATOM      2  C1  UNL d   1       2.073  -0.546   2.623  0.00  0.00     0.020 A 
ATOM      3  C2  UNL d   1       1.855   0.246   1.493  0.00  0.00     0.034 A 
ATOM      4  C3  UNL d   1       0.660   0.132   0.774  0.00  0.00     0.017 A 
ATOM      5  C4  UNL d   1      -0.317  -0.779   1.189  0.00  0.00     0.017 A 
ATOM      6  C5  UNL d   1      -0.094  -1.569   2.321  0.00  0.00     0.034 A 
ATOM      7 Cl   UNL d   1      -1.817  -0.975   0.353  0.00  0.00    -0.070 Cl
ATOM      8 Cl1  UNL d   1       0.458   1.143  -0.613  0.00  0.00    -0.070 Cl
ENDROOT
TORSDOF 0
ENDMDL
