MODEL 1
REMARK minimizedAffinity 6.0122633
REMARK minimizedRMSD -1
REMARK  0 active torsions:
REMARK  status: ('A' for Active; 'I' for Inactive)
ROOT
ATOM      1  C   UNL d   1       5.410   2.542   1.130  0.00  0.00     0.020 A 
ATOM      2  C1  UNL d   1       4.025   2.636   1.256  0.00  0.00     0.020 A 
ATOM      3  C2  UNL d   1       3.227   1.511   1.040  0.00  0.00     0.034 A 
ATOM      4  C3  UNL d   1       3.813   0.287   0.697  0.00  0.00     0.017 A 
ATOM      5  C4  UNL d   1       5.204   0.193   0.572  0.00  0.00     0.017 A 
ATOM      6  C5  UNL d   1       5.998   1.323   0.790  0.00  0.00     0.034 A 
ATOM      7 Cl   UNL d   1       6.000  -1.282   0.153  0.00  0.00    -0.070 Cl
ATOM      8 Cl1  UNL d   1       2.765  -1.064   0.445  0.00  0.00    -0.070 Cl
ENDROOT
TORSDOF 0
ENDMDL
