MODEL 1
REMARK minimizedAffinity 2.41862965
REMARK minimizedRMSD -1
REMARK  0 active torsions:
REMARK  status: ('A' for Active; 'I' for Inactive)
ROOT
ATOM      1  C   UNL d   1      -1.218   0.092   1.919  0.00  0.00     0.020 A 
ATOM      2  C1  UNL d   1      -0.735  -0.857   2.818  0.00  0.00     0.020 A 
ATOM      3  C2  UNL d   1       0.229  -1.780   2.408  0.00  0.00     0.034 A 
ATOM      4  C3  UNL d   1       0.713  -1.757   1.095  0.00  0.00     0.017 A 
ATOM      5  C4  UNL d   1       0.228  -0.803   0.193  0.00  0.00     0.017 A 
ATOM      6  C5  UNL d   1      -0.737   0.119   0.609  0.00  0.00     0.034 A 
ATOM      7 Cl   UNL d   1       0.777  -0.711  -1.443  0.00  0.00    -0.070 Cl
ATOM      8 Cl1  UNL d   1       1.905  -2.928   0.657  0.00  0.00    -0.070 Cl
ENDROOT
TORSDOF 0
ENDMDL
