MODEL 1
REMARK minimizedAffinity 6.06362152
REMARK minimizedRMSD -1
REMARK  0 active torsions:
REMARK  status: ('A' for Active; 'I' for Inactive)
ROOT
ATOM      1  C   UNL d   1       1.934  -2.007   0.287  0.00  0.00     0.020 A 
ATOM      2  C1  UNL d   1       1.931  -3.265   0.888  0.00  0.00     0.020 A 
ATOM      3  C2  UNL d   1       0.924  -3.603   1.795  0.00  0.00     0.034 A 
ATOM      4  C3  UNL d   1      -0.083  -2.681   2.105  0.00  0.00     0.017 A 
ATOM      5  C4  UNL d   1      -0.078  -1.418   1.501  0.00  0.00     0.017 A 
ATOM      6  C5  UNL d   1       0.932  -1.086   0.593  0.00  0.00     0.034 A 
ATOM      7 Cl   UNL d   1      -1.287  -0.228   1.832  0.00  0.00    -0.070 Cl
ATOM      8 Cl1  UNL d   1      -1.296  -3.165   3.235  0.00  0.00    -0.070 Cl
ENDROOT
TORSDOF 0
ENDMDL
