MODEL 1
REMARK minimizedAffinity 9.66801071
REMARK minimizedRMSD -1
REMARK  0 active torsions:
REMARK  status: ('A' for Active; 'I' for Inactive)
ROOT
ATOM      1  C   UNL d   1      -0.494  -0.415   2.153  0.00  0.00     0.020 A 
ATOM      2  C1  UNL d   1      -0.350  -1.474   3.049  0.00  0.00     0.020 A 
ATOM      3  C2  UNL d   1       0.513  -2.530   2.749  0.00  0.00     0.034 A 
ATOM      4  C3  UNL d   1       1.236  -2.529   1.550  0.00  0.00     0.017 A 
ATOM      5  C4  UNL d   1       1.090  -1.466   0.651  0.00  0.00     0.017 A 
ATOM      6  C5  UNL d   1       0.225  -0.411   0.957  0.00  0.00     0.034 A 
ATOM      7 Cl   UNL d   1       1.948  -1.395  -0.847  0.00  0.00    -0.070 Cl
ATOM      8 Cl1  UNL d   1       2.285  -3.867   1.243  0.00  0.00    -0.070 Cl
ENDROOT
TORSDOF 0
ENDMDL
