MODEL 1
REMARK minimizedAffinity -2.81167078
REMARK minimizedRMSD -1
REMARK  0 active torsions:
REMARK  status: ('A' for Active; 'I' for Inactive)
ROOT
ATOM      1  C   UNL d   1      -1.718  -0.004   1.241  0.00  0.00     0.020 A 
ATOM      2  C1  UNL d   1      -1.665  -0.964   2.250  0.00  0.00     0.020 A 
ATOM      3  C2  UNL d   1      -0.570  -1.827   2.335  0.00  0.00     0.034 A 
ATOM      4  C3  UNL d   1       0.475  -1.731   1.410  0.00  0.00     0.017 A 
ATOM      5  C4  UNL d   1       0.421  -0.767   0.397  0.00  0.00     0.017 A 
ATOM      6  C5  UNL d   1      -0.677   0.095   0.317  0.00  0.00     0.034 A 
ATOM      7 Cl   UNL d   1       1.673  -0.588  -0.781  0.00  0.00    -0.070 Cl
ATOM      8 Cl1  UNL d   1       1.798  -2.831   1.575  0.00  0.00    -0.070 Cl
ENDROOT
TORSDOF 0
ENDMDL
