MODEL 1
REMARK minimizedAffinity 0.0368996263
REMARK minimizedRMSD -1
REMARK  0 active torsions:
REMARK  status: ('A' for Active; 'I' for Inactive)
ROOT
ATOM      1  C   UNL d   1      -1.382  -1.049   2.630  0.00  0.00     0.020 A 
ATOM      2  C1  UNL d   1      -1.452  -0.381   1.408  0.00  0.00     0.020 A 
ATOM      3  C2  UNL d   1      -0.531  -0.673   0.399  0.00  0.00     0.034 A 
ATOM      4  C3  UNL d   1       0.463  -1.634   0.610  0.00  0.00     0.017 A 
ATOM      5  C4  UNL d   1       0.533  -2.304   1.837  0.00  0.00     0.017 A 
ATOM      6  C5  UNL d   1      -0.392  -2.009   2.844  0.00  0.00     0.034 A 
ATOM      7 Cl   UNL d   1       1.732  -3.504   2.172  0.00  0.00    -0.070 Cl
ATOM      8 Cl1  UNL d   1       1.569  -1.944  -0.681  0.00  0.00    -0.070 Cl
ENDROOT
TORSDOF 0
ENDMDL
