MODEL 1
REMARK minimizedAffinity 0.0574900359
REMARK minimizedRMSD -1
REMARK  0 active torsions:
REMARK  status: ('A' for Active; 'I' for Inactive)
ROOT
ATOM      1  C   UNL d   1       1.569   0.919   0.589  0.00  0.00     0.020 A 
ATOM      2  C1  UNL d   1       2.020   0.557   1.858  0.00  0.00     0.020 A 
ATOM      3  C2  UNL d   1       1.374  -0.459   2.565  0.00  0.00     0.034 A 
ATOM      4  C3  UNL d   1       0.273  -1.117   2.004  0.00  0.00     0.017 A 
ATOM      5  C4  UNL d   1      -0.179  -0.753   0.730  0.00  0.00     0.017 A 
ATOM      6  C5  UNL d   1       0.472   0.265   0.027  0.00  0.00     0.034 A 
ATOM      7 Cl   UNL d   1      -1.531  -1.519  -0.027  0.00  0.00    -0.070 Cl
ATOM      8 Cl1  UNL d   1      -0.477  -2.364   2.935  0.00  0.00    -0.070 Cl
ENDROOT
TORSDOF 0
ENDMDL
