MODEL 1
REMARK minimizedAffinity -1.58467484
REMARK minimizedRMSD -1
REMARK  0 active torsions:
REMARK  status: ('A' for Active; 'I' for Inactive)
ROOT
ATOM      1  C   UNL d   1       1.943  -0.543  -1.140  0.00  0.00     0.020 A 
ATOM      2  C1  UNL d   1       0.665  -1.006  -1.450  0.00  0.00     0.020 A 
ATOM      3  C2  UNL d   1      -0.365  -0.889  -0.515  0.00  0.00     0.034 A 
ATOM      4  C3  UNL d   1      -0.120  -0.307   0.734  0.00  0.00     0.017 A 
ATOM      5  C4  UNL d   1       1.164   0.159   1.044  0.00  0.00     0.017 A 
ATOM      6  C5  UNL d   1       2.192   0.038   0.104  0.00  0.00     0.034 A 
ATOM      7 Cl   UNL d   1       1.543   0.889   2.564  0.00  0.00    -0.070 Cl
ATOM      8 Cl1  UNL d   1      -1.441  -0.193   1.842  0.00  0.00    -0.070 Cl
ENDROOT
TORSDOF 0
ENDMDL
