MODEL 1
REMARK minimizedAffinity -3.14680862
REMARK minimizedRMSD -1
REMARK  0 active torsions:
REMARK  status: ('A' for Active; 'I' for Inactive)
ROOT
ATOM      1  C   UNL d   1       1.825  -0.348  -2.958  0.00  0.00     0.172 C 
ATOM      2  N   UNL d   1       0.507  -0.523  -2.393  0.00  0.00    -0.070 N 
ATOM      3  C1  UNL d   1      -0.056   0.261  -1.422  0.00  0.00    -0.004 A 
ATOM      4  C2  UNL d   1      -1.316  -0.232  -1.159  0.00  0.00    -0.047 A 
ATOM      5  C3  UNL d   1      -1.517  -1.352  -2.001  0.00  0.00    -0.047 A 
ATOM      6  C4  UNL d   1      -0.373  -1.509  -2.755  0.00  0.00    -0.004 A 
ENDROOT
TORSDOF 0
ENDMDL
