MODEL 1
REMARK minimizedAffinity -2.32004666
REMARK minimizedRMSD -1
REMARK  0 active torsions:
REMARK  status: ('A' for Active; 'I' for Inactive)
ROOT
ATOM      1  C   UNL d   1       0.761  -1.498  -3.008  0.00  0.00     0.172 C 
ATOM      2  N   UNL d   1       0.149  -0.771  -1.922  0.00  0.00    -0.070 N 
ATOM      3  C1  UNL d   1       0.817  -0.085  -0.943  0.00  0.00    -0.004 A 
ATOM      4  C2  UNL d   1      -0.122   0.469  -0.100  0.00  0.00    -0.047 A 
ATOM      5  C3  UNL d   1      -1.399   0.102  -0.588  0.00  0.00    -0.047 A 
ATOM      6  C4  UNL d   1      -1.202  -0.665  -1.717  0.00  0.00    -0.004 A 
ENDROOT
TORSDOF 0
ENDMDL
