MODEL 1
REMARK minimizedAffinity -3.69181609
REMARK minimizedRMSD -1
REMARK  0 active torsions:
REMARK  status: ('A' for Active; 'I' for Inactive)
ROOT
ATOM      1  C   UNL d   1      -1.976  -0.734   0.034  0.00  0.00     0.172 C 
ATOM      2  N   UNL d   1      -0.831  -0.375   0.838  0.00  0.00    -0.070 N 
ATOM      3  C1  UNL d   1      -0.731  -0.524   2.196  0.00  0.00    -0.004 A 
ATOM      4  C2  UNL d   1       0.510  -0.066   2.580  0.00  0.00    -0.047 A 
ATOM      5  C3  UNL d   1       1.179   0.375   1.414  0.00  0.00    -0.047 A 
ATOM      6  C4  UNL d   1       0.326   0.172   0.350  0.00  0.00    -0.004 A 
ENDROOT
TORSDOF 0
ENDMDL
