MODEL 1
REMARK minimizedAffinity -3.78292012
REMARK minimizedRMSD -1
REMARK  0 active torsions:
REMARK  status: ('A' for Active; 'I' for Inactive)
ROOT
ATOM      1  C   UNL d   1       0.952   0.417  -0.414  0.00  0.00     0.172 C 
ATOM      2  N   UNL d   1      -0.475   0.198  -0.440  0.00  0.00    -0.070 N 
ATOM      3  C1  UNL d   1      -1.193  -0.493   0.500  0.00  0.00    -0.004 A 
ATOM      4  C2  UNL d   1      -2.517  -0.476   0.115  0.00  0.00    -0.047 A 
ATOM      5  C3  UNL d   1      -2.596   0.248  -1.098  0.00  0.00    -0.047 A 
ATOM      6  C4  UNL d   1      -1.318   0.654  -1.419  0.00  0.00    -0.004 A 
ENDROOT
TORSDOF 0
ENDMDL
