MODEL 1
REMARK minimizedAffinity -4.25799465
REMARK minimizedRMSD -1
REMARK  0 active torsions:
REMARK  status: ('A' for Active; 'I' for Inactive)
ROOT
ATOM      1  C   UNL d   1      -1.661  -0.163  -0.152  0.00  0.00     0.172 C 
ATOM      2  N   UNL d   1      -1.303  -0.235   1.245  0.00  0.00    -0.070 N 
ATOM      3  C1  UNL d   1      -2.182  -0.347   2.289  0.00  0.00    -0.004 A 
ATOM      4  C2  UNL d   1      -1.449  -0.386   3.456  0.00  0.00    -0.047 A 
ATOM      5  C3  UNL d   1      -0.083  -0.292   3.100  0.00  0.00    -0.047 A 
ATOM      6  C4  UNL d   1      -0.021  -0.200   1.726  0.00  0.00    -0.004 A 
ENDROOT
TORSDOF 0
ENDMDL
