MODEL 1
REMARK minimizedAffinity -3.94145536
REMARK minimizedRMSD -1
REMARK  0 active torsions:
REMARK  status: ('A' for Active; 'I' for Inactive)
ROOT
ATOM      1  C   UNL d   1       0.305   0.525  -0.218  0.00  0.00     0.172 C 
ATOM      2  N   UNL d   1      -0.628   0.181   0.829  0.00  0.00    -0.070 N 
ATOM      3  C1  UNL d   1      -1.992   0.267   0.744  0.00  0.00    -0.004 A 
ATOM      4  C2  UNL d   1      -2.518  -0.151   1.947  0.00  0.00    -0.047 A 
ATOM      5  C3  UNL d   1      -1.432  -0.499   2.786  0.00  0.00    -0.047 A 
ATOM      6  C4  UNL d   1      -0.274  -0.284   2.069  0.00  0.00    -0.004 A 
ENDROOT
TORSDOF 0
ENDMDL
