MODEL 1
REMARK minimizedAffinity -3.91906428
REMARK minimizedRMSD -1
REMARK  0 active torsions:
REMARK  status: ('A' for Active; 'I' for Inactive)
ROOT
ATOM      1  C   UNL d   1       0.234  -0.370   1.020  0.00  0.00     0.172 C 
ATOM      2  N   UNL d   1      -1.173  -0.122   0.814  0.00  0.00    -0.070 N 
ATOM      3  C1  UNL d   1      -2.114   0.005   1.800  0.00  0.00    -0.004 A 
ATOM      4  C2  UNL d   1      -3.331   0.235   1.195  0.00  0.00    -0.047 A 
ATOM      5  C3  UNL d   1      -3.114   0.246  -0.203  0.00  0.00    -0.047 A 
ATOM      6  C4  UNL d   1      -1.769   0.023  -0.411  0.00  0.00    -0.004 A 
ENDROOT
TORSDOF 0
ENDMDL
