MODEL 1
REMARK minimizedAffinity -4.16735458
REMARK minimizedRMSD -1
REMARK  0 active torsions:
REMARK  status: ('A' for Active; 'I' for Inactive)
ROOT
ATOM      1  C   UNL d   1      -0.758  -0.247  -0.873  0.00  0.00     0.172 C 
ATOM      2  N   UNL d   1      -1.376  -0.108   0.425  0.00  0.00    -0.070 N 
ATOM      3  C1  UNL d   1      -0.741  -0.245   1.630  0.00  0.00    -0.004 A 
ATOM      4  C2  UNL d   1      -1.672  -0.036   2.624  0.00  0.00    -0.047 A 
ATOM      5  C3  UNL d   1      -2.910   0.234   1.994  0.00  0.00    -0.047 A 
ATOM      6  C4  UNL d   1      -2.698   0.183   0.633  0.00  0.00    -0.004 A 
ENDROOT
TORSDOF 0
ENDMDL
