MODEL 1
REMARK minimizedAffinity -4.0628829
REMARK minimizedRMSD -1
REMARK  0 active torsions:
REMARK  status: ('A' for Active; 'I' for Inactive)
ROOT
ATOM      1  C   UNL d   1      -1.892   0.634  -1.515  0.00  0.00     0.172 C 
ATOM      2  N   UNL d   1      -1.880   0.289  -0.113  0.00  0.00    -0.070 N 
ATOM      3  C1  UNL d   1      -2.966   0.302   0.722  0.00  0.00    -0.004 A 
ATOM      4  C2  UNL d   1      -2.542  -0.089   1.973  0.00  0.00    -0.047 A 
ATOM      5  C3  UNL d   1      -1.152  -0.345   1.888  0.00  0.00    -0.047 A 
ATOM      6  C4  UNL d   1      -0.769  -0.102   0.586  0.00  0.00    -0.004 A 
ENDROOT
TORSDOF 0
ENDMDL
