MODEL 1
REMARK minimizedAffinity -3.86766839
REMARK minimizedRMSD -1
REMARK  0 active torsions:
REMARK  status: ('A' for Active; 'I' for Inactive)
ROOT
ATOM      1  C   UNL d   1       0.762  -0.073   0.187  0.00  0.00     0.172 C 
ATOM      2  N   UNL d   1      -0.391  -0.173   1.051  0.00  0.00    -0.070 N 
ATOM      3  C1  UNL d   1      -1.698  -0.078   0.653  0.00  0.00    -0.004 A 
ATOM      4  C2  UNL d   1      -2.491  -0.227   1.770  0.00  0.00    -0.047 A 
ATOM      5  C3  UNL d   1      -1.631  -0.418   2.878  0.00  0.00    -0.047 A 
ATOM      6  C4  UNL d   1      -0.337  -0.381   2.404  0.00  0.00    -0.004 A 
ENDROOT
TORSDOF 0
ENDMDL
