MODEL 1
REMARK minimizedAffinity -2.61135578
REMARK minimizedRMSD -1
REMARK  0 active torsions:
REMARK  status: ('A' for Active; 'I' for Inactive)
ROOT
ATOM      1  C   UNL d   1       1.124  -0.540  -3.000  0.00  0.00     0.172 C 
ATOM      2  N   UNL d   1       0.095  -0.310  -2.014  0.00  0.00    -0.070 N 
ATOM      3  C1  UNL d   1       0.255   0.375  -0.839  0.00  0.00    -0.004 A 
ATOM      4  C2  UNL d   1      -0.957   0.374  -0.182  0.00  0.00    -0.047 A 
ATOM      5  C3  UNL d   1      -1.876  -0.337  -0.989  0.00  0.00    -0.047 A 
ATOM      6  C4  UNL d   1      -1.198  -0.749  -2.118  0.00  0.00    -0.004 A 
ENDROOT
TORSDOF 0
ENDMDL
