MODEL 1
REMARK minimizedAffinity -4.25763369
REMARK minimizedRMSD -1
REMARK  0 active torsions:
REMARK  status: ('A' for Active; 'I' for Inactive)
ROOT
ATOM      1  C   UNL d   1       0.348  -0.006   0.577  0.00  0.00     0.172 C 
ATOM      2  N   UNL d   1      -0.864  -0.089   1.358  0.00  0.00    -0.070 N 
ATOM      3  C1  UNL d   1      -2.137   0.045   0.872  0.00  0.00    -0.004 A 
ATOM      4  C2  UNL d   1      -3.009  -0.100   1.929  0.00  0.00    -0.047 A 
ATOM      5  C3  UNL d   1      -2.233  -0.328   3.090  0.00  0.00    -0.047 A 
ATOM      6  C4  UNL d   1      -0.909  -0.316   2.708  0.00  0.00    -0.004 A 
ENDROOT
TORSDOF 0
ENDMDL
