MODEL 1
REMARK minimizedAffinity -2.1421051
REMARK minimizedRMSD -1
REMARK  0 active torsions:
REMARK  status: ('A' for Active; 'I' for Inactive)
ROOT
ATOM      1  C   UNL d   1       1.000   0.326  -0.886  0.00  0.00     0.172 C 
ATOM      2  N   UNL d   1      -0.131  -0.301  -1.530  0.00  0.00    -0.070 N 
ATOM      3  C1  UNL d   1      -0.066  -1.308  -2.455  0.00  0.00    -0.004 A 
ATOM      4  C2  UNL d   1      -1.355  -1.627  -2.823  0.00  0.00    -0.047 A 
ATOM      5  C3  UNL d   1      -2.225  -0.781  -2.094  0.00  0.00    -0.047 A 
ATOM      6  C4  UNL d   1      -1.441   0.030  -1.301  0.00  0.00    -0.004 A 
ENDROOT
TORSDOF 0
ENDMDL
