MODEL 1
REMARK minimizedAffinity -2.12294936
REMARK minimizedRMSD -1
REMARK  0 active torsions:
REMARK  status: ('A' for Active; 'I' for Inactive)
ROOT
ATOM      1  C   UNL d   1       0.040   0.391   2.614  0.00  0.00     0.172 C 
ATOM      2  N   UNL d   1      -0.004   0.331   1.172  0.00  0.00    -0.070 N 
ATOM      3  C1  UNL d   1       1.072   0.454   0.334  0.00  0.00    -0.004 A 
ATOM      4  C2  UNL d   1       0.614   0.340  -0.961  0.00  0.00    -0.047 A 
ATOM      5  C3  UNL d   1      -0.786   0.142  -0.899  0.00  0.00    -0.047 A 
ATOM      6  C4  UNL d   1      -1.142   0.140   0.433  0.00  0.00    -0.004 A 
ENDROOT
TORSDOF 0
ENDMDL
