MODEL 1
REMARK minimizedAffinity -4.00946426
REMARK minimizedRMSD -1
REMARK  0 active torsions:
REMARK  status: ('A' for Active; 'I' for Inactive)
ROOT
ATOM      1  C   UNL d   1       0.500  -0.007   0.148  0.00  0.00     0.172 C 
ATOM      2  N   UNL d   1      -0.918  -0.232  -0.009  0.00  0.00    -0.070 N 
ATOM      3  C1  UNL d   1      -1.674  -1.106   0.726  0.00  0.00    -0.004 A 
ATOM      4  C2  UNL d   1      -2.972  -1.025   0.272  0.00  0.00    -0.047 A 
ATOM      5  C3  UNL d   1      -2.998  -0.070  -0.772  0.00  0.00    -0.047 A 
ATOM      6  C4  UNL d   1      -1.712   0.406  -0.925  0.00  0.00    -0.004 A 
ENDROOT
TORSDOF 0
ENDMDL
