MODEL 1
REMARK minimizedAffinity -3.13765407
REMARK minimizedRMSD -1
REMARK  0 active torsions:
REMARK  status: ('A' for Active; 'I' for Inactive)
ROOT
ATOM      1  C   UNL d   1       0.032  -0.139  -0.540  0.00  0.00     0.172 C 
ATOM      2  N   UNL d   1       0.196  -0.036   0.891  0.00  0.00    -0.070 N 
ATOM      3  C1  UNL d   1      -0.818   0.073   1.805  0.00  0.00    -0.004 A 
ATOM      4  C2  UNL d   1      -0.250   0.147   3.058  0.00  0.00    -0.047 A 
ATOM      5  C3  UNL d   1       1.154   0.082   2.892  0.00  0.00    -0.047 A 
ATOM      6  C4  UNL d   1       1.402  -0.031   1.540  0.00  0.00    -0.004 A 
ENDROOT
TORSDOF 0
ENDMDL
