MODEL 1
REMARK minimizedAffinity -1.48698187
REMARK minimizedRMSD -1
REMARK  0 active torsions:
REMARK  status: ('A' for Active; 'I' for Inactive)
ROOT
ATOM      1  C   UNL d   1       3.000   2.503  -5.249  0.00  0.00     0.078 C 
ATOM      2  C1  UNL d   1       2.406   1.787  -4.073  0.00  0.00    -0.077 A 
ATOM      3  C2  UNL d   1       3.189   1.458  -2.959  0.00  0.00    -0.001 A 
ATOM      4  C3  UNL d   1       2.625   0.782  -1.875  0.00  0.00     0.003 A 
ATOM      5  C4  UNL d   1       1.278   0.429  -1.895  0.00  0.00    -0.005 A 
ATOM      6  C5  UNL d   1       0.492   0.751  -3.000  0.00  0.00     0.003 A 
ATOM      7  C6  UNL d   1       1.053   1.426  -4.084  0.00  0.00    -0.001 A 
ENDROOT
TORSDOF 0
ENDMDL
