MODEL 1
REMARK minimizedAffinity -3.52218556
REMARK minimizedRMSD -1
REMARK  0 active torsions:
REMARK  status: ('A' for Active; 'I' for Inactive)
ROOT
ATOM      1  C   UNL d   1       1.992   0.677  -1.854  0.00  0.00     0.078 C 
ATOM      2  C1  UNL d   1       1.972   1.200  -3.259  0.00  0.00    -0.077 A 
ATOM      3  C2  UNL d   1       0.769   1.318  -3.967  0.00  0.00    -0.001 A 
ATOM      4  C3  UNL d   1       0.766   1.797  -5.278  0.00  0.00     0.003 A 
ATOM      5  C4  UNL d   1       1.963   2.161  -5.893  0.00  0.00    -0.005 A 
ATOM      6  C5  UNL d   1       3.164   2.044  -5.197  0.00  0.00     0.003 A 
ATOM      7  C6  UNL d   1       3.169   1.565  -3.886  0.00  0.00    -0.001 A 
ENDROOT
TORSDOF 0
ENDMDL
