MODEL 1
REMARK minimizedAffinity 4.36394167
REMARK minimizedRMSD -1
REMARK  0 active torsions:
REMARK  status: ('A' for Active; 'I' for Inactive)
ROOT
ATOM      1  C   UNL d   1       2.618   1.442  -1.932  0.00  0.00     0.078 C 
ATOM      2  C1  UNL d   1       2.933   1.817  -3.349  0.00  0.00    -0.077 A 
ATOM      3  C2  UNL d   1       1.916   2.175  -4.243  0.00  0.00    -0.001 A 
ATOM      4  C3  UNL d   1       2.222   2.512  -5.562  0.00  0.00     0.003 A 
ATOM      5  C4  UNL d   1       3.545   2.493  -6.000  0.00  0.00    -0.005 A 
ATOM      6  C5  UNL d   1       4.563   2.136  -5.119  0.00  0.00     0.003 A 
ATOM      7  C6  UNL d   1       4.259   1.799  -3.799  0.00  0.00    -0.001 A 
ENDROOT
TORSDOF 0
ENDMDL
