MODEL 1
REMARK minimizedAffinity -0.175214335
REMARK minimizedRMSD -1
REMARK  0 active torsions:
REMARK  status: ('A' for Active; 'I' for Inactive)
ROOT
ATOM      1  C   UNL d   1       5.302   4.964   0.844  0.00  0.00     0.078 C 
ATOM      2  C1  UNL d   1       5.284   4.993   2.343  0.00  0.00    -0.077 A 
ATOM      3  C2  UNL d   1       4.571   5.978   3.036  0.00  0.00    -0.001 A 
ATOM      4  C3  UNL d   1       4.571   5.999   4.432  0.00  0.00     0.003 A 
ATOM      5  C4  UNL d   1       5.284   5.037   5.146  0.00  0.00    -0.005 A 
ATOM      6  C5  UNL d   1       5.999   4.054   4.464  0.00  0.00     0.003 A 
ATOM      7  C6  UNL d   1       6.000   4.032   3.069  0.00  0.00    -0.001 A 
ENDROOT
TORSDOF 0
ENDMDL
