MODEL 1
REMARK minimizedAffinity -2.61996007
REMARK minimizedRMSD -1
REMARK  0 active torsions:
REMARK  status: ('A' for Active; 'I' for Inactive)
ROOT
ATOM      1  C   UNL d   1       0.454   2.951  -3.381  0.00  0.00     0.078 C 
ATOM      2  C1  UNL d   1       1.339   1.810  -2.975  0.00  0.00    -0.077 A 
ATOM      3  C2  UNL d   1       0.825   0.712  -2.274  0.00  0.00    -0.001 A 
ATOM      4  C3  UNL d   1       1.663  -0.338  -1.894  0.00  0.00     0.003 A 
ATOM      5  C4  UNL d   1       3.020  -0.300  -2.210  0.00  0.00    -0.005 A 
ATOM      6  C5  UNL d   1       3.541   0.790  -2.905  0.00  0.00     0.003 A 
ATOM      7  C6  UNL d   1       2.705   1.840  -3.286  0.00  0.00    -0.001 A 
ENDROOT
TORSDOF 0
ENDMDL
