MODEL 1
REMARK minimizedAffinity -2.75011373
REMARK minimizedRMSD -1
REMARK  0 active torsions:
REMARK  status: ('A' for Active; 'I' for Inactive)
ROOT
ATOM      1  C   UNL d   1       3.026   2.254  -5.655  0.00  0.00     0.078 C 
ATOM      2  C1  UNL d   1       2.368   1.644  -4.453  0.00  0.00    -0.077 A 
ATOM      3  C2  UNL d   1       3.076   1.459  -3.259  0.00  0.00    -0.001 A 
ATOM      4  C3  UNL d   1       2.453   0.881  -2.152  0.00  0.00     0.003 A 
ATOM      5  C4  UNL d   1       1.120   0.483  -2.227  0.00  0.00    -0.005 A 
ATOM      6  C5  UNL d   1       0.408   0.661  -3.412  0.00  0.00     0.003 A 
ATOM      7  C6  UNL d   1       1.029   1.239  -4.520  0.00  0.00    -0.001 A 
ENDROOT
TORSDOF 0
ENDMDL
