MODEL 1
REMARK minimizedAffinity 2.81589699
REMARK minimizedRMSD -1
REMARK  0 active torsions:
REMARK  status: ('A' for Active; 'I' for Inactive)
ROOT
ATOM      1  C   UNL d   1       0.452   1.940  -6.000  0.00  0.00     0.078 C 
ATOM      2  C1  UNL d   1       1.602   1.964  -5.037  0.00  0.00    -0.077 A 
ATOM      3  C2  UNL d   1       2.923   2.042  -5.494  0.00  0.00    -0.001 A 
ATOM      4  C3  UNL d   1       3.984   2.053  -4.586  0.00  0.00     0.003 A 
ATOM      5  C4  UNL d   1       3.734   1.986  -3.217  0.00  0.00    -0.005 A 
ATOM      6  C5  UNL d   1       2.423   1.906  -2.753  0.00  0.00     0.003 A 
ATOM      7  C6  UNL d   1       1.361   1.895  -3.659  0.00  0.00    -0.001 A 
ENDROOT
TORSDOF 0
ENDMDL
