MODEL 1
REMARK minimizedAffinity 0.827283323
REMARK minimizedRMSD -1
REMARK  0 active torsions:
REMARK  status: ('A' for Active; 'I' for Inactive)
ROOT
ATOM      1  C   UNL d   1      -2.364   0.815   3.360  0.00  0.00     0.078 C 
ATOM      2  C1  UNL d   1      -3.487  -0.123   3.033  0.00  0.00    -0.077 A 
ATOM      3  C2  UNL d   1      -3.248  -1.485   2.812  0.00  0.00    -0.001 A 
ATOM      4  C3  UNL d   1      -4.301  -2.345   2.498  0.00  0.00     0.003 A 
ATOM      5  C4  UNL d   1      -5.602  -1.853   2.402  0.00  0.00    -0.005 A 
ATOM      6  C5  UNL d   1      -5.849  -0.499   2.619  0.00  0.00     0.003 A 
ATOM      7  C6  UNL d   1      -4.797   0.363   2.932  0.00  0.00    -0.001 A 
ENDROOT
TORSDOF 0
ENDMDL
