MODEL 1
REMARK minimizedAffinity -2.08699036
REMARK minimizedRMSD -1
REMARK  0 active torsions:
REMARK  status: ('A' for Active; 'I' for Inactive)
ROOT
ATOM      1  C   UNL d   1       0.370   1.271  -2.600  0.00  0.00     0.078 C 
ATOM      2  C1  UNL d   1       1.609   1.566  -3.391  0.00  0.00    -0.077 A 
ATOM      3  C2  UNL d   1       1.531   2.032  -4.709  0.00  0.00    -0.001 A 
ATOM      4  C3  UNL d   1       2.693   2.294  -5.435  0.00  0.00     0.003 A 
ATOM      5  C4  UNL d   1       3.943   2.091  -4.853  0.00  0.00    -0.005 A 
ATOM      6  C5  UNL d   1       4.031   1.625  -3.543  0.00  0.00     0.003 A 
ATOM      7  C6  UNL d   1       2.870   1.363  -2.815  0.00  0.00    -0.001 A 
ENDROOT
TORSDOF 0
ENDMDL
