MODEL 1
REMARK minimizedAffinity 2.53160501
REMARK minimizedRMSD -1
REMARK  0 active torsions:
REMARK  status: ('A' for Active; 'I' for Inactive)
ROOT
ATOM      1  C   UNL d   1       2.958   2.299  -5.629  0.00  0.00     0.078 C 
ATOM      2  C1  UNL d   1       2.366   1.696  -4.390  0.00  0.00    -0.077 A 
ATOM      3  C2  UNL d   1       1.086   1.128  -4.405  0.00  0.00    -0.001 A 
ATOM      4  C3  UNL d   1       0.544   0.579  -3.242  0.00  0.00     0.003 A 
ATOM      5  C4  UNL d   1       1.273   0.594  -2.055  0.00  0.00    -0.005 A 
ATOM      6  C5  UNL d   1       2.547   1.160  -2.029  0.00  0.00     0.003 A 
ATOM      7  C6  UNL d   1       3.091   1.709  -3.191  0.00  0.00    -0.001 A 
ENDROOT
TORSDOF 0
ENDMDL
