MODEL 1
REMARK minimizedAffinity 0.906316519
REMARK minimizedRMSD -1
REMARK  0 active torsions:
REMARK  status: ('A' for Active; 'I' for Inactive)
ROOT
ATOM      1  C   UNL d   1       1.970   5.625   0.175  0.00  0.00     0.078 C 
ATOM      2  C1  UNL d   1       3.377   5.512   0.681  0.00  0.00    -0.077 A 
ATOM      3  C2  UNL d   1       4.455   6.000  -0.068  0.00  0.00    -0.001 A 
ATOM      4  C3  UNL d   1       5.760   5.880   0.411  0.00  0.00     0.003 A 
ATOM      5  C4  UNL d   1       6.000   5.271   1.642  0.00  0.00    -0.005 A 
ATOM      6  C5  UNL d   1       4.934   4.781   2.394  0.00  0.00     0.003 A 
ATOM      7  C6  UNL d   1       3.628   4.901   1.916  0.00  0.00    -0.001 A 
ENDROOT
TORSDOF 0
ENDMDL
