MODEL 1
REMARK minimizedAffinity -4.13857985
REMARK minimizedRMSD -1
REMARK  0 active torsions:
REMARK  status: ('A' for Active; 'I' for Inactive)
ROOT
ATOM      1  C   UNL d   1       0.136   2.883  -3.049  0.00  0.00     0.078 C 
ATOM      2  C1  UNL d   1       0.900   1.708  -2.517  0.00  0.00    -0.077 A 
ATOM      3  C2  UNL d   1       2.300   1.716  -2.478  0.00  0.00    -0.001 A 
ATOM      4  C3  UNL d   1       2.999   0.612  -1.989  0.00  0.00     0.003 A 
ATOM      5  C4  UNL d   1       2.307  -0.510  -1.536  0.00  0.00    -0.005 A 
ATOM      6  C5  UNL d   1       0.915  -0.528  -1.573  0.00  0.00     0.003 A 
ATOM      7  C6  UNL d   1       0.214   0.576  -2.062  0.00  0.00    -0.001 A 
ENDROOT
TORSDOF 0
ENDMDL
