MODEL 1
REMARK minimizedAffinity 0.321337938
REMARK minimizedRMSD -1
REMARK  0 active torsions:
REMARK  status: ('A' for Active; 'I' for Inactive)
ROOT
ATOM      1  C   UNL d   1       4.754   5.933   5.018  0.00  0.00     0.078 C 
ATOM      2  C1  UNL d   1       4.727   5.946   3.519  0.00  0.00    -0.077 A 
ATOM      3  C2  UNL d   1       5.914   5.948   2.776  0.00  0.00    -0.001 A 
ATOM      4  C3  UNL d   1       5.874   5.970   1.381  0.00  0.00     0.003 A 
ATOM      5  C4  UNL d   1       4.649   5.992   0.717  0.00  0.00    -0.005 A 
ATOM      6  C5  UNL d   1       3.462   5.992   1.447  0.00  0.00     0.003 A 
ATOM      7  C6  UNL d   1       3.501   5.970   2.842  0.00  0.00    -0.001 A 
ENDROOT
TORSDOF 0
ENDMDL
