MODEL 1
REMARK minimizedAffinity -6.06169605
REMARK minimizedRMSD -1
REMARK  0 active torsions:
REMARK  status: ('A' for Active; 'I' for Inactive)
ROOT
ATOM      1  C   UNL d   1       1.544   0.440  -1.924  0.00  0.00     0.078 C 
ATOM      2  C1  UNL d   1       1.788   1.131  -3.232  0.00  0.00    -0.077 A 
ATOM      3  C2  UNL d   1       0.756   1.298  -4.164  0.00  0.00    -0.001 A 
ATOM      4  C3  UNL d   1       1.000   1.935  -5.381  0.00  0.00     0.003 A 
ATOM      5  C4  UNL d   1       2.276   2.409  -5.679  0.00  0.00    -0.005 A 
ATOM      6  C5  UNL d   1       3.310   2.246  -4.760  0.00  0.00     0.003 A 
ATOM      7  C6  UNL d   1       3.067   1.609  -3.542  0.00  0.00    -0.001 A 
ENDROOT
TORSDOF 0
ENDMDL
