MODEL 1
REMARK minimizedAffinity -1.83853447
REMARK minimizedRMSD -1
REMARK  0 active torsions:
REMARK  status: ('A' for Active; 'I' for Inactive)
ROOT
ATOM      1  C   UNL d   1       5.213   5.178   5.529  0.00  0.00     0.078 C 
ATOM      2  C1  UNL d   1       5.086   5.196   4.035  0.00  0.00    -0.077 A 
ATOM      3  C2  UNL d   1       4.130   6.000   3.402  0.00  0.00    -0.001 A 
ATOM      4  C3  UNL d   1       4.016   5.999   2.011  0.00  0.00     0.003 A 
ATOM      5  C4  UNL d   1       4.855   5.196   1.241  0.00  0.00    -0.005 A 
ATOM      6  C5  UNL d   1       5.808   4.391   1.862  0.00  0.00     0.003 A 
ATOM      7  C6  UNL d   1       5.923   4.390   3.253  0.00  0.00    -0.001 A 
ENDROOT
TORSDOF 0
ENDMDL
