MODEL 1
REMARK minimizedAffinity 1.91974902
REMARK minimizedRMSD -1
REMARK  0 active torsions:
REMARK  status: ('A' for Active; 'I' for Inactive)
ROOT
ATOM      1  C   UNL d   1       5.323   5.260   4.709  0.00  0.00     0.078 C 
ATOM      2  C1  UNL d   1       5.031   5.398   3.245  0.00  0.00    -0.077 A 
ATOM      3  C2  UNL d   1       6.000   5.085   2.283  0.00  0.00    -0.001 A 
ATOM      4  C3  UNL d   1       5.717   5.227   0.924  0.00  0.00     0.003 A 
ATOM      5  C4  UNL d   1       4.466   5.684   0.514  0.00  0.00    -0.005 A 
ATOM      6  C5  UNL d   1       3.497   6.000   1.463  0.00  0.00     0.003 A 
ATOM      7  C6  UNL d   1       3.778   5.858   2.823  0.00  0.00    -0.001 A 
ENDROOT
TORSDOF 0
ENDMDL
