MODEL 1
REMARK minimizedAffinity -0.31376484
REMARK minimizedRMSD -1
REMARK  0 active torsions:
REMARK  status: ('A' for Active; 'I' for Inactive)
ROOT
ATOM      1  C   UNL d   1       2.508   2.245  -6.000  0.00  0.00     0.078 C 
ATOM      2  C1  UNL d   1       2.179   1.695  -4.645  0.00  0.00    -0.077 A 
ATOM      3  C2  UNL d   1       0.943   1.085  -4.394  0.00  0.00    -0.001 A 
ATOM      4  C3  UNL d   1       0.647   0.586  -3.125  0.00  0.00     0.003 A 
ATOM      5  C4  UNL d   1       1.580   0.692  -2.096  0.00  0.00    -0.005 A 
ATOM      6  C5  UNL d   1       2.811   1.300  -2.334  0.00  0.00     0.003 A 
ATOM      7  C6  UNL d   1       3.109   1.799  -3.603  0.00  0.00    -0.001 A 
ENDROOT
TORSDOF 0
ENDMDL
