MODEL 1
REMARK minimizedAffinity -5.34430933
REMARK minimizedRMSD -1
REMARK  0 active torsions:
REMARK  status: ('A' for Active; 'I' for Inactive)
ROOT
ATOM      1  C   UNL d   1       0.235   2.683  -0.817  0.00  0.00     0.078 C 
ATOM      2  C1  UNL d   1       0.299   1.216  -0.513  0.00  0.00    -0.077 A 
ATOM      3  C2  UNL d   1       1.448   0.469  -0.802  0.00  0.00    -0.001 A 
ATOM      4  C3  UNL d   1       1.490  -0.898  -0.523  0.00  0.00     0.003 A 
ATOM      5  C4  UNL d   1       0.385  -1.531   0.045  0.00  0.00    -0.005 A 
ATOM      6  C5  UNL d   1      -0.763  -0.796   0.334  0.00  0.00     0.003 A 
ATOM      7  C6  UNL d   1      -0.806   0.571   0.056  0.00  0.00    -0.001 A 
ENDROOT
TORSDOF 0
ENDMDL
