MODEL 1
REMARK minimizedAffinity 9.94867992
REMARK minimizedRMSD -1
REMARK  0 active torsions:
REMARK  status: ('A' for Active; 'I' for Inactive)
ROOT
ATOM      1  C1  DEN d   1       2.301  -3.411   4.309  0.00  0.00     0.130 A 
ATOM      2  C2  DEN d   1       1.849  -2.068   3.953  0.00  0.00    -0.031 A 
ATOM      3  C3  DEN d   1       2.901  -1.112   4.351  0.00  0.00     0.027 A 
ATOM      4  C4  DEN d   1       5.177  -1.576   5.473  0.00  0.00     0.027 A 
ATOM      5  C5  DEN d   1       5.999  -2.559   5.979  0.00  0.00    -0.003 A 
ATOM      6  C6  DEN d   1       5.635  -3.879   5.994  0.00  0.00     0.001 A 
ATOM      7  C7  DEN d   1       4.436  -4.259   5.453  0.00  0.00     0.017 A 
ATOM      8  C8  DEN d   1       3.598  -3.273   4.948  0.00  0.00    -0.094 A 
ATOM      9  C9  DEN d   1       3.989  -1.945   4.930  0.00  0.00    -0.072 A 
ENDROOT
TORSDOF 0
ENDMDL
