MODEL 1
REMARK minimizedAffinity 6.39321375
REMARK minimizedRMSD -1
REMARK  0 active torsions:
REMARK  status: ('A' for Active; 'I' for Inactive)
ROOT
ATOM      1  C1  DEN d   1       1.974  -1.505   4.539  0.00  0.00     0.130 A 
ATOM      2  C2  DEN d   1       1.984  -0.836   3.241  0.00  0.00    -0.031 A 
ATOM      3  C3  DEN d   1       3.371  -0.843   2.734  0.00  0.00     0.027 A 
ATOM      4  C4  DEN d   1       5.492  -1.825   3.825  0.00  0.00     0.027 A 
ATOM      5  C5  DEN d   1       5.984  -2.480   4.932  0.00  0.00    -0.003 A 
ATOM      6  C6  DEN d   1       5.187  -2.824   5.992  0.00  0.00     0.001 A 
ATOM      7  C7  DEN d   1       3.845  -2.553   5.947  0.00  0.00     0.017 A 
ATOM      8  C8  DEN d   1       3.342  -1.886   4.838  0.00  0.00    -0.094 A 
ATOM      9  C9  DEN d   1       4.162  -1.558   3.772  0.00  0.00    -0.072 A 
ENDROOT
TORSDOF 0
ENDMDL
