MODEL 1
REMARK minimizedAffinity 0.132130548
REMARK minimizedRMSD -1
REMARK  0 active torsions:
REMARK  status: ('A' for Active; 'I' for Inactive)
ROOT
ATOM      1  C1  DEN d   1       1.928  -1.872   4.168  0.00  0.00     0.130 A 
ATOM      2  C2  DEN d   1       1.876  -1.198   2.874  0.00  0.00    -0.031 A 
ATOM      3  C3  DEN d   1       3.253  -1.110   2.349  0.00  0.00     0.027 A 
ATOM      4  C4  DEN d   1       5.450  -1.952   3.406  0.00  0.00     0.027 A 
ATOM      5  C5  DEN d   1       6.000  -2.577   4.503  0.00  0.00    -0.003 A 
ATOM      6  C6  DEN d   1       5.242  -2.978   5.572  0.00  0.00     0.001 A 
ATOM      7  C7  DEN d   1       3.884  -2.798   5.546  0.00  0.00     0.017 A 
ATOM      8  C8  DEN d   1       3.323  -2.161   4.447  0.00  0.00    -0.094 A 
ATOM      9  C9  DEN d   1       4.105  -1.774   3.372  0.00  0.00    -0.072 A 
ENDROOT
TORSDOF 0
ENDMDL
