MODEL 1
REMARK minimizedAffinity 4.0805974
REMARK minimizedRMSD -1
REMARK  0 active torsions:
REMARK  status: ('A' for Active; 'I' for Inactive)
ROOT
ATOM      1  C1  DEN d   1       0.602   0.399   1.725  0.00  0.00     0.130 A 
ATOM      2  C2  DEN d   1       1.681  -0.481   2.165  0.00  0.00    -0.031 A 
ATOM      3  C3  DEN d   1       2.963   0.132   1.764  0.00  0.00     0.027 A 
ATOM      4  C4  DEN d   1       3.380   2.350   0.515  0.00  0.00     0.027 A 
ATOM      5  C5  DEN d   1       2.774   3.437  -0.075  0.00  0.00    -0.003 A 
ATOM      6  C6  DEN d   1       1.412   3.571  -0.135  0.00  0.00     0.001 A 
ATOM      7  C7  DEN d   1       0.611   2.622   0.443  0.00  0.00     0.017 A 
ATOM      8  C8  DEN d   1       1.214   1.519   1.033  0.00  0.00    -0.094 A 
ATOM      9  C9  DEN d   1       2.593   1.409   1.095  0.00  0.00    -0.072 A 
ENDROOT
TORSDOF 0
ENDMDL
