MODEL 1
REMARK minimizedAffinity -1.92022848
REMARK minimizedRMSD -1
REMARK  0 active torsions:
REMARK  status: ('A' for Active; 'I' for Inactive)
ROOT
ATOM      1  C1  DEN d   1       1.953  -1.501   4.547  0.00  0.00     0.130 A 
ATOM      2  C2  DEN d   1       1.868  -1.076   3.153  0.00  0.00    -0.031 A 
ATOM      3  C3  DEN d   1       3.220  -1.164   2.566  0.00  0.00     0.027 A 
ATOM      4  C4  DEN d   1       5.424  -1.918   3.674  0.00  0.00     0.027 A 
ATOM      5  C5  DEN d   1       5.998  -2.360   4.845  0.00  0.00    -0.003 A 
ATOM      6  C6  DEN d   1       5.276  -2.513   5.999  0.00  0.00     0.001 A 
ATOM      7  C7  DEN d   1       3.929  -2.265   5.995  0.00  0.00     0.017 A 
ATOM      8  C8  DEN d   1       3.345  -1.811   4.820  0.00  0.00    -0.094 A 
ATOM      9  C9  DEN d   1       4.089  -1.674   3.660  0.00  0.00    -0.072 A 
ENDROOT
TORSDOF 0
ENDMDL
