MODEL 1
REMARK minimizedAffinity 9.31606579
REMARK minimizedRMSD -1
REMARK  0 active torsions:
REMARK  status: ('A' for Active; 'I' for Inactive)
ROOT
ATOM      1  C1  DEN d   1       5.764  -1.510   4.124  0.00  0.00     0.130 A 
ATOM      2  C2  DEN d   1       6.000  -2.263   5.353  0.00  0.00    -0.031 A 
ATOM      3  C3  DEN d   1       4.701  -2.780   5.828  0.00  0.00     0.027 A 
ATOM      4  C4  DEN d   1       2.360  -2.494   4.784  0.00  0.00     0.027 A 
ATOM      5  C5  DEN d   1       1.656  -1.927   3.744  0.00  0.00    -0.003 A 
ATOM      6  C6  DEN d   1       2.262  -1.159   2.785  0.00  0.00     0.001 A 
ATOM      7  C7  DEN d   1       3.619  -0.974   2.821  0.00  0.00     0.017 A 
ATOM      8  C8  DEN d   1       4.334  -1.537   3.870  0.00  0.00    -0.094 A 
ATOM      9  C9  DEN d   1       3.706  -2.320   4.822  0.00  0.00    -0.072 A 
ENDROOT
TORSDOF 0
ENDMDL
