MODEL 1
REMARK minimizedAffinity -0.323990673
REMARK minimizedRMSD -1
REMARK  0 active torsions:
REMARK  status: ('A' for Active; 'I' for Inactive)
ROOT
ATOM      1  C1  DEN d   1       1.876  -2.309   4.591  0.00  0.00     0.130 A 
ATOM      2  C2  DEN d   1       1.730  -1.496   3.387  0.00  0.00    -0.031 A 
ATOM      3  C3  DEN d   1       3.080  -1.097   2.939  0.00  0.00     0.027 A 
ATOM      4  C4  DEN d   1       5.369  -1.660   3.986  0.00  0.00     0.027 A 
ATOM      5  C5  DEN d   1       5.999  -2.311   5.023  0.00  0.00    -0.003 A 
ATOM      6  C6  DEN d   1       5.304  -2.974   6.000  0.00  0.00     0.001 A 
ATOM      7  C7  DEN d   1       3.937  -3.038   5.935  0.00  0.00     0.017 A 
ATOM      8  C8  DEN d   1       3.294  -2.377   4.896  0.00  0.00    -0.094 A 
ATOM      9  C9  DEN d   1       4.015  -1.723   3.912  0.00  0.00    -0.072 A 
ENDROOT
TORSDOF 0
ENDMDL
