MODEL 1
REMARK minimizedAffinity 32.4030342
REMARK minimizedRMSD -1
REMARK  0 active torsions:
REMARK  status: ('A' for Active; 'I' for Inactive)
ROOT
ATOM      1  C   UNL d   1       0.444   3.462  -0.454  0.00  0.00     0.124 A 
ATOM      2  C1  UNL d   1       0.095   2.193  -0.013  0.00  0.00     0.062 A 
ATOM      3  C2  UNL d   1      -0.960   1.509  -0.611  0.00  0.00     0.162 A 
ATOM      4  C3  UNL d   1      -1.674   2.094  -1.657  0.00  0.00    -0.034 A 
ATOM      5  C4  UNL d   1      -1.318   3.371  -2.094  0.00  0.00     0.162 A 
ATOM      6  C5  UNL d   1      -0.263   4.050  -1.493  0.00  0.00     0.062 A 
ATOM      7  F   UNL d   1       0.072   5.276  -1.920  0.00  0.00    -0.097 F 
ATOM      8  F1  UNL d   1      -1.984   3.962  -3.098  0.00  0.00    -0.096 F 
ATOM      9  I   UNL d   1      -3.252   1.075  -2.554  0.00  0.00    -0.060 I 
ATOM     10  F2  UNL d   1      -1.275   0.284  -0.165  0.00  0.00    -0.096 F 
ATOM     11  F3  UNL d   1       0.776   1.623   0.992  0.00  0.00    -0.097 F 
ATOM     12  F4  UNL d   1       1.458   4.118   0.124  0.00  0.00    -0.092 F 
ENDROOT
TORSDOF 0
ENDMDL
