MODEL 1
REMARK minimizedAffinity 11.1086493
REMARK minimizedRMSD -1
REMARK  0 active torsions:
REMARK  status: ('A' for Active; 'I' for Inactive)
ROOT
ATOM      1  C   UNL d   1       1.108   0.264  -0.035  0.00  0.00     0.124 A 
ATOM      2  C1  UNL d   1       1.102  -0.136  -1.364  0.00  0.00     0.062 A 
ATOM      3  C2  UNL d   1       0.138   0.357  -2.238  0.00  0.00     0.162 A 
ATOM      4  C3  UNL d   1      -0.828   1.256  -1.787  0.00  0.00    -0.034 A 
ATOM      5  C4  UNL d   1      -0.816   1.653  -0.449  0.00  0.00     0.162 A 
ATOM      6  C5  UNL d   1       0.150   1.158   0.422  0.00  0.00     0.062 A 
ATOM      7  F   UNL d   1       0.154   1.546   1.705  0.00  0.00    -0.097 F 
ATOM      8  F1  UNL d   1      -1.730   2.517   0.019  0.00  0.00    -0.096 F 
ATOM      9  I   UNL d   1      -2.272   1.995  -3.092  0.00  0.00    -0.060 I 
ATOM     10  F2  UNL d   1       0.155  -0.047  -3.517  0.00  0.00    -0.096 F 
ATOM     11  F3  UNL d   1       2.026  -1.000  -1.807  0.00  0.00    -0.097 F 
ATOM     12  F4  UNL d   1       2.036  -0.212   0.805  0.00  0.00    -0.092 F 
ENDROOT
TORSDOF 0
ENDMDL
