MODEL 1
REMARK minimizedAffinity 16.7893162
REMARK minimizedRMSD -1
REMARK  0 active torsions:
REMARK  status: ('A' for Active; 'I' for Inactive)
ROOT
ATOM      1  C   UNL d   1      -1.124  -2.881  -5.081  0.00  0.00     0.124 A 
ATOM      2  C1  UNL d   1      -0.807  -3.841  -4.129  0.00  0.00     0.062 A 
ATOM      3  C2  UNL d   1       0.172  -3.583  -3.174  0.00  0.00     0.162 A 
ATOM      4  C3  UNL d   1       0.841  -2.359  -3.165  0.00  0.00    -0.034 A 
ATOM      5  C4  UNL d   1       0.518  -1.399  -4.125  0.00  0.00     0.162 A 
ATOM      6  C5  UNL d   1      -0.461  -1.662  -5.078  0.00  0.00     0.062 A 
ATOM      7  F   UNL d   1      -0.766  -0.733  -5.996  0.00  0.00    -0.097 F 
ATOM      8  F1  UNL d   1       1.141  -0.212  -4.145  0.00  0.00    -0.096 F 
ATOM      9  I   UNL d   1       2.305  -1.969  -1.738  0.00  0.00    -0.060 I 
ATOM     10  F2  UNL d   1       0.458  -4.529  -2.267  0.00  0.00    -0.096 F 
ATOM     11  F3  UNL d   1      -1.444  -5.020  -4.131  0.00  0.00    -0.097 F 
ATOM     12  F4  UNL d   1      -2.065  -3.132  -5.999  0.00  0.00    -0.092 F 
ENDROOT
TORSDOF 0
ENDMDL
