MODEL 1
REMARK minimizedAffinity 7.57577991
REMARK minimizedRMSD -1
REMARK  0 active torsions:
REMARK  status: ('A' for Active; 'I' for Inactive)
ROOT
ATOM      1  C   UNL d   1       0.604   3.339  -0.962  0.00  0.00     0.124 A 
ATOM      2  C1  UNL d   1       1.342   4.311  -1.622  0.00  0.00     0.062 A 
ATOM      3  C2  UNL d   1       0.758   5.067  -2.634  0.00  0.00     0.162 A 
ATOM      4  C3  UNL d   1      -0.574   4.855  -2.991  0.00  0.00    -0.034 A 
ATOM      5  C4  UNL d   1      -1.310   3.875  -2.323  0.00  0.00     0.162 A 
ATOM      6  C5  UNL d   1      -0.721   3.122  -1.312  0.00  0.00     0.062 A 
ATOM      7  F   UNL d   1      -1.436   2.183  -0.675  0.00  0.00    -0.097 F 
ATOM      8  F1  UNL d   1      -2.593   3.645  -2.641  0.00  0.00    -0.096 F 
ATOM      9  I   UNL d   1      -1.452   5.984  -4.503  0.00  0.00    -0.060 I 
ATOM     10  F2  UNL d   1       1.495   6.000  -3.255  0.00  0.00    -0.096 F 
ATOM     11  F3  UNL d   1       2.623   4.522  -1.286  0.00  0.00    -0.097 F 
ATOM     12  F4  UNL d   1       1.169   2.612   0.011  0.00  0.00    -0.092 F 
ENDROOT
TORSDOF 0
ENDMDL
