MODEL 1
REMARK minimizedAffinity 2.76358438
REMARK minimizedRMSD -1
REMARK  0 active torsions:
REMARK  status: ('A' for Active; 'I' for Inactive)
ROOT
ATOM      1  C   UNL d   1       0.370   0.980   3.252  0.00  0.00     0.124 A 
ATOM      2  C1  UNL d   1      -0.842   1.332   2.674  0.00  0.00     0.062 A 
ATOM      3  C2  UNL d   1      -0.869   2.145   1.544  0.00  0.00     0.162 A 
ATOM      4  C3  UNL d   1       0.320   2.611   0.984  0.00  0.00    -0.034 A 
ATOM      5  C4  UNL d   1       1.535   2.253   1.571  0.00  0.00     0.162 A 
ATOM      6  C5  UNL d   1       1.557   1.440   2.700  0.00  0.00     0.062 A 
ATOM      7  F   UNL d   1       2.729   1.101   3.257  0.00  0.00    -0.097 F 
ATOM      8  F1  UNL d   1       2.697   2.683   1.058  0.00  0.00    -0.096 F 
ATOM      9  I   UNL d   1       0.284   3.826  -0.705  0.00  0.00    -0.060 I 
ATOM     10  F2  UNL d   1      -2.055   2.469   1.007  0.00  0.00    -0.096 F 
ATOM     11  F3  UNL d   1      -1.991   0.889   3.205  0.00  0.00    -0.097 F 
ATOM     12  F4  UNL d   1       0.393   0.198   4.339  0.00  0.00    -0.092 F 
ENDROOT
TORSDOF 0
ENDMDL
