MODEL 1
REMARK minimizedAffinity -1.22517753
REMARK minimizedRMSD -1
REMARK  0 active torsions:
REMARK  status: ('A' for Active; 'I' for Inactive)
ROOT
ATOM      1  C   UNL d   1       3.352   0.750  -1.589  0.00  0.00     0.023 A 
ATOM      2  C1  UNL d   1       2.438  -0.151  -2.135  0.00  0.00     0.003 A 
ATOM      3  C2  UNL d   1       1.226  -0.398  -1.487  0.00  0.00     0.048 A 
ATOM      4  C3  UNL d   1       0.934   0.261  -0.294  0.00  0.00     0.023 A 
ATOM      5  C4  UNL d   1       1.845   1.165   0.256  0.00  0.00     0.048 A 
ATOM      6  C5  UNL d   1       3.055   1.408  -0.395  0.00  0.00     0.003 A 
ATOM      7  I   UNL d   1      -0.870  -0.104   0.673  0.00  0.00    -0.146 I 
ENDROOT
TORSDOF 0
ENDMDL
