MODEL 1
REMARK minimizedAffinity 0.507116616
REMARK minimizedRMSD -1
REMARK  0 active torsions:
REMARK  status: ('A' for Active; 'I' for Inactive)
ROOT
ATOM      1  C   UNL d   1      -4.472   1.039   1.795  0.00  0.00     0.023 A 
ATOM      2  C1  UNL d   1      -4.285   0.011   0.871  0.00  0.00     0.003 A 
ATOM      3  C2  UNL d   1      -2.995  -0.422   0.557  0.00  0.00     0.048 A 
ATOM      4  C3  UNL d   1      -1.896   0.177   1.172  0.00  0.00     0.023 A 
ATOM      5  C4  UNL d   1      -2.078   1.205   2.098  0.00  0.00     0.048 A 
ATOM      6  C5  UNL d   1      -3.370   1.635   2.408  0.00  0.00     0.003 A 
ATOM      7  I   UNL d   1       0.025  -0.466   0.707  0.00  0.00    -0.146 I 
ENDROOT
TORSDOF 0
ENDMDL
