MODEL 1
REMARK minimizedAffinity -1.84762299
REMARK minimizedRMSD -1
REMARK  0 active torsions:
REMARK  status: ('A' for Active; 'I' for Inactive)
ROOT
ATOM      1  C   UNL d   1       2.359  -0.008  -1.847  0.00  0.00     0.023 A 
ATOM      2  C1  UNL d   1       1.937  -1.278  -1.453  0.00  0.00     0.003 A 
ATOM      3  C2  UNL d   1       0.882  -1.415  -0.548  0.00  0.00     0.048 A 
ATOM      4  C3  UNL d   1       0.253  -0.277  -0.042  0.00  0.00     0.023 A 
ATOM      5  C4  UNL d   1       0.672   0.995  -0.435  0.00  0.00     0.048 A 
ATOM      6  C5  UNL d   1       1.727   1.127  -1.339  0.00  0.00     0.003 A 
ATOM      7  I   UNL d   1      -1.317  -0.478   1.304  0.00  0.00    -0.146 I 
ENDROOT
TORSDOF 0
ENDMDL
