MODEL 1
REMARK minimizedAffinity -4.15728283
REMARK minimizedRMSD -1
REMARK  0 active torsions:
REMARK  status: ('A' for Active; 'I' for Inactive)
ROOT
ATOM      1  C   UNL d   1       1.909  -1.164  -3.008  0.00  0.00     0.023 A 
ATOM      2  C1  UNL d   1       1.119  -0.016  -2.952  0.00  0.00     0.003 A 
ATOM      3  C2  UNL d   1       0.399   0.281  -1.792  0.00  0.00     0.048 A 
ATOM      4  C3  UNL d   1       0.475  -0.574  -0.693  0.00  0.00     0.023 A 
ATOM      5  C4  UNL d   1       1.266  -1.723  -0.745  0.00  0.00     0.048 A 
ATOM      6  C5  UNL d   1       1.983  -2.016  -1.907  0.00  0.00     0.003 A 
ATOM      7  I   UNL d   1      -0.595  -0.134   1.033  0.00  0.00    -0.146 I 
ENDROOT
TORSDOF 0
ENDMDL
