MODEL 1
REMARK minimizedAffinity -4.00902176
REMARK minimizedRMSD -1
REMARK  0 active torsions:
REMARK  status: ('A' for Active; 'I' for Inactive)
ROOT
ATOM      1  C   UNL d   1       1.101  -1.125  -1.876  0.00  0.00     0.023 A 
ATOM      2  C1  UNL d   1       0.912   0.237  -1.640  0.00  0.00     0.003 A 
ATOM      3  C2  UNL d   1       0.020   0.659  -0.652  0.00  0.00     0.048 A 
ATOM      4  C3  UNL d   1      -0.680  -0.287   0.097  0.00  0.00     0.023 A 
ATOM      5  C4  UNL d   1      -0.493  -1.650  -0.134  0.00  0.00     0.048 A 
ATOM      6  C5  UNL d   1       0.399  -2.067  -1.124  0.00  0.00     0.003 A 
ATOM      7  I   UNL d   1      -2.008   0.339   1.568  0.00  0.00    -0.146 I 
ENDROOT
TORSDOF 0
ENDMDL
