MODEL 1
REMARK minimizedAffinity -2.64905024
REMARK minimizedRMSD -1
REMARK  0 active torsions:
REMARK  status: ('A' for Active; 'I' for Inactive)
ROOT
ATOM      1  C   UNL d   1      -4.028   0.644   1.683  0.00  0.00     0.023 A 
ATOM      2  C1  UNL d   1      -3.982   0.786   0.296  0.00  0.00     0.003 A 
ATOM      3  C2  UNL d   1      -2.781   0.586  -0.388  0.00  0.00     0.048 A 
ATOM      4  C3  UNL d   1      -1.630   0.242   0.321  0.00  0.00     0.023 A 
ATOM      5  C4  UNL d   1      -1.672   0.098   1.708  0.00  0.00     0.048 A 
ATOM      6  C5  UNL d   1      -2.875   0.300   2.388  0.00  0.00     0.003 A 
ATOM      7  I   UNL d   1       0.158  -0.056  -0.695  0.00  0.00    -0.146 I 
ENDROOT
TORSDOF 0
ENDMDL
