MODEL 1
REMARK minimizedAffinity -4.90868092
REMARK minimizedRMSD -1
REMARK  0 active torsions:
REMARK  status: ('A' for Active; 'I' for Inactive)
ROOT
ATOM      1  C   UNL d   1       1.591  -0.430  -2.986  0.00  0.00     0.023 A 
ATOM      2  C1  UNL d   1       1.396   0.788  -2.333  0.00  0.00     0.003 A 
ATOM      3  C2  UNL d   1       0.819   0.815  -1.062  0.00  0.00     0.048 A 
ATOM      4  C3  UNL d   1       0.442  -0.379  -0.448  0.00  0.00     0.023 A 
ATOM      5  C4  UNL d   1       0.637  -1.599  -1.096  0.00  0.00     0.048 A 
ATOM      6  C5  UNL d   1       1.212  -1.622  -2.368  0.00  0.00     0.003 A 
ATOM      7  I   UNL d   1      -0.415  -0.341   1.445  0.00  0.00    -0.146 I 
ENDROOT
TORSDOF 0
ENDMDL
