MODEL 1
REMARK minimizedAffinity -2.60493183
REMARK minimizedRMSD -1
REMARK  0 active torsions:
REMARK  status: ('A' for Active; 'I' for Inactive)
ROOT
ATOM      1  C   UNL d   1       2.174  -0.617  -2.360  0.00  0.00     0.023 A 
ATOM      2  C1  UNL d   1       2.463   0.387  -1.436  0.00  0.00     0.003 A 
ATOM      3  C2  UNL d   1       1.529   0.723  -0.453  0.00  0.00     0.048 A 
ATOM      4  C3  UNL d   1       0.309   0.049  -0.400  0.00  0.00     0.023 A 
ATOM      5  C4  UNL d   1       0.017  -0.957  -1.322  0.00  0.00     0.048 A 
ATOM      6  C5  UNL d   1       0.953  -1.288  -2.303  0.00  0.00     0.003 A 
ATOM      7  I   UNL d   1      -1.082   0.547   1.062  0.00  0.00    -0.146 I 
ENDROOT
TORSDOF 0
ENDMDL
