MODEL 1
REMARK minimizedAffinity -5.15310907
REMARK minimizedRMSD -1
REMARK  0 active torsions:
REMARK  status: ('A' for Active; 'I' for Inactive)
ROOT
ATOM      1  C   UNL d   1       2.021  -0.672  -2.698  0.00  0.00     0.023 A 
ATOM      2  C1  UNL d   1       1.403  -1.799  -2.155  0.00  0.00     0.003 A 
ATOM      3  C2  UNL d   1       0.536  -1.667  -1.069  0.00  0.00     0.048 A 
ATOM      4  C3  UNL d   1       0.291  -0.404  -0.530  0.00  0.00     0.023 A 
ATOM      5  C4  UNL d   1       0.906   0.727  -1.070  0.00  0.00     0.048 A 
ATOM      6  C5  UNL d   1       1.773   0.589  -2.156  0.00  0.00     0.003 A 
ATOM      7  I   UNL d   1      -1.000  -0.204   1.087  0.00  0.00    -0.146 I 
ENDROOT
TORSDOF 0
ENDMDL
