MODEL 1
REMARK minimizedAffinity -3.71325016
REMARK minimizedRMSD -1
REMARK  0 active torsions:
REMARK  status: ('A' for Active; 'I' for Inactive)
ROOT
ATOM      1  C   UNL d   1       2.502   0.658   0.429  0.00  0.00     0.077 C 
ATOM      2  C1  UNL d   1       1.339  -0.284   0.533  0.00  0.00    -0.074 A 
ATOM      3  C2  UNL d   1       1.525  -1.668   0.447  0.00  0.00    -0.005 A 
ATOM      4  C3  UNL d   1       0.436  -2.532   0.555  0.00  0.00     0.006 A 
ATOM      5  C4  UNL d   1      -0.849  -2.022   0.749  0.00  0.00    -0.005 A 
ATOM      6  C5  UNL d   1      -1.054  -0.642   0.839  0.00  0.00    -0.074 A 
ATOM      7  C6  UNL d   1      -2.426  -0.078   1.057  0.00  0.00     0.077 C 
ATOM      8  C7  UNL d   1       0.047   0.220   0.736  0.00  0.00    -0.001 A 
ENDROOT
TORSDOF 0
ENDMDL
