MODEL 1
REMARK minimizedAffinity -2.21636844
REMARK minimizedRMSD -1
REMARK  0 active torsions:
REMARK  status: ('A' for Active; 'I' for Inactive)
ROOT
ATOM      1  C   UNL d   1       3.077  -4.500  -0.299  0.00  0.00     0.077 C 
ATOM      2  C1  UNL d   1       1.945  -3.542  -0.073  0.00  0.00    -0.074 A 
ATOM      3  C2  UNL d   1       0.632  -3.888  -0.408  0.00  0.00    -0.005 A 
ATOM      4  C3  UNL d   1      -0.411  -2.991  -0.183  0.00  0.00     0.006 A 
ATOM      5  C4  UNL d   1      -0.153  -1.740   0.380  0.00  0.00    -0.005 A 
ATOM      6  C5  UNL d   1       1.154  -1.377   0.722  0.00  0.00    -0.074 A 
ATOM      7  C6  UNL d   1       1.447  -0.040   1.336  0.00  0.00     0.077 C 
ATOM      8  C7  UNL d   1       2.196  -2.287   0.499  0.00  0.00    -0.001 A 
ENDROOT
TORSDOF 0
ENDMDL
