MODEL 1
REMARK minimizedAffinity 2.02547622
REMARK minimizedRMSD -1
REMARK  0 active torsions:
REMARK  status: ('A' for Active; 'I' for Inactive)
ROOT
ATOM      1  C   UNL d   1      -1.998  -1.604   1.026  0.00  0.00     0.077 C 
ATOM      2  C1  UNL d   1      -0.547  -1.540   0.653  0.00  0.00    -0.074 A 
ATOM      3  C2  UNL d   1       0.203  -0.382   0.880  0.00  0.00    -0.005 A 
ATOM      4  C3  UNL d   1       1.554  -0.340   0.537  0.00  0.00     0.006 A 
ATOM      5  C4  UNL d   1       2.168  -1.455  -0.035  0.00  0.00    -0.005 A 
ATOM      6  C5  UNL d   1       1.435  -2.623  -0.268  0.00  0.00    -0.074 A 
ATOM      7  C6  UNL d   1       2.082  -3.833  -0.873  0.00  0.00     0.077 C 
ATOM      8  C7  UNL d   1       0.079  -2.659   0.086  0.00  0.00    -0.001 A 
ENDROOT
TORSDOF 0
ENDMDL
