MODEL 1
REMARK minimizedAffinity -4.50241327
REMARK minimizedRMSD -1
REMARK  0 active torsions:
REMARK  status: ('A' for Active; 'I' for Inactive)
ROOT
ATOM      1  C   UNL d   1      -0.367  -0.267   1.156  0.00  0.00     0.077 C 
ATOM      2  C1  UNL d   1       0.613  -1.337   0.776  0.00  0.00    -0.074 A 
ATOM      3  C2  UNL d   1       0.174  -2.584   0.318  0.00  0.00    -0.005 A 
ATOM      4  C3  UNL d   1       1.097  -3.566  -0.041  0.00  0.00     0.006 A 
ATOM      5  C4  UNL d   1       2.466  -3.312   0.054  0.00  0.00    -0.005 A 
ATOM      6  C5  UNL d   1       2.923  -2.071   0.509  0.00  0.00    -0.074 A 
ATOM      7  C6  UNL d   1       4.391  -1.779   0.607  0.00  0.00     0.077 C 
ATOM      8  C7  UNL d   1       1.990  -1.087   0.861  0.00  0.00    -0.001 A 
ENDROOT
TORSDOF 0
ENDMDL
