MODEL 1
REMARK minimizedAffinity 0.0347047746
REMARK minimizedRMSD -1
REMARK  0 active torsions:
REMARK  status: ('A' for Active; 'I' for Inactive)
ROOT
ATOM      1  C   UNL d   1       1.877   0.264   0.756  0.00  0.00     0.077 C 
ATOM      2  C1  UNL d   1       1.610  -1.157   0.360  0.00  0.00    -0.074 A 
ATOM      3  C2  UNL d   1       0.302  -1.640   0.254  0.00  0.00    -0.005 A 
ATOM      4  C3  UNL d   1       0.069  -2.963  -0.124  0.00  0.00     0.006 A 
ATOM      5  C4  UNL d   1       1.140  -3.814  -0.400  0.00  0.00    -0.005 A 
ATOM      6  C5  UNL d   1       2.455  -3.348  -0.300  0.00  0.00    -0.074 A 
ATOM      7  C6  UNL d   1       3.617  -4.247  -0.602  0.00  0.00     0.077 C 
ATOM      8  C7  UNL d   1       2.680  -2.017   0.074  0.00  0.00    -0.001 A 
ENDROOT
TORSDOF 0
ENDMDL
