MODEL 1
REMARK minimizedAffinity 0.28538546
REMARK minimizedRMSD -1
REMARK  0 active torsions:
REMARK  status: ('A' for Active; 'I' for Inactive)
ROOT
ATOM      1  C   UNL d   1       5.999   3.994  -2.043  0.00  0.00     0.077 C 
ATOM      2  C1  UNL d   1       5.096   2.948  -2.625  0.00  0.00    -0.074 A 
ATOM      3  C2  UNL d   1       5.450   1.595  -2.597  0.00  0.00    -0.005 A 
ATOM      4  C3  UNL d   1       4.595   0.633  -3.134  0.00  0.00     0.006 A 
ATOM      5  C4  UNL d   1       3.379   1.012  -3.704  0.00  0.00    -0.005 A 
ATOM      6  C5  UNL d   1       3.007   2.360  -3.740  0.00  0.00    -0.074 A 
ATOM      7  C6  UNL d   1       1.700   2.784  -4.340  0.00  0.00     0.077 C 
ATOM      8  C7  UNL d   1       3.869   3.320  -3.192  0.00  0.00    -0.001 A 
ENDROOT
TORSDOF 0
ENDMDL
