MODEL 1
REMARK minimizedAffinity -0.0164561216
REMARK minimizedRMSD -1
REMARK  0 active torsions:
REMARK  status: ('A' for Active; 'I' for Inactive)
ROOT
ATOM      1  C   UNL d   1       0.857  -2.692  -1.361  0.00  0.00     0.077 C 
ATOM      2  C1  UNL d   1       0.712  -1.676  -0.268  0.00  0.00    -0.074 A 
ATOM      3  C2  UNL d   1       1.823  -0.980   0.219  0.00  0.00    -0.005 A 
ATOM      4  C3  UNL d   1       1.670  -0.031   1.230  0.00  0.00     0.006 A 
ATOM      5  C4  UNL d   1       0.408   0.231   1.763  0.00  0.00    -0.005 A 
ATOM      6  C5  UNL d   1      -0.715  -0.455   1.288  0.00  0.00    -0.074 A 
ATOM      7  C6  UNL d   1      -2.080  -0.178   1.844  0.00  0.00     0.077 C 
ATOM      8  C7  UNL d   1      -0.554  -1.402   0.268  0.00  0.00    -0.001 A 
ENDROOT
TORSDOF 0
ENDMDL
