MODEL 1
REMARK minimizedAffinity 5.08111954
REMARK minimizedRMSD -1
REMARK  0 active torsions:
REMARK  status: ('A' for Active; 'I' for Inactive)
ROOT
ATOM      1  C   UNL d   1       0.327   0.035   2.242  0.00  0.00     0.077 C 
ATOM      2  C1  UNL d   1       0.034  -1.119   1.330  0.00  0.00    -0.074 A 
ATOM      3  C2  UNL d   1       1.040  -1.687   0.542  0.00  0.00    -0.005 A 
ATOM      4  C3  UNL d   1       0.754  -2.766  -0.293  0.00  0.00     0.006 A 
ATOM      5  C4  UNL d   1      -0.539  -3.289  -0.349  0.00  0.00    -0.005 A 
ATOM      6  C5  UNL d   1      -1.557  -2.735   0.433  0.00  0.00    -0.074 A 
ATOM      7  C6  UNL d   1      -2.950  -3.290   0.392  0.00  0.00     0.077 C 
ATOM      8  C7  UNL d   1      -1.261  -1.655   1.275  0.00  0.00    -0.001 A 
ENDROOT
TORSDOF 0
ENDMDL
