MODEL 1
REMARK minimizedAffinity 1.58096004
REMARK minimizedRMSD -1
REMARK  0 active torsions:
REMARK  status: ('A' for Active; 'I' for Inactive)
ROOT
ATOM      1  C   UNL d   1       0.172  -3.629  -0.677  0.00  0.00     0.077 C 
ATOM      2  C1  UNL d   1       0.542  -2.378   0.063  0.00  0.00    -0.074 A 
ATOM      3  C2  UNL d   1      -0.423  -1.416   0.377  0.00  0.00    -0.005 A 
ATOM      4  C3  UNL d   1      -0.065  -0.262   1.075  0.00  0.00     0.006 A 
ATOM      5  C4  UNL d   1       1.259  -0.059   1.464  0.00  0.00    -0.005 A 
ATOM      6  C5  UNL d   1       2.238  -1.011   1.160  0.00  0.00    -0.074 A 
ATOM      7  C6  UNL d   1       3.664  -0.812   1.580  0.00  0.00     0.077 C 
ATOM      8  C7  UNL d   1       1.869  -2.171   0.465  0.00  0.00    -0.001 A 
ENDROOT
TORSDOF 0
ENDMDL
