MODEL 1
REMARK minimizedAffinity 0.482313722
REMARK minimizedRMSD -1
REMARK  0 active torsions:
REMARK  status: ('A' for Active; 'I' for Inactive)
ROOT
ATOM      1  C   UNL d   1      -4.521   0.868  -0.138  0.00  0.00     0.077 C 
ATOM      2  C1  UNL d   1      -3.233   0.577   0.574  0.00  0.00    -0.074 A 
ATOM      3  C2  UNL d   1      -2.728   1.459   1.534  0.00  0.00    -0.005 A 
ATOM      4  C3  UNL d   1      -1.533   1.171   2.195  0.00  0.00     0.006 A 
ATOM      5  C4  UNL d   1      -0.834  -0.000   1.902  0.00  0.00    -0.005 A 
ATOM      6  C5  UNL d   1      -1.324  -0.894   0.945  0.00  0.00    -0.074 A 
ATOM      7  C6  UNL d   1      -0.590  -2.162   0.625  0.00  0.00     0.077 C 
ATOM      8  C7  UNL d   1      -2.528  -0.601   0.290  0.00  0.00    -0.001 A 
ENDROOT
TORSDOF 0
ENDMDL
