MODEL 1
REMARK minimizedAffinity -0.998708427
REMARK minimizedRMSD -1
REMARK  0 active torsions:
REMARK  status: ('A' for Active; 'I' for Inactive)
ROOT
ATOM      1  C   UNL d   1      -3.026   0.085   0.818  0.00  0.00     0.077 C 
ATOM      2  C1  UNL d   1      -1.564  -0.237   0.911  0.00  0.00    -0.074 A 
ATOM      3  C2  UNL d   1      -0.697   0.566   1.659  0.00  0.00    -0.005 A 
ATOM      4  C3  UNL d   1       0.658   0.249   1.744  0.00  0.00     0.006 A 
ATOM      5  C4  UNL d   1       1.160  -0.873   1.082  0.00  0.00    -0.005 A 
ATOM      6  C5  UNL d   1       0.309  -1.688   0.330  0.00  0.00    -0.074 A 
ATOM      7  C6  UNL d   1       0.830  -2.902  -0.380  0.00  0.00     0.077 C 
ATOM      8  C7  UNL d   1      -1.053  -1.366   0.255  0.00  0.00    -0.001 A 
ENDROOT
TORSDOF 0
ENDMDL
