MODEL 1
REMARK minimizedAffinity 3.15792298
REMARK minimizedRMSD -1
REMARK  0 active torsions:
REMARK  status: ('A' for Active; 'I' for Inactive)
ROOT
ATOM      1  C   UNL d   1       2.745   3.015  -4.446  0.00  0.00     0.077 C 
ATOM      2  C1  UNL d   1       1.679   4.062  -4.322  0.00  0.00    -0.074 A 
ATOM      3  C2  UNL d   1       1.366   4.901  -5.396  0.00  0.00    -0.005 A 
ATOM      4  C3  UNL d   1       0.365   5.864  -5.268  0.00  0.00     0.006 A 
ATOM      5  C4  UNL d   1      -0.331   5.999  -4.067  0.00  0.00    -0.005 A 
ATOM      6  C5  UNL d   1      -0.033   5.168  -2.982  0.00  0.00    -0.074 A 
ATOM      7  C6  UNL d   1      -0.778   5.293  -1.686  0.00  0.00     0.077 C 
ATOM      8  C7  UNL d   1       0.969   4.198  -3.120  0.00  0.00    -0.001 A 
ENDROOT
TORSDOF 0
ENDMDL
