MODEL 1
REMARK minimizedAffinity -0.858103454
REMARK minimizedRMSD -1
REMARK  0 active torsions:
REMARK  status: ('A' for Active; 'I' for Inactive)
ROOT
ATOM      1  C   UNL d   1      -1.854  -0.377   2.051  0.00  0.00     0.077 C 
ATOM      2  C1  UNL d   1      -0.485  -0.640   1.499  0.00  0.00    -0.074 A 
ATOM      3  C2  UNL d   1       0.594   0.187   1.828  0.00  0.00    -0.005 A 
ATOM      4  C3  UNL d   1       1.864  -0.076   1.315  0.00  0.00     0.006 A 
ATOM      5  C4  UNL d   1       2.068  -1.167   0.469  0.00  0.00    -0.005 A 
ATOM      6  C5  UNL d   1       1.002  -2.005   0.129  0.00  0.00    -0.074 A 
ATOM      7  C6  UNL d   1       1.205  -3.187  -0.771  0.00  0.00     0.077 C 
ATOM      8  C7  UNL d   1      -0.270  -1.738   0.654  0.00  0.00    -0.001 A 
ENDROOT
TORSDOF 0
ENDMDL
