MODEL 1
REMARK minimizedAffinity 0.183587492
REMARK minimizedRMSD -1
REMARK  0 active torsions:
REMARK  status: ('A' for Active; 'I' for Inactive)
ROOT
ATOM      1  C   UNL d   1       1.863   1.032   1.149  0.00  0.00     0.077 C 
ATOM      2  C1  UNL d   1       1.181  -0.246   0.760  0.00  0.00    -0.074 A 
ATOM      3  C2  UNL d   1      -0.214  -0.340   0.740  0.00  0.00    -0.005 A 
ATOM      4  C3  UNL d   1      -0.834  -1.532   0.367  0.00  0.00     0.006 A 
ATOM      5  C4  UNL d   1      -0.066  -2.642   0.011  0.00  0.00    -0.005 A 
ATOM      6  C5  UNL d   1       1.330  -2.567   0.024  0.00  0.00    -0.074 A 
ATOM      7  C6  UNL d   1       2.170  -3.747  -0.365  0.00  0.00     0.077 C 
ATOM      8  C7  UNL d   1       1.945  -1.363   0.394  0.00  0.00    -0.001 A 
ENDROOT
TORSDOF 0
ENDMDL
