MODEL 1
REMARK minimizedAffinity -1.19854271
REMARK minimizedRMSD -1
REMARK  0 active torsions:
REMARK  status: ('A' for Active; 'I' for Inactive)
ROOT
ATOM      1  C   UNL d   1      -3.610   0.955   0.487  0.00  0.00     0.077 C 
ATOM      2  C1  UNL d   1      -2.338   0.432   1.085  0.00  0.00    -0.074 A 
ATOM      3  C2  UNL d   1      -1.731   1.082   2.165  0.00  0.00    -0.005 A 
ATOM      4  C3  UNL d   1      -0.553   0.579   2.717  0.00  0.00     0.006 A 
ATOM      5  C4  UNL d   1       0.028  -0.578   2.196  0.00  0.00    -0.005 A 
ATOM      6  C5  UNL d   1      -0.565  -1.242   1.118  0.00  0.00    -0.074 A 
ATOM      7  C6  UNL d   1       0.042  -2.491   0.553  0.00  0.00     0.077 C 
ATOM      8  C7  UNL d   1      -1.752  -0.734   0.573  0.00  0.00    -0.001 A 
ENDROOT
TORSDOF 0
ENDMDL
