MODEL 1
REMARK minimizedAffinity 3.167799
REMARK minimizedRMSD -1
REMARK  0 active torsions:
REMARK  status: ('A' for Active; 'I' for Inactive)
ROOT
ATOM      1  C   UNL d   1       2.167   0.448   1.792  0.00  0.00     0.077 C 
ATOM      2  C1  UNL d   1       1.207  -0.532   1.186  0.00  0.00    -0.074 A 
ATOM      3  C2  UNL d   1      -0.173  -0.307   1.232  0.00  0.00    -0.005 A 
ATOM      4  C3  UNL d   1      -1.054  -1.223   0.656  0.00  0.00     0.006 A 
ATOM      5  C4  UNL d   1      -0.565  -2.370   0.030  0.00  0.00    -0.005 A 
ATOM      6  C5  UNL d   1       0.812  -2.611  -0.026  0.00  0.00    -0.074 A 
ATOM      7  C6  UNL d   1       1.355  -3.834  -0.703  0.00  0.00     0.077 C 
ATOM      8  C7  UNL d   1       1.691  -1.683   0.549  0.00  0.00    -0.001 A 
ENDROOT
TORSDOF 0
ENDMDL
