MODEL 1
REMARK minimizedAffinity 1.62506902
REMARK minimizedRMSD -1
REMARK  0 active torsions:
REMARK  status: ('A' for Active; 'I' for Inactive)
ROOT
ATOM      1  C   UNL d   1       3.745  -0.687   0.746  0.00  0.00     0.077 C 
ATOM      2  C1  UNL d   1       2.882  -1.870   0.423  0.00  0.00    -0.074 A 
ATOM      3  C2  UNL d   1       1.492  -1.804   0.556  0.00  0.00    -0.005 A 
ATOM      4  C3  UNL d   1       0.701  -2.909   0.243  0.00  0.00     0.006 A 
ATOM      5  C4  UNL d   1       1.292  -4.091  -0.207  0.00  0.00    -0.005 A 
ATOM      6  C5  UNL d   1       2.681  -4.176  -0.347  0.00  0.00    -0.074 A 
ATOM      7  C6  UNL d   1       3.332  -5.435  -0.839  0.00  0.00     0.077 C 
ATOM      8  C7  UNL d   1       3.468  -3.058  -0.037  0.00  0.00    -0.001 A 
ENDROOT
TORSDOF 0
ENDMDL
