MODEL 1
REMARK minimizedAffinity 1.15290272
REMARK minimizedRMSD -1
REMARK  1 active torsions:
REMARK  status: ('A' for Active; 'I' for Inactive)
REMARK    1  A    between atoms: C1_2  and  C2_3 
ROOT
ATOM      1  C2  UNL d   1       1.132   0.446   0.447  0.00  0.00    -0.076 A 
ATOM      2  C3  UNL d   1       1.909   1.589   0.189  0.00  0.00     0.004 A 
ATOM      3  C4  UNL d   1       2.003   2.117  -1.097  0.00  0.00    -0.003 A 
ATOM      4  C5  UNL d   1       1.321   1.511  -2.147  0.00  0.00     0.000 A 
ATOM      5  C6  UNL d   1       0.532   0.387  -1.906  0.00  0.00     0.000 A 
ATOM      6  C7  UNL d   1       0.414  -0.149  -0.612  0.00  0.00    -0.073 A 
ATOM      7  C8  UNL d   1      -0.446  -1.366  -0.411  0.00  0.00     0.078 C 
ENDROOT
BRANCH   1   8
ATOM      8  C1  UNL d   1       1.090  -0.098   1.857  0.00  0.00     0.053 C 
ATOM      9  C   UNL d   1       2.462  -0.515   2.363  0.00  0.00     0.018 C 
ENDBRANCH   1   8
TORSDOF 1
ENDMDL
