MODEL 1
REMARK minimizedAffinity 11.1967516
REMARK minimizedRMSD -1
REMARK  1 active torsions:
REMARK  status: ('A' for Active; 'I' for Inactive)
REMARK    1  A    between atoms: C1_2  and  C2_3 
ROOT
ATOM      1  C2  UNL d   1      -0.309   0.325   1.855  0.00  0.00    -0.076 A 
ATOM      2  C3  UNL d   1       0.262  -0.634   1.000  0.00  0.00     0.004 A 
ATOM      3  C4  UNL d   1       1.642  -0.823   0.953  0.00  0.00    -0.003 A 
ATOM      4  C5  UNL d   1       2.474  -0.057   1.762  0.00  0.00     0.000 A 
ATOM      5  C6  UNL d   1       1.924   0.886   2.630  0.00  0.00     0.000 A 
ATOM      6  C7  UNL d   1       0.534   1.078   2.701  0.00  0.00    -0.073 A 
ATOM      7  C8  UNL d   1      -0.005   2.113   3.650  0.00  0.00     0.078 C 
ENDROOT
BRANCH   1   8
ATOM      8  C1  UNL d   1      -1.810   0.504   1.843  0.00  0.00     0.053 C 
ATOM      9  C   UNL d   1      -2.500  -0.428   0.859  0.00  0.00     0.018 C 
ENDBRANCH   1   8
TORSDOF 1
ENDMDL
