MODEL 1
REMARK minimizedAffinity 12.966279
REMARK minimizedRMSD -1
REMARK  1 active torsions:
REMARK  status: ('A' for Active; 'I' for Inactive)
REMARK    1  A    between atoms: C1_2  and  C2_3 
ROOT
ATOM      1  C2  UNL d   1       0.578  -1.019   3.510  0.00  0.00    -0.076 A 
ATOM      2  C3  UNL d   1       0.185   0.051   4.333  0.00  0.00     0.004 A 
ATOM      3  C4  UNL d   1       0.029   1.336   3.815  0.00  0.00    -0.003 A 
ATOM      4  C5  UNL d   1       0.262   1.571   2.464  0.00  0.00     0.000 A 
ATOM      5  C6  UNL d   1       0.635   0.518   1.630  0.00  0.00     0.000 A 
ATOM      6  C7  UNL d   1       0.781  -0.786   2.133  0.00  0.00    -0.073 A 
ATOM      7  C8  UNL d   1       1.191  -1.883   1.189  0.00  0.00     0.078 C 
ENDROOT
BRANCH   1   8
ATOM      8  C1  UNL d   1       0.757  -2.384   4.134  0.00  0.00     0.053 C 
ATOM      9  C   UNL d   1       2.055  -2.500   4.918  0.00  0.00     0.018 C 
ENDBRANCH   1   8
TORSDOF 1
ENDMDL
