MODEL 1
REMARK minimizedAffinity 10.0648575
REMARK minimizedRMSD -1
REMARK  1 active torsions:
REMARK  status: ('A' for Active; 'I' for Inactive)
REMARK    1  A    between atoms: C1_2  and  C2_3 
ROOT
ATOM      1  C2  UNL d   1       0.809  -0.964   3.466  0.00  0.00    -0.076 A 
ATOM      2  C3  UNL d   1      -0.492  -1.305   3.056  0.00  0.00     0.004 A 
ATOM      3  C4  UNL d   1      -1.411  -0.321   2.695  0.00  0.00    -0.003 A 
ATOM      4  C5  UNL d   1      -1.043   1.020   2.738  0.00  0.00     0.000 A 
ATOM      5  C6  UNL d   1       0.248   1.374   3.125  0.00  0.00     0.000 A 
ATOM      6  C7  UNL d   1       1.192   0.394   3.477  0.00  0.00    -0.073 A 
ATOM      7  C8  UNL d   1       2.569   0.833   3.893  0.00  0.00     0.078 C 
ENDROOT
BRANCH   1   8
ATOM      8  C1  UNL d   1       1.753  -2.073   3.872  0.00  0.00     0.053 C 
ATOM      9  C   UNL d   1       1.478  -2.589   5.276  0.00  0.00     0.018 C 
ENDBRANCH   1   8
TORSDOF 1
ENDMDL
