MODEL 1
REMARK minimizedAffinity 7.08268976
REMARK minimizedRMSD -1
REMARK  1 active torsions:
REMARK  status: ('A' for Active; 'I' for Inactive)
REMARK    1  A    between atoms: C1_2  and  C2_3 
ROOT
ATOM      1  C2  UNL d   1      -0.328   0.514   2.429  0.00  0.00    -0.076 A 
ATOM      2  C3  UNL d   1       0.320  -0.358   1.537  0.00  0.00     0.004 A 
ATOM      3  C4  UNL d   1       1.689  -0.253   1.298  0.00  0.00    -0.003 A 
ATOM      4  C5  UNL d   1       2.433   0.726   1.948  0.00  0.00     0.000 A 
ATOM      5  C6  UNL d   1       1.810   1.588   2.850  0.00  0.00     0.000 A 
ATOM      6  C7  UNL d   1       0.433   1.485   3.114  0.00  0.00    -0.073 A 
ATOM      7  C8  UNL d   1      -0.188   2.445   4.091  0.00  0.00     0.078 C 
ENDROOT
BRANCH   1   8
ATOM      8  C1  UNL d   1      -1.820   0.369   2.628  0.00  0.00     0.053 C 
ATOM      9  C   UNL d   1      -2.185  -0.887   3.404  0.00  0.00     0.018 C 
ENDBRANCH   1   8
TORSDOF 1
ENDMDL
