MODEL 1
REMARK minimizedAffinity 6.48792696
REMARK minimizedRMSD -1
REMARK  1 active torsions:
REMARK  status: ('A' for Active; 'I' for Inactive)
REMARK    1  A    between atoms: C1_2  and  C2_3 
ROOT
ATOM      1  C2  UNL d   1      -1.115  -3.589  -2.480  0.00  0.00    -0.076 A 
ATOM      2  C3  UNL d   1      -0.766  -4.951  -2.500  0.00  0.00     0.004 A 
ATOM      3  C4  UNL d   1      -1.044  -5.747  -3.610  0.00  0.00    -0.003 A 
ATOM      4  C5  UNL d   1      -1.676  -5.193  -4.718  0.00  0.00     0.000 A 
ATOM      5  C6  UNL d   1      -2.013  -3.840  -4.723  0.00  0.00     0.000 A 
ATOM      6  C7  UNL d   1      -1.725  -3.020  -3.618  0.00  0.00    -0.073 A 
ATOM      7  C8  UNL d   1      -2.117  -1.569  -3.674  0.00  0.00     0.078 C 
ENDROOT
BRANCH   1   8
ATOM      8  C1  UNL d   1      -0.812  -2.783  -1.237  0.00  0.00     0.053 C 
ATOM      9  C   UNL d   1      -1.994  -2.719  -0.282  0.00  0.00     0.018 C 
ENDBRANCH   1   8
TORSDOF 1
ENDMDL
