MODEL 1
REMARK minimizedAffinity -4.27946901
REMARK minimizedRMSD -1
REMARK  0 active torsions:
REMARK  status: ('A' for Active; 'I' for Inactive)
ROOT
ATOM      1  C4' PXY d   1       3.415  -1.431   0.921  0.00  0.00     0.077 C 
ATOM      2  C1' PXY d   1      -1.783   0.636  -0.537  0.00  0.00     0.077 C 
ATOM      3  C1  PXY d   1      -0.425   0.082  -0.154  0.00  0.00    -0.082 A 
ATOM      4  C2  PXY d   1       0.453   0.863   0.454  0.00  0.00     0.003 A 
ATOM      5  C3  PXY d   1       1.697   0.387   0.778  0.00  0.00     0.003 A 
ATOM      6  C4  PXY d   1       2.028  -0.917   0.525  0.00  0.00    -0.082 A 
ATOM      7  C5  PXY d   1       1.134  -1.723  -0.086  0.00  0.00     0.003 A 
ATOM      8  C6  PXY d   1      -0.109  -1.210  -0.444  0.00  0.00     0.003 A 
ENDROOT
TORSDOF 0
ENDMDL
