MODEL 1
REMARK minimizedAffinity -4.78894949
REMARK minimizedRMSD -1
REMARK  0 active torsions:
REMARK  status: ('A' for Active; 'I' for Inactive)
ROOT
ATOM      1  C4' PXY d   1      -1.704   0.641  -0.364  0.00  0.00     0.077 C 
ATOM      2  C1' PXY d   1       3.631  -1.269   0.780  0.00  0.00     0.077 C 
ATOM      3  C1  PXY d   1       2.230  -0.778   0.473  0.00  0.00    -0.082 A 
ATOM      4  C2  PXY d   1       1.959   0.515   0.543  0.00  0.00     0.003 A 
ATOM      5  C3  PXY d   1       0.689   0.972   0.300  0.00  0.00     0.003 A 
ATOM      6  C4  PXY d   1      -0.301   0.102  -0.072  0.00  0.00    -0.082 A 
ATOM      7  C5  PXY d   1      -0.030  -1.218  -0.156  0.00  0.00     0.003 A 
ATOM      8  C6  PXY d   1       1.255  -1.666   0.135  0.00  0.00     0.003 A 
ENDROOT
TORSDOF 0
ENDMDL
