MODEL 1
REMARK minimizedAffinity -2.87393379
REMARK minimizedRMSD -1
REMARK  0 active torsions:
REMARK  status: ('A' for Active; 'I' for Inactive)
ROOT
ATOM      1  C4' PXY d   1       1.403  -1.507  -0.539  0.00  0.00     0.077 C 
ATOM      2  C1' PXY d   1      -3.225   1.533   1.120  0.00  0.00     0.077 C 
ATOM      3  C1  PXY d   1      -2.013   0.741   0.673  0.00  0.00    -0.082 A 
ATOM      4  C2  PXY d   1      -1.692  -0.376   1.305  0.00  0.00     0.003 A 
ATOM      5  C3  PXY d   1      -0.580  -1.088   0.935  0.00  0.00     0.003 A 
ATOM      6  C4  PXY d   1       0.181  -0.680  -0.128  0.00  0.00    -0.082 A 
ATOM      7  C5  PXY d   1      -0.146   0.453  -0.785  0.00  0.00     0.003 A 
ATOM      8  C6  PXY d   1      -1.255   1.183  -0.367  0.00  0.00     0.003 A 
ENDROOT
TORSDOF 0
ENDMDL
