MODEL 1
REMARK minimizedAffinity -3.42784882
REMARK minimizedRMSD -1
REMARK  0 active torsions:
REMARK  status: ('A' for Active; 'I' for Inactive)
ROOT
ATOM      1  C4' PXY d   1       3.313  -1.781  -0.234  0.00  0.00     0.077 C 
ATOM      2  C1' PXY d   1      -1.787   0.893   0.262  0.00  0.00     0.077 C 
ATOM      3  C1  PXY d   1      -0.443   0.202   0.137  0.00  0.00    -0.082 A 
ATOM      4  C2  PXY d   1      -0.288  -0.770  -0.746  0.00  0.00     0.003 A 
ATOM      5  C3  PXY d   1       0.911  -1.427  -0.850  0.00  0.00     0.003 A 
ATOM      6  C4  PXY d   1       1.977  -1.049  -0.079  0.00  0.00    -0.082 A 
ATOM      7  C5  PXY d   1       1.830  -0.051   0.817  0.00  0.00     0.003 A 
ATOM      8  C6  PXY d   1       0.593   0.576   0.936  0.00  0.00     0.003 A 
ENDROOT
TORSDOF 0
ENDMDL
