MODEL 1
REMARK minimizedAffinity -3.72117877
REMARK minimizedRMSD -1
REMARK  0 active torsions:
REMARK  status: ('A' for Active; 'I' for Inactive)
ROOT
ATOM      1  C4' PXY d   1       2.873  -1.753   0.859  0.00  0.00     0.077 C 
ATOM      2  C1' PXY d   1      -1.646   1.418  -0.858  0.00  0.00     0.077 C 
ATOM      3  C1  PXY d   1      -0.468   0.575  -0.408  0.00  0.00    -0.082 A 
ATOM      4  C2  PXY d   1       0.501   1.131   0.300  0.00  0.00     0.003 A 
ATOM      5  C3  PXY d   1       1.589   0.392   0.687  0.00  0.00     0.003 A 
ATOM      6  C4  PXY d   1       1.660  -0.943   0.392  0.00  0.00    -0.082 A 
ATOM      7  C5  PXY d   1       0.670  -1.520  -0.321  0.00  0.00     0.003 A 
ATOM      8  C6  PXY d   1      -0.406  -0.743  -0.740  0.00  0.00     0.003 A 
ENDROOT
TORSDOF 0
ENDMDL
