MODEL 1
REMARK minimizedAffinity -4.48631144
REMARK minimizedRMSD -1
REMARK  0 active torsions:
REMARK  status: ('A' for Active; 'I' for Inactive)
ROOT
ATOM      1  C4' PXY d   1      -2.117   1.689   1.250  0.00  0.00     0.077 C 
ATOM      2  C1' PXY d   1       2.232  -1.724  -0.438  0.00  0.00     0.077 C 
ATOM      3  C1  PXY d   1       1.088  -0.828  -0.007  0.00  0.00    -0.082 A 
ATOM      4  C2  PXY d   1       1.179  -0.148   1.124  0.00  0.00     0.003 A 
ATOM      5  C3  PXY d   1       0.140   0.642   1.544  0.00  0.00     0.003 A 
ATOM      6  C4  PXY d   1      -0.982   0.779   0.771  0.00  0.00    -0.082 A 
ATOM      7  C5  PXY d   1      -1.078   0.097  -0.390  0.00  0.00     0.003 A 
ATOM      8  C6  PXY d   1      -0.030  -0.732  -0.778  0.00  0.00     0.003 A 
ENDROOT
TORSDOF 0
ENDMDL
