MODEL 1
REMARK minimizedAffinity -3.37844014
REMARK minimizedRMSD -1
REMARK  0 active torsions:
REMARK  status: ('A' for Active; 'I' for Inactive)
ROOT
ATOM      1  C4' PXY d   1      -0.056  -2.722  -0.480  0.00  0.00     0.077 C 
ATOM      2  C1' PXY d   1       1.877   2.561   0.853  0.00  0.00     0.077 C 
ATOM      3  C1  PXY d   1       1.382   1.171   0.502  0.00  0.00    -0.082 A 
ATOM      4  C2  PXY d   1       0.178   1.019  -0.024  0.00  0.00     0.003 A 
ATOM      5  C3  PXY d   1      -0.298  -0.233  -0.317  0.00  0.00     0.003 A 
ATOM      6  C4  PXY d   1       0.488  -1.337  -0.119  0.00  0.00    -0.082 A 
ATOM      7  C5  PXY d   1       1.722  -1.189   0.407  0.00  0.00     0.003 A 
ATOM      8  C6  PXY d   1       2.171   0.087   0.737  0.00  0.00     0.003 A 
ENDROOT
TORSDOF 0
ENDMDL
