MODEL 1
REMARK minimizedAffinity -4.57296276
REMARK minimizedRMSD -1
REMARK  0 active torsions:
REMARK  status: ('A' for Active; 'I' for Inactive)
ROOT
ATOM      1  C4' PXY d   1       1.584  -1.773  -0.370  0.00  0.00     0.077 C 
ATOM      2  C1' PXY d   1      -2.980   1.362   1.290  0.00  0.00     0.077 C 
ATOM      3  C1  PXY d   1      -1.784   0.545   0.843  0.00  0.00    -0.082 A 
ATOM      4  C2  PXY d   1      -1.503  -0.593   1.456  0.00  0.00     0.003 A 
ATOM      5  C3  PXY d   1      -0.407  -1.328   1.085  0.00  0.00     0.003 A 
ATOM      6  C4  PXY d   1       0.380  -0.921   0.042  0.00  0.00    -0.082 A 
ATOM      7  C5  PXY d   1       0.095   0.234  -0.596  0.00  0.00     0.003 A 
ATOM      8  C6  PXY d   1      -0.999   0.987  -0.177  0.00  0.00     0.003 A 
ENDROOT
TORSDOF 0
ENDMDL
