MODEL 1
REMARK minimizedAffinity 4.67794704
REMARK minimizedRMSD -1
REMARK  0 active torsions:
REMARK  status: ('A' for Active; 'I' for Inactive)
ROOT
ATOM      1  C4' PXY d   1      -3.497  -0.344   0.620  0.00  0.00     0.077 C 
ATOM      2  C1' PXY d   1       1.830  -2.315  -0.456  0.00  0.00     0.077 C 
ATOM      3  C1  PXY d   1       0.431  -1.808  -0.167  0.00  0.00    -0.082 A 
ATOM      4  C2  PXY d   1      -0.146  -0.964  -1.007  0.00  0.00     0.003 A 
ATOM      5  C3  PXY d   1      -1.399  -0.472  -0.744  0.00  0.00     0.003 A 
ATOM      6  C4  PXY d   1      -2.089  -0.888   0.363  0.00  0.00    -0.082 A 
ATOM      7  C5  PXY d   1      -1.511  -1.757   1.219  0.00  0.00     0.003 A 
ATOM      8  C6  PXY d   1      -0.223  -2.214   0.956  0.00  0.00     0.003 A 
ENDROOT
TORSDOF 0
ENDMDL
