MODEL 1
REMARK minimizedAffinity 2.80871463
REMARK minimizedRMSD -1
REMARK  0 active torsions:
REMARK  status: ('A' for Active; 'I' for Inactive)
ROOT
ATOM      1  C4' PXY d   1       3.341  -2.904  -2.693  0.00  0.00     0.077 C 
ATOM      2  C1' PXY d   1      -1.257  -0.551  -0.099  0.00  0.00     0.077 C 
ATOM      3  C1  PXY d   1      -0.044  -1.167  -0.768  0.00  0.00    -0.082 A 
ATOM      4  C2  PXY d   1       0.085  -1.093  -2.082  0.00  0.00     0.003 A 
ATOM      5  C3  PXY d   1       1.160  -1.673  -2.707  0.00  0.00     0.003 A 
ATOM      6  C4  PXY d   1       2.138  -2.288  -1.973  0.00  0.00    -0.082 A 
ATOM      7  C5  PXY d   1       2.019  -2.358  -0.631  0.00  0.00     0.003 A 
ATOM      8  C6  PXY d   1       0.900  -1.799  -0.020  0.00  0.00     0.003 A 
ENDROOT
TORSDOF 0
ENDMDL
