MODEL 1
REMARK minimizedAffinity 1.62723112
REMARK minimizedRMSD -1
REMARK  0 active torsions:
REMARK  status: ('A' for Active; 'I' for Inactive)
ROOT
ATOM      1  C4' PXY d   1      -1.791  -4.400  -1.953  0.00  0.00     0.077 C 
ATOM      2  C1' PXY d   1       2.868  -1.608   0.025  0.00  0.00     0.077 C 
ATOM      3  C1  PXY d   1       1.641  -2.329  -0.498  0.00  0.00    -0.082 A 
ATOM      4  C2  PXY d   1       1.320  -3.515  -0.007  0.00  0.00     0.003 A 
ATOM      5  C3  PXY d   1       0.232  -4.195  -0.490  0.00  0.00     0.003 A 
ATOM      6  C4  PXY d   1      -0.567  -3.632  -1.449  0.00  0.00    -0.082 A 
ATOM      7  C5  PXY d   1      -0.252  -2.417  -1.948  0.00  0.00     0.003 A 
ATOM      8  C6  PXY d   1       0.880  -1.762  -1.473  0.00  0.00     0.003 A 
ENDROOT
TORSDOF 0
ENDMDL
