MODEL 1
REMARK minimizedAffinity 2.02611589
REMARK minimizedRMSD -1
REMARK  1 active torsions:
REMARK  status: ('A' for Active; 'I' for Inactive)
REMARK    1  A    between atoms: C3_4  and  O_7 
ROOT
ATOM      1  C   UNL d   1      -4.365  -1.632  -3.919  0.00  0.00    -0.033 A 
ATOM      2  C1  UNL d   1      -3.645  -1.978  -2.775  0.00  0.00     0.039 A 
ATOM      3  C2  UNL d   1      -3.639  -1.128  -1.667  0.00  0.00    -0.080 A 
ATOM      4  C3  UNL d   1      -4.358   0.063  -1.716  0.00  0.00     0.150 A 
ATOM      5  C4  UNL d   1      -5.081   0.413  -2.852  0.00  0.00    -0.007 A 
ATOM      6  C5  UNL d   1      -5.084  -0.437  -3.957  0.00  0.00     0.039 A 
ENDROOT
BRANCH   4   7
ATOM      7  O   UNL d   1      -4.378   0.927  -0.662  0.00  0.00    -0.526 OA
ATOM      8  H5  UNL d   1      -3.812   0.568   0.041  0.00  0.00     0.418 HD
ENDBRANCH   4   7
TORSDOF 1
ENDMDL
