MODEL 1
REMARK minimizedAffinity 7.07766438
REMARK minimizedRMSD -1
REMARK  1 active torsions:
REMARK  status: ('A' for Active; 'I' for Inactive)
REMARK    1  A    between atoms: C3_4  and  O_7 
ROOT
ATOM      1  C   UNL d   1      -4.954   0.032  -1.978  0.00  0.00    -0.033 A 
ATOM      2  C1  UNL d   1      -3.935  -0.859  -1.634  0.00  0.00     0.039 A 
ATOM      3  C2  UNL d   1      -3.643  -1.943  -2.464  0.00  0.00    -0.080 A 
ATOM      4  C3  UNL d   1      -4.375  -2.124  -3.634  0.00  0.00     0.150 A 
ATOM      5  C4  UNL d   1      -5.389  -1.239  -3.985  0.00  0.00    -0.007 A 
ATOM      6  C5  UNL d   1      -5.680  -0.158  -3.154  0.00  0.00     0.039 A 
ENDROOT
BRANCH   4   7
ATOM      7  O   UNL d   1      -4.130  -3.170  -4.473  0.00  0.00    -0.526 OA
ATOM      8  H5  UNL d   1      -3.422  -3.714  -4.088  0.00  0.00     0.418 HD
ENDBRANCH   4   7
TORSDOF 1
ENDMDL
