MODEL 1
REMARK minimizedAffinity 9.44701767
REMARK minimizedRMSD -1
REMARK  1 active torsions:
REMARK  status: ('A' for Active; 'I' for Inactive)
REMARK    1  A    between atoms: C3_4  and  O_7 
ROOT
ATOM      1  C   UNL d   1      -4.720  -1.976  -3.963  0.00  0.00    -0.033 A 
ATOM      2  C1  UNL d   1      -5.481  -0.805  -3.978  0.00  0.00     0.039 A 
ATOM      3  C2  UNL d   1      -5.238   0.199  -3.039  0.00  0.00    -0.080 A 
ATOM      4  C3  UNL d   1      -4.232   0.021  -2.092  0.00  0.00     0.150 A 
ATOM      5  C4  UNL d   1      -3.469  -1.142  -2.074  0.00  0.00    -0.007 A 
ATOM      6  C5  UNL d   1      -3.713  -2.144  -3.012  0.00  0.00     0.039 A 
ENDROOT
BRANCH   4   7
ATOM      7  O   UNL d   1      -3.962   0.971  -1.153  0.00  0.00    -0.526 OA
ATOM      8  H5  UNL d   1      -4.587   1.705  -1.269  0.00  0.00     0.418 HD
ENDBRANCH   4   7
TORSDOF 1
ENDMDL
