MODEL 1
REMARK minimizedAffinity 8.40688229
REMARK minimizedRMSD -1
REMARK  1 active torsions:
REMARK  status: ('A' for Active; 'I' for Inactive)
REMARK    1  A    between atoms: C3_4  and  O_7 
ROOT
ATOM      1  C   UNL d   1      -4.455  -0.228  -1.798  0.00  0.00    -0.033 A 
ATOM      2  C1  UNL d   1      -5.221  -0.170  -2.964  0.00  0.00     0.039 A 
ATOM      3  C2  UNL d   1      -5.358  -1.303  -3.769  0.00  0.00    -0.080 A 
ATOM      4  C3  UNL d   1      -4.726  -2.486  -3.397  0.00  0.00     0.150 A 
ATOM      5  C4  UNL d   1      -3.964  -2.552  -2.234  0.00  0.00    -0.007 A 
ATOM      6  C5  UNL d   1      -3.828  -1.420  -1.433  0.00  0.00     0.039 A 
ENDROOT
BRANCH   4   7
ATOM      7  O   UNL d   1      -4.826  -3.616  -4.153  0.00  0.00    -0.526 OA
ATOM      8  H5  UNL d   1      -5.359  -3.414  -4.940  0.00  0.00     0.418 HD
ENDBRANCH   4   7
TORSDOF 1
ENDMDL
