MODEL 1
REMARK minimizedAffinity -4.1550808
REMARK minimizedRMSD -1
REMARK  1 active torsions:
REMARK  status: ('A' for Active; 'I' for Inactive)
REMARK    1  A    between atoms: C3_4  and  O_7 
ROOT
ATOM      1  C   UNL d   1       3.727  -3.255   1.867  0.00  0.00    -0.033 A 
ATOM      2  C1  UNL d   1       4.916  -2.617   2.226  0.00  0.00     0.039 A 
ATOM      3  C2  UNL d   1       5.162  -2.296   3.562  0.00  0.00    -0.080 A 
ATOM      4  C3  UNL d   1       4.213  -2.618   4.528  0.00  0.00     0.150 A 
ATOM      5  C4  UNL d   1       3.028  -3.257   4.178  0.00  0.00    -0.007 A 
ATOM      6  C5  UNL d   1       2.783  -3.576   2.843  0.00  0.00     0.039 A 
ENDROOT
BRANCH   4   7
ATOM      7  O   UNL d   1       4.407  -2.320   5.844  0.00  0.00    -0.526 OA
ATOM      8  H5  UNL d   1       5.255  -1.855   5.933  0.00  0.00     0.418 HD
ENDBRANCH   4   7
TORSDOF 1
ENDMDL
