MODEL 1
REMARK minimizedAffinity -0.565762281
REMARK minimizedRMSD -1
REMARK  1 active torsions:
REMARK  status: ('A' for Active; 'I' for Inactive)
REMARK    1  A    between atoms: C3_4  and  O_7 
ROOT
ATOM      1  C   UNL d   1       2.639  -4.874   1.869  0.00  0.00    -0.033 A 
ATOM      2  C1  UNL d   1       3.308  -6.000   2.354  0.00  0.00     0.039 A 
ATOM      3  C2  UNL d   1       3.832  -5.999   3.649  0.00  0.00    -0.080 A 
ATOM      4  C3  UNL d   1       3.679  -4.868   4.446  0.00  0.00     0.150 A 
ATOM      5  C4  UNL d   1       3.010  -3.745   3.970  0.00  0.00    -0.007 A 
ATOM      6  C5  UNL d   1       2.489  -3.747   2.677  0.00  0.00     0.039 A 
ENDROOT
BRANCH   4   7
ATOM      7  O   UNL d   1       4.177  -4.818   5.714  0.00  0.00    -0.526 OA
ATOM      8  H5  UNL d   1       4.638  -5.654   5.897  0.00  0.00     0.418 HD
ENDBRANCH   4   7
TORSDOF 1
ENDMDL
