MODEL 1
REMARK minimizedAffinity 4.64693689
REMARK minimizedRMSD -1
REMARK  1 active torsions:
REMARK  status: ('A' for Active; 'I' for Inactive)
REMARK    1  A    between atoms: C3_4  and  O_7 
ROOT
ATOM      1  C   UNL d   1      -4.321  -0.082  -2.175  0.00  0.00    -0.033 A 
ATOM      2  C1  UNL d   1      -3.626  -1.268  -1.929  0.00  0.00     0.039 A 
ATOM      3  C2  UNL d   1      -3.844  -2.387  -2.734  0.00  0.00    -0.080 A 
ATOM      4  C3  UNL d   1      -4.759  -2.308  -3.781  0.00  0.00     0.150 A 
ATOM      5  C4  UNL d   1      -5.452  -1.129  -4.034  0.00  0.00    -0.007 A 
ATOM      6  C5  UNL d   1      -5.233  -0.012  -3.229  0.00  0.00     0.039 A 
ENDROOT
BRANCH   4   7
ATOM      7  O   UNL d   1      -5.009  -3.376  -4.591  0.00  0.00    -0.526 OA
ATOM      8  H5  UNL d   1      -4.480  -4.129  -4.279  0.00  0.00     0.418 HD
ENDBRANCH   4   7
TORSDOF 1
ENDMDL
