MODEL 1
REMARK minimizedAffinity 8.06648445
REMARK minimizedRMSD -1
REMARK  1 active torsions:
REMARK  status: ('A' for Active; 'I' for Inactive)
REMARK    1  A    between atoms: C3_4  and  O_7 
ROOT
ATOM      1  C   UNL d   1      -5.732  -0.773  -4.053  0.00  0.00    -0.033 A 
ATOM      2  C1  UNL d   1      -5.478   0.150  -3.036  0.00  0.00     0.039 A 
ATOM      3  C2  UNL d   1      -4.461  -0.092  -2.110  0.00  0.00    -0.080 A 
ATOM      4  C3  UNL d   1      -3.706  -1.257  -2.213  0.00  0.00     0.150 A 
ATOM      5  C4  UNL d   1      -3.952  -2.179  -3.226  0.00  0.00    -0.007 A 
ATOM      6  C5  UNL d   1      -4.968  -1.936  -4.149  0.00  0.00     0.039 A 
ENDROOT
BRANCH   4   7
ATOM      7  O   UNL d   1      -2.706  -1.539  -1.330  0.00  0.00    -0.526 OA
ATOM      8  H5  UNL d   1      -2.670  -0.828  -0.669  0.00  0.00     0.418 HD
ENDBRANCH   4   7
TORSDOF 1
ENDMDL
