MODEL 1
REMARK minimizedAffinity 6.81669807
REMARK minimizedRMSD -1
REMARK  0 active torsions:
REMARK  status: ('A' for Active; 'I' for Inactive)
ROOT
ATOM      1  C   UNL d   1      -2.627   2.389  -0.146  0.00  0.00     0.124 A 
ATOM      2  C1  UNL d   1      -2.665   3.699  -0.604  0.00  0.00     0.062 A 
ATOM      3  C2  UNL d   1      -3.027   4.731   0.256  0.00  0.00     0.162 A 
ATOM      4  C3  UNL d   1      -3.353   4.459   1.584  0.00  0.00    -0.034 A 
ATOM      5  C4  UNL d   1      -3.314   3.139   2.038  0.00  0.00     0.162 A 
ATOM      6  C5  UNL d   1      -2.952   2.110   1.174  0.00  0.00     0.062 A 
ATOM      7  F   UNL d   1      -2.916   0.846   1.619  0.00  0.00    -0.097 F 
ATOM      8  F1  UNL d   1      -3.622   2.842   3.309  0.00  0.00    -0.096 F 
ATOM      9  I   UNL d   1      -3.895   6.000   2.874  0.00  0.00    -0.060 I 
ATOM     10  F2  UNL d   1      -3.055   5.987  -0.214  0.00  0.00    -0.096 F 
ATOM     11  F3  UNL d   1      -2.353   3.970  -1.880  0.00  0.00    -0.097 F 
ATOM     12  F4  UNL d   1      -2.280   1.397  -0.976  0.00  0.00    -0.092 F 
ENDROOT
TORSDOF 0
ENDMDL
