MODEL 1
REMARK minimizedAffinity 4.25060797
REMARK minimizedRMSD -1
REMARK  0 active torsions:
REMARK  status: ('A' for Active; 'I' for Inactive)
ROOT
ATOM      1  C   UNL d   1      -2.739   0.827   1.901  0.00  0.00     0.124 A 
ATOM      2  C1  UNL d   1      -2.511   0.088   3.053  0.00  0.00     0.062 A 
ATOM      3  C2  UNL d   1      -3.439  -0.861   3.472  0.00  0.00     0.162 A 
ATOM      4  C3  UNL d   1      -4.604  -1.078   2.736  0.00  0.00    -0.034 A 
ATOM      5  C4  UNL d   1      -4.827  -0.330   1.579  0.00  0.00     0.162 A 
ATOM      6  C5  UNL d   1      -3.897   0.617   1.165  0.00  0.00     0.062 A 
ATOM      7  F   UNL d   1      -4.119   1.330   0.051  0.00  0.00    -0.097 F 
ATOM      8  F1  UNL d   1      -5.937  -0.513   0.848  0.00  0.00    -0.096 F 
ATOM      9  I   UNL d   1      -5.994  -2.496   3.359  0.00  0.00    -0.060 I 
ATOM     10  F2  UNL d   1      -3.192  -1.561   4.589  0.00  0.00    -0.096 F 
ATOM     11  F3  UNL d   1      -1.393   0.289   3.766  0.00  0.00    -0.097 F 
ATOM     12  F4  UNL d   1      -1.845   1.740   1.501  0.00  0.00    -0.092 F 
ENDROOT
TORSDOF 0
ENDMDL
