MODEL 1
REMARK minimizedAffinity 10.795475
REMARK minimizedRMSD -1
REMARK  0 active torsions:
REMARK  status: ('A' for Active; 'I' for Inactive)
ROOT
ATOM      1  C   UNL d   1      -2.682  -0.442   1.428  0.00  0.00     0.124 A 
ATOM      2  C1  UNL d   1      -2.453   0.579   2.339  0.00  0.00     0.062 A 
ATOM      3  C2  UNL d   1      -2.656   1.906   1.969  0.00  0.00     0.162 A 
ATOM      4  C3  UNL d   1      -3.091   2.218   0.681  0.00  0.00    -0.034 A 
ATOM      5  C4  UNL d   1      -3.318   1.185  -0.230  0.00  0.00     0.162 A 
ATOM      6  C5  UNL d   1      -3.114  -0.139   0.145  0.00  0.00     0.062 A 
ATOM      7  F   UNL d   1      -3.335  -1.124  -0.737  0.00  0.00    -0.097 F 
ATOM      8  F1  UNL d   1      -3.737   1.450  -1.476  0.00  0.00    -0.096 F 
ATOM      9  I   UNL d   1      -3.396   4.200   0.124  0.00  0.00    -0.060 I 
ATOM     10  F2  UNL d   1      -2.428   2.873   2.870  0.00  0.00    -0.096 F 
ATOM     11  F3  UNL d   1      -2.035   0.289   3.579  0.00  0.00    -0.097 F 
ATOM     12  F4  UNL d   1      -2.485  -1.718   1.786  0.00  0.00    -0.092 F 
ENDROOT
TORSDOF 0
ENDMDL
