MODEL 1
REMARK minimizedAffinity 11.3114252
REMARK minimizedRMSD -1
REMARK  0 active torsions:
REMARK  status: ('A' for Active; 'I' for Inactive)
ROOT
ATOM      1  C   UNL d   1      -4.371   2.721   0.590  0.00  0.00     0.124 A 
ATOM      2  C1  UNL d   1      -3.425   3.700   0.321  0.00  0.00     0.062 A 
ATOM      3  C2  UNL d   1      -2.187   3.351  -0.212  0.00  0.00     0.162 A 
ATOM      4  C3  UNL d   1      -1.889   2.016  -0.482  0.00  0.00    -0.034 A 
ATOM      5  C4  UNL d   1      -2.845   1.036  -0.209  0.00  0.00     0.162 A 
ATOM      6  C5  UNL d   1      -4.080   1.390   0.324  0.00  0.00     0.062 A 
ATOM      7  F   UNL d   1      -4.993   0.442   0.583  0.00  0.00    -0.097 F 
ATOM      8  F1  UNL d   1      -2.591  -0.257  -0.456  0.00  0.00    -0.096 F 
ATOM      9  I   UNL d   1      -0.040   1.490  -1.280  0.00  0.00    -0.060 I 
ATOM     10  F2  UNL d   1      -1.292   4.319  -0.461  0.00  0.00    -0.096 F 
ATOM     11  F3  UNL d   1      -3.703   4.987   0.578  0.00  0.00    -0.097 F 
ATOM     12  F4  UNL d   1      -5.560   3.059   1.104  0.00  0.00    -0.092 F 
ENDROOT
TORSDOF 0
ENDMDL
