MODEL 1
REMARK minimizedAffinity 17.3590202
REMARK minimizedRMSD -1
REMARK  0 active torsions:
REMARK  status: ('A' for Active; 'I' for Inactive)
ROOT
ATOM      1  C   UNL d   1      -2.491  -0.555   3.652  0.00  0.00     0.124 A 
ATOM      2  C1  UNL d   1      -1.935  -1.778   3.999  0.00  0.00     0.062 A 
ATOM      3  C2  UNL d   1      -2.748  -2.813   4.453  0.00  0.00     0.162 A 
ATOM      4  C3  UNL d   1      -4.126  -2.629   4.561  0.00  0.00    -0.034 A 
ATOM      5  C4  UNL d   1      -4.678  -1.396   4.212  0.00  0.00     0.162 A 
ATOM      6  C5  UNL d   1      -3.861  -0.365   3.759  0.00  0.00     0.062 A 
ATOM      7  F   UNL d   1      -4.400   0.817   3.425  0.00  0.00    -0.097 F 
ATOM      8  F1  UNL d   1      -5.999  -1.185   4.305  0.00  0.00    -0.096 F 
ATOM      9  I   UNL d   1      -5.345  -4.174   5.239  0.00  0.00    -0.060 I 
ATOM     10  F2  UNL d   1      -2.183  -3.985   4.780  0.00  0.00    -0.096 F 
ATOM     11  F3  UNL d   1      -0.611  -1.964   3.898  0.00  0.00    -0.097 F 
ATOM     12  F4  UNL d   1      -1.706   0.440   3.217  0.00  0.00    -0.092 F 
ENDROOT
TORSDOF 0
ENDMDL
