MODEL 1
REMARK minimizedAffinity 3.36331606
REMARK minimizedRMSD -1
REMARK  0 active torsions:
REMARK  status: ('A' for Active; 'I' for Inactive)
ROOT
ATOM      1  C   UNL d   1      -3.130   3.201   0.340  0.00  0.00     0.124 A 
ATOM      2  C1  UNL d   1      -2.807   3.207   1.690  0.00  0.00     0.062 A 
ATOM      3  C2  UNL d   1      -2.739   2.011   2.399  0.00  0.00     0.162 A 
ATOM      4  C3  UNL d   1      -2.994   0.798   1.758  0.00  0.00    -0.034 A 
ATOM      5  C4  UNL d   1      -3.319   0.801   0.401  0.00  0.00     0.162 A 
ATOM      6  C5  UNL d   1      -3.385   1.999  -0.303  0.00  0.00     0.062 A 
ATOM      7  F   UNL d   1      -3.697   1.991  -1.608  0.00  0.00    -0.097 F 
ATOM      8  F1  UNL d   1      -3.569  -0.348  -0.246  0.00  0.00    -0.096 F 
ATOM      9  I   UNL d   1      -2.893  -0.992   2.815  0.00  0.00    -0.060 I 
ATOM     10  F2  UNL d   1      -2.425   2.047   3.702  0.00  0.00    -0.096 F 
ATOM     11  F3  UNL d   1      -2.561   4.368   2.314  0.00  0.00    -0.097 F 
ATOM     12  F4  UNL d   1      -3.195   4.354  -0.340  0.00  0.00    -0.092 F 
ENDROOT
TORSDOF 0
ENDMDL
