MODEL 1
REMARK minimizedAffinity 1.37456048
REMARK minimizedRMSD -1
REMARK  0 active torsions:
REMARK  status: ('A' for Active; 'I' for Inactive)
ROOT
ATOM      1  C   UNL d   1      -2.512  -0.662   2.623  0.00  0.00     0.124 A 
ATOM      2  C1  UNL d   1      -2.724   0.675   2.929  0.00  0.00     0.062 A 
ATOM      3  C2  UNL d   1      -2.589   1.649   1.944  0.00  0.00     0.162 A 
ATOM      4  C3  UNL d   1      -2.241   1.289   0.642  0.00  0.00    -0.034 A 
ATOM      5  C4  UNL d   1      -2.029  -0.057   0.341  0.00  0.00     0.162 A 
ATOM      6  C5  UNL d   1      -2.165  -1.027   1.330  0.00  0.00     0.062 A 
ATOM      7  F   UNL d   1      -1.960  -2.318   1.032  0.00  0.00    -0.097 F 
ATOM      8  F1  UNL d   1      -1.694  -0.438  -0.900  0.00  0.00    -0.096 F 
ATOM      9  I   UNL d   1      -2.038   2.743  -0.834  0.00  0.00    -0.060 I 
ATOM     10  F2  UNL d   1      -2.799   2.933   2.269  0.00  0.00    -0.096 F 
ATOM     11  F3  UNL d   1      -3.058   1.030   4.178  0.00  0.00    -0.097 F 
ATOM     12  F4  UNL d   1      -2.642  -1.597   3.573  0.00  0.00    -0.092 F 
ENDROOT
TORSDOF 0
ENDMDL
