MODEL 1
REMARK minimizedAffinity 24.7947884
REMARK minimizedRMSD -1
REMARK  0 active torsions:
REMARK  status: ('A' for Active; 'I' for Inactive)
ROOT
ATOM      1  C   UNL d   1      -3.587  -0.850   4.286  0.00  0.00     0.124 A 
ATOM      2  C1  UNL d   1      -4.533  -0.686   3.283  0.00  0.00     0.062 A 
ATOM      3  C2  UNL d   1      -4.182  -0.074   2.084  0.00  0.00     0.162 A 
ATOM      4  C3  UNL d   1      -2.878   0.378   1.879  0.00  0.00    -0.034 A 
ATOM      5  C4  UNL d   1      -1.933   0.210   2.892  0.00  0.00     0.162 A 
ATOM      6  C5  UNL d   1      -2.289  -0.403   4.090  0.00  0.00     0.062 A 
ATOM      7  F   UNL d   1      -1.374  -0.561   5.057  0.00  0.00    -0.097 F 
ATOM      8  F1  UNL d   1      -0.670   0.632   2.729  0.00  0.00    -0.096 F 
ATOM      9  I   UNL d   1      -2.349   1.293   0.086  0.00  0.00    -0.060 I 
ATOM     10  F2  UNL d   1      -5.116   0.072   1.132  0.00  0.00    -0.096 F 
ATOM     11  F3  UNL d   1      -5.789  -1.117   3.471  0.00  0.00    -0.097 F 
ATOM     12  F4  UNL d   1      -3.928  -1.439   5.440  0.00  0.00    -0.092 F 
ENDROOT
TORSDOF 0
ENDMDL
