MODEL 1
REMARK minimizedAffinity 9.61654949
REMARK minimizedRMSD -1
REMARK  0 active torsions:
REMARK  status: ('A' for Active; 'I' for Inactive)
ROOT
ATOM      1  C   UNL d   1       4.116   0.120   3.221  0.00  0.00     0.124 A 
ATOM      2  C1  UNL d   1       3.895   1.132   2.298  0.00  0.00     0.062 A 
ATOM      3  C2  UNL d   1       4.383   2.414   2.534  0.00  0.00     0.162 A 
ATOM      4  C3  UNL d   1       5.098   2.691   3.700  0.00  0.00    -0.034 A 
ATOM      5  C4  UNL d   1       5.315   1.668   4.624  0.00  0.00     0.162 A 
ATOM      6  C5  UNL d   1       4.825   0.388   4.383  0.00  0.00     0.062 A 
ATOM      7  F   UNL d   1       5.040  -0.589   5.276  0.00  0.00    -0.097 F 
ATOM      8  F1  UNL d   1       5.999   1.899   5.755  0.00  0.00    -0.096 F 
ATOM      9  I   UNL d   1       5.830   4.606   4.057  0.00  0.00    -0.060 I 
ATOM     10  F2  UNL d   1       4.155   3.373   1.625  0.00  0.00    -0.096 F 
ATOM     11  F3  UNL d   1       3.209   0.876   1.174  0.00  0.00    -0.097 F 
ATOM     12  F4  UNL d   1       3.644  -1.112   2.991  0.00  0.00    -0.092 F 
ENDROOT
TORSDOF 0
ENDMDL
