MODEL 1
REMARK minimizedAffinity 16.2216663
REMARK minimizedRMSD -1
REMARK  0 active torsions:
REMARK  status: ('A' for Active; 'I' for Inactive)
ROOT
ATOM      1  C   UNL d   1      -2.652   0.310   2.785  0.00  0.00     0.124 A 
ATOM      2  C1  UNL d   1      -2.388   0.870   1.543  0.00  0.00     0.062 A 
ATOM      3  C2  UNL d   1      -3.342   0.812   0.532  0.00  0.00     0.162 A 
ATOM      4  C3  UNL d   1      -4.570   0.191   0.758  0.00  0.00    -0.034 A 
ATOM      5  C4  UNL d   1      -4.829  -0.371   2.010  0.00  0.00     0.162 A 
ATOM      6  C5  UNL d   1      -3.872  -0.309   3.017  0.00  0.00     0.062 A 
ATOM      7  F   UNL d   1      -4.129  -0.851   4.217  0.00  0.00    -0.097 F 
ATOM      8  F1  UNL d   1      -6.000  -0.975   2.261  0.00  0.00    -0.096 F 
ATOM      9  I   UNL d   1      -6.000   0.101  -0.752  0.00  0.00    -0.060 I 
ATOM     10  F2  UNL d   1      -3.059   1.361  -0.659  0.00  0.00    -0.096 F 
ATOM     11  F3  UNL d   1      -1.210   1.469   1.316  0.00  0.00    -0.097 F 
ATOM     12  F4  UNL d   1      -1.732   0.367   3.757  0.00  0.00    -0.092 F 
ENDROOT
TORSDOF 0
ENDMDL
