MODEL 1
REMARK minimizedAffinity 0.386144787
REMARK minimizedRMSD -1
REMARK  0 active torsions:
REMARK  status: ('A' for Active; 'I' for Inactive)
ROOT
ATOM      1  C   UNL d   1      -3.366  -0.226   3.316  0.00  0.00     0.124 A 
ATOM      2  C1  UNL d   1      -2.552   0.515   2.471  0.00  0.00     0.062 A 
ATOM      3  C2  UNL d   1      -2.623   1.905   2.472  0.00  0.00     0.162 A 
ATOM      4  C3  UNL d   1      -3.513   2.564   3.321  0.00  0.00    -0.034 A 
ATOM      5  C4  UNL d   1      -4.330   1.811   4.167  0.00  0.00     0.162 A 
ATOM      6  C5  UNL d   1      -4.254   0.422   4.163  0.00  0.00     0.062 A 
ATOM      7  F   UNL d   1      -5.042  -0.292   4.979  0.00  0.00    -0.097 F 
ATOM      8  F1  UNL d   1      -5.196   2.412   4.996  0.00  0.00    -0.096 F 
ATOM      9  I   UNL d   1      -3.623   4.642   3.325  0.00  0.00    -0.060 I 
ATOM     10  F2  UNL d   1      -1.824   2.596   1.645  0.00  0.00    -0.096 F 
ATOM     11  F3  UNL d   1      -1.694  -0.109   1.652  0.00  0.00    -0.097 F 
ATOM     12  F4  UNL d   1      -3.296  -1.564   3.313  0.00  0.00    -0.092 F 
ENDROOT
TORSDOF 0
ENDMDL
