MODEL 1
REMARK minimizedAffinity 6.86277628
REMARK minimizedRMSD -1
REMARK  0 active torsions:
REMARK  status: ('A' for Active; 'I' for Inactive)
ROOT
ATOM      1  C   UNL d   1      -3.019   1.009   0.088  0.00  0.00     0.124 A 
ATOM      2  C1  UNL d   1      -3.139  -0.300   0.532  0.00  0.00     0.062 A 
ATOM      3  C2  UNL d   1      -3.079  -0.586   1.893  0.00  0.00     0.162 A 
ATOM      4  C3  UNL d   1      -2.899   0.441   2.820  0.00  0.00    -0.034 A 
ATOM      5  C4  UNL d   1      -2.778   1.755   2.366  0.00  0.00     0.162 A 
ATOM      6  C5  UNL d   1      -2.839   2.035   1.005  0.00  0.00     0.062 A 
ATOM      7  F   UNL d   1      -2.723   3.301   0.577  0.00  0.00    -0.097 F 
ATOM      8  F1  UNL d   1      -2.605   2.766   3.230  0.00  0.00    -0.096 F 
ATOM      9  I   UNL d   1      -2.809   0.017   4.856  0.00  0.00    -0.060 I 
ATOM     10  F2  UNL d   1      -3.198  -1.860   2.294  0.00  0.00    -0.096 F 
ATOM     11  F3  UNL d   1      -3.312  -1.293  -0.352  0.00  0.00    -0.097 F 
ATOM     12  F4  UNL d   1      -3.076   1.281  -1.222  0.00  0.00    -0.092 F 
ENDROOT
TORSDOF 0
ENDMDL
