MODEL 1
REMARK minimizedAffinity 5.59200907
REMARK minimizedRMSD -1
REMARK  0 active torsions:
REMARK  status: ('A' for Active; 'I' for Inactive)
ROOT
ATOM      1  C   UNL d   1      -2.538  -0.292   1.401  0.00  0.00     0.124 A 
ATOM      2  C1  UNL d   1      -3.094  -0.043   0.154  0.00  0.00     0.062 A 
ATOM      3  C2  UNL d   1      -3.352   1.264  -0.249  0.00  0.00     0.162 A 
ATOM      4  C3  UNL d   1      -3.053   2.333   0.596  0.00  0.00    -0.034 A 
ATOM      5  C4  UNL d   1      -2.495   2.074   1.849  0.00  0.00     0.162 A 
ATOM      6  C5  UNL d   1      -2.239   0.766   2.247  0.00  0.00     0.062 A 
ATOM      7  F   UNL d   1      -1.702   0.527   3.453  0.00  0.00    -0.097 F 
ATOM      8  F1  UNL d   1      -2.195   3.078   2.687  0.00  0.00    -0.096 F 
ATOM      9  I   UNL d   1      -3.437   4.289  -0.002  0.00  0.00    -0.060 I 
ATOM     10  F2  UNL d   1      -3.890   1.475  -1.459  0.00  0.00    -0.096 F 
ATOM     11  F3  UNL d   1      -3.385  -1.064  -0.665  0.00  0.00    -0.097 F 
ATOM     12  F4  UNL d   1      -2.292  -1.551   1.787  0.00  0.00    -0.092 F 
ENDROOT
TORSDOF 0
ENDMDL
