MODEL 1
REMARK minimizedAffinity 9.87891579
REMARK minimizedRMSD -1
REMARK  0 active torsions:
REMARK  status: ('A' for Active; 'I' for Inactive)
ROOT
ATOM      1  C   UNL d   1      -4.174   0.603   4.403  0.00  0.00     0.124 A 
ATOM      2  C1  UNL d   1      -3.831   1.948   4.412  0.00  0.00     0.062 A 
ATOM      3  C2  UNL d   1      -3.247   2.529   3.290  0.00  0.00     0.162 A 
ATOM      4  C3  UNL d   1      -3.004   1.765   2.148  0.00  0.00    -0.034 A 
ATOM      5  C4  UNL d   1      -3.351   0.413   2.147  0.00  0.00     0.162 A 
ATOM      6  C5  UNL d   1      -3.934  -0.163   3.271  0.00  0.00     0.062 A 
ATOM      7  F   UNL d   1      -4.265  -1.462   3.260  0.00  0.00    -0.097 F 
ATOM      8  F1  UNL d   1      -3.132  -0.350   1.066  0.00  0.00    -0.096 F 
ATOM      9  I   UNL d   1      -2.132   2.630   0.468  0.00  0.00    -0.060 I 
ATOM     10  F2  UNL d   1      -2.926   3.831   3.326  0.00  0.00    -0.096 F 
ATOM     11  F3  UNL d   1      -4.061   2.690   5.505  0.00  0.00    -0.097 F 
ATOM     12  F4  UNL d   1      -4.734   0.046   5.484  0.00  0.00    -0.092 F 
ENDROOT
TORSDOF 0
ENDMDL
