MODEL 1
REMARK minimizedAffinity 2.21842623
REMARK minimizedRMSD -1
REMARK  0 active torsions:
REMARK  status: ('A' for Active; 'I' for Inactive)
ROOT
ATOM      1  C   UNL d   1      -2.609  -1.158   1.689  0.00  0.00     0.124 A 
ATOM      2  C1  UNL d   1      -2.556  -0.598   0.420  0.00  0.00     0.062 A 
ATOM      3  C2  UNL d   1      -2.563   0.785   0.265  0.00  0.00     0.162 A 
ATOM      4  C3  UNL d   1      -2.623   1.618   1.381  0.00  0.00    -0.034 A 
ATOM      5  C4  UNL d   1      -2.678   1.048   2.654  0.00  0.00     0.162 A 
ATOM      6  C5  UNL d   1      -2.670  -0.335   2.804  0.00  0.00     0.062 A 
ATOM      7  F   UNL d   1      -2.721  -0.875   4.031  0.00  0.00    -0.097 F 
ATOM      8  F1  UNL d   1      -2.736   1.820   3.750  0.00  0.00    -0.096 F 
ATOM      9  I   UNL d   1      -2.635   3.687   1.153  0.00  0.00    -0.060 I 
ATOM     10  F2  UNL d   1      -2.511   1.298  -0.973  0.00  0.00    -0.096 F 
ATOM     11  F3  UNL d   1      -2.498  -1.392  -0.659  0.00  0.00    -0.097 F 
ATOM     12  F4  UNL d   1      -2.603  -2.490   1.836  0.00  0.00    -0.092 F 
ENDROOT
TORSDOF 0
ENDMDL
