MODEL 1
REMARK minimizedAffinity 4.03014612
REMARK minimizedRMSD -1
REMARK  0 active torsions:
REMARK  status: ('A' for Active; 'I' for Inactive)
ROOT
ATOM      1  C   UNL d   1      -2.928  -0.539   2.788  0.00  0.00     0.124 A 
ATOM      2  C1  UNL d   1      -3.008   0.708   3.394  0.00  0.00     0.062 A 
ATOM      3  C2  UNL d   1      -2.992   1.864   2.620  0.00  0.00     0.162 A 
ATOM      4  C3  UNL d   1      -2.896   1.780   1.231  0.00  0.00    -0.034 A 
ATOM      5  C4  UNL d   1      -2.815   0.523   0.629  0.00  0.00     0.162 A 
ATOM      6  C5  UNL d   1      -2.832  -0.630   1.407  0.00  0.00     0.062 A 
ATOM      7  F   UNL d   1      -2.755  -1.833   0.820  0.00  0.00    -0.097 F 
ATOM      8  F1  UNL d   1      -2.722   0.406  -0.704  0.00  0.00    -0.096 F 
ATOM      9  I   UNL d   1      -2.871   3.507   0.070  0.00  0.00    -0.060 I 
ATOM     10  F2  UNL d   1      -3.071   3.055   3.232  0.00  0.00    -0.096 F 
ATOM     11  F3  UNL d   1      -3.101   0.798   4.728  0.00  0.00    -0.097 F 
ATOM     12  F4  UNL d   1      -2.943  -1.650   3.536  0.00  0.00    -0.092 F 
ENDROOT
TORSDOF 0
ENDMDL
