MODEL 1
REMARK minimizedAffinity 13.2141237
REMARK minimizedRMSD -1
REMARK  0 active torsions:
REMARK  status: ('A' for Active; 'I' for Inactive)
ROOT
ATOM      1  C   UNL d   1      -6.000   0.250   5.793  0.00  0.00     0.020 A 
ATOM      2  C1  UNL d   1      -6.000   1.516   5.208  0.00  0.00     0.020 A 
ATOM      3  C2  UNL d   1      -5.298   1.737   4.021  0.00  0.00     0.034 A 
ATOM      4  C3  UNL d   1      -4.593   0.690   3.415  0.00  0.00     0.017 A 
ATOM      5  C4  UNL d   1      -4.594  -0.580   4.002  0.00  0.00     0.017 A 
ATOM      6  C5  UNL d   1      -5.298  -0.796   5.191  0.00  0.00     0.034 A 
ATOM      7 Cl   UNL d   1      -3.747  -1.920   3.313  0.00  0.00    -0.070 Cl
ATOM      8 Cl1  UNL d   1      -3.748   1.035   1.948  0.00  0.00    -0.070 Cl
ENDROOT
TORSDOF 0
ENDMDL
