MODEL 1
REMARK minimizedAffinity 11.9241781
REMARK minimizedRMSD -1
REMARK  0 active torsions:
REMARK  status: ('A' for Active; 'I' for Inactive)
ROOT
ATOM      1  C   UNL d   1       0.268  -0.114  -1.570  0.00  0.00     0.020 A 
ATOM      2  C1  UNL d   1      -0.966  -0.583  -2.019  0.00  0.00     0.020 A 
ATOM      3  C2  UNL d   1      -2.121   0.168  -1.797  0.00  0.00     0.034 A 
ATOM      4  C3  UNL d   1      -2.046   1.393  -1.124  0.00  0.00     0.017 A 
ATOM      5  C4  UNL d   1      -0.807   1.863  -0.674  0.00  0.00     0.017 A 
ATOM      6  C5  UNL d   1       0.347   1.107  -0.899  0.00  0.00     0.034 A 
ATOM      7 Cl   UNL d   1      -0.635   3.365   0.164  0.00  0.00    -0.070 Cl
ATOM      8 Cl1  UNL d   1      -3.516   2.270  -0.885  0.00  0.00    -0.070 Cl
ENDROOT
TORSDOF 0
ENDMDL
