MODEL 1
REMARK minimizedAffinity -0.329955995
REMARK minimizedRMSD -1
REMARK  0 active torsions:
REMARK  status: ('A' for Active; 'I' for Inactive)
ROOT
ATOM      1  C   UNL d   1      -0.228   5.473  -0.815  0.00  0.00     0.020 A 
ATOM      2  C1  UNL d   1       0.385   4.231  -0.659  0.00  0.00     0.020 A 
ATOM      3  C2  UNL d   1       0.219   3.514   0.528  0.00  0.00     0.034 A 
ATOM      4  C3  UNL d   1      -0.561   4.039   1.564  0.00  0.00     0.017 A 
ATOM      5  C4  UNL d   1      -1.176   5.287   1.407  0.00  0.00     0.017 A 
ATOM      6  C5  UNL d   1      -1.007   6.000   0.216  0.00  0.00     0.034 A 
ATOM      7 Cl   UNL d   1      -2.155   6.000   2.641  0.00  0.00    -0.070 Cl
ATOM      8 Cl1  UNL d   1      -0.724   3.098   3.004  0.00  0.00    -0.070 Cl
ENDROOT
TORSDOF 0
ENDMDL
