MODEL 1
REMARK minimizedAffinity 3.91357136
REMARK minimizedRMSD -1
REMARK  0 active torsions:
REMARK  status: ('A' for Active; 'I' for Inactive)
ROOT
ATOM      1  C   UNL d   1       0.779   4.141  -0.540  0.00  0.00     0.020 A 
ATOM      2  C1  UNL d   1       0.337   5.445  -0.757  0.00  0.00     0.020 A 
ATOM      3  C2  UNL d   1      -0.636   6.000   0.076  0.00  0.00     0.034 A 
ATOM      4  C3  UNL d   1      -1.171   5.250   1.130  0.00  0.00     0.017 A 
ATOM      5  C4  UNL d   1      -0.726   3.941   1.347  0.00  0.00     0.017 A 
ATOM      6  C5  UNL d   1       0.249   3.390   0.510  0.00  0.00     0.034 A 
ATOM      7 Cl   UNL d   1      -1.339   2.954   2.627  0.00  0.00    -0.070 Cl
ATOM      8 Cl1  UNL d   1      -2.371   6.000   2.122  0.00  0.00    -0.070 Cl
ENDROOT
TORSDOF 0
ENDMDL
