MODEL 1
REMARK minimizedAffinity 7.00391006
REMARK minimizedRMSD -1
REMARK  0 active torsions:
REMARK  status: ('A' for Active; 'I' for Inactive)
ROOT
ATOM      1  C   UNL d   1       0.409   4.107   0.190  0.00  0.00     0.020 A 
ATOM      2  C1  UNL d   1      -0.554   3.881  -0.792  0.00  0.00     0.020 A 
ATOM      3  C2  UNL d   1      -1.516   2.885  -0.611  0.00  0.00     0.034 A 
ATOM      4  C3  UNL d   1      -1.517   2.111   0.555  0.00  0.00     0.017 A 
ATOM      5  C4  UNL d   1      -0.549   2.338   1.540  0.00  0.00     0.017 A 
ATOM      6  C5  UNL d   1       0.411   3.337   1.354  0.00  0.00     0.034 A 
ATOM      7 Cl   UNL d   1      -0.486   1.423   3.006  0.00  0.00    -0.070 Cl
ATOM      8 Cl1  UNL d   1      -2.736   0.897   0.713  0.00  0.00    -0.070 Cl
ENDROOT
TORSDOF 0
ENDMDL
