MODEL 1
REMARK minimizedAffinity 8.64992237
REMARK minimizedRMSD -1
REMARK  0 active torsions:
REMARK  status: ('A' for Active; 'I' for Inactive)
ROOT
ATOM      1  C   UNL d   1       0.345   5.612  -1.262  0.00  0.00     0.020 A 
ATOM      2  C1  UNL d   1       0.964   4.369  -1.136  0.00  0.00     0.020 A 
ATOM      3  C2  UNL d   1       0.604   3.512  -0.094  0.00  0.00     0.034 A 
ATOM      4  C3  UNL d   1      -0.377   3.897   0.827  0.00  0.00     0.017 A 
ATOM      5  C4  UNL d   1      -0.998   5.145   0.700  0.00  0.00     0.017 A 
ATOM      6  C5  UNL d   1      -0.634   5.999  -0.345  0.00  0.00     0.034 A 
ATOM      7 Cl   UNL d   1      -2.217   5.689   1.797  0.00  0.00    -0.070 Cl
ATOM      8 Cl1  UNL d   1      -0.773   2.786   2.090  0.00  0.00    -0.070 Cl
ENDROOT
TORSDOF 0
ENDMDL
