MODEL 1
REMARK minimizedAffinity 3.69902253
REMARK minimizedRMSD -1
REMARK  0 active torsions:
REMARK  status: ('A' for Active; 'I' for Inactive)
ROOT
ATOM      1  C   UNL d   1      -5.993   4.553  -4.030  0.00  0.00     0.020 A 
ATOM      2  C1  UNL d   1      -6.000   4.416  -5.418  0.00  0.00     0.020 A 
ATOM      3  C2  UNL d   1      -5.677   3.188  -5.999  0.00  0.00     0.034 A 
ATOM      4  C3  UNL d   1      -5.345   2.093  -5.193  0.00  0.00     0.017 A 
ATOM      5  C4  UNL d   1      -5.339   2.232  -3.800  0.00  0.00     0.017 A 
ATOM      6  C5  UNL d   1      -5.664   3.464  -3.223  0.00  0.00     0.034 A 
ATOM      7 Cl   UNL d   1      -4.941   0.926  -2.740  0.00  0.00    -0.070 Cl
ATOM      8 Cl1  UNL d   1      -4.957   0.604  -5.979  0.00  0.00    -0.070 Cl
ENDROOT
TORSDOF 0
ENDMDL
