MODEL 1
REMARK minimizedAffinity 6.51885319
REMARK minimizedRMSD -1
REMARK  0 active torsions:
REMARK  status: ('A' for Active; 'I' for Inactive)
ROOT
ATOM      1  C   UNL d   1      -5.998   0.069   3.537  0.00  0.00     0.020 A 
ATOM      2  C1  UNL d   1      -5.820  -1.093   4.287  0.00  0.00     0.020 A 
ATOM      3  C2  UNL d   1      -4.582  -1.739   4.290  0.00  0.00     0.034 A 
ATOM      4  C3  UNL d   1      -3.517  -1.223   3.542  0.00  0.00     0.017 A 
ATOM      5  C4  UNL d   1      -3.697  -0.057   2.790  0.00  0.00     0.017 A 
ATOM      6  C5  UNL d   1      -4.939   0.586   2.790  0.00  0.00     0.034 A 
ATOM      7 Cl   UNL d   1      -2.430   0.639   1.842  0.00  0.00    -0.070 Cl
ATOM      8 Cl1  UNL d   1      -2.013  -2.073   3.593  0.00  0.00    -0.070 Cl
ENDROOT
TORSDOF 0
ENDMDL
