MODEL 1
REMARK minimizedAffinity -4.87451506
REMARK minimizedRMSD -1
REMARK  2 active torsions:
REMARK  status: ('A' for Active; 'I' for Inactive)
REMARK    1  A    between atoms: C1_2  and  C2_3 
REMARK    2  A    between atoms: C2_3  and  C3_4 
ROOT
ATOM      1  C3  UNL d   1      -0.388  -1.010   0.483  0.00  0.00    -0.075 A 
ATOM      2  C4  UNL d   1       0.736  -1.316  -0.298  0.00  0.00     0.002 A 
ATOM      3  C5  UNL d   1       1.915  -1.760   0.300  0.00  0.00     0.002 A 
ATOM      4  C6  UNL d   1       1.990  -1.894   1.685  0.00  0.00    -0.004 A 
ATOM      5  C7  UNL d   1       0.885  -1.576   2.472  0.00  0.00     0.002 A 
ATOM      6  C8  UNL d   1      -0.298  -1.136   1.875  0.00  0.00     0.002 A 
ENDROOT
BRANCH   1   7
ATOM      7  C2  UNL d   1      -1.676  -0.557  -0.161  0.00  0.00     0.056 C 
BRANCH   7   8
ATOM      8  C1  UNL d   1      -2.672  -1.691  -0.428  0.00  0.00     0.007 C 
ATOM      9  C   UNL d   1      -4.069  -1.400   0.104  0.00  0.00     0.009 C 
ENDBRANCH   7   8
ENDBRANCH   1   7
TORSDOF 2
ENDMDL
