MODEL 1
REMARK minimizedAffinity -4.52170944
REMARK minimizedRMSD -1
REMARK  2 active torsions:
REMARK  status: ('A' for Active; 'I' for Inactive)
REMARK    1  A    between atoms: C1_2  and  C2_3 
REMARK    2  A    between atoms: C2_3  and  C3_4 
ROOT
ATOM      1  C3  UNL d   1       0.790   0.249  -0.485  0.00  0.00    -0.075 A 
ATOM      2  C4  UNL d   1      -0.163  -0.081   0.490  0.00  0.00     0.002 A 
ATOM      3  C5  UNL d   1       0.238  -0.518   1.753  0.00  0.00     0.002 A 
ATOM      4  C6  UNL d   1       1.593  -0.639   2.054  0.00  0.00    -0.004 A 
ATOM      5  C7  UNL d   1       2.548  -0.330   1.087  0.00  0.00     0.002 A 
ATOM      6  C8  UNL d   1       2.149   0.111  -0.176  0.00  0.00     0.002 A 
ENDROOT
BRANCH   1   7
ATOM      7  C2  UNL d   1       0.362   0.750  -1.844  0.00  0.00     0.056 C 
BRANCH   7   8
ATOM      8  C1  UNL d   1      -0.472   2.035  -1.801  0.00  0.00     0.007 C 
ATOM      9  C   UNL d   1       0.116   3.161  -2.641  0.00  0.00     0.009 C 
ENDBRANCH   7   8
ENDBRANCH   1   7
TORSDOF 2
ENDMDL
