MODEL 1
REMARK minimizedAffinity -0.860012412
REMARK minimizedRMSD -1
REMARK  2 active torsions:
REMARK  status: ('A' for Active; 'I' for Inactive)
REMARK    1  A    between atoms: C1_2  and  C2_3 
REMARK    2  A    between atoms: C2_3  and  C3_4 
ROOT
ATOM      1  C3  UNL d   1       0.359  -0.933   1.320  0.00  0.00    -0.075 A 
ATOM      2  C4  UNL d   1      -0.477  -0.109   0.552  0.00  0.00     0.002 A 
ATOM      3  C5  UNL d   1      -0.280   0.015  -0.823  0.00  0.00     0.002 A 
ATOM      4  C6  UNL d   1       0.760  -0.673  -1.446  0.00  0.00    -0.004 A 
ATOM      5  C7  UNL d   1       1.606  -1.481  -0.690  0.00  0.00     0.002 A 
ATOM      6  C8  UNL d   1       1.408  -1.610   0.686  0.00  0.00     0.002 A 
ENDROOT
BRANCH   1   7
ATOM      7  C2  UNL d   1       0.132  -1.095   2.804  0.00  0.00     0.056 C 
BRANCH   7   8
ATOM      8  C1  UNL d   1       0.717  -2.385   3.388  0.00  0.00     0.007 C 
ATOM      9  C   UNL d   1      -0.195  -3.592   3.208  0.00  0.00     0.009 C 
ENDBRANCH   7   8
ENDBRANCH   1   7
TORSDOF 2
ENDMDL
