MODEL 1
REMARK minimizedAffinity -2.27983689
REMARK minimizedRMSD -1
REMARK  2 active torsions:
REMARK  status: ('A' for Active; 'I' for Inactive)
REMARK    1  A    between atoms: C1_2  and  C2_3 
REMARK    2  A    between atoms: C2_3  and  C3_4 
ROOT
ATOM      1  C3  UNL d   1      -0.972  -0.537   0.925  0.00  0.00    -0.075 A 
ATOM      2  C4  UNL d   1      -0.702  -1.225   2.117  0.00  0.00     0.002 A 
ATOM      3  C5  UNL d   1       0.608  -1.360   2.576  0.00  0.00     0.002 A 
ATOM      4  C6  UNL d   1       1.665  -0.820   1.846  0.00  0.00    -0.004 A 
ATOM      5  C7  UNL d   1       1.410  -0.150   0.651  0.00  0.00     0.002 A 
ATOM      6  C8  UNL d   1       0.099  -0.009   0.192  0.00  0.00     0.002 A 
ENDROOT
BRANCH   1   7
ATOM      7  C2  UNL d   1      -2.390  -0.362   0.438  0.00  0.00     0.056 C 
BRANCH   7   8
ATOM      8  C1  UNL d   1      -3.090  -1.675   0.070  0.00  0.00     0.007 C 
ATOM      9  C   UNL d   1      -4.567  -1.693   0.443  0.00  0.00     0.009 C 
ENDBRANCH   7   8
ENDBRANCH   1   7
TORSDOF 2
ENDMDL
