MODEL 1
REMARK minimizedAffinity 0.119404376
REMARK minimizedRMSD -1
REMARK  2 active torsions:
REMARK  status: ('A' for Active; 'I' for Inactive)
REMARK    1  A    between atoms: C1_2  and  C2_3 
REMARK    2  A    between atoms: C2_3  and  C3_4 
ROOT
ATOM      1  C3  UNL d   1       0.943  -3.492   2.231  0.00  0.00    -0.075 A 
ATOM      2  C4  UNL d   1       0.399  -4.568   2.946  0.00  0.00     0.002 A 
ATOM      3  C5  UNL d   1      -0.948  -4.568   3.309  0.00  0.00     0.002 A 
ATOM      4  C6  UNL d   1      -1.764  -3.490   2.972  0.00  0.00    -0.004 A 
ATOM      5  C7  UNL d   1      -1.229  -2.408   2.276  0.00  0.00     0.002 A 
ATOM      6  C8  UNL d   1       0.117  -2.407   1.907  0.00  0.00     0.002 A 
ENDROOT
BRANCH   1   7
ATOM      7  C2  UNL d   1       2.393  -3.499   1.809  0.00  0.00     0.056 C 
BRANCH   7   8
ATOM      8  C1  UNL d   1       3.259  -2.463   2.533  0.00  0.00     0.007 C 
ATOM      9  C   UNL d   1       3.253  -1.098   1.857  0.00  0.00     0.009 C 
ENDBRANCH   7   8
ENDBRANCH   1   7
TORSDOF 2
ENDMDL
