MODEL 1
REMARK minimizedAffinity -5.63626003
REMARK minimizedRMSD -1
REMARK  2 active torsions:
REMARK  status: ('A' for Active; 'I' for Inactive)
REMARK    1  A    between atoms: C1_2  and  C2_3 
REMARK    2  A    between atoms: C2_3  and  C3_4 
ROOT
ATOM      1  C3  UNL d   1      -0.456  -0.605   1.191  0.00  0.00    -0.075 A 
ATOM      2  C4  UNL d   1       0.019  -0.793   2.497  0.00  0.00     0.002 A 
ATOM      3  C5  UNL d   1       1.390  -0.866   2.748  0.00  0.00     0.002 A 
ATOM      4  C6  UNL d   1       2.300  -0.762   1.698  0.00  0.00    -0.004 A 
ATOM      5  C7  UNL d   1       1.838  -0.591   0.395  0.00  0.00     0.002 A 
ATOM      6  C8  UNL d   1       0.467  -0.514   0.141  0.00  0.00     0.002 A 
ENDROOT
BRANCH   1   7
ATOM      7  C2  UNL d   1      -1.937  -0.496   0.917  0.00  0.00     0.056 C 
BRANCH   7   8
ATOM      8  C1  UNL d   1      -2.358  -1.029  -0.457  0.00  0.00     0.007 C 
ATOM      9  C   UNL d   1      -3.675  -1.792  -0.427  0.00  0.00     0.009 C 
ENDBRANCH   7   8
ENDBRANCH   1   7
TORSDOF 2
ENDMDL
