MODEL 1
REMARK minimizedAffinity -4.25319529
REMARK minimizedRMSD -1
REMARK  2 active torsions:
REMARK  status: ('A' for Active; 'I' for Inactive)
REMARK    1  A    between atoms: C1_2  and  C2_3 
REMARK    2  A    between atoms: C2_3  and  C3_4 
ROOT
ATOM      1  C3  UNL d   1      -0.814  -0.653   1.305  0.00  0.00    -0.075 A 
ATOM      2  C4  UNL d   1       0.144  -0.374   0.319  0.00  0.00     0.002 A 
ATOM      3  C5  UNL d   1       1.499  -0.315   0.646  0.00  0.00     0.002 A 
ATOM      4  C6  UNL d   1       1.912  -0.523   1.960  0.00  0.00    -0.004 A 
ATOM      5  C7  UNL d   1       0.967  -0.783   2.950  0.00  0.00     0.002 A 
ATOM      6  C8  UNL d   1      -0.389  -0.848   2.626  0.00  0.00     0.002 A 
ENDROOT
BRANCH   1   7
ATOM      7  C2  UNL d   1      -2.280  -0.747   0.952  0.00  0.00     0.056 C 
BRANCH   7   8
ATOM      8  C1  UNL d   1      -2.549  -1.281  -0.459  0.00  0.00     0.007 C 
ATOM      9  C   UNL d   1      -3.915  -1.937  -0.602  0.00  0.00     0.009 C 
ENDBRANCH   7   8
ENDBRANCH   1   7
TORSDOF 2
ENDMDL
