MODEL 1
REMARK minimizedAffinity -2.82133627
REMARK minimizedRMSD -1
REMARK  2 active torsions:
REMARK  status: ('A' for Active; 'I' for Inactive)
REMARK    1  A    between atoms: C1_2  and  C2_3 
REMARK    2  A    between atoms: C2_3  and  C3_4 
ROOT
ATOM      1  C3  UNL d   1      -0.713   1.550  -1.667  0.00  0.00    -0.075 A 
ATOM      2  C4  UNL d   1       0.293   2.279  -2.317  0.00  0.00     0.002 A 
ATOM      3  C5  UNL d   1       0.010   3.518  -2.893  0.00  0.00     0.002 A 
ATOM      4  C6  UNL d   1      -1.281   4.038  -2.836  0.00  0.00    -0.004 A 
ATOM      5  C7  UNL d   1      -2.292   3.315  -2.207  0.00  0.00     0.002 A 
ATOM      6  C8  UNL d   1      -2.011   2.077  -1.626  0.00  0.00     0.002 A 
ENDROOT
BRANCH   1   7
ATOM      7  C2  UNL d   1      -0.407   0.223  -1.016  0.00  0.00     0.056 C 
BRANCH   7   8
ATOM      8  C1  UNL d   1      -0.035   0.326   0.467  0.00  0.00     0.007 C 
ATOM      9  C   UNL d   1      -0.433  -0.903   1.273  0.00  0.00     0.009 C 
ENDBRANCH   7   8
ENDBRANCH   1   7
TORSDOF 2
ENDMDL
