MODEL 1
REMARK minimizedAffinity -2.34403419
REMARK minimizedRMSD -1
REMARK  2 active torsions:
REMARK  status: ('A' for Active; 'I' for Inactive)
REMARK    1  A    between atoms: C1_2  and  C2_3 
REMARK    2  A    between atoms: C2_3  and  C3_4 
ROOT
ATOM      1  C3  UNL d   1      -0.092  -0.728   1.692  0.00  0.00    -0.075 A 
ATOM      2  C4  UNL d   1      -1.282  -0.095   1.307  0.00  0.00     0.002 A 
ATOM      3  C5  UNL d   1      -1.454   0.354  -0.003  0.00  0.00     0.002 A 
ATOM      4  C6  UNL d   1      -0.437   0.185  -0.939  0.00  0.00    -0.004 A 
ATOM      5  C7  UNL d   1       0.757  -0.428  -0.563  0.00  0.00     0.002 A 
ATOM      6  C8  UNL d   1       0.930  -0.882   0.746  0.00  0.00     0.002 A 
ENDROOT
BRANCH   1   7
ATOM      7  C2  UNL d   1       0.089  -1.243   3.101  0.00  0.00     0.056 C 
BRANCH   7   8
ATOM      8  C1  UNL d   1       0.278  -2.761   3.191  0.00  0.00     0.007 C 
ATOM      9  C   UNL d   1      -1.036  -3.526   3.268  0.00  0.00     0.009 C 
ENDBRANCH   7   8
ENDBRANCH   1   7
TORSDOF 2
ENDMDL
