MODEL 1
REMARK minimizedAffinity 7.73544931
REMARK minimizedRMSD -1
REMARK  0 active torsions:
REMARK  status: ('A' for Active; 'I' for Inactive)
ROOT
ATOM      1  C   UNL d   1      -5.856   5.999   4.470  0.00  0.00     0.078 C 
ATOM      2  C1  UNL d   1      -5.225   5.874   3.115  0.00  0.00    -0.077 A 
ATOM      3  C2  UNL d   1      -6.000   5.929   1.950  0.00  0.00    -0.001 A 
ATOM      4  C3  UNL d   1      -5.400   5.801   0.697  0.00  0.00     0.003 A 
ATOM      5  C4  UNL d   1      -4.023   5.616   0.595  0.00  0.00    -0.005 A 
ATOM      6  C5  UNL d   1      -3.243   5.558   1.749  0.00  0.00     0.003 A 
ATOM      7  C6  UNL d   1      -3.841   5.685   3.004  0.00  0.00    -0.001 A 
ENDROOT
TORSDOF 0
ENDMDL
