MODEL 1
REMARK minimizedAffinity -1.86914003
REMARK minimizedRMSD -1
REMARK  0 active torsions:
REMARK  status: ('A' for Active; 'I' for Inactive)
ROOT
ATOM      1  C   UNL d   1      -5.667   1.700   5.171  0.00  0.00     0.078 C 
ATOM      2  C1  UNL d   1      -5.656   3.184   4.955  0.00  0.00    -0.077 A 
ATOM      3  C2  UNL d   1      -6.000   3.735   3.715  0.00  0.00    -0.001 A 
ATOM      4  C3  UNL d   1      -5.975   5.117   3.525  0.00  0.00     0.003 A 
ATOM      5  C4  UNL d   1      -5.606   5.960   4.571  0.00  0.00    -0.005 A 
ATOM      6  C5  UNL d   1      -5.260   5.421   5.808  0.00  0.00     0.003 A 
ATOM      7  C6  UNL d   1      -5.284   4.039   6.000  0.00  0.00    -0.001 A 
ENDROOT
TORSDOF 0
ENDMDL
