MODEL 1
REMARK minimizedAffinity -0.349414974
REMARK minimizedRMSD -1
REMARK  0 active torsions:
REMARK  status: ('A' for Active; 'I' for Inactive)
ROOT
ATOM      1  C   UNL d   1      -5.119   3.045   2.801  0.00  0.00     0.078 C 
ATOM      2  C1  UNL d   1      -5.070   4.041   3.921  0.00  0.00    -0.077 A 
ATOM      3  C2  UNL d   1      -6.000   3.995   4.967  0.00  0.00    -0.001 A 
ATOM      4  C3  UNL d   1      -5.948   4.934   5.999  0.00  0.00     0.003 A 
ATOM      5  C4  UNL d   1      -4.969   5.926   5.994  0.00  0.00    -0.005 A 
ATOM      6  C5  UNL d   1      -4.041   5.980   4.956  0.00  0.00     0.003 A 
ATOM      7  C6  UNL d   1      -4.091   5.042   3.923  0.00  0.00    -0.001 A 
ENDROOT
TORSDOF 0
ENDMDL
