MODEL 1
REMARK minimizedAffinity 2.14010715
REMARK minimizedRMSD -1
REMARK  0 active torsions:
REMARK  status: ('A' for Active; 'I' for Inactive)
ROOT
ATOM      1  C   UNL d   1       3.703   0.900  -0.025  0.00  0.00     0.078 C 
ATOM      2  C1  UNL d   1       2.853  -0.329  -0.145  0.00  0.00    -0.077 A 
ATOM      3  C2  UNL d   1       1.456  -0.247  -0.096  0.00  0.00    -0.001 A 
ATOM      4  C3  UNL d   1       0.677  -1.401  -0.200  0.00  0.00     0.003 A 
ATOM      5  C4  UNL d   1       1.286  -2.645  -0.351  0.00  0.00    -0.005 A 
ATOM      6  C5  UNL d   1       2.676  -2.737  -0.398  0.00  0.00     0.003 A 
ATOM      7  C6  UNL d   1       3.456  -1.584  -0.295  0.00  0.00    -0.001 A 
ENDROOT
TORSDOF 0
ENDMDL
