MODEL 1
REMARK minimizedAffinity 0.267267168
REMARK minimizedRMSD -1
REMARK  0 active torsions:
REMARK  status: ('A' for Active; 'I' for Inactive)
ROOT
ATOM      1  C   UNL d   1       2.935  -1.139   0.334  0.00  0.00     0.078 C 
ATOM      2  C1  UNL d   1       1.969  -2.205  -0.091  0.00  0.00    -0.077 A 
ATOM      3  C2  UNL d   1       1.393  -2.189  -1.367  0.00  0.00    -0.001 A 
ATOM      4  C3  UNL d   1       0.488  -3.182  -1.746  0.00  0.00     0.003 A 
ATOM      5  C4  UNL d   1       0.151  -4.198  -0.854  0.00  0.00    -0.005 A 
ATOM      6  C5  UNL d   1       0.718  -4.222   0.419  0.00  0.00     0.003 A 
ATOM      7  C6  UNL d   1       1.623  -3.229   0.799  0.00  0.00    -0.001 A 
ENDROOT
TORSDOF 0
ENDMDL
