MODEL 1
REMARK minimizedAffinity -2.60288119
REMARK minimizedRMSD -1
REMARK  0 active torsions:
REMARK  status: ('A' for Active; 'I' for Inactive)
ROOT
ATOM      1  C   UNL d   1      -3.322   5.978   1.429  0.00  0.00     0.078 C 
ATOM      2  C1  UNL d   1      -3.992   5.977   2.770  0.00  0.00    -0.077 A 
ATOM      3  C2  UNL d   1      -5.388   5.987   2.878  0.00  0.00    -0.001 A 
ATOM      4  C3  UNL d   1      -5.999   5.996   4.133  0.00  0.00     0.003 A 
ATOM      5  C4  UNL d   1      -5.221   5.995   5.290  0.00  0.00    -0.005 A 
ATOM      6  C5  UNL d   1      -3.832   5.987   5.192  0.00  0.00     0.003 A 
ATOM      7  C6  UNL d   1      -3.219   5.978   3.938  0.00  0.00    -0.001 A 
ENDROOT
TORSDOF 0
ENDMDL
