MODEL 1
REMARK minimizedAffinity 2.70398974
REMARK minimizedRMSD -1
REMARK  0 active torsions:
REMARK  status: ('A' for Active; 'I' for Inactive)
ROOT
ATOM      1  C   UNL d   1      -3.110   1.148  -2.161  0.00  0.00     0.078 C 
ATOM      2  C1  UNL d   1      -4.009   0.784  -1.017  0.00  0.00    -0.077 A 
ATOM      3  C2  UNL d   1      -3.735  -0.326  -0.210  0.00  0.00    -0.001 A 
ATOM      4  C3  UNL d   1      -4.586  -0.659   0.846  0.00  0.00     0.003 A 
ATOM      5  C4  UNL d   1      -5.718   0.113   1.102  0.00  0.00    -0.005 A 
ATOM      6  C5  UNL d   1      -6.000   1.218   0.302  0.00  0.00     0.003 A 
ATOM      7  C6  UNL d   1      -5.150   1.553  -0.753  0.00  0.00    -0.001 A 
ENDROOT
TORSDOF 0
ENDMDL
