MODEL 1
REMARK minimizedAffinity -3.45231509
REMARK minimizedRMSD -1
REMARK  0 active torsions:
REMARK  status: ('A' for Active; 'I' for Inactive)
ROOT
ATOM      1  C   UNL d   1       2.178  -0.430  -1.026  0.00  0.00     0.078 C 
ATOM      2  C1  UNL d   1       1.583  -1.806  -1.061  0.00  0.00    -0.077 A 
ATOM      3  C2  UNL d   1       2.340  -2.928  -0.703  0.00  0.00    -0.001 A 
ATOM      4  C3  UNL d   1       1.776  -4.204  -0.749  0.00  0.00     0.003 A 
ATOM      5  C4  UNL d   1       0.453  -4.370  -1.155  0.00  0.00    -0.005 A 
ATOM      6  C5  UNL d   1      -0.307  -3.259  -1.515  0.00  0.00     0.003 A 
ATOM      7  C6  UNL d   1       0.255  -1.983  -1.469  0.00  0.00    -0.001 A 
ENDROOT
TORSDOF 0
ENDMDL
