MODEL 1
REMARK minimizedAffinity -2.88832736
REMARK minimizedRMSD -1
REMARK  0 active torsions:
REMARK  status: ('A' for Active; 'I' for Inactive)
ROOT
ATOM      1  C   UNL d   1      -5.984   2.634   1.891  0.00  0.00     0.078 C 
ATOM      2  C1  UNL d   1      -5.455   1.410   1.204  0.00  0.00    -0.077 A 
ATOM      3  C2  UNL d   1      -4.429   1.502   0.256  0.00  0.00    -0.001 A 
ATOM      4  C3  UNL d   1      -3.954   0.355  -0.382  0.00  0.00     0.003 A 
ATOM      5  C4  UNL d   1      -4.499  -0.891  -0.080  0.00  0.00    -0.005 A 
ATOM      6  C5  UNL d   1      -5.522  -0.992   0.860  0.00  0.00     0.003 A 
ATOM      7  C6  UNL d   1      -5.999   0.153   1.500  0.00  0.00    -0.001 A 
ENDROOT
TORSDOF 0
ENDMDL
