MODEL 1
REMARK minimizedAffinity 4.16990662
REMARK minimizedRMSD -1
REMARK  0 active torsions:
REMARK  status: ('A' for Active; 'I' for Inactive)
ROOT
ATOM      1  C   UNL d   1      -3.390   0.259  -0.549  0.00  0.00     0.172 C 
ATOM      2  N   UNL d   1      -2.500   0.359   0.583  0.00  0.00    -0.070 N 
ATOM      3  C1  UNL d   1      -1.132   0.379   0.523  0.00  0.00    -0.004 A 
ATOM      4  C2  UNL d   1      -0.654   0.484   1.812  0.00  0.00    -0.047 A 
ATOM      5  C3  UNL d   1      -1.774   0.528   2.676  0.00  0.00    -0.047 A 
ATOM      6  C4  UNL d   1      -2.904   0.449   1.889  0.00  0.00    -0.004 A 
ENDROOT
TORSDOF 0
ENDMDL
