MODEL 1
REMARK minimizedAffinity 1.37977397
REMARK minimizedRMSD -1
REMARK  0 active torsions:
REMARK  status: ('A' for Active; 'I' for Inactive)
ROOT
ATOM      1  C   UNL d   1       1.123   0.145   0.233  0.00  0.00     0.172 C 
ATOM      2  N   UNL d   1      -0.299   0.253   0.460  0.00  0.00    -0.070 N 
ATOM      3  C1  UNL d   1      -1.269   0.186  -0.505  0.00  0.00    -0.004 A 
ATOM      4  C2  UNL d   1      -2.491   0.331   0.114  0.00  0.00    -0.047 A 
ATOM      5  C3  UNL d   1      -2.248   0.492   1.499  0.00  0.00    -0.047 A 
ATOM      6  C4  UNL d   1      -0.883   0.440   1.685  0.00  0.00    -0.004 A 
ENDROOT
TORSDOF 0
ENDMDL
