MODEL 1
REMARK minimizedAffinity 7.21177959
REMARK minimizedRMSD -1
REMARK  0 active torsions:
REMARK  status: ('A' for Active; 'I' for Inactive)
ROOT
ATOM      1  C   UNL d   1       3.053   0.787  -2.069  0.00  0.00     0.172 C 
ATOM      2  N   UNL d   1       2.715   0.833  -0.666  0.00  0.00    -0.070 N 
ATOM      3  C1  UNL d   1       1.870  -0.030  -0.020  0.00  0.00    -0.004 A 
ATOM      4  C2  UNL d   1       1.813   0.348   1.304  0.00  0.00    -0.047 A 
ATOM      5  C3  UNL d   1       2.652   1.476   1.459  0.00  0.00    -0.047 A 
ATOM      6  C4  UNL d   1       3.198   1.755   0.224  0.00  0.00    -0.004 A 
ENDROOT
TORSDOF 0
ENDMDL
