MODEL 1
REMARK minimizedAffinity 2.84030056
REMARK minimizedRMSD -1
REMARK  0 active torsions:
REMARK  status: ('A' for Active; 'I' for Inactive)
ROOT
ATOM      1  C   UNL d   1       1.047  -0.126   0.704  0.00  0.00     0.172 C 
ATOM      2  N   UNL d   1      -0.230   0.124   1.330  0.00  0.00    -0.070 N 
ATOM      3  C1  UNL d   1      -0.592  -0.271   2.590  0.00  0.00    -0.004 A 
ATOM      4  C2  UNL d   1      -1.882   0.159   2.813  0.00  0.00    -0.047 A 
ATOM      5  C3  UNL d   1      -2.311   0.836   1.646  0.00  0.00    -0.047 A 
ATOM      6  C4  UNL d   1      -1.268   0.800   0.744  0.00  0.00    -0.004 A 
ENDROOT
TORSDOF 0
ENDMDL
