MODEL 1
REMARK minimizedAffinity 1.61682236
REMARK minimizedRMSD -1
REMARK  0 active torsions:
REMARK  status: ('A' for Active; 'I' for Inactive)
ROOT
ATOM      1  C   UNL d   1       0.117  -1.055   3.641  0.00  0.00     0.172 C 
ATOM      2  N   UNL d   1      -0.660  -0.656   2.491  0.00  0.00    -0.070 N 
ATOM      3  C1  UNL d   1      -1.975  -0.275   2.510  0.00  0.00    -0.004 A 
ATOM      4  C2  UNL d   1      -2.346   0.027   1.217  0.00  0.00    -0.047 A 
ATOM      5  C3  UNL d   1      -1.214  -0.180   0.393  0.00  0.00    -0.047 A 
ATOM      6  C4  UNL d   1      -0.185  -0.603   1.208  0.00  0.00    -0.004 A 
ENDROOT
TORSDOF 0
ENDMDL
