MODEL 1
REMARK minimizedAffinity 2.85749269
REMARK minimizedRMSD -1
REMARK  0 active torsions:
REMARK  status: ('A' for Active; 'I' for Inactive)
ROOT
ATOM      1  C   UNL d   1       1.567   0.827  -4.387  0.00  0.00     0.172 C 
ATOM      2  N   UNL d   1       2.586   0.631  -3.382  0.00  0.00    -0.070 N 
ATOM      3  C1  UNL d   1       2.613   1.223  -2.147  0.00  0.00    -0.004 A 
ATOM      4  C2  UNL d   1       3.742   0.780  -1.492  0.00  0.00    -0.047 A 
ATOM      5  C3  UNL d   1       4.417  -0.108  -2.364  0.00  0.00    -0.047 A 
ATOM      6  C4  UNL d   1       3.679  -0.181  -3.527  0.00  0.00    -0.004 A 
ENDROOT
TORSDOF 0
ENDMDL
