MODEL 1
REMARK minimizedAffinity -2.37669826
REMARK minimizedRMSD -1
REMARK  0 active torsions:
REMARK  status: ('A' for Active; 'I' for Inactive)
ROOT
ATOM      1  C   UNL d   1      -2.093  -0.791   0.044  0.00  0.00     0.172 C 
ATOM      2  N   UNL d   1      -1.382  -0.185   1.145  0.00  0.00    -0.070 N 
ATOM      3  C1  UNL d   1      -0.054   0.147   1.152  0.00  0.00    -0.004 A 
ATOM      4  C2  UNL d   1       0.237   0.699   2.381  0.00  0.00    -0.047 A 
ATOM      5  C3  UNL d   1      -0.958   0.699   3.138  0.00  0.00    -0.047 A 
ATOM      6  C4  UNL d   1      -1.945   0.146   2.349  0.00  0.00    -0.004 A 
ENDROOT
TORSDOF 0
ENDMDL
