MODEL 1
REMARK minimizedAffinity -1.56448948
REMARK minimizedRMSD -1
REMARK  0 active torsions:
REMARK  status: ('A' for Active; 'I' for Inactive)
ROOT
ATOM      1  C   UNL d   1       0.622  -0.871   3.713  0.00  0.00     0.172 C 
ATOM      2  N   UNL d   1      -0.151  -0.349   2.611  0.00  0.00    -0.070 N 
ATOM      3  C1  UNL d   1       0.257  -0.296   1.304  0.00  0.00    -0.004 A 
ATOM      4  C2  UNL d   1      -0.762   0.267   0.567  0.00  0.00    -0.047 A 
ATOM      5  C3  UNL d   1      -1.819   0.562   1.461  0.00  0.00    -0.047 A 
ATOM      6  C4  UNL d   1      -1.414   0.171   2.719  0.00  0.00    -0.004 A 
ENDROOT
TORSDOF 0
ENDMDL
