MODEL 1
REMARK minimizedAffinity 3.74475574
REMARK minimizedRMSD -1
REMARK  0 active torsions:
REMARK  status: ('A' for Active; 'I' for Inactive)
ROOT
ATOM      1  C   UNL d   1       1.154  -1.399   4.298  0.00  0.00     0.172 C 
ATOM      2  N   UNL d   1       0.759  -0.711   3.091  0.00  0.00    -0.070 N 
ATOM      3  C1  UNL d   1      -0.525  -0.394   2.737  0.00  0.00    -0.004 A 
ATOM      4  C2  UNL d   1      -0.480   0.254   1.522  0.00  0.00    -0.047 A 
ATOM      5  C3  UNL d   1       0.878   0.328   1.132  0.00  0.00    -0.047 A 
ATOM      6  C4  UNL d   1       1.624  -0.277   2.121  0.00  0.00    -0.004 A 
ENDROOT
TORSDOF 0
ENDMDL
