MODEL 1
REMARK minimizedAffinity 6.47869968
REMARK minimizedRMSD -1
REMARK  0 active torsions:
REMARK  status: ('A' for Active; 'I' for Inactive)
ROOT
ATOM      1  C   UNL d   1       1.055  -0.141   0.563  0.00  0.00     0.172 C 
ATOM      2  N   UNL d   1      -0.386  -0.072   0.511  0.00  0.00    -0.070 N 
ATOM      3  C1  UNL d   1      -1.197   0.440   1.489  0.00  0.00    -0.004 A 
ATOM      4  C2  UNL d   1      -2.501   0.324   1.059  0.00  0.00    -0.047 A 
ATOM      5  C3  UNL d   1      -2.473  -0.280  -0.220  0.00  0.00    -0.047 A 
ATOM      6  C4  UNL d   1      -1.152  -0.514  -0.535  0.00  0.00    -0.004 A 
ENDROOT
TORSDOF 0
ENDMDL
