MODEL 1
REMARK minimizedAffinity 2.03557301
REMARK minimizedRMSD -1
REMARK  0 active torsions:
REMARK  status: ('A' for Active; 'I' for Inactive)
ROOT
ATOM      1  C   UNL d   1       0.945  -0.070   0.484  0.00  0.00     0.172 C 
ATOM      2  N   UNL d   1      -0.456  -0.228   0.174  0.00  0.00    -0.070 N 
ATOM      3  C1  UNL d   1      -0.964  -0.737  -0.991  0.00  0.00    -0.004 A 
ATOM      4  C2  UNL d   1      -2.339  -0.722  -0.895  0.00  0.00    -0.047 A 
ATOM      5  C3  UNL d   1      -2.669  -0.184   0.372  0.00  0.00    -0.047 A 
ATOM      6  C4  UNL d   1      -1.485   0.113   1.013  0.00  0.00    -0.004 A 
ENDROOT
TORSDOF 0
ENDMDL
