MODEL 1
REMARK minimizedAffinity 1.14095151
REMARK minimizedRMSD -1
REMARK  0 active torsions:
REMARK  status: ('A' for Active; 'I' for Inactive)
ROOT
ATOM      1  C   UNL d   1      -2.043   1.070   1.806  0.00  0.00     0.172 C 
ATOM      2  N   UNL d   1      -1.617   0.186   2.864  0.00  0.00    -0.070 N 
ATOM      3  C1  UNL d   1      -0.318  -0.100   3.191  0.00  0.00    -0.004 A 
ATOM      4  C2  UNL d   1      -0.334  -0.981   4.251  0.00  0.00    -0.047 A 
ATOM      5  C3  UNL d   1      -1.689  -1.234   4.572  0.00  0.00    -0.047 A 
ATOM      6  C4  UNL d   1      -2.462  -0.499   3.698  0.00  0.00    -0.004 A 
ENDROOT
TORSDOF 0
ENDMDL
