MODEL 1
REMARK minimizedAffinity 4.78079224
REMARK minimizedRMSD -1
REMARK  0 active torsions:
REMARK  status: ('A' for Active; 'I' for Inactive)
ROOT
ATOM      1  C   UNL d   1       1.171   0.015   1.167  0.00  0.00     0.172 C 
ATOM      2  N   UNL d   1      -0.127  -0.130   0.552  0.00  0.00    -0.070 N 
ATOM      3  C1  UNL d   1      -0.411  -0.904  -0.542  0.00  0.00    -0.004 A 
ATOM      4  C2  UNL d   1      -1.755  -0.773  -0.815  0.00  0.00    -0.047 A 
ATOM      5  C3  UNL d   1      -2.298   0.111   0.148  0.00  0.00    -0.047 A 
ATOM      6  C4  UNL d   1      -1.269   0.494   0.981  0.00  0.00    -0.004 A 
ENDROOT
TORSDOF 0
ENDMDL
