MODEL 1
REMARK minimizedAffinity 12.5856133
REMARK minimizedRMSD -1
REMARK  1 active torsions:
REMARK  status: ('A' for Active; 'I' for Inactive)
REMARK    1  A    between atoms: C1_2  and  C2_3 
ROOT
ATOM      1  C2  UNL d   1       2.581   1.101  -1.228  0.00  0.00    -0.073 A 
ATOM      2  C3  UNL d   1       2.469   2.033  -0.190  0.00  0.00    -0.002 A 
ATOM      3  C4  UNL d   1       3.498   2.944   0.054  0.00  0.00     0.004 A 
ATOM      4  C5  UNL d   1       4.645   2.937  -0.741  0.00  0.00    -0.004 A 
ATOM      5  C6  UNL d   1       4.770   2.021  -1.790  0.00  0.00    -0.075 A 
ATOM      6  C7  UNL d   1       5.998   1.998  -2.653  0.00  0.00     0.076 C 
ATOM      7  C8  UNL d   1       3.733   1.108  -2.027  0.00  0.00     0.001 A 
ENDROOT
BRANCH   1   8
ATOM      8  C1  UNL d   1       1.470   0.121  -1.499  0.00  0.00     0.053 C 
ATOM      9  C   UNL d   1       0.518  -0.003  -0.319  0.00  0.00     0.018 C 
ENDBRANCH   1   8
TORSDOF 1
ENDMDL
