MODEL 1
REMARK minimizedAffinity 23.947794
REMARK minimizedRMSD -1
REMARK  1 active torsions:
REMARK  status: ('A' for Active; 'I' for Inactive)
REMARK    1  A    between atoms: C1_2  and  C2_3 
ROOT
ATOM      1  C2  UNL d   1       1.479  -0.495  -1.883  0.00  0.00    -0.073 A 
ATOM      2  C3  UNL d   1       0.968  -0.884  -3.126  0.00  0.00    -0.002 A 
ATOM      3  C4  UNL d   1      -0.314  -1.426  -3.223  0.00  0.00     0.004 A 
ATOM      4  C5  UNL d   1      -1.099  -1.579  -2.080  0.00  0.00    -0.004 A 
ATOM      5  C6  UNL d   1      -0.610  -1.186  -0.830  0.00  0.00    -0.075 A 
ATOM      6  C7  UNL d   1      -1.442  -1.346   0.409  0.00  0.00     0.076 C 
ATOM      7  C8  UNL d   1       0.679  -0.645  -0.741  0.00  0.00     0.001 A 
ENDROOT
BRANCH   1   8
ATOM      8  C1  UNL d   1       2.861   0.097  -1.775  0.00  0.00     0.053 C 
ATOM      9  C   UNL d   1       3.856  -0.608  -2.682  0.00  0.00     0.018 C 
ENDBRANCH   1   8
TORSDOF 1
ENDMDL
