MODEL 1
REMARK minimizedAffinity 15.3611927
REMARK minimizedRMSD -1
REMARK  1 active torsions:
REMARK  status: ('A' for Active; 'I' for Inactive)
REMARK    1  A    between atoms: C1_2  and  C2_3 
ROOT
ATOM      1  C2  UNL d   1       4.581   3.485   4.296  0.00  0.00    -0.073 A 
ATOM      2  C3  UNL d   1       5.824   3.971   4.718  0.00  0.00    -0.002 A 
ATOM      3  C4  UNL d   1       5.900   5.101   5.533  0.00  0.00     0.004 A 
ATOM      4  C5  UNL d   1       4.736   5.751   5.941  0.00  0.00    -0.004 A 
ATOM      5  C6  UNL d   1       3.484   5.274   5.540  0.00  0.00    -0.075 A 
ATOM      6  C7  UNL d   1       2.222   5.964   5.968  0.00  0.00     0.076 C 
ATOM      7  C8  UNL d   1       3.416   4.140   4.719  0.00  0.00     0.001 A 
ENDROOT
BRANCH   1   8
ATOM      8  C1  UNL d   1       4.495   2.261   3.421  0.00  0.00     0.053 C 
ATOM      9  C   UNL d   1       5.807   1.495   3.381  0.00  0.00     0.018 C 
ENDBRANCH   1   8
TORSDOF 1
ENDMDL
