MODEL 1
REMARK minimizedAffinity 1.65179777
REMARK minimizedRMSD -1
REMARK  1 active torsions:
REMARK  status: ('A' for Active; 'I' for Inactive)
REMARK    1  A    between atoms: C1_2  and  C2_3 
ROOT
ATOM      1  C2  UNL d   1       3.185   3.021   1.487  0.00  0.00    -0.073 A 
ATOM      2  C3  UNL d   1       2.427   2.096   0.760  0.00  0.00    -0.002 A 
ATOM      3  C4  UNL d   1       2.678   1.890  -0.597  0.00  0.00     0.004 A 
ATOM      4  C5  UNL d   1       3.693   2.600  -1.239  0.00  0.00    -0.004 A 
ATOM      5  C6  UNL d   1       4.469   3.521  -0.527  0.00  0.00    -0.075 A 
ATOM      6  C7  UNL d   1       5.562   4.295  -1.203  0.00  0.00     0.076 C 
ATOM      7  C8  UNL d   1       4.208   3.724   0.835  0.00  0.00     0.001 A 
ENDROOT
BRANCH   1   8
ATOM      8  C1  UNL d   1       2.922   3.242   2.954  0.00  0.00     0.053 C 
ATOM      9  C   UNL d   1       4.204   3.239   3.770  0.00  0.00     0.018 C 
ENDBRANCH   1   8
TORSDOF 1
ENDMDL
