MODEL 1
REMARK minimizedAffinity 16.9117546
REMARK minimizedRMSD -1
REMARK  1 active torsions:
REMARK  status: ('A' for Active; 'I' for Inactive)
REMARK    1  A    between atoms: C1_2  and  C2_3 
ROOT
ATOM      1  C2  UNL d   1      -4.795  -1.592   1.013  0.00  0.00    -0.073 A 
ATOM      2  C3  UNL d   1      -5.128  -0.394   0.372  0.00  0.00    -0.002 A 
ATOM      3  C4  UNL d   1      -4.226   0.213  -0.503  0.00  0.00     0.004 A 
ATOM      4  C5  UNL d   1      -2.985  -0.375  -0.750  0.00  0.00    -0.004 A 
ATOM      5  C6  UNL d   1      -2.638  -1.578  -0.128  0.00  0.00    -0.075 A 
ATOM      6  C7  UNL d   1      -1.307  -2.222  -0.381  0.00  0.00     0.076 C 
ATOM      7  C8  UNL d   1      -3.549  -2.180   0.751  0.00  0.00     0.001 A 
ENDROOT
BRANCH   1   8
ATOM      8  C1  UNL d   1      -5.769  -2.254   1.953  0.00  0.00     0.053 C 
ATOM      9  C   UNL d   1      -6.000  -3.714   1.599  0.00  0.00     0.018 C 
ENDBRANCH   1   8
TORSDOF 1
ENDMDL
