MODEL 1
REMARK minimizedAffinity 13.2715302
REMARK minimizedRMSD -1
REMARK  1 active torsions:
REMARK  status: ('A' for Active; 'I' for Inactive)
REMARK    1  A    between atoms: C1_2  and  C2_3 
ROOT
ATOM      1  C2  UNL d   1      -2.017  -2.405  -1.641  0.00  0.00    -0.073 A 
ATOM      2  C3  UNL d   1      -2.571  -2.239  -0.366  0.00  0.00    -0.002 A 
ATOM      3  C4  UNL d   1      -3.304  -1.092  -0.060  0.00  0.00     0.004 A 
ATOM      4  C5  UNL d   1      -3.497  -0.104  -1.025  0.00  0.00    -0.004 A 
ATOM      5  C6  UNL d   1      -2.962  -0.257  -2.308  0.00  0.00    -0.075 A 
ATOM      6  C7  UNL d   1      -3.158   0.798  -3.358  0.00  0.00     0.076 C 
ATOM      7  C8  UNL d   1      -2.224  -1.411  -2.607  0.00  0.00     0.001 A 
ENDROOT
BRANCH   1   8
ATOM      8  C1  UNL d   1      -1.231  -3.646  -1.978  0.00  0.00     0.053 C 
ATOM      9  C   UNL d   1      -1.939  -4.911  -1.522  0.00  0.00     0.018 C 
ENDBRANCH   1   8
TORSDOF 1
ENDMDL
