MODEL 1
REMARK minimizedAffinity 13.3005915
REMARK minimizedRMSD -1
REMARK  1 active torsions:
REMARK  status: ('A' for Active; 'I' for Inactive)
REMARK    1  A    between atoms: C1_2  and  C2_3 
ROOT
ATOM      1  C2  UNL d   1       4.816   2.772   5.221  0.00  0.00    -0.073 A 
ATOM      2  C3  UNL d   1       5.986   3.520   5.393  0.00  0.00    -0.002 A 
ATOM      3  C4  UNL d   1       5.915   4.870   5.741  0.00  0.00     0.004 A 
ATOM      4  C5  UNL d   1       4.676   5.482   5.927  0.00  0.00    -0.004 A 
ATOM      5  C6  UNL d   1       3.496   4.748   5.772  0.00  0.00    -0.075 A 
ATOM      6  C7  UNL d   1       2.155   5.393   5.967  0.00  0.00     0.076 C 
ATOM      7  C8  UNL d   1       3.575   3.394   5.420  0.00  0.00     0.001 A 
ENDROOT
BRANCH   1   8
ATOM      8  C1  UNL d   1       4.888   1.313   4.852  0.00  0.00     0.053 C 
ATOM      9  C   UNL d   1       4.369   0.417   5.966  0.00  0.00     0.018 C 
ENDBRANCH   1   8
TORSDOF 1
ENDMDL
