MODEL 1
REMARK minimizedAffinity 17.3578281
REMARK minimizedRMSD -1
REMARK  1 active torsions:
REMARK  status: ('A' for Active; 'I' for Inactive)
REMARK    1  A    between atoms: C1_2  and  C2_3 
ROOT
ATOM      1  C2  UNL d   1      -2.033  -2.279   2.556  0.00  0.00    -0.073 A 
ATOM      2  C3  UNL d   1      -1.816  -2.271   3.938  0.00  0.00    -0.002 A 
ATOM      3  C4  UNL d   1      -2.896  -2.291   4.822  0.00  0.00     0.004 A 
ATOM      4  C5  UNL d   1      -4.202  -2.327   4.334  0.00  0.00    -0.004 A 
ATOM      5  C6  UNL d   1      -4.439  -2.347   2.956  0.00  0.00    -0.075 A 
ATOM      6  C7  UNL d   1      -5.838  -2.383   2.414  0.00  0.00     0.076 C 
ATOM      7  C8  UNL d   1      -3.350  -2.324   2.074  0.00  0.00     0.001 A 
ENDROOT
BRANCH   1   8
ATOM      8  C1  UNL d   1      -0.870  -2.263   1.598  0.00  0.00     0.053 C 
ATOM      9  C   UNL d   1      -1.209  -1.544   0.302  0.00  0.00     0.018 C 
ENDBRANCH   1   8
TORSDOF 1
ENDMDL
