MODEL 1
REMARK minimizedAffinity 5.93725586
REMARK minimizedRMSD -1
REMARK  1 active torsions:
REMARK  status: ('A' for Active; 'I' for Inactive)
REMARK    1  A    between atoms: C1_2  and  C2_3 
ROOT
ATOM      1  C2  UNL d   1       4.575   3.138   3.661  0.00  0.00    -0.073 A 
ATOM      2  C3  UNL d   1       3.375   2.851   4.323  0.00  0.00    -0.002 A 
ATOM      3  C4  UNL d   1       3.032   3.537   5.488  0.00  0.00     0.004 A 
ATOM      4  C5  UNL d   1       3.879   4.520   6.000  0.00  0.00    -0.004 A 
ATOM      5  C6  UNL d   1       5.076   4.830   5.346  0.00  0.00    -0.075 A 
ATOM      6  C7  UNL d   1       5.999   5.883   5.885  0.00  0.00     0.076 C 
ATOM      7  C8  UNL d   1       5.415   4.135   4.178  0.00  0.00     0.001 A 
ENDROOT
BRANCH   1   8
ATOM      8  C1  UNL d   1       4.947   2.405   2.398  0.00  0.00     0.053 C 
ATOM      9  C   UNL d   1       4.081   2.822   1.220  0.00  0.00     0.018 C 
ENDBRANCH   1   8
TORSDOF 1
ENDMDL
