MODEL 1
REMARK minimizedAffinity 22.4565582
REMARK minimizedRMSD -1
REMARK  1 active torsions:
REMARK  status: ('A' for Active; 'I' for Inactive)
REMARK    1  A    between atoms: C1_2  and  C2_3 
ROOT
ATOM      1  C2  UNL d   1      -3.043   0.233  -3.007  0.00  0.00    -0.073 A 
ATOM      2  C3  UNL d   1      -3.649   0.439  -1.762  0.00  0.00    -0.002 A 
ATOM      3  C4  UNL d   1      -3.422  -0.450  -0.711  0.00  0.00     0.004 A 
ATOM      4  C5  UNL d   1      -2.583  -1.550  -0.891  0.00  0.00    -0.004 A 
ATOM      5  C6  UNL d   1      -1.959  -1.767  -2.124  0.00  0.00    -0.075 A 
ATOM      6  C7  UNL d   1      -1.055  -2.946  -2.334  0.00  0.00     0.076 C 
ATOM      7  C8  UNL d   1      -2.194  -0.871  -3.175  0.00  0.00     0.001 A 
ENDROOT
BRANCH   1   8
ATOM      8  C1  UNL d   1      -3.280   1.194  -4.143  0.00  0.00     0.053 C 
ATOM      9  C   UNL d   1      -2.971   2.629  -3.748  0.00  0.00     0.018 C 
ENDBRANCH   1   8
TORSDOF 1
ENDMDL
