MODEL 1
REMARK minimizedAffinity 10.5667744
REMARK minimizedRMSD -1
REMARK  1 active torsions:
REMARK  status: ('A' for Active; 'I' for Inactive)
REMARK    1  A    between atoms: C1_2  and  C2_3 
ROOT
ATOM      1  C2  UNL d   1       4.249   3.149   5.808  0.00  0.00    -0.073 A 
ATOM      2  C3  UNL d   1       5.431   3.854   5.555  0.00  0.00    -0.002 A 
ATOM      3  C4  UNL d   1       5.411   5.244   5.440  0.00  0.00     0.004 A 
ATOM      4  C5  UNL d   1       4.213   5.944   5.582  0.00  0.00    -0.004 A 
ATOM      5  C6  UNL d   1       3.023   5.258   5.846  0.00  0.00    -0.075 A 
ATOM      6  C7  UNL d   1       1.725   5.995   6.000  0.00  0.00     0.076 C 
ATOM      7  C8  UNL d   1       3.050   3.861   5.959  0.00  0.00     0.001 A 
ENDROOT
BRANCH   1   8
ATOM      8  C1  UNL d   1       4.266   1.648   5.941  0.00  0.00     0.053 C 
ATOM      9  C   UNL d   1       2.864   1.060   5.956  0.00  0.00     0.018 C 
ENDBRANCH   1   8
TORSDOF 1
ENDMDL
