MODEL 1
REMARK minimizedAffinity 14.2015457
REMARK minimizedRMSD -1
REMARK  1 active torsions:
REMARK  status: ('A' for Active; 'I' for Inactive)
REMARK    1  A    between atoms: C1_2  and  C2_3 
ROOT
ATOM      1  C2  UNL d   1      -1.388  -2.735  -1.328  0.00  0.00    -0.073 A 
ATOM      2  C3  UNL d   1      -0.923  -2.446  -0.040  0.00  0.00    -0.002 A 
ATOM      3  C4  UNL d   1      -1.291  -1.257   0.592  0.00  0.00     0.004 A 
ATOM      4  C5  UNL d   1      -2.130  -0.349  -0.054  0.00  0.00    -0.004 A 
ATOM      5  C6  UNL d   1      -2.615  -0.626  -1.337  0.00  0.00    -0.075 A 
ATOM      6  C7  UNL d   1      -3.517   0.340  -2.046  0.00  0.00     0.076 C 
ATOM      7  C8  UNL d   1      -2.239  -1.821  -1.965  0.00  0.00     0.001 A 
ENDROOT
BRANCH   1   8
ATOM      8  C1  UNL d   1      -0.999  -4.021  -2.011  0.00  0.00     0.053 C 
ATOM      9  C   UNL d   1      -1.199  -5.229  -1.109  0.00  0.00     0.018 C 
ENDBRANCH   1   8
TORSDOF 1
ENDMDL
