MODEL 1
REMARK minimizedAffinity 6.04429102
REMARK minimizedRMSD -1
REMARK  1 active torsions:
REMARK  status: ('A' for Active; 'I' for Inactive)
REMARK    1  A    between atoms: C1_2  and  C2_3 
ROOT
ATOM      1  C2  UNL d   1       3.833   4.713   5.937  0.00  0.00    -0.073 A 
ATOM      2  C3  UNL d   1       5.231   4.767   5.911  0.00  0.00    -0.002 A 
ATOM      3  C4  UNL d   1       5.982   3.591   5.918  0.00  0.00     0.004 A 
ATOM      4  C5  UNL d   1       5.344   2.351   5.943  0.00  0.00    -0.004 A 
ATOM      5  C6  UNL d   1       3.948   2.276   5.957  0.00  0.00    -0.075 A 
ATOM      6  C7  UNL d   1       3.246   0.950   5.987  0.00  0.00     0.076 C 
ATOM      7  C8  UNL d   1       3.201   3.462   5.953  0.00  0.00     0.001 A 
ENDROOT
BRANCH   1   8
ATOM      8  C1  UNL d   1       3.018   5.981   5.923  0.00  0.00     0.053 C 
ATOM      9  C   UNL d   1       1.796   5.862   5.027  0.00  0.00     0.018 C 
ENDBRANCH   1   8
TORSDOF 1
ENDMDL
