MODEL 1
REMARK minimizedAffinity -1.89415002
REMARK minimizedRMSD -1
REMARK  0 active torsions:
REMARK  status: ('A' for Active; 'I' for Inactive)
ROOT
ATOM      1  C1  DEN d   1       0.265  -2.560   3.959  0.00  0.00     0.130 A 
ATOM      2  C2  DEN d   1       1.576  -1.916   3.952  0.00  0.00    -0.031 A 
ATOM      3  C3  DEN d   1       1.511  -0.760   3.036  0.00  0.00     0.027 A 
ATOM      4  C4  DEN d   1      -0.482   0.093   1.638  0.00  0.00     0.027 A 
ATOM      5  C5  DEN d   1      -1.799  -0.135   1.306  0.00  0.00    -0.003 A 
ATOM      6  C6  DEN d   1      -2.505  -1.198   1.804  0.00  0.00     0.001 A 
ATOM      7  C7  DEN d   1      -1.910  -2.048   2.698  0.00  0.00     0.017 A 
ATOM      8  C8  DEN d   1      -0.580  -1.829   3.032  0.00  0.00    -0.094 A 
ATOM      9  C9  DEN d   1       0.113  -0.742   2.527  0.00  0.00    -0.072 A 
ENDROOT
TORSDOF 0
ENDMDL
