MODEL 1
REMARK minimizedAffinity 1.58816576
REMARK minimizedRMSD -1
REMARK  0 active torsions:
REMARK  status: ('A' for Active; 'I' for Inactive)
ROOT
ATOM      1  C1  DEN d   1      -0.872   0.049   1.127  0.00  0.00     0.130 A 
ATOM      2  C2  DEN d   1      -2.074  -0.317   1.871  0.00  0.00    -0.031 A 
ATOM      3  C3  DEN d   1      -1.654  -1.024   3.097  0.00  0.00     0.027 A 
ATOM      4  C4  DEN d   1       0.728  -1.578   3.915  0.00  0.00     0.027 A 
ATOM      5  C5  DEN d   1       2.069  -1.480   3.616  0.00  0.00    -0.003 A 
ATOM      6  C6  DEN d   1       2.519  -0.900   2.460  0.00  0.00     0.001 A 
ATOM      7  C7  DEN d   1       1.621  -0.355   1.580  0.00  0.00     0.017 A 
ATOM      8  C8  DEN d   1       0.267  -0.457   1.871  0.00  0.00    -0.094 A 
ATOM      9  C9  DEN d   1      -0.167  -1.036   3.052  0.00  0.00    -0.072 A 
ENDROOT
TORSDOF 0
ENDMDL
