MODEL 1
REMARK minimizedAffinity 7.04432487
REMARK minimizedRMSD -1
REMARK  0 active torsions:
REMARK  status: ('A' for Active; 'I' for Inactive)
ROOT
ATOM      1  C1  DEN d   1      -1.025  -1.466   2.748  0.00  0.00     0.130 A 
ATOM      2  C2  DEN d   1      -0.876  -0.390   1.771  0.00  0.00    -0.031 A 
ATOM      3  C3  DEN d   1       0.484   0.167   1.909  0.00  0.00     0.027 A 
ATOM      4  C4  DEN d   1       2.367  -0.530   3.529  0.00  0.00     0.027 A 
ATOM      5  C5  DEN d   1       2.707  -1.387   4.553  0.00  0.00    -0.003 A 
ATOM      6  C6  DEN d   1       1.823  -2.299   5.065  0.00  0.00     0.001 A 
ATOM      7  C7  DEN d   1       0.569  -2.407   4.525  0.00  0.00     0.017 A 
ATOM      8  C8  DEN d   1       0.216  -1.542   3.497  0.00  0.00    -0.094 A 
ATOM      9  C9  DEN d   1       1.128  -0.635   2.984  0.00  0.00    -0.072 A 
ENDROOT
TORSDOF 0
ENDMDL
