MODEL 1
REMARK minimizedAffinity 0.475812197
REMARK minimizedRMSD -1
REMARK  0 active torsions:
REMARK  status: ('A' for Active; 'I' for Inactive)
ROOT
ATOM      1  C1  DEN d   1      -2.242  -1.926   4.177  0.00  0.00     0.130 A 
ATOM      2  C2  DEN d   1      -2.974  -1.305   3.076  0.00  0.00    -0.031 A 
ATOM      3  C3  DEN d   1      -1.990  -0.674   2.173  0.00  0.00     0.027 A 
ATOM      4  C4  DEN d   1       0.581  -0.603   2.368  0.00  0.00     0.027 A 
ATOM      5  C5  DEN d   1       1.659  -0.981   3.138  0.00  0.00    -0.003 A 
ATOM      6  C6  DEN d   1       1.511  -1.665   4.315  0.00  0.00     0.001 A 
ATOM      7  C7  DEN d   1       0.260  -2.032   4.735  0.00  0.00     0.017 A 
ATOM      8  C8  DEN d   1      -0.832  -1.648   3.968  0.00  0.00    -0.094 A 
ATOM      9  C9  DEN d   1      -0.662  -0.968   2.775  0.00  0.00    -0.072 A 
ENDROOT
TORSDOF 0
ENDMDL
