MODEL 1
REMARK minimizedAffinity 2.03259063
REMARK minimizedRMSD -1
REMARK  0 active torsions:
REMARK  status: ('A' for Active; 'I' for Inactive)
ROOT
ATOM      1  C1  DEN d   1      -2.054  -1.116   2.417  0.00  0.00     0.130 A 
ATOM      2  C2  DEN d   1      -2.778  -1.809   3.480  0.00  0.00    -0.031 A 
ATOM      3  C3  DEN d   1      -1.795  -2.240   4.495  0.00  0.00     0.027 A 
ATOM      4  C4  DEN d   1       0.761  -1.899   4.526  0.00  0.00     0.027 A 
ATOM      5  C5  DEN d   1       1.833  -1.378   3.835  0.00  0.00    -0.003 A 
ATOM      6  C6  DEN d   1       1.689  -0.768   2.617  0.00  0.00     0.001 A 
ATOM      7  C7  DEN d   1       0.440  -0.624   2.073  0.00  0.00     0.017 A 
ATOM      8  C8  DEN d   1      -0.644  -1.153   2.760  0.00  0.00    -0.094 A 
ATOM      9  C9  DEN d   1      -0.480  -1.755   3.996  0.00  0.00    -0.072 A 
ENDROOT
TORSDOF 0
ENDMDL
