MODEL 1
REMARK minimizedAffinity 3.1476655
REMARK minimizedRMSD -1
REMARK  0 active torsions:
REMARK  status: ('A' for Active; 'I' for Inactive)
ROOT
ATOM      1  C1  DEN d   1       1.772  -4.557  -2.522  0.00  0.00     0.130 A 
ATOM      2  C2  DEN d   1       0.593  -4.179  -1.748  0.00  0.00    -0.031 A 
ATOM      3  C3  DEN d   1      -0.603  -4.491  -2.556  0.00  0.00     0.027 A 
ATOM      4  C4  DEN d   1      -0.744  -5.522  -4.915  0.00  0.00     0.027 A 
ATOM      5  C5  DEN d   1      -0.008  -6.000  -5.977  0.00  0.00    -0.003 A 
ATOM      6  C6  DEN d   1       1.362  -5.998  -5.976  0.00  0.00     0.001 A 
ATOM      7  C7  DEN d   1       2.039  -5.551  -4.872  0.00  0.00     0.017 A 
ATOM      8  C8  DEN d   1       1.304  -5.062  -3.801  0.00  0.00    -0.094 A 
ATOM      9  C9  DEN d   1      -0.080  -5.083  -3.816  0.00  0.00    -0.072 A 
ENDROOT
TORSDOF 0
ENDMDL
