MODEL 1
REMARK minimizedAffinity 7.58641434
REMARK minimizedRMSD -1
REMARK  0 active torsions:
REMARK  status: ('A' for Active; 'I' for Inactive)
ROOT
ATOM      1  C1  DEN d   1      -2.939  -4.955  -1.259  0.00  0.00     0.130 A 
ATOM      2  C2  DEN d   1      -3.756  -6.000  -1.870  0.00  0.00    -0.031 A 
ATOM      3  C3  DEN d   1      -4.903  -5.351  -2.537  0.00  0.00     0.027 A 
ATOM      4  C4  DEN d   1      -5.487  -2.843  -2.686  0.00  0.00     0.027 A 
ATOM      5  C5  DEN d   1      -5.097  -1.576  -2.312  0.00  0.00    -0.003 A 
ATOM      6  C6  DEN d   1      -3.989  -1.351  -1.540  0.00  0.00     0.001 A 
ATOM      7  C7  DEN d   1      -3.205  -2.406  -1.153  0.00  0.00     0.017 A 
ATOM      8  C8  DEN d   1      -3.596  -3.687  -1.519  0.00  0.00    -0.094 A 
ATOM      9  C9  DEN d   1      -4.713  -3.893  -2.311  0.00  0.00    -0.072 A 
ENDROOT
TORSDOF 0
ENDMDL
