MODEL 1
REMARK minimizedAffinity -5.77149105
REMARK minimizedRMSD -1
REMARK  1 active torsions:
REMARK  status: ('A' for Active; 'I' for Inactive)
REMARK    1  A    between atoms: C1_2  and  C2_3 
ROOT
ATOM      1  C2  UNL d   1      -0.328   0.722   0.316  0.00  0.00    -0.077 A 
ATOM      2  C3  UNL d   1       0.592   0.484   1.347  0.00  0.00     0.002 A 
ATOM      3  C4  UNL d   1       0.278   0.819   2.665  0.00  0.00     0.002 A 
ATOM      4  C5  UNL d   1      -0.956   1.391   2.966  0.00  0.00    -0.004 A 
ATOM      5  C6  UNL d   1      -1.877   1.634   1.948  0.00  0.00     0.002 A 
ATOM      6  C7  UNL d   1      -1.565   1.300   0.629  0.00  0.00     0.002 A 
ENDROOT
BRANCH   1   7
ATOM      7  C1  UNL d   1      -0.011   0.316  -1.099  0.00  0.00     0.055 C 
ATOM      8  C   UNL d   1       0.428   1.511  -1.933  0.00  0.00     0.019 C 
ENDBRANCH   1   7
TORSDOF 1
ENDMDL
