MODEL 1
REMARK minimizedAffinity -4.85515356
REMARK minimizedRMSD -1
REMARK  1 active torsions:
REMARK  status: ('A' for Active; 'I' for Inactive)
REMARK    1  A    between atoms: C1_2  and  C2_3 
ROOT
ATOM      1  C2  UNL d   1       0.346   1.079  -1.664  0.00  0.00    -0.077 A 
ATOM      2  C3  UNL d   1       0.767  -0.232  -1.404  0.00  0.00     0.002 A 
ATOM      3  C4  UNL d   1       0.075  -1.029  -0.490  0.00  0.00     0.002 A 
ATOM      4  C5  UNL d   1      -1.045  -0.524   0.169  0.00  0.00    -0.004 A 
ATOM      5  C6  UNL d   1      -1.470   0.780  -0.081  0.00  0.00     0.002 A 
ATOM      6  C7  UNL d   1      -0.779   1.578  -0.994  0.00  0.00     0.002 A 
ENDROOT
BRANCH   1   7
ATOM      7  C1  UNL d   1       1.062   1.923  -2.686  0.00  0.00     0.055 C 
ATOM      8  C   UNL d   1       1.199   1.188  -4.012  0.00  0.00     0.019 C 
ENDBRANCH   1   7
TORSDOF 1
ENDMDL
