MODEL 1
REMARK minimizedAffinity -3.97297859
REMARK minimizedRMSD -1
REMARK  1 active torsions:
REMARK  status: ('A' for Active; 'I' for Inactive)
REMARK    1  A    between atoms: C1_2  and  C2_3 
ROOT
ATOM      1  C2  UNL d   1       0.594   0.135  -1.679  0.00  0.00    -0.077 A 
ATOM      2  C3  UNL d   1       0.326  -1.124  -1.124  0.00  0.00     0.002 A 
ATOM      3  C4  UNL d   1      -0.603  -1.257  -0.090  0.00  0.00     0.002 A 
ATOM      4  C5  UNL d   1      -1.274  -0.136   0.395  0.00  0.00    -0.004 A 
ATOM      5  C6  UNL d   1      -1.013   1.121  -0.150  0.00  0.00     0.002 A 
ATOM      6  C7  UNL d   1      -0.084   1.256  -1.182  0.00  0.00     0.002 A 
ENDROOT
BRANCH   1   7
ATOM      7  C1  UNL d   1       1.558   0.273  -2.828  0.00  0.00     0.055 C 
ATOM      8  C   UNL d   1       0.830   0.282  -4.164  0.00  0.00     0.019 C 
ENDBRANCH   1   7
TORSDOF 1
ENDMDL
