MODEL 1
REMARK minimizedAffinity -3.54325652
REMARK minimizedRMSD -1
REMARK  1 active torsions:
REMARK  status: ('A' for Active; 'I' for Inactive)
REMARK    1  A    between atoms: C1_2  and  C2_3 
ROOT
ATOM      1  C2  UNL d   1      -0.789   0.624   0.149  0.00  0.00    -0.077 A 
ATOM      2  C3  UNL d   1      -0.372  -0.657  -0.240  0.00  0.00     0.002 A 
ATOM      3  C4  UNL d   1       0.163  -0.869  -1.513  0.00  0.00     0.002 A 
ATOM      4  C5  UNL d   1       0.290   0.196  -2.403  0.00  0.00    -0.004 A 
ATOM      5  C6  UNL d   1      -0.124   1.472  -2.025  0.00  0.00     0.002 A 
ATOM      6  C7  UNL d   1      -0.660   1.686  -0.755  0.00  0.00     0.002 A 
ENDROOT
BRANCH   1   7
ATOM      7  C1  UNL d   1      -1.320   0.864   1.538  0.00  0.00     0.055 C 
ATOM      8  C   UNL d   1      -2.070  -0.353   2.062  0.00  0.00     0.019 C 
ENDBRANCH   1   7
TORSDOF 1
ENDMDL
