MODEL 1
REMARK minimizedAffinity -3.40001154
REMARK minimizedRMSD -1
REMARK  1 active torsions:
REMARK  status: ('A' for Active; 'I' for Inactive)
REMARK    1  A    between atoms: C1_2  and  C2_3 
ROOT
ATOM      1  C2  UNL d   1      -0.029  -0.024   0.082  0.00  0.00    -0.077 A 
ATOM      2  C3  UNL d   1      -1.275   0.354   0.601  0.00  0.00     0.002 A 
ATOM      3  C4  UNL d   1      -1.467   0.445   1.981  0.00  0.00     0.002 A 
ATOM      4  C5  UNL d   1      -0.416   0.165   2.852  0.00  0.00    -0.004 A 
ATOM      5  C6  UNL d   1       0.826  -0.214   2.346  0.00  0.00     0.002 A 
ATOM      6  C7  UNL d   1       1.020  -0.307   0.967  0.00  0.00     0.002 A 
ENDROOT
BRANCH   1   7
ATOM      7  C1  UNL d   1       0.194  -0.076  -1.407  0.00  0.00     0.055 C 
ATOM      8  C   UNL d   1       1.548   0.508  -1.784  0.00  0.00     0.019 C 
ENDBRANCH   1   7
TORSDOF 1
ENDMDL
