MODEL 1
REMARK minimizedAffinity -2.73233938
REMARK minimizedRMSD -1
REMARK  1 active torsions:
REMARK  status: ('A' for Active; 'I' for Inactive)
REMARK    1  A    between atoms: C1_2  and  C2_3 
ROOT
ATOM      1  C2  UNL d   1      -0.781   0.057   0.722  0.00  0.00    -0.077 A 
ATOM      2  C3  UNL d   1       0.281  -0.101   1.623  0.00  0.00     0.002 A 
ATOM      3  C4  UNL d   1       1.397  -0.863   1.273  0.00  0.00     0.002 A 
ATOM      4  C5  UNL d   1       1.464  -1.469   0.019  0.00  0.00    -0.004 A 
ATOM      5  C6  UNL d   1       0.412  -1.319  -0.883  0.00  0.00     0.002 A 
ATOM      6  C7  UNL d   1      -0.705  -0.559  -0.534  0.00  0.00     0.002 A 
ENDROOT
BRANCH   1   7
ATOM      7  C1  UNL d   1      -1.964   0.919   1.080  0.00  0.00     0.055 C 
ATOM      8  C   UNL d   1      -1.868   1.423   2.513  0.00  0.00     0.019 C 
ENDBRANCH   1   7
TORSDOF 1
ENDMDL
