MODEL 1
REMARK minimizedAffinity -2.14826989
REMARK minimizedRMSD -1
REMARK  1 active torsions:
REMARK  status: ('A' for Active; 'I' for Inactive)
REMARK    1  A    between atoms: C1_2  and  C2_3 
ROOT
ATOM      1  C2  UNL d   1       1.034   0.232  -1.955  0.00  0.00    -0.077 A 
ATOM      2  C3  UNL d   1       0.560  -1.045  -1.624  0.00  0.00     0.002 A 
ATOM      3  C4  UNL d   1      -0.309  -1.217  -0.544  0.00  0.00     0.002 A 
ATOM      4  C5  UNL d   1      -0.714  -0.118   0.210  0.00  0.00    -0.004 A 
ATOM      5  C6  UNL d   1      -0.246   1.156  -0.111  0.00  0.00     0.002 A 
ATOM      6  C7  UNL d   1       0.623   1.330  -1.189  0.00  0.00     0.002 A 
ENDROOT
BRANCH   1   7
ATOM      7  C1  UNL d   1       1.931   0.427  -3.149  0.00  0.00     0.055 C 
ATOM      8  C   UNL d   1       1.148   0.340  -4.451  0.00  0.00     0.019 C 
ENDBRANCH   1   7
TORSDOF 1
ENDMDL
