MODEL 1
REMARK minimizedAffinity 3.99860096
REMARK minimizedRMSD -1
REMARK  0 active torsions:
REMARK  status: ('A' for Active; 'I' for Inactive)
ROOT
ATOM      1  C   UNL d   1       3.691  -2.183  -5.997  0.00  0.00     0.172 C 
ATOM      2  N   UNL d   1       4.369  -0.908  -5.998  0.00  0.00    -0.070 N 
ATOM      3  C1  UNL d   1       3.763   0.320  -5.997  0.00  0.00    -0.004 A 
ATOM      4  C2  UNL d   1       4.752   1.279  -5.997  0.00  0.00    -0.047 A 
ATOM      5  C3  UNL d   1       5.996   0.605  -5.999  0.00  0.00    -0.047 A 
ATOM      6  C4  UNL d   1       5.730  -0.748  -6.000  0.00  0.00    -0.004 A 
ENDROOT
TORSDOF 0
ENDMDL
