MODEL 1
REMARK minimizedAffinity 0.937148452
REMARK minimizedRMSD -1
REMARK  0 active torsions:
REMARK  status: ('A' for Active; 'I' for Inactive)
ROOT
ATOM      1  C   UNL d   1       3.924  -5.971  -1.250  0.00  0.00     0.172 C 
ATOM      2  N   UNL d   1       3.468  -5.982  -2.620  0.00  0.00    -0.070 N 
ATOM      3  C1  UNL d   1       4.272  -5.989  -3.729  0.00  0.00    -0.004 A 
ATOM      4  C2  UNL d   1       3.457  -6.000  -4.840  0.00  0.00    -0.047 A 
ATOM      5  C3  UNL d   1       2.118  -5.998  -4.384  0.00  0.00    -0.047 A 
ATOM      6  C4  UNL d   1       2.154  -5.987  -3.005  0.00  0.00    -0.004 A 
ENDROOT
TORSDOF 0
ENDMDL
