MODEL 1
REMARK minimizedAffinity -2.30028415
REMARK minimizedRMSD -1
REMARK  0 active torsions:
REMARK  status: ('A' for Active; 'I' for Inactive)
ROOT
ATOM      1  C   UNL d   1       2.362  -5.862  -5.804  0.00  0.00     0.172 C 
ATOM      2  N   UNL d   1       3.339  -5.896  -4.742  0.00  0.00    -0.070 N 
ATOM      3  C1  UNL d   1       3.062  -5.999  -3.405  0.00  0.00    -0.004 A 
ATOM      4  C2  UNL d   1       4.261  -5.999  -2.725  0.00  0.00    -0.047 A 
ATOM      5  C3  UNL d   1       5.294  -5.892  -3.686  0.00  0.00    -0.047 A 
ATOM      6  C4  UNL d   1       4.695  -5.830  -4.927  0.00  0.00    -0.004 A 
ENDROOT
TORSDOF 0
ENDMDL
