MODEL 1
REMARK minimizedAffinity -1.5922085
REMARK minimizedRMSD -1
REMARK  0 active torsions:
REMARK  status: ('A' for Active; 'I' for Inactive)
ROOT
ATOM      1  C   UNL d   1       3.434  -5.990  -0.571  0.00  0.00     0.172 C 
ATOM      2  N   UNL d   1       3.389  -5.982  -2.014  0.00  0.00    -0.070 N 
ATOM      3  C1  UNL d   1       4.476  -5.975  -2.846  0.00  0.00    -0.004 A 
ATOM      4  C2  UNL d   1       4.014  -5.970  -4.145  0.00  0.00    -0.047 A 
ATOM      5  C3  UNL d   1       2.600  -5.974  -4.090  0.00  0.00    -0.047 A 
ATOM      6  C4  UNL d   1       2.240  -5.982  -2.759  0.00  0.00    -0.004 A 
ENDROOT
TORSDOF 0
ENDMDL
