MODEL 1
REMARK minimizedAffinity -0.800103605
REMARK minimizedRMSD -1
REMARK  0 active torsions:
REMARK  status: ('A' for Active; 'I' for Inactive)
ROOT
ATOM      1  C   UNL d   1       2.618  -0.344   2.282  0.00  0.00     0.172 C 
ATOM      2  N   UNL d   1       2.277  -1.542   3.013  0.00  0.00    -0.070 N 
ATOM      3  C1  UNL d   1       2.863  -1.961   4.177  0.00  0.00    -0.004 A 
ATOM      4  C2  UNL d   1       2.259  -3.141   4.553  0.00  0.00    -0.047 A 
ATOM      5  C3  UNL d   1       1.276  -3.442   3.581  0.00  0.00    -0.047 A 
ATOM      6  C4  UNL d   1       1.308  -2.435   2.639  0.00  0.00    -0.004 A 
ENDROOT
TORSDOF 0
ENDMDL
