MODEL 1
REMARK minimizedAffinity 1.47071302
REMARK minimizedRMSD -1
REMARK  0 active torsions:
REMARK  status: ('A' for Active; 'I' for Inactive)
ROOT
ATOM      1  C   UNL d   1       2.623  -5.697   1.415  0.00  0.00     0.172 C 
ATOM      2  N   UNL d   1       3.466  -5.773   0.246  0.00  0.00    -0.070 N 
ATOM      3  C1  UNL d   1       4.817  -6.000   0.249  0.00  0.00    -0.004 A 
ATOM      4  C2  UNL d   1       5.248  -5.999  -1.060  0.00  0.00    -0.047 A 
ATOM      5  C3  UNL d   1       4.117  -5.762  -1.878  0.00  0.00    -0.047 A 
ATOM      6  C4  UNL d   1       3.028  -5.626  -1.044  0.00  0.00    -0.004 A 
ENDROOT
TORSDOF 0
ENDMDL
