MODEL 1
REMARK minimizedAffinity 2.05092049
REMARK minimizedRMSD -1
REMARK  0 active torsions:
REMARK  status: ('A' for Active; 'I' for Inactive)
ROOT
ATOM      1  C   UNL d   1       1.896  -5.998  -5.291  0.00  0.00     0.172 C 
ATOM      2  N   UNL d   1       2.885  -5.993  -4.240  0.00  0.00    -0.070 N 
ATOM      3  C1  UNL d   1       4.243  -5.995  -4.422  0.00  0.00    -0.004 A 
ATOM      4  C2  UNL d   1       4.835  -5.987  -3.177  0.00  0.00    -0.047 A 
ATOM      5  C3  UNL d   1       3.798  -5.981  -2.215  0.00  0.00    -0.047 A 
ATOM      6  C4  UNL d   1       2.601  -5.984  -2.900  0.00  0.00    -0.004 A 
ENDROOT
TORSDOF 0
ENDMDL
