MODEL 1
REMARK minimizedAffinity 4.51130342
REMARK minimizedRMSD -1
REMARK  0 active torsions:
REMARK  status: ('A' for Active; 'I' for Inactive)
ROOT
ATOM      1  C   UNL d   1       1.952  -1.149   2.533  0.00  0.00     0.172 C 
ATOM      2  N   UNL d   1       2.035  -2.473   3.105  0.00  0.00    -0.070 N 
ATOM      3  C1  UNL d   1       3.098  -2.973   3.809  0.00  0.00    -0.004 A 
ATOM      4  C2  UNL d   1       2.787  -4.263   4.182  0.00  0.00    -0.047 A 
ATOM      5  C3  UNL d   1       1.494  -4.548   3.683  0.00  0.00    -0.047 A 
ATOM      6  C4  UNL d   1       1.052  -3.423   3.021  0.00  0.00    -0.004 A 
ENDROOT
TORSDOF 0
ENDMDL
