MODEL 1
REMARK minimizedAffinity 1.99095953
REMARK minimizedRMSD -1
REMARK  0 active torsions:
REMARK  status: ('A' for Active; 'I' for Inactive)
ROOT
ATOM      1  C   UNL d   1       2.586   1.115   1.900  0.00  0.00     0.172 C 
ATOM      2  N   UNL d   1       2.252  -0.268   2.149  0.00  0.00    -0.070 N 
ATOM      3  C1  UNL d   1       3.052  -1.181   2.781  0.00  0.00    -0.004 A 
ATOM      4  C2  UNL d   1       2.375  -2.380   2.820  0.00  0.00    -0.047 A 
ATOM      5  C3  UNL d   1       1.125  -2.182   2.188  0.00  0.00    -0.047 A 
ATOM      6  C4  UNL d   1       1.075  -0.865   1.782  0.00  0.00    -0.004 A 
ENDROOT
TORSDOF 0
ENDMDL
