MODEL 1
REMARK minimizedAffinity 8.3817215
REMARK minimizedRMSD -1
REMARK  0 active torsions:
REMARK  status: ('A' for Active; 'I' for Inactive)
ROOT
ATOM      1  C1  DEN d   1       3.567   0.221  -1.782  0.00  0.00     0.130 A 
ATOM      2  C2  DEN d   1       4.149   0.979  -0.678  0.00  0.00    -0.031 A 
ATOM      3  C3  DEN d   1       3.885   0.240   0.573  0.00  0.00     0.027 A 
ATOM      4  C4  DEN d   1       2.640  -1.995   0.906  0.00  0.00     0.027 A 
ATOM      5  C5  DEN d   1       1.958  -3.006   0.265  0.00  0.00    -0.003 A 
ATOM      6  C6  DEN d   1       1.737  -2.995  -1.086  0.00  0.00     0.001 A 
ATOM      7  C7  DEN d   1       2.242  -1.975  -1.849  0.00  0.00     0.017 A 
ATOM      8  C8  DEN d   1       2.924  -0.948  -1.210  0.00  0.00    -0.094 A 
ATOM      9  C9  DEN d   1       3.147  -0.983   0.156  0.00  0.00    -0.072 A 
ENDROOT
TORSDOF 0
ENDMDL
