MODEL 1
REMARK minimizedAffinity 8.23625374
REMARK minimizedRMSD -1
REMARK  0 active torsions:
REMARK  status: ('A' for Active; 'I' for Inactive)
ROOT
ATOM      1  C1  DEN d   1       4.758   0.217  -1.879  0.00  0.00     0.130 A 
ATOM      2  C2  DEN d   1       4.308   0.837  -0.636  0.00  0.00    -0.031 A 
ATOM      3  C3  DEN d   1       3.293  -0.046  -0.027  0.00  0.00     0.027 A 
ATOM      4  C4  DEN d   1       2.384  -2.304  -0.881  0.00  0.00     0.027 A 
ATOM      5  C5  DEN d   1       2.456  -3.231  -1.897  0.00  0.00    -0.003 A 
ATOM      6  C6  DEN d   1       3.268  -3.059  -2.986  0.00  0.00     0.001 A 
ATOM      7  C7  DEN d   1       4.076  -1.955  -3.063  0.00  0.00     0.017 A 
ATOM      8  C8  DEN d   1       4.004  -1.012  -2.046  0.00  0.00    -0.094 A 
ATOM      9  C9  DEN d   1       3.185  -1.210  -0.947  0.00  0.00    -0.072 A 
ENDROOT
TORSDOF 0
ENDMDL
