MODEL 1
REMARK minimizedAffinity 1.72137308
REMARK minimizedRMSD -1
REMARK  0 active torsions:
REMARK  status: ('A' for Active; 'I' for Inactive)
ROOT
ATOM      1  C1  DEN d   1       4.118   1.172  -1.578  0.00  0.00     0.130 A 
ATOM      2  C2  DEN d   1       4.449   0.033  -0.727  0.00  0.00    -0.031 A 
ATOM      3  C3  DEN d   1       5.247   0.530   0.412  0.00  0.00     0.027 A 
ATOM      4  C4  DEN d   1       5.994   2.942   0.939  0.00  0.00     0.027 A 
ATOM      5  C5  DEN d   1       5.963   4.247   0.502  0.00  0.00    -0.003 A 
ATOM      6  C6  DEN d   1       5.349   4.612  -0.667  0.00  0.00     0.001 A 
ATOM      7  C7  DEN d   1       4.702   3.666  -1.417  0.00  0.00     0.017 A 
ATOM      8  C8  DEN d   1       4.735   2.346  -0.986  0.00  0.00    -0.094 A 
ATOM      9  C9  DEN d   1       5.350   2.000   0.205  0.00  0.00    -0.072 A 
ENDROOT
TORSDOF 0
ENDMDL
