MODEL 1
REMARK minimizedAffinity 19.8014088
REMARK minimizedRMSD -1
REMARK  0 active torsions:
REMARK  status: ('A' for Active; 'I' for Inactive)
ROOT
ATOM      1  C1  DEN d   1       1.609  -2.776  -2.424  0.00  0.00     0.130 A 
ATOM      2  C2  DEN d   1       2.410  -2.985  -1.221  0.00  0.00    -0.031 A 
ATOM      3  C3  DEN d   1       1.799  -4.089  -0.453  0.00  0.00     0.027 A 
ATOM      4  C4  DEN d   1      -0.295  -5.488  -1.008  0.00  0.00     0.027 A 
ATOM      5  C5  DEN d   1      -1.314  -5.671  -1.916  0.00  0.00    -0.003 A 
ATOM      6  C6  DEN d   1      -1.449  -4.886  -3.031  0.00  0.00     0.001 A 
ATOM      7  C7  DEN d   1      -0.523  -3.910  -3.290  0.00  0.00     0.017 A 
ATOM      8  C8  DEN d   1       0.503  -3.714  -2.375  0.00  0.00    -0.094 A 
ATOM      9  C9  DEN d   1       0.629  -4.526  -1.260  0.00  0.00    -0.072 A 
ENDROOT
TORSDOF 0
ENDMDL
