MODEL 1
REMARK minimizedAffinity 9.23316765
REMARK minimizedRMSD -1
REMARK  0 active torsions:
REMARK  status: ('A' for Active; 'I' for Inactive)
ROOT
ATOM      1  C1  DEN d   1       2.574  -1.048  -1.490  0.00  0.00     0.130 A 
ATOM      2  C2  DEN d   1       2.663  -2.311  -0.763  0.00  0.00    -0.031 A 
ATOM      3  C3  DEN d   1       3.886  -2.278   0.063  0.00  0.00     0.027 A 
ATOM      4  C4  DEN d   1       5.640  -0.401   0.290  0.00  0.00     0.027 A 
ATOM      5  C5  DEN d   1       6.000   0.857  -0.139  0.00  0.00    -0.003 A 
ATOM      6  C6  DEN d   1       5.267   1.549  -1.067  0.00  0.00     0.001 A 
ATOM      7  C7  DEN d   1       4.111   1.005  -1.562  0.00  0.00     0.017 A 
ATOM      8  C8  DEN d   1       3.746  -0.266  -1.139  0.00  0.00    -0.094 A 
ATOM      9  C9  DEN d   1       4.494  -0.944  -0.192  0.00  0.00    -0.072 A 
ENDROOT
TORSDOF 0
ENDMDL
