MODEL 1
REMARK minimizedAffinity 8.12954617
REMARK minimizedRMSD -1
REMARK  0 active torsions:
REMARK  status: ('A' for Active; 'I' for Inactive)
ROOT
ATOM      1  C1  DEN d   1       3.301  -1.382  -0.049  0.00  0.00     0.130 A 
ATOM      2  C2  DEN d   1       3.011  -2.092  -1.292  0.00  0.00    -0.031 A 
ATOM      3  C3  DEN d   1       3.677  -1.371  -2.395  0.00  0.00     0.027 A 
ATOM      4  C4  DEN d   1       5.127   0.760  -2.300  0.00  0.00     0.027 A 
ATOM      5  C5  DEN d   1       5.646   1.728  -1.469  0.00  0.00    -0.003 A 
ATOM      6  C6  DEN d   1       5.394   1.747  -0.123  0.00  0.00     0.001 A 
ATOM      7  C7  DEN d   1       4.638   0.753   0.440  0.00  0.00     0.017 A 
ATOM      8  C8  DEN d   1       4.105  -0.223  -0.392  0.00  0.00    -0.094 A 
ATOM      9  C9  DEN d   1       4.382  -0.232  -1.749  0.00  0.00    -0.072 A 
ENDROOT
TORSDOF 0
ENDMDL
