MODEL 1
REMARK minimizedAffinity 6.67489815
REMARK minimizedRMSD -1
REMARK  0 active torsions:
REMARK  status: ('A' for Active; 'I' for Inactive)
ROOT
ATOM      1  C1  DEN d   1       4.858   0.564  -2.085  0.00  0.00     0.130 A 
ATOM      2  C2  DEN d   1       4.665   1.224  -0.797  0.00  0.00    -0.031 A 
ATOM      3  C3  DEN d   1       3.806   0.358   0.035  0.00  0.00     0.027 A 
ATOM      4  C4  DEN d   1       2.766  -1.931  -0.541  0.00  0.00     0.027 A 
ATOM      5  C5  DEN d   1       2.638  -2.891  -1.520  0.00  0.00    -0.003 A 
ATOM      6  C6  DEN d   1       3.209  -2.753  -2.758  0.00  0.00     0.001 A 
ATOM      7  C7  DEN d   1       3.972  -1.649  -3.034  0.00  0.00     0.017 A 
ATOM      8  C8  DEN d   1       4.099  -0.673  -2.054  0.00  0.00    -0.094 A 
ATOM      9  C9  DEN d   1       3.524  -0.837  -0.805  0.00  0.00    -0.072 A 
ENDROOT
TORSDOF 0
ENDMDL
