MODEL 1
REMARK minimizedAffinity 12.5921307
REMARK minimizedRMSD -1
REMARK  0 active torsions:
REMARK  status: ('A' for Active; 'I' for Inactive)
ROOT
ATOM      1  C1  DEN d   1      -0.082   4.991   2.150  0.00  0.00     0.130 A 
ATOM      2  C2  DEN d   1       1.139   4.998   2.950  0.00  0.00    -0.031 A 
ATOM      3  C3  DEN d   1       1.588   3.601   3.110  0.00  0.00     0.027 A 
ATOM      4  C4  DEN d   1       0.520   1.438   2.196  0.00  0.00     0.027 A 
ATOM      5  C5  DEN d   1      -0.533   0.926   1.471  0.00  0.00    -0.003 A 
ATOM      6  C6  DEN d   1      -1.520   1.724   0.954  0.00  0.00     0.001 A 
ATOM      7  C7  DEN d   1      -1.450   3.082   1.117  0.00  0.00     0.017 A 
ATOM      8  C8  DEN d   1      -0.395   3.605   1.853  0.00  0.00    -0.094 A 
ATOM      9  C9  DEN d   1       0.599   2.784   2.358  0.00  0.00    -0.072 A 
ENDROOT
TORSDOF 0
ENDMDL
