MODEL 1
REMARK minimizedAffinity 11.9412909
REMARK minimizedRMSD -1
REMARK  0 active torsions:
REMARK  status: ('A' for Active; 'I' for Inactive)
ROOT
ATOM      1  C2' OXE d   1       5.257  -5.774  -0.154  0.00  0.00     0.078 C 
ATOM      2  C1' OXE d   1       3.438  -6.000  -2.280  0.00  0.00     0.078 C 
ATOM      3  C1  OXE d   1       4.273  -4.747  -2.199  0.00  0.00    -0.078 A 
ATOM      4  C2  OXE d   1       5.127  -4.624  -1.130  0.00  0.00    -0.078 A 
ATOM      5  C3  OXE d   1       5.960  -3.513  -1.037  0.00  0.00     0.003 A 
ATOM      6  C4  OXE d   1       5.826  -2.449  -1.937  0.00  0.00    -0.002 A 
ATOM      7  C5  OXE d   1       4.934  -2.536  -3.011  0.00  0.00    -0.002 A 
ATOM      8  C6  OXE d   1       4.182  -3.694  -3.180  0.00  0.00     0.003 A 
ENDROOT
TORSDOF 0
ENDMDL
