MODEL 1
REMARK minimizedAffinity 5.52604485
REMARK minimizedRMSD -1
REMARK  0 active torsions:
REMARK  status: ('A' for Active; 'I' for Inactive)
ROOT
ATOM      1  C2' OXE d   1      -1.269   2.367   2.900  0.00  0.00     0.078 C 
ATOM      2  C1' OXE d   1       0.390   2.596   0.647  0.00  0.00     0.078 C 
ATOM      3  C1  OXE d   1       0.690   1.495   1.632  0.00  0.00    -0.078 A 
ATOM      4  C2  OXE d   1      -0.099   1.419   2.755  0.00  0.00    -0.078 A 
ATOM      5  C3  OXE d   1       0.100   0.388   3.669  0.00  0.00     0.003 A 
ATOM      6  C4  OXE d   1       1.191  -0.479   3.533  0.00  0.00    -0.002 A 
ATOM      7  C5  OXE d   1       2.030  -0.395   2.417  0.00  0.00    -0.002 A 
ATOM      8  C6  OXE d   1       1.768   0.557   1.438  0.00  0.00     0.003 A 
ENDROOT
TORSDOF 0
ENDMDL
