MODEL 1
REMARK minimizedAffinity 2.393466
REMARK minimizedRMSD -1
REMARK  0 active torsions:
REMARK  status: ('A' for Active; 'I' for Inactive)
ROOT
ATOM      1  C2' OXE d   1      -0.016   1.289   2.734  0.00  0.00     0.078 C 
ATOM      2  C1' OXE d   1      -2.747   1.737   2.265  0.00  0.00     0.078 C 
ATOM      3  C1  OXE d   1      -1.755   2.576   1.499  0.00  0.00    -0.078 A 
ATOM      4  C2  OXE d   1      -0.422   2.382   1.770  0.00  0.00    -0.078 A 
ATOM      5  C3  OXE d   1       0.538   3.091   1.052  0.00  0.00     0.003 A 
ATOM      6  C4  OXE d   1       0.154   4.108   0.169  0.00  0.00    -0.002 A 
ATOM      7  C5  OXE d   1      -1.199   4.349  -0.091  0.00  0.00    -0.002 A 
ATOM      8  C6  OXE d   1      -2.163   3.565   0.532  0.00  0.00     0.003 A 
ENDROOT
TORSDOF 0
ENDMDL
