MODEL 1
REMARK minimizedAffinity 4.41739702
REMARK minimizedRMSD -1
REMARK  0 active torsions:
REMARK  status: ('A' for Active; 'I' for Inactive)
ROOT
ATOM      1  C2' OXE d   1      -1.189   2.953   0.317  0.00  0.00     0.078 C 
ATOM      2  C1' OXE d   1      -3.234   1.275  -0.622  0.00  0.00     0.078 C 
ATOM      3  C1  OXE d   1      -1.808   0.869  -0.900  0.00  0.00    -0.078 A 
ATOM      4  C2  OXE d   1      -0.815   1.720  -0.478  0.00  0.00    -0.078 A 
ATOM      5  C3  OXE d   1       0.519   1.368  -0.661  0.00  0.00     0.003 A 
ATOM      6  C4  OXE d   1       0.856   0.231  -1.406  0.00  0.00    -0.002 A 
ATOM      7  C5  OXE d   1      -0.141  -0.628  -1.879  0.00  0.00    -0.002 A 
ATOM      8  C6  OXE d   1      -1.473  -0.347  -1.599  0.00  0.00     0.003 A 
ENDROOT
TORSDOF 0
ENDMDL
