MODEL 1
REMARK minimizedAffinity 11.8559151
REMARK minimizedRMSD -1
REMARK  0 active torsions:
REMARK  status: ('A' for Active; 'I' for Inactive)
ROOT
ATOM      1  C2' OXE d   1       3.253  -0.839   0.342  0.00  0.00     0.078 C 
ATOM      2  C1' OXE d   1       2.432  -3.410   1.113  0.00  0.00     0.078 C 
ATOM      3  C1  OXE d   1       3.695  -3.290   0.297  0.00  0.00    -0.078 A 
ATOM      4  C2  OXE d   1       4.064  -2.032  -0.115  0.00  0.00    -0.078 A 
ATOM      5  C3  OXE d   1       5.249  -1.858  -0.824  0.00  0.00     0.003 A 
ATOM      6  C4  OXE d   1       5.988  -2.968  -1.251  0.00  0.00    -0.002 A 
ATOM      7  C5  OXE d   1       5.609  -4.261  -0.876  0.00  0.00    -0.002 A 
ATOM      8  C6  OXE d   1       4.491  -4.436  -0.068  0.00  0.00     0.003 A 
ENDROOT
TORSDOF 0
ENDMDL
