MODEL 1
REMARK minimizedAffinity 11.4801149
REMARK minimizedRMSD -1
REMARK  0 active torsions:
REMARK  status: ('A' for Active; 'I' for Inactive)
ROOT
ATOM      1  C2' OXE d   1       2.572  -3.270   1.085  0.00  0.00     0.078 C 
ATOM      2  C1' OXE d   1       2.555  -0.836  -0.313  0.00  0.00     0.078 C 
ATOM      3  C1  OXE d   1       3.658  -1.817  -0.622  0.00  0.00    -0.078 A 
ATOM      4  C2  OXE d   1       3.686  -2.985   0.101  0.00  0.00    -0.078 A 
ATOM      5  C3  OXE d   1       4.650  -3.948  -0.183  0.00  0.00     0.003 A 
ATOM      6  C4  OXE d   1       5.683  -3.673  -1.088  0.00  0.00    -0.002 A 
ATOM      7  C5  OXE d   1       5.696  -2.472  -1.805  0.00  0.00    -0.002 A 
ATOM      8  C6  OXE d   1       4.670  -1.553  -1.615  0.00  0.00     0.003 A 
ENDROOT
TORSDOF 0
ENDMDL
