MODEL 1
REMARK minimizedAffinity 9.77871609
REMARK minimizedRMSD -1
REMARK  0 active torsions:
REMARK  status: ('A' for Active; 'I' for Inactive)
ROOT
ATOM      1  C2' OXE d   1       1.137   2.339   0.912  0.00  0.00     0.078 C 
ATOM      2  C1' OXE d   1       2.473   4.807   0.962  0.00  0.00     0.078 C 
ATOM      3  C1  OXE d   1       1.056   4.784   0.445  0.00  0.00    -0.078 A 
ATOM      4  C2  OXE d   1       0.426   3.565   0.381  0.00  0.00    -0.078 A 
ATOM      5  C3  OXE d   1      -0.900   3.495  -0.037  0.00  0.00     0.003 A 
ATOM      6  C4  OXE d   1      -1.547   4.631  -0.536  0.00  0.00    -0.002 A 
ATOM      7  C5  OXE d   1      -0.910   5.877  -0.517  0.00  0.00    -0.002 A 
ATOM      8  C6  OXE d   1       0.374   5.978   0.009  0.00  0.00     0.003 A 
ENDROOT
TORSDOF 0
ENDMDL
