MODEL 1
REMARK minimizedAffinity 11.2532701
REMARK minimizedRMSD -1
REMARK  0 active torsions:
REMARK  status: ('A' for Active; 'I' for Inactive)
ROOT
ATOM      1  C2' OXE d   1       3.473   3.303   2.794  0.00  0.00     0.078 C 
ATOM      2  C1' OXE d   1       2.939   5.618   1.298  0.00  0.00     0.078 C 
ATOM      3  C1  OXE d   1       1.986   4.457   1.161  0.00  0.00    -0.078 A 
ATOM      4  C2  OXE d   1       2.281   3.311   1.861  0.00  0.00    -0.078 A 
ATOM      5  C3  OXE d   1       1.406   2.230   1.814  0.00  0.00     0.003 A 
ATOM      6  C4  OXE d   1       0.311   2.242   0.941  0.00  0.00    -0.002 A 
ATOM      7  C5  OXE d   1       0.015   3.384   0.189  0.00  0.00    -0.002 A 
ATOM      8  C6  OXE d   1       0.816   4.512   0.320  0.00  0.00     0.003 A 
ENDROOT
TORSDOF 0
ENDMDL
