MODEL 1
REMARK minimizedAffinity 10.3149347
REMARK minimizedRMSD -1
REMARK  0 active torsions:
REMARK  status: ('A' for Active; 'I' for Inactive)
ROOT
ATOM      1  C2' OXE d   1       2.110  -0.489   0.037  0.00  0.00     0.078 C 
ATOM      2  C1' OXE d   1       1.925  -3.241   0.561  0.00  0.00     0.078 C 
ATOM      3  C1  OXE d   1       3.206  -2.724  -0.046  0.00  0.00    -0.078 A 
ATOM      4  C2  OXE d   1       3.270  -1.384  -0.342  0.00  0.00    -0.078 A 
ATOM      5  C3  OXE d   1       4.448  -0.846  -0.852  0.00  0.00     0.003 A 
ATOM      6  C4  OXE d   1       5.513  -1.682  -1.209  0.00  0.00    -0.002 A 
ATOM      7  C5  OXE d   1       5.453  -3.056  -0.953  0.00  0.00    -0.002 A 
ATOM      8  C6  OXE d   1       4.326  -3.586  -0.333  0.00  0.00     0.003 A 
ENDROOT
TORSDOF 0
ENDMDL
