MODEL 1
REMARK minimizedAffinity 6.88413572
REMARK minimizedRMSD -1
REMARK  0 active torsions:
REMARK  status: ('A' for Active; 'I' for Inactive)
ROOT
ATOM      1  C2' OXE d   1       5.250  -5.536  -1.643  0.00  0.00     0.078 C 
ATOM      2  C1' OXE d   1       4.928  -4.874  -4.352  0.00  0.00     0.078 C 
ATOM      3  C1  OXE d   1       3.695  -5.248  -3.568  0.00  0.00    -0.078 A 
ATOM      4  C2  OXE d   1       3.868  -5.616  -2.255  0.00  0.00    -0.078 A 
ATOM      5  C3  OXE d   1       2.757  -5.917  -1.472  0.00  0.00     0.003 A 
ATOM      6  C4  OXE d   1       1.484  -5.998  -2.048  0.00  0.00    -0.002 A 
ATOM      7  C5  OXE d   1       1.291  -5.666  -3.393  0.00  0.00    -0.002 A 
ATOM      8  C6  OXE d   1       2.378  -5.249  -4.155  0.00  0.00     0.003 A 
ENDROOT
TORSDOF 0
ENDMDL
