MODEL 1
REMARK minimizedAffinity -6.30040979
REMARK minimizedRMSD -1
REMARK  0 active torsions:
REMARK  status: ('A' for Active; 'I' for Inactive)
ROOT
ATOM      1  C2' OXE d   1       0.726  -0.847  -1.418  0.00  0.00     0.078 C 
ATOM      2  C1' OXE d   1      -0.797  -0.162   0.839  0.00  0.00     0.078 C 
ATOM      3  C1  OXE d   1       0.571  -0.755   1.067  0.00  0.00    -0.078 A 
ATOM      4  C2  OXE d   1       1.291  -1.130  -0.042  0.00  0.00    -0.078 A 
ATOM      5  C3  OXE d   1       2.580  -1.631   0.109  0.00  0.00     0.003 A 
ATOM      6  C4  OXE d   1       3.091  -1.899   1.385  0.00  0.00    -0.002 A 
ATOM      7  C5  OXE d   1       2.359  -1.561   2.528  0.00  0.00    -0.002 A 
ATOM      8  C6  OXE d   1       1.118  -0.950   2.387  0.00  0.00     0.003 A 
ENDROOT
TORSDOF 0
ENDMDL
