MODEL 1
REMARK minimizedAffinity -1.82636821
REMARK minimizedRMSD -1
REMARK  0 active torsions:
REMARK  status: ('A' for Active; 'I' for Inactive)
ROOT
ATOM      1  C2' OXE d   1       1.340  -1.647   3.004  0.00  0.00     0.078 C 
ATOM      2  C1' OXE d   1      -1.051  -3.101   3.220  0.00  0.00     0.078 C 
ATOM      3  C1  OXE d   1      -1.071  -1.832   2.405  0.00  0.00    -0.078 A 
ATOM      4  C2  OXE d   1       0.092  -1.103   2.343  0.00  0.00    -0.078 A 
ATOM      5  C3  OXE d   1       0.144   0.047   1.559  0.00  0.00     0.003 A 
ATOM      6  C4  OXE d   1      -1.017   0.548   0.959  0.00  0.00    -0.002 A 
ATOM      7  C5  OXE d   1      -2.222  -0.158   1.042  0.00  0.00    -0.002 A 
ATOM      8  C6  OXE d   1      -2.255  -1.370   1.724  0.00  0.00     0.003 A 
ENDROOT
TORSDOF 0
ENDMDL
