MODEL 1
REMARK minimizedAffinity -4.85031796
REMARK minimizedRMSD -1
REMARK  0 active torsions:
REMARK  status: ('A' for Active; 'I' for Inactive)
ROOT
ATOM      1  C2' OXE d   1      -2.156  -0.070   1.830  0.00  0.00     0.078 C 
ATOM      2  C1' OXE d   1      -0.506   0.447  -0.381  0.00  0.00     0.078 C 
ATOM      3  C1  OXE d   1       0.130  -0.161   0.844  0.00  0.00    -0.078 A 
ATOM      4  C2  OXE d   1      -0.676  -0.368   1.938  0.00  0.00    -0.078 A 
ATOM      5  C3  OXE d   1      -0.152  -0.977   3.075  0.00  0.00     0.003 A 
ATOM      6  C4  OXE d   1       1.220  -1.239   3.170  0.00  0.00    -0.002 A 
ATOM      7  C5  OXE d   1       2.066  -1.000   2.082  0.00  0.00    -0.002 A 
ATOM      8  C6  OXE d   1       1.530  -0.502   0.899  0.00  0.00     0.003 A 
ENDROOT
TORSDOF 0
ENDMDL
