MODEL 1
REMARK minimizedAffinity 0.39325729
REMARK minimizedRMSD -1
REMARK  0 active torsions:
REMARK  status: ('A' for Active; 'I' for Inactive)
ROOT
ATOM      1  C2' OXE d   1       0.297  -0.035  -2.418  0.00  0.00     0.078 C 
ATOM      2  C1' OXE d   1       1.146   2.353  -3.624  0.00  0.00     0.078 C 
ATOM      3  C1  OXE d   1      -0.224   2.333  -2.991  0.00  0.00    -0.078 A 
ATOM      4  C2  OXE d   1      -0.649   1.146  -2.445  0.00  0.00    -0.078 A 
ATOM      5  C3  OXE d   1      -1.882   1.087  -1.800  0.00  0.00     0.003 A 
ATOM      6  C4  OXE d   1      -2.755   2.181  -1.839  0.00  0.00    -0.002 A 
ATOM      7  C5  OXE d   1      -2.357   3.387  -2.425  0.00  0.00    -0.002 A 
ATOM      8  C6  OXE d   1      -1.081   3.492  -2.967  0.00  0.00     0.003 A 
ENDROOT
TORSDOF 0
ENDMDL
