MODEL 1
REMARK minimizedAffinity -3.50372291
REMARK minimizedRMSD -1
REMARK  0 active torsions:
REMARK  status: ('A' for Active; 'I' for Inactive)
ROOT
ATOM      1  C2' OXE d   1      -2.527   0.153   1.228  0.00  0.00     0.078 C 
ATOM      2  C1' OXE d   1      -0.854   0.325  -1.020  0.00  0.00     0.078 C 
ATOM      3  C1  OXE d   1      -0.213   0.030   0.313  0.00  0.00    -0.078 A 
ATOM      4  C2  OXE d   1      -1.033  -0.006   1.415  0.00  0.00    -0.078 A 
ATOM      5  C3  OXE d   1      -0.501  -0.328   2.660  0.00  0.00     0.003 A 
ATOM      6  C4  OXE d   1       0.882  -0.464   2.826  0.00  0.00    -0.002 A 
ATOM      7  C5  OXE d   1       1.740  -0.392   1.724  0.00  0.00    -0.002 A 
ATOM      8  C6  OXE d   1       1.205  -0.188   0.456  0.00  0.00     0.003 A 
ENDROOT
TORSDOF 0
ENDMDL
