MODEL 1
REMARK minimizedAffinity -3.26823568
REMARK minimizedRMSD -1
REMARK  0 active torsions:
REMARK  status: ('A' for Active; 'I' for Inactive)
ROOT
ATOM      1  C2' OXE d   1      -0.663   0.241   0.833  0.00  0.00     0.078 C 
ATOM      2  C1' OXE d   1      -0.267  -1.178   3.223  0.00  0.00     0.078 C 
ATOM      3  C1  OXE d   1       0.786  -1.299   2.150  0.00  0.00    -0.078 A 
ATOM      4  C2  OXE d   1       0.562  -0.639   0.966  0.00  0.00    -0.078 A 
ATOM      5  C3  OXE d   1       1.527  -0.673  -0.036  0.00  0.00     0.003 A 
ATOM      6  C4  OXE d   1       2.652  -1.496   0.092  0.00  0.00    -0.002 A 
ATOM      7  C5  OXE d   1       2.880  -2.209   1.274  0.00  0.00    -0.002 A 
ATOM      8  C6  OXE d   1       1.980  -2.088   2.327  0.00  0.00     0.003 A 
ENDROOT
TORSDOF 0
ENDMDL
