MODEL 1
REMARK minimizedAffinity -4.1619401
REMARK minimizedRMSD -1
REMARK  0 active torsions:
REMARK  status: ('A' for Active; 'I' for Inactive)
ROOT
ATOM      1  C2' OXE d   1      -2.005  -0.012   0.478  0.00  0.00     0.078 C 
ATOM      2  C1' OXE d   1       0.052   0.373  -1.393  0.00  0.00     0.078 C 
ATOM      3  C1  OXE d   1       0.445   0.055   0.029  0.00  0.00    -0.078 A 
ATOM      4  C2  OXE d   1      -0.568  -0.086   0.947  0.00  0.00    -0.078 A 
ATOM      5  C3  OXE d   1      -0.264  -0.433   2.260  0.00  0.00     0.003 A 
ATOM      6  C4  OXE d   1       1.068  -0.489   2.688  0.00  0.00    -0.002 A 
ATOM      7  C5  OXE d   1       2.115  -0.309   1.778  0.00  0.00    -0.002 A 
ATOM      8  C6  OXE d   1       1.821  -0.079   0.438  0.00  0.00     0.003 A 
ENDROOT
TORSDOF 0
ENDMDL
