MODEL 1
REMARK minimizedAffinity -0.695680678
REMARK minimizedRMSD -1
REMARK  0 active torsions:
REMARK  status: ('A' for Active; 'I' for Inactive)
ROOT
ATOM      1  C2' OXE d   1      -0.806  -0.722   1.889  0.00  0.00     0.078 C 
ATOM      2  C1' OXE d   1      -0.549  -3.106   0.429  0.00  0.00     0.078 C 
ATOM      3  C1  OXE d   1      -0.237  -1.810  -0.278  0.00  0.00    -0.078 A 
ATOM      4  C2  OXE d   1      -0.410  -0.646   0.430  0.00  0.00    -0.078 A 
ATOM      5  C3  OXE d   1      -0.084   0.573  -0.157  0.00  0.00     0.003 A 
ATOM      6  C4  OXE d   1       0.271   0.636  -1.510  0.00  0.00    -0.002 A 
ATOM      7  C5  OXE d   1       0.416  -0.536  -2.261  0.00  0.00    -0.002 A 
ATOM      8  C6  OXE d   1       0.207  -1.767  -1.650  0.00  0.00     0.003 A 
ENDROOT
TORSDOF 0
ENDMDL
