MODEL 1
REMARK minimizedAffinity -4.66481447
REMARK minimizedRMSD -1
REMARK  0 active torsions:
REMARK  status: ('A' for Active; 'I' for Inactive)
ROOT
ATOM      1  C2' OXE d   1      -0.002  -3.031   0.944  0.00  0.00     0.078 C 
ATOM      2  C1' OXE d   1      -1.085  -1.060   2.624  0.00  0.00     0.078 C 
ATOM      3  C1  OXE d   1      -0.496  -0.617   1.309  0.00  0.00    -0.078 A 
ATOM      4  C2  OXE d   1       0.074  -1.582   0.513  0.00  0.00    -0.078 A 
ATOM      5  C3  OXE d   1       0.582  -1.235  -0.735  0.00  0.00     0.003 A 
ATOM      6  C4  OXE d   1       0.658   0.109  -1.121  0.00  0.00    -0.002 A 
ATOM      7  C5  OXE d   1       0.120   1.112  -0.308  0.00  0.00    -0.002 A 
ATOM      8  C6  OXE d   1      -0.498   0.763   0.888  0.00  0.00     0.003 A 
ENDROOT
TORSDOF 0
ENDMDL
