MODEL 1
REMARK minimizedAffinity -1.93240952
REMARK minimizedRMSD -1
REMARK  0 active torsions:
REMARK  status: ('A' for Active; 'I' for Inactive)
ROOT
ATOM      1  C2' OXE d   1       0.553   0.950  -2.725  0.00  0.00     0.078 C 
ATOM      2  C1' OXE d   1       0.480   2.426  -0.339  0.00  0.00     0.078 C 
ATOM      3  C1  OXE d   1       0.614   0.927  -0.235  0.00  0.00    -0.078 A 
ATOM      4  C2  OXE d   1       0.602   0.209  -1.406  0.00  0.00    -0.078 A 
ATOM      5  C3  OXE d   1       0.778  -1.171  -1.370  0.00  0.00     0.003 A 
ATOM      6  C4  OXE d   1       0.812  -1.850  -0.146  0.00  0.00    -0.002 A 
ATOM      7  C5  OXE d   1       0.785  -1.141   1.060  0.00  0.00    -0.002 A 
ATOM      8  C6  OXE d   1       0.730   0.248   1.032  0.00  0.00     0.003 A 
ENDROOT
TORSDOF 0
ENDMDL
