MODEL 1
REMARK minimizedAffinity -2.49001217
REMARK minimizedRMSD -1
REMARK  0 active torsions:
REMARK  status: ('A' for Active; 'I' for Inactive)
ROOT
ATOM      1  C2' OXE d   1      -0.021  -2.881   1.102  0.00  0.00     0.078 C 
ATOM      2  C1' OXE d   1      -1.090  -0.934   2.819  0.00  0.00     0.078 C 
ATOM      3  C1  OXE d   1      -0.745  -0.517   1.411  0.00  0.00    -0.078 A 
ATOM      4  C2  OXE d   1      -0.179  -1.464   0.592  0.00  0.00    -0.078 A 
ATOM      5  C3  OXE d   1       0.109  -1.147  -0.732  0.00  0.00     0.003 A 
ATOM      6  C4  OXE d   1      -0.030   0.168  -1.192  0.00  0.00    -0.002 A 
ATOM      7  C5  OXE d   1      -0.568   1.158  -0.362  0.00  0.00    -0.002 A 
ATOM      8  C6  OXE d   1      -0.969   0.822   0.926  0.00  0.00     0.003 A 
ENDROOT
TORSDOF 0
ENDMDL
