MODEL 1
REMARK minimizedAffinity -2.21276879
REMARK minimizedRMSD -1
REMARK  0 active torsions:
REMARK  status: ('A' for Active; 'I' for Inactive)
ROOT
ATOM      1  C2' OXE d   1      -0.352   0.952  -0.583  0.00  0.00     0.078 C 
ATOM      2  C1' OXE d   1       0.348  -1.456  -1.844  0.00  0.00     0.078 C 
ATOM      3  C1  OXE d   1       0.018  -1.502  -0.373  0.00  0.00    -0.078 A 
ATOM      4  C2  OXE d   1      -0.278  -0.312   0.246  0.00  0.00    -0.078 A 
ATOM      5  C3  OXE d   1      -0.643  -0.306   1.590  0.00  0.00     0.003 A 
ATOM      6  C4  OXE d   1      -0.562  -1.477   2.352  0.00  0.00    -0.002 A 
ATOM      7  C5  OXE d   1      -0.224  -2.694   1.749  0.00  0.00    -0.002 A 
ATOM      8  C6  OXE d   1       0.027  -2.731   0.382  0.00  0.00     0.003 A 
ENDROOT
TORSDOF 0
ENDMDL
