MODEL 1
REMARK minimizedAffinity -1.73440421
REMARK minimizedRMSD -1
REMARK  0 active torsions:
REMARK  status: ('A' for Active; 'I' for Inactive)
ROOT
ATOM      1  C2' OXE d   1       0.127   1.553   0.071  0.00  0.00     0.078 C 
ATOM      2  C1' OXE d   1       0.052  -0.058  -2.226  0.00  0.00     0.078 C 
ATOM      3  C1  OXE d   1      -0.287  -0.701  -0.905  0.00  0.00    -0.078 A 
ATOM      4  C2  OXE d   1      -0.202   0.083   0.220  0.00  0.00    -0.078 A 
ATOM      5  C3  OXE d   1      -0.556  -0.446   1.458  0.00  0.00     0.003 A 
ATOM      6  C4  OXE d   1      -0.850  -1.809   1.589  0.00  0.00    -0.002 A 
ATOM      7  C5  OXE d   1      -0.903  -2.635   0.461  0.00  0.00    -0.002 A 
ATOM      8  C6  OXE d   1      -0.666  -2.088  -0.796  0.00  0.00     0.003 A 
ENDROOT
TORSDOF 0
ENDMDL
