MODEL 1
REMARK minimizedAffinity -5.16987276
REMARK minimizedRMSD -1
REMARK  0 active torsions:
REMARK  status: ('A' for Active; 'I' for Inactive)
ROOT
ATOM      1  C2' OXE d   1      -0.741  -0.683   1.924  0.00  0.00     0.078 C 
ATOM      2  C1' OXE d   1       0.118  -3.021   0.629  0.00  0.00     0.078 C 
ATOM      3  C1  OXE d   1       0.113  -1.738  -0.165  0.00  0.00    -0.078 A 
ATOM      4  C2  OXE d   1      -0.353  -0.608   0.463  0.00  0.00    -0.078 A 
ATOM      5  C3  OXE d   1      -0.328   0.612  -0.206  0.00  0.00     0.003 A 
ATOM      6  C4  OXE d   1       0.022   0.671  -1.561  0.00  0.00    -0.002 A 
ATOM      7  C5  OXE d   1       0.462  -0.476  -2.230  0.00  0.00    -0.002 A 
ATOM      8  C6  OXE d   1       0.554  -1.678  -1.536  0.00  0.00     0.003 A 
ENDROOT
TORSDOF 0
ENDMDL
