MODEL 1
REMARK minimizedAffinity -5.31267738
REMARK minimizedRMSD -1
REMARK  0 active torsions:
REMARK  status: ('A' for Active; 'I' for Inactive)
ROOT
ATOM      1  C2' OXE d   1      -0.872  -0.803   1.686  0.00  0.00     0.078 C 
ATOM      2  C1' OXE d   1       0.076   0.801  -0.413  0.00  0.00     0.078 C 
ATOM      3  C1  OXE d   1      -0.071  -0.678  -0.670  0.00  0.00    -0.078 A 
ATOM      4  C2  OXE d   1      -0.491  -1.462   0.378  0.00  0.00    -0.078 A 
ATOM      5  C3  OXE d   1      -0.696  -2.825   0.180  0.00  0.00     0.003 A 
ATOM      6  C4  OXE d   1      -0.332  -3.428  -1.030  0.00  0.00    -0.002 A 
ATOM      7  C5  OXE d   1       0.135  -2.653  -2.097  0.00  0.00    -0.002 A 
ATOM      8  C6  OXE d   1       0.231  -1.274  -1.948  0.00  0.00     0.003 A 
ENDROOT
TORSDOF 0
ENDMDL
