MODEL 1
REMARK minimizedAffinity -4.22368574
REMARK minimizedRMSD -1
REMARK  0 active torsions:
REMARK  status: ('A' for Active; 'I' for Inactive)
ROOT
ATOM      1  C2' OXE d   1       0.130  -1.209  -2.067  0.00  0.00     0.078 C 
ATOM      2  C1' OXE d   1       0.042  -2.558   0.393  0.00  0.00     0.078 C 
ATOM      3  C1  OXE d   1       0.307  -1.073   0.414  0.00  0.00    -0.078 A 
ATOM      4  C2  OXE d   1       0.395  -0.430  -0.797  0.00  0.00    -0.078 A 
ATOM      5  C3  OXE d   1       0.584   0.949  -0.833  0.00  0.00     0.003 A 
ATOM      6  C4  OXE d   1       0.838   1.660   0.346  0.00  0.00    -0.002 A 
ATOM      7  C5  OXE d   1       0.792   1.017   1.587  0.00  0.00    -0.002 A 
ATOM      8  C6  OXE d   1       0.487  -0.338   1.641  0.00  0.00     0.003 A 
ENDROOT
TORSDOF 0
ENDMDL
