MODEL 1
REMARK minimizedAffinity -3.26353264
REMARK minimizedRMSD -1
REMARK  0 active torsions:
REMARK  status: ('A' for Active; 'I' for Inactive)
ROOT
ATOM      1  C2' OXE d   1      -0.610  -0.681   2.007  0.00  0.00     0.078 C 
ATOM      2  C1' OXE d   1      -0.063  -2.971   0.479  0.00  0.00     0.078 C 
ATOM      3  C1  OXE d   1       0.117  -1.627  -0.180  0.00  0.00    -0.078 A 
ATOM      4  C2  OXE d   1      -0.198  -0.513   0.560  0.00  0.00    -0.078 A 
ATOM      5  C3  OXE d   1       0.002   0.754   0.018  0.00  0.00     0.003 A 
ATOM      6  C4  OXE d   1       0.374   0.900  -1.324  0.00  0.00    -0.002 A 
ATOM      7  C5  OXE d   1       0.661  -0.223  -2.107  0.00  0.00    -0.002 A 
ATOM      8  C6  OXE d   1       0.578  -1.489  -1.539  0.00  0.00     0.003 A 
ENDROOT
TORSDOF 0
ENDMDL
