MODEL 1
REMARK minimizedAffinity -2.93877888
REMARK minimizedRMSD -1
REMARK  0 active torsions:
REMARK  status: ('A' for Active; 'I' for Inactive)
ROOT
ATOM      1  C2' OXE d   1      -0.962  -1.090   1.692  0.00  0.00     0.078 C 
ATOM      2  C1' OXE d   1      -0.104   0.661  -0.327  0.00  0.00     0.078 C 
ATOM      3  C1  OXE d   1      -0.306  -0.788  -0.692  0.00  0.00    -0.078 A 
ATOM      4  C2  OXE d   1      -0.680  -1.647   0.313  0.00  0.00    -0.078 A 
ATOM      5  C3  OXE d   1      -0.933  -2.984   0.019  0.00  0.00     0.003 A 
ATOM      6  C4  OXE d   1      -0.660  -3.493  -1.257  0.00  0.00    -0.002 A 
ATOM      7  C5  OXE d   1      -0.240  -2.643  -2.285  0.00  0.00    -0.002 A 
ATOM      8  C6  OXE d   1      -0.099  -1.283  -2.031  0.00  0.00     0.003 A 
ENDROOT
TORSDOF 0
ENDMDL
