MODEL 1
REMARK minimizedAffinity -4.67219973
REMARK minimizedRMSD -1
REMARK  0 active torsions:
REMARK  status: ('A' for Active; 'I' for Inactive)
ROOT
ATOM      1  C2' OXE d   1       0.062   0.412  -0.017  0.00  0.00     0.078 C 
ATOM      2  C1' OXE d   1      -0.197  -1.905   1.546  0.00  0.00     0.078 C 
ATOM      3  C1  OXE d   1      -0.087  -2.073   0.051  0.00  0.00    -0.078 A 
ATOM      4  C2  OXE d   1      -0.008  -0.932  -0.709  0.00  0.00    -0.078 A 
ATOM      5  C3  OXE d   1       0.150  -1.032  -2.089  0.00  0.00     0.003 A 
ATOM      6  C4  OXE d   1       0.074  -2.278  -2.722  0.00  0.00    -0.002 A 
ATOM      7  C5  OXE d   1      -0.047  -3.451  -1.969  0.00  0.00    -0.002 A 
ATOM      8  C6  OXE d   1      -0.086  -3.369  -0.582  0.00  0.00     0.003 A 
ENDROOT
TORSDOF 0
ENDMDL
