MODEL 1
REMARK minimizedAffinity -2.87188601
REMARK minimizedRMSD -1
REMARK  0 active torsions:
REMARK  status: ('A' for Active; 'I' for Inactive)
ROOT
ATOM      1  C2' OXE d   1       0.568   1.250   0.486  0.00  0.00     0.078 C 
ATOM      2  C1' OXE d   1      -2.125   0.624   0.974  0.00  0.00     0.078 C 
ATOM      3  C1  OXE d   1      -1.161  -0.519   0.779  0.00  0.00    -0.078 A 
ATOM      4  C2  OXE d   1       0.146  -0.203   0.495  0.00  0.00    -0.078 A 
ATOM      5  C3  OXE d   1       1.087  -1.220   0.360  0.00  0.00     0.003 A 
ATOM      6  C4  OXE d   1       0.687  -2.561   0.360  0.00  0.00    -0.002 A 
ATOM      7  C5  OXE d   1      -0.646  -2.904   0.608  0.00  0.00    -0.002 A 
ATOM      8  C6  OXE d   1      -1.573  -1.899   0.861  0.00  0.00     0.003 A 
ENDROOT
TORSDOF 0
ENDMDL
