MODEL 1
REMARK minimizedAffinity -4.15990305
REMARK minimizedRMSD -1
REMARK  0 active torsions:
REMARK  status: ('A' for Active; 'I' for Inactive)
ROOT
ATOM      1  C2' OXE d   1       0.923   0.995   0.037  0.00  0.00     0.078 C 
ATOM      2  C1' OXE d   1       0.996  -0.410   2.465  0.00  0.00     0.078 C 
ATOM      3  C1  OXE d   1       0.643  -1.180   1.217  0.00  0.00    -0.078 A 
ATOM      4  C2  OXE d   1       0.564  -0.475   0.041  0.00  0.00    -0.078 A 
ATOM      5  C3  OXE d   1       0.296  -1.146  -1.149  0.00  0.00     0.003 A 
ATOM      6  C4  OXE d   1      -0.044  -2.504  -1.135  0.00  0.00    -0.002 A 
ATOM      7  C5  OXE d   1      -0.009  -3.233   0.059  0.00  0.00    -0.002 A 
ATOM      8  C6  OXE d   1       0.374  -2.597   1.235  0.00  0.00     0.003 A 
ENDROOT
TORSDOF 0
ENDMDL
