MODEL 1
REMARK minimizedAffinity -3.90846443
REMARK minimizedRMSD -1
REMARK  0 active torsions:
REMARK  status: ('A' for Active; 'I' for Inactive)
ROOT
ATOM      1  C2' OXE d   1      -0.477   1.805  -1.870  0.00  0.00     0.078 C 
ATOM      2  C1' OXE d   1       1.198   2.718   0.189  0.00  0.00     0.078 C 
ATOM      3  C1  OXE d   1       0.721   1.288   0.252  0.00  0.00    -0.078 A 
ATOM      4  C2  OXE d   1      -0.135   0.864  -0.735  0.00  0.00    -0.078 A 
ATOM      5  C3  OXE d   1      -0.562  -0.461  -0.755  0.00  0.00     0.003 A 
ATOM      6  C4  OXE d   1      -0.250  -1.322   0.304  0.00  0.00    -0.002 A 
ATOM      7  C5  OXE d   1       0.589  -0.898   1.340  0.00  0.00    -0.002 A 
ATOM      8  C6  OXE d   1       1.116   0.388   1.307  0.00  0.00     0.003 A 
ENDROOT
TORSDOF 0
ENDMDL
