MODEL 1
REMARK minimizedAffinity -2.21461344
REMARK minimizedRMSD -1
REMARK  0 active torsions:
REMARK  status: ('A' for Active; 'I' for Inactive)
ROOT
ATOM      1  C2' OXE d   1       0.744  -1.695  -1.880  0.00  0.00     0.078 C 
ATOM      2  C1' OXE d   1      -0.475  -2.663   0.457  0.00  0.00     0.078 C 
ATOM      3  C1  OXE d   1      -0.168  -1.188   0.382  0.00  0.00    -0.078 A 
ATOM      4  C2  OXE d   1       0.471  -0.731  -0.745  0.00  0.00    -0.078 A 
ATOM      5  C3  OXE d   1       0.728   0.629  -0.889  0.00  0.00     0.003 A 
ATOM      6  C4  OXE d   1       0.482   1.513   0.169  0.00  0.00    -0.002 A 
ATOM      7  C5  OXE d   1      -0.132   1.061   1.343  0.00  0.00    -0.002 A 
ATOM      8  C6  OXE d   1      -0.501  -0.275   1.448  0.00  0.00     0.003 A 
ENDROOT
TORSDOF 0
ENDMDL
