MODEL 1
REMARK minimizedAffinity 2.78240371
REMARK minimizedRMSD -1
REMARK  0 active torsions:
REMARK  status: ('A' for Active; 'I' for Inactive)
ROOT
ATOM      1  C1  DEN d   1      -0.525   2.754  -3.834  0.00  0.00     0.130 A 
ATOM      2  C2  DEN d   1       0.325   3.828  -3.327  0.00  0.00    -0.031 A 
ATOM      3  C3  DEN d   1       0.132   3.912  -1.866  0.00  0.00     0.027 A 
ATOM      4  C4  DEN d   1      -1.388   2.487  -0.345  0.00  0.00     0.027 A 
ATOM      5  C5  DEN d   1      -2.307   1.461  -0.321  0.00  0.00    -0.003 A 
ATOM      6  C6  DEN d   1      -2.719   0.823  -1.461  0.00  0.00     0.001 A 
ATOM      7  C7  DEN d   1      -2.176   1.173  -2.669  0.00  0.00     0.017 A 
ATOM      8  C8  DEN d   1      -1.254   2.211  -2.702  0.00  0.00    -0.094 A 
ATOM      9  C9  DEN d   1      -0.842   2.836  -1.538  0.00  0.00    -0.072 A 
ENDROOT
TORSDOF 0
ENDMDL
