MODEL 1
REMARK minimizedAffinity 1.21745658
REMARK minimizedRMSD -1
REMARK  0 active torsions:
REMARK  status: ('A' for Active; 'I' for Inactive)
ROOT
ATOM      1  C1  DEN d   1       2.378  -2.351  -0.542  0.00  0.00     0.130 A 
ATOM      2  C2  DEN d   1       3.296  -1.333  -0.039  0.00  0.00    -0.031 A 
ATOM      3  C3  DEN d   1       2.532  -0.417   0.831  0.00  0.00     0.027 A 
ATOM      4  C4  DEN d   1       0.028  -0.478   1.448  0.00  0.00     0.027 A 
ATOM      5  C5  DEN d   1      -1.160  -1.148   1.256  0.00  0.00    -0.003 A 
ATOM      6  C6  DEN d   1      -1.258  -2.237   0.431  0.00  0.00     0.001 A 
ATOM      7  C7  DEN d   1      -0.139  -2.716  -0.198  0.00  0.00     0.017 A 
ATOM      8  C8  DEN d   1       1.061  -2.041  -0.014  0.00  0.00    -0.094 A 
ATOM      9  C9  DEN d   1       1.142  -0.949   0.833  0.00  0.00    -0.072 A 
ENDROOT
TORSDOF 0
ENDMDL
