MODEL 1
REMARK minimizedAffinity 4.55192375
REMARK minimizedRMSD -1
REMARK  0 active torsions:
REMARK  status: ('A' for Active; 'I' for Inactive)
ROOT
ATOM      1  C1  DEN d   1       2.172  -2.303  -0.415  0.00  0.00     0.130 A 
ATOM      2  C2  DEN d   1       1.525  -3.569  -0.749  0.00  0.00    -0.031 A 
ATOM      3  C3  DEN d   1       0.138  -3.520  -0.245  0.00  0.00     0.027 A 
ATOM      4  C4  DEN d   1      -1.065  -1.614   1.010  0.00  0.00     0.027 A 
ATOM      5  C5  DEN d   1      -0.921  -0.348   1.532  0.00  0.00    -0.003 A 
ATOM      6  C6  DEN d   1       0.264   0.337   1.472  0.00  0.00     0.001 A 
ATOM      7  C7  DEN d   1       1.340  -0.224   0.837  0.00  0.00     0.017 A 
ATOM      8  C8  DEN d   1       1.205  -1.504   0.315  0.00  0.00    -0.094 A 
ATOM      9  C9  DEN d   1      -0.005  -2.175   0.375  0.00  0.00    -0.072 A 
ENDROOT
TORSDOF 0
ENDMDL
