MODEL 1
REMARK minimizedAffinity -3.52808189
REMARK minimizedRMSD -1
REMARK  0 active torsions:
REMARK  status: ('A' for Active; 'I' for Inactive)
ROOT
ATOM      1  C1  DEN d   1      -5.014  -1.982   4.624  0.00  0.00     0.130 A 
ATOM      2  C2  DEN d   1      -5.246  -2.415   6.000  0.00  0.00    -0.031 A 
ATOM      3  C3  DEN d   1      -5.376  -3.886   6.000  0.00  0.00     0.027 A 
ATOM      4  C4  DEN d   1      -5.237  -5.527   4.015  0.00  0.00     0.027 A 
ATOM      5  C5  DEN d   1      -5.066  -5.628   2.652  0.00  0.00    -0.003 A 
ATOM      6  C6  DEN d   1      -4.901  -4.528   1.853  0.00  0.00     0.001 A 
ATOM      7  C7  DEN d   1      -4.858  -3.280   2.417  0.00  0.00     0.017 A 
ATOM      8  C8  DEN d   1      -5.038  -3.170   3.789  0.00  0.00    -0.094 A 
ATOM      9  C9  DEN d   1      -5.191  -4.295   4.581  0.00  0.00    -0.072 A 
ENDROOT
TORSDOF 0
ENDMDL
