MODEL 1
REMARK minimizedAffinity -1.99995732
REMARK minimizedRMSD -1
REMARK  0 active torsions:
REMARK  status: ('A' for Active; 'I' for Inactive)
ROOT
ATOM      1  C1  DEN d   1      -0.144  -0.290   1.505  0.00  0.00     0.130 A 
ATOM      2  C2  DEN d   1      -1.401  -1.026   1.396  0.00  0.00    -0.031 A 
ATOM      3  C3  DEN d   1      -1.124  -2.302   0.707  0.00  0.00     0.027 A 
ATOM      4  C4  DEN d   1       1.118  -3.208  -0.192  0.00  0.00     0.027 A 
ATOM      5  C5  DEN d   1       2.460  -2.935  -0.342  0.00  0.00    -0.003 A 
ATOM      6  C6  DEN d   1       3.017  -1.756   0.079  0.00  0.00     0.001 A 
ATOM      7  C7  DEN d   1       2.237  -0.825   0.712  0.00  0.00     0.017 A 
ATOM      8  C8  DEN d   1       0.882  -1.090   0.860  0.00  0.00    -0.094 A 
ATOM      9  C9  DEN d   1       0.340  -2.292   0.439  0.00  0.00    -0.072 A 
ENDROOT
TORSDOF 0
ENDMDL
