MODEL 1
REMARK minimizedAffinity 0.507716894
REMARK minimizedRMSD -1
REMARK  0 active torsions:
REMARK  status: ('A' for Active; 'I' for Inactive)
ROOT
ATOM      1  C1  DEN d   1       2.299  -3.380  -0.657  0.00  0.00     0.130 A 
ATOM      2  C2  DEN d   1       1.178  -4.185  -1.133  0.00  0.00    -0.031 A 
ATOM      3  C3  DEN d   1      -0.055  -3.668  -0.505  0.00  0.00     0.027 A 
ATOM      4  C4  DEN d   1      -0.335  -1.705   1.145  0.00  0.00     0.027 A 
ATOM      5  C5  DEN d   1       0.332  -0.729   1.851  0.00  0.00    -0.003 A 
ATOM      6  C6  DEN d   1       1.694  -0.590   1.798  0.00  0.00     0.001 A 
ATOM      7  C7  DEN d   1       2.428  -1.413   0.986  0.00  0.00     0.017 A 
ATOM      8  C8  DEN d   1       1.764  -2.405   0.277  0.00  0.00    -0.094 A 
ATOM      9  C9  DEN d   1       0.386  -2.522   0.335  0.00  0.00    -0.072 A 
ENDROOT
TORSDOF 0
ENDMDL
