MODEL 1
REMARK minimizedAffinity 2.57314825
REMARK minimizedRMSD -1
REMARK  0 active torsions:
REMARK  status: ('A' for Active; 'I' for Inactive)
ROOT
ATOM      1  C1  DEN d   1       2.514   0.343   2.508  0.00  0.00     0.130 A 
ATOM      2  C2  DEN d   1       3.737  -0.017   1.794  0.00  0.00    -0.031 A 
ATOM      3  C3  DEN d   1       3.352  -0.720   0.554  0.00  0.00     0.027 A 
ATOM      4  C4  DEN d   1       0.993  -1.277  -0.329  0.00  0.00     0.027 A 
ATOM      5  C5  DEN d   1      -0.355  -1.184  -0.065  0.00  0.00    -0.003 A 
ATOM      6  C6  DEN d   1      -0.837  -0.610   1.081  0.00  0.00     0.001 A 
ATOM      7  C7  DEN d   1       0.036  -0.067   1.987  0.00  0.00     0.017 A 
ATOM      8  C8  DEN d   1       1.397  -0.164   1.731  0.00  0.00    -0.094 A 
ATOM      9  C9  DEN d   1       1.864  -0.737   0.560  0.00  0.00    -0.072 A 
ENDROOT
TORSDOF 0
ENDMDL
