MODEL 1
REMARK minimizedAffinity 0.284446627
REMARK minimizedRMSD -1
REMARK  0 active torsions:
REMARK  status: ('A' for Active; 'I' for Inactive)
ROOT
ATOM      1  C1  DEN d   1      -0.096  -3.628  -0.068  0.00  0.00     0.130 A 
ATOM      2  C2  DEN d   1       1.310  -4.022  -0.061  0.00  0.00    -0.031 A 
ATOM      3  C3  DEN d   1       2.113  -2.845   0.325  0.00  0.00     0.027 A 
ATOM      4  C4  DEN d   1       1.319  -0.462   0.914  0.00  0.00     0.027 A 
ATOM      5  C5  DEN d   1       0.218   0.356   1.036  0.00  0.00    -0.003 A 
ATOM      6  C6  DEN d   1      -1.051  -0.083   0.768  0.00  0.00     0.001 A 
ATOM      7  C7  DEN d   1      -1.256  -1.389   0.407  0.00  0.00     0.017 A 
ATOM      8  C8  DEN d   1      -0.149  -2.218   0.275  0.00  0.00    -0.094 A 
ATOM      9  C9  DEN d   1       1.125  -1.758   0.562  0.00  0.00    -0.072 A 
ENDROOT
TORSDOF 0
ENDMDL
