MODEL 1
REMARK minimizedAffinity -2.75503731
REMARK minimizedRMSD -1
REMARK  0 active torsions:
REMARK  status: ('A' for Active; 'I' for Inactive)
ROOT
ATOM      1  C1  DEN d   1       1.838  -3.934  -0.242  0.00  0.00     0.130 A 
ATOM      2  C2  DEN d   1       3.243  -3.547  -0.339  0.00  0.00    -0.031 A 
ATOM      3  C3  DEN d   1       3.339  -2.101  -0.058  0.00  0.00     0.027 A 
ATOM      4  C4  DEN d   1       1.460  -0.432   0.520  0.00  0.00     0.027 A 
ATOM      5  C5  DEN d   1       0.102  -0.290   0.707  0.00  0.00    -0.003 A 
ATOM      6  C6  DEN d   1      -0.768  -1.337   0.559  0.00  0.00     0.001 A 
ATOM      7  C7  DEN d   1      -0.286  -2.584   0.258  0.00  0.00     0.017 A 
ATOM      8  C8  DEN d   1       1.081  -2.733   0.060  0.00  0.00    -0.094 A 
ATOM      9  C9  DEN d   1       1.946  -1.664   0.226  0.00  0.00    -0.072 A 
ENDROOT
TORSDOF 0
ENDMDL
