MODEL 1
REMARK minimizedAffinity 1.84318793
REMARK minimizedRMSD -1
REMARK  0 active torsions:
REMARK  status: ('A' for Active; 'I' for Inactive)
ROOT
ATOM      1  C1  DEN d   1       0.121  -3.449  -0.663  0.00  0.00     0.130 A 
ATOM      2  C2  DEN d   1       1.442  -3.799  -1.176  0.00  0.00    -0.031 A 
ATOM      3  C3  DEN d   1       2.393  -2.759  -0.734  0.00  0.00     0.027 A 
ATOM      4  C4  DEN d   1       1.951  -0.655   0.690  0.00  0.00     0.027 A 
ATOM      5  C5  DEN d   1       0.983   0.073   1.347  0.00  0.00    -0.003 A 
ATOM      6  C6  DEN d   1      -0.335  -0.301   1.352  0.00  0.00     0.001 A 
ATOM      7  C7  DEN d   1      -0.714  -1.458   0.724  0.00  0.00     0.017 A 
ATOM      8  C8  DEN d   1       0.255  -2.193   0.053  0.00  0.00    -0.094 A 
ATOM      9  C9  DEN d   1       1.583  -1.805   0.070  0.00  0.00    -0.072 A 
ENDROOT
TORSDOF 0
ENDMDL
