MODEL 1
REMARK minimizedAffinity -1.88965321
REMARK minimizedRMSD -1
REMARK  0 active torsions:
REMARK  status: ('A' for Active; 'I' for Inactive)
ROOT
ATOM      1  C1  DEN d   1      -0.065   0.375   1.651  0.00  0.00     0.130 A 
ATOM      2  C2  DEN d   1      -1.501   0.109   1.682  0.00  0.00    -0.031 A 
ATOM      3  C3  DEN d   1      -1.737  -1.196   1.031  0.00  0.00     0.027 A 
ATOM      4  C4  DEN d   1      -0.028  -2.821  -0.013  0.00  0.00     0.027 A 
ATOM      5  C5  DEN d   1       1.306  -3.023  -0.288  0.00  0.00    -0.003 A 
ATOM      6  C6  DEN d   1       2.265  -2.098   0.031  0.00  0.00     0.001 A 
ATOM      7  C7  DEN d   1       1.909  -0.948   0.685  0.00  0.00     0.017 A 
ATOM      8  C8  DEN d   1       0.564  -0.735   0.959  0.00  0.00    -0.094 A 
ATOM      9  C9  DEN d   1      -0.388  -1.687   0.640  0.00  0.00    -0.072 A 
ENDROOT
TORSDOF 0
ENDMDL
