MODEL 1
REMARK minimizedAffinity 10.8673172
REMARK minimizedRMSD -1
REMARK  0 active torsions:
REMARK  status: ('A' for Active; 'I' for Inactive)
ROOT
ATOM      1  C1  DEN d   1       4.594   3.179  -1.257  0.00  0.00     0.130 A 
ATOM      2  C2  DEN d   1       4.186   4.577  -1.156  0.00  0.00    -0.031 A 
ATOM      3  C3  DEN d   1       3.083   4.801  -2.113  0.00  0.00     0.027 A 
ATOM      4  C4  DEN d   1       1.972   3.125  -3.728  0.00  0.00     0.027 A 
ATOM      5  C5  DEN d   1       1.986   1.825  -4.181  0.00  0.00    -0.003 A 
ATOM      6  C6  DEN d   1       2.885   0.900  -3.719  0.00  0.00     0.001 A 
ATOM      7  C7  DEN d   1       3.779   1.252  -2.742  0.00  0.00     0.017 A 
ATOM      8  C8  DEN d   1       3.776   2.564  -2.286  0.00  0.00    -0.094 A 
ATOM      9  C9  DEN d   1       2.851   3.480  -2.757  0.00  0.00    -0.072 A 
ENDROOT
TORSDOF 0
ENDMDL
