MODEL 1
REMARK minimizedAffinity 2.85267138
REMARK minimizedRMSD -1
REMARK  0 active torsions:
REMARK  status: ('A' for Active; 'I' for Inactive)
ROOT
ATOM      1  C1  DEN d   1       1.109  -3.028   3.304  0.00  0.00     0.130 A 
ATOM      2  C2  DEN d   1       1.686  -1.984   4.146  0.00  0.00    -0.031 A 
ATOM      3  C3  DEN d   1       1.649  -0.715   3.390  0.00  0.00     0.027 A 
ATOM      4  C4  DEN d   1       0.754  -0.268   1.013  0.00  0.00     0.027 A 
ATOM      5  C5  DEN d   1       0.179  -0.847  -0.097  0.00  0.00    -0.003 A 
ATOM      6  C6  DEN d   1      -0.093  -2.188  -0.164  0.00  0.00     0.001 A 
ATOM      7  C7  DEN d   1       0.169  -2.988   0.917  0.00  0.00     0.017 A 
ATOM      8  C8  DEN d   1       0.756  -2.413   2.037  0.00  0.00    -0.094 A 
ATOM      9  C9  DEN d   1       1.011  -1.054   2.090  0.00  0.00    -0.072 A 
ENDROOT
TORSDOF 0
ENDMDL
