MODEL 1
REMARK minimizedAffinity -4.33918428
REMARK minimizedRMSD -1
REMARK  0 active torsions:
REMARK  status: ('A' for Active; 'I' for Inactive)
ROOT
ATOM      1  C1  DEN d   1       1.468   0.134   0.802  0.00  0.00     0.130 A 
ATOM      2  C2  DEN d   1       0.046   0.064   1.128  0.00  0.00    -0.031 A 
ATOM      3  C3  DEN d   1      -0.429  -1.297   0.809  0.00  0.00     0.027 A 
ATOM      4  C4  DEN d   1       0.893  -3.294  -0.149  0.00  0.00     0.027 A 
ATOM      5  C5  DEN d   1       2.127  -3.712  -0.597  0.00  0.00    -0.003 A 
ATOM      6  C6  DEN d   1       3.210  -2.875  -0.642  0.00  0.00     0.001 A 
ATOM      7  C7  DEN d   1       3.092  -1.588  -0.189  0.00  0.00     0.017 A 
ATOM      8  C8  DEN d   1       1.849  -1.156   0.257  0.00  0.00    -0.094 A 
ATOM      9  C9  DEN d   1       0.770  -2.022   0.306  0.00  0.00    -0.072 A 
ENDROOT
TORSDOF 0
ENDMDL
