MODEL 1
REMARK minimizedAffinity 2.8923645
REMARK minimizedRMSD -1
REMARK  0 active torsions:
REMARK  status: ('A' for Active; 'I' for Inactive)
ROOT
ATOM      1  C1  DEN d   1       0.911  -3.832   0.166  0.00  0.00     0.130 A 
ATOM      2  C2  DEN d   1       2.320  -3.804  -0.214  0.00  0.00    -0.031 A 
ATOM      3  C3  DEN d   1       2.806  -2.417  -0.068  0.00  0.00     0.027 A 
ATOM      4  C4  DEN d   1       1.519  -0.322   0.712  0.00  0.00     0.027 A 
ATOM      5  C5  DEN d   1       0.296   0.153   1.130  0.00  0.00    -0.003 A 
ATOM      6  C6  DEN d   1      -0.807  -0.653   1.224  0.00  0.00     0.001 A 
ATOM      7  C7  DEN d   1      -0.699  -1.988   0.937  0.00  0.00     0.017 A 
ATOM      8  C8  DEN d   1       0.529  -2.473   0.507  0.00  0.00    -0.094 A 
ATOM      9  C9  DEN d   1       1.636  -1.645   0.431  0.00  0.00    -0.072 A 
ENDROOT
TORSDOF 0
ENDMDL
