MODEL 1
REMARK minimizedAffinity 2.55313015
REMARK minimizedRMSD -1
REMARK  0 active torsions:
REMARK  status: ('A' for Active; 'I' for Inactive)
ROOT
ATOM      1  C1  DEN d   1      -1.009  -1.293   1.011  0.00  0.00     0.130 A 
ATOM      2  C2  DEN d   1      -0.684   0.018   1.566  0.00  0.00    -0.031 A 
ATOM      3  C3  DEN d   1       0.738   0.295   1.278  0.00  0.00     0.027 A 
ATOM      4  C4  DEN d   1       2.456  -1.168   0.028  0.00  0.00     0.027 A 
ATOM      5  C5  DEN d   1       2.649  -2.370  -0.616  0.00  0.00    -0.003 A 
ATOM      6  C6  DEN d   1       1.654  -3.304  -0.732  0.00  0.00     0.001 A 
ATOM      7  C7  DEN d   1       0.406  -3.032  -0.236  0.00  0.00     0.017 A 
ATOM      8  C8  DEN d   1       0.206  -1.825   0.421  0.00  0.00    -0.094 A 
ATOM      9  C9  DEN d   1       1.221  -0.889   0.518  0.00  0.00    -0.072 A 
ENDROOT
TORSDOF 0
ENDMDL
