MODEL 1
REMARK minimizedAffinity -4.4160676
REMARK minimizedRMSD -1
REMARK  0 active torsions:
REMARK  status: ('A' for Active; 'I' for Inactive)
ROOT
ATOM      1  C2' OXE d   1      -1.873   1.196  -0.178  0.00  0.00     0.078 C 
ATOM      2  C1' OXE d   1       0.408  -0.409  -0.495  0.00  0.00     0.078 C 
ATOM      3  C1  OXE d   1       0.046   0.032   0.901  0.00  0.00    -0.078 A 
ATOM      4  C2  OXE d   1      -1.045   0.855   1.042  0.00  0.00    -0.078 A 
ATOM      5  C3  OXE d   1      -1.454   1.246   2.313  0.00  0.00     0.003 A 
ATOM      6  C4  OXE d   1      -0.677   0.935   3.435  0.00  0.00    -0.002 A 
ATOM      7  C5  OXE d   1       0.461   0.130   3.310  0.00  0.00    -0.002 A 
ATOM      8  C6  OXE d   1       0.811  -0.364   2.058  0.00  0.00     0.003 A 
ENDROOT
TORSDOF 0
ENDMDL
