MODEL 1
REMARK minimizedAffinity -3.40284467
REMARK minimizedRMSD -1
REMARK  0 active torsions:
REMARK  status: ('A' for Active; 'I' for Inactive)
ROOT
ATOM      1  C2' OXE d   1       1.590  -0.247   1.922  0.00  0.00     0.078 C 
ATOM      2  C1' OXE d   1      -0.895   0.753   2.763  0.00  0.00     0.078 C 
ATOM      3  C1  OXE d   1      -0.675   0.570   1.282  0.00  0.00    -0.078 A 
ATOM      4  C2  OXE d   1       0.560   0.124   0.876  0.00  0.00    -0.078 A 
ATOM      5  C3  OXE d   1       0.797  -0.115  -0.474  0.00  0.00     0.003 A 
ATOM      6  C4  OXE d   1      -0.157   0.241  -1.435  0.00  0.00    -0.002 A 
ATOM      7  C5  OXE d   1      -1.407   0.734  -1.046  0.00  0.00    -0.002 A 
ATOM      8  C6  OXE d   1      -1.697   0.864   0.308  0.00  0.00     0.003 A 
ENDROOT
TORSDOF 0
ENDMDL
