MODEL 1
REMARK minimizedAffinity -3.99073029
REMARK minimizedRMSD -1
REMARK  0 active torsions:
REMARK  status: ('A' for Active; 'I' for Inactive)
ROOT
ATOM      1  C2' OXE d   1       1.459   0.135  -2.531  0.00  0.00     0.078 C 
ATOM      2  C1' OXE d   1       1.440  -1.694  -0.402  0.00  0.00     0.078 C 
ATOM      3  C1  OXE d   1       0.377  -0.624  -0.419  0.00  0.00    -0.078 A 
ATOM      4  C2  OXE d   1       0.422   0.295  -1.440  0.00  0.00    -0.078 A 
ATOM      5  C3  OXE d   1      -0.567   1.270  -1.533  0.00  0.00     0.003 A 
ATOM      6  C4  OXE d   1      -1.516   1.418  -0.514  0.00  0.00    -0.002 A 
ATOM      7  C5  OXE d   1      -1.555   0.516   0.555  0.00  0.00    -0.002 A 
ATOM      8  C6  OXE d   1      -0.644  -0.533   0.595  0.00  0.00     0.003 A 
ENDROOT
TORSDOF 0
ENDMDL
