MODEL 1
REMARK minimizedAffinity -4.02580786
REMARK minimizedRMSD -1
REMARK  0 active torsions:
REMARK  status: ('A' for Active; 'I' for Inactive)
ROOT
ATOM      1  C2' OXE d   1       1.360  -0.505   2.886  0.00  0.00     0.078 C 
ATOM      2  C1' OXE d   1       1.849  -1.161   0.200  0.00  0.00     0.078 C 
ATOM      3  C1  OXE d   1       0.490  -0.611   0.554  0.00  0.00    -0.078 A 
ATOM      4  C2  OXE d   1       0.244  -0.336   1.878  0.00  0.00    -0.078 A 
ATOM      5  C3  OXE d   1      -0.974   0.225   2.250  0.00  0.00     0.003 A 
ATOM      6  C4  OXE d   1      -2.005   0.369   1.314  0.00  0.00    -0.002 A 
ATOM      7  C5  OXE d   1      -1.788   0.058  -0.033  0.00  0.00    -0.002 A 
ATOM      8  C6  OXE d   1      -0.536  -0.392  -0.436  0.00  0.00     0.003 A 
ENDROOT
TORSDOF 0
ENDMDL
