MODEL 1
REMARK minimizedAffinity -0.660789073
REMARK minimizedRMSD -1
REMARK  0 active torsions:
REMARK  status: ('A' for Active; 'I' for Inactive)
ROOT
ATOM      1  C2' OXE d   1       0.273  -0.236  -2.000  0.00  0.00     0.078 C 
ATOM      2  C1' OXE d   1       1.303  -1.237   0.412  0.00  0.00     0.078 C 
ATOM      3  C1  OXE d   1       0.030  -0.431   0.471  0.00  0.00    -0.078 A 
ATOM      4  C2  OXE d   1      -0.441   0.095  -0.708  0.00  0.00    -0.078 A 
ATOM      5  C3  OXE d   1      -1.641   0.801  -0.718  0.00  0.00     0.003 A 
ATOM      6  C4  OXE d   1      -2.291   1.111   0.483  0.00  0.00    -0.002 A 
ATOM      7  C5  OXE d   1      -1.806   0.619   1.700  0.00  0.00    -0.002 A 
ATOM      8  C6  OXE d   1      -0.673  -0.187   1.707  0.00  0.00     0.003 A 
ENDROOT
TORSDOF 0
ENDMDL
