MODEL 1
REMARK minimizedAffinity -5.03956556
REMARK minimizedRMSD -1
REMARK  0 active torsions:
REMARK  status: ('A' for Active; 'I' for Inactive)
ROOT
ATOM      1  C2' OXE d   1       0.385  -0.365  -1.156  0.00  0.00     0.078 C 
ATOM      2  C1' OXE d   1      -2.011   0.497   0.025  0.00  0.00     0.078 C 
ATOM      3  C1  OXE d   1      -0.884   0.087   0.940  0.00  0.00    -0.078 A 
ATOM      4  C2  OXE d   1       0.268  -0.378   0.353  0.00  0.00    -0.078 A 
ATOM      5  C3  OXE d   1       1.359  -0.718   1.149  0.00  0.00     0.003 A 
ATOM      6  C4  OXE d   1       1.239  -0.736   2.544  0.00  0.00    -0.002 A 
ATOM      7  C5  OXE d   1       0.060  -0.304   3.162  0.00  0.00    -0.002 A 
ATOM      8  C6  OXE d   1      -0.993   0.150   2.376  0.00  0.00     0.003 A 
ENDROOT
TORSDOF 0
ENDMDL
