MODEL 1
REMARK minimizedAffinity -4.85859156
REMARK minimizedRMSD -1
REMARK  0 active torsions:
REMARK  status: ('A' for Active; 'I' for Inactive)
ROOT
ATOM      1  C2' OXE d   1      -1.895   0.949   2.282  0.00  0.00     0.078 C 
ATOM      2  C1' OXE d   1      -0.678   0.053  -0.083  0.00  0.00     0.078 C 
ATOM      3  C1  OXE d   1       0.086  -0.111   1.207  0.00  0.00    -0.078 A 
ATOM      4  C2  OXE d   1      -0.498   0.373   2.353  0.00  0.00    -0.078 A 
ATOM      5  C3  OXE d   1       0.140   0.198   3.578  0.00  0.00     0.003 A 
ATOM      6  C4  OXE d   1       1.437  -0.327   3.633  0.00  0.00    -0.002 A 
ATOM      7  C5  OXE d   1       2.066  -0.789   2.473  0.00  0.00    -0.002 A 
ATOM      8  C6  OXE d   1       1.389  -0.728   1.260  0.00  0.00     0.003 A 
ENDROOT
TORSDOF 0
ENDMDL
