MODEL 1
REMARK minimizedAffinity -3.86878395
REMARK minimizedRMSD -1
REMARK  0 active torsions:
REMARK  status: ('A' for Active; 'I' for Inactive)
ROOT
ATOM      1  C2' OXE d   1       1.168  -1.937  -0.502  0.00  0.00     0.078 C 
ATOM      2  C1' OXE d   1       0.714   0.044  -2.439  0.00  0.00     0.078 C 
ATOM      3  C1  OXE d   1       0.032   0.197  -1.102  0.00  0.00    -0.078 A 
ATOM      4  C2  OXE d   1       0.222  -0.800  -0.177  0.00  0.00    -0.078 A 
ATOM      5  C3  OXE d   1      -0.340  -0.681   1.091  0.00  0.00     0.003 A 
ATOM      6  C4  OXE d   1      -1.221   0.367   1.380  0.00  0.00    -0.002 A 
ATOM      7  C5  OXE d   1      -1.461   1.374   0.438  0.00  0.00    -0.002 A 
ATOM      8  C6  OXE d   1      -0.810   1.326  -0.790  0.00  0.00     0.003 A 
ENDROOT
TORSDOF 0
ENDMDL
