MODEL 1
REMARK minimizedAffinity 3.15838194
REMARK minimizedRMSD -1
REMARK  0 active torsions:
REMARK  status: ('A' for Active; 'I' for Inactive)
ROOT
ATOM      1  C   UNL d   1       2.455   0.420   1.996  0.00  0.00    -0.002 A 
ATOM      2  C1  UNL d   1       1.663   1.553   2.120  0.00  0.00     0.010 A 
ATOM      3  C2  UNL d   1       0.559   1.743   1.286  0.00  0.00     0.041 A 
ATOM      4  C3  UNL d   1       0.262   0.766   0.316  0.00  0.00    -0.075 A 
ATOM      5  S   UNL d   1      -1.040   0.786  -0.814  0.00  0.00     0.015 SA
ATOM      6  C4  UNL d   1      -0.575  -0.709  -1.489  0.00  0.00     0.022 A 
ATOM      7  C5  UNL d   1       0.544  -1.225  -0.879  0.00  0.00     0.026 A 
ATOM      8  C6  UNL d   1       1.044  -0.384   0.172  0.00  0.00    -0.082 A 
ATOM      9  C7  UNL d   1       2.157  -0.547   1.032  0.00  0.00     0.045 A 
ENDROOT
TORSDOF 0
ENDMDL
