MODEL 1
REMARK minimizedAffinity -0.1612764
REMARK minimizedRMSD -1
REMARK  0 active torsions:
REMARK  status: ('A' for Active; 'I' for Inactive)
ROOT
ATOM      1  C   UNL d   1      -1.094   1.065   2.910  0.00  0.00    -0.002 A 
ATOM      2  C1  UNL d   1       0.286   1.012   2.771  0.00  0.00     0.010 A 
ATOM      3  C2  UNL d   1       0.862   0.522   1.597  0.00  0.00     0.041 A 
ATOM      4  C3  UNL d   1       0.021   0.085   0.555  0.00  0.00    -0.075 A 
ATOM      5  S   UNL d   1       0.503  -0.551  -0.973  0.00  0.00     0.015 SA
ATOM      6  C4  UNL d   1      -1.111  -0.767  -1.477  0.00  0.00     0.022 A 
ATOM      7  C5  UNL d   1      -2.008  -0.368  -0.515  0.00  0.00     0.026 A 
ATOM      8  C6  UNL d   1      -1.371   0.130   0.672  0.00  0.00    -0.082 A 
ATOM      9  C7  UNL d   1      -1.925   0.630   1.875  0.00  0.00     0.045 A 
ENDROOT
TORSDOF 0
ENDMDL
