MODEL 1
REMARK minimizedAffinity -3.4870913
REMARK minimizedRMSD -1
REMARK  0 active torsions:
REMARK  status: ('A' for Active; 'I' for Inactive)
ROOT
ATOM      1  C   UNL d   1      -0.982   1.126   2.950  0.00  0.00    -0.002 A 
ATOM      2  C1  UNL d   1      -1.849   1.126   1.866  0.00  0.00     0.010 A 
ATOM      3  C2  UNL d   1      -1.463   0.568   0.647  0.00  0.00     0.041 A 
ATOM      4  C3  UNL d   1      -0.178   0.001   0.533  0.00  0.00    -0.075 A 
ATOM      5  S   UNL d   1       0.511  -0.741  -0.862  0.00  0.00     0.015 SA
ATOM      6  C4  UNL d   1       1.973  -1.078  -0.052  0.00  0.00     0.022 A 
ATOM      7  C5  UNL d   1       1.953  -0.641   1.251  0.00  0.00     0.026 A 
ATOM      8  C6  UNL d   1       0.713  -0.013   1.610  0.00  0.00    -0.082 A 
ATOM      9  C7  UNL d   1       0.292   0.562   2.833  0.00  0.00     0.045 A 
ENDROOT
TORSDOF 0
ENDMDL
