MODEL 1
REMARK minimizedAffinity -1.49665463
REMARK minimizedRMSD -1
REMARK  0 active torsions:
REMARK  status: ('A' for Active; 'I' for Inactive)
ROOT
ATOM      1  C   UNL d   1      -2.408   0.980   1.256  0.00  0.00    -0.002 A 
ATOM      2  C1  UNL d   1      -1.471   1.124   2.269  0.00  0.00     0.010 A 
ATOM      3  C2  UNL d   1      -0.142   0.746   2.066  0.00  0.00     0.041 A 
ATOM      4  C3  UNL d   1       0.232   0.216   0.815  0.00  0.00    -0.075 A 
ATOM      5  S   UNL d   1       1.802  -0.313   0.338  0.00  0.00     0.015 SA
ATOM      6  C4  UNL d   1       1.265  -0.743  -1.221  0.00  0.00     0.022 A 
ATOM      7  C5  UNL d   1      -0.076  -0.496  -1.391  0.00  0.00     0.026 A 
ATOM      8  C6  UNL d   1      -0.694   0.062  -0.221  0.00  0.00    -0.082 A 
ATOM      9  C7  UNL d   1      -2.033   0.454   0.017  0.00  0.00     0.045 A 
ENDROOT
TORSDOF 0
ENDMDL
