MODEL 1
REMARK minimizedAffinity -2.08221221
REMARK minimizedRMSD -1
REMARK  0 active torsions:
REMARK  status: ('A' for Active; 'I' for Inactive)
ROOT
ATOM      1  C   UNL d   1      -2.413   0.253   1.486  0.00  0.00    -0.002 A 
ATOM      2  C1  UNL d   1      -2.711  -0.446   0.325  0.00  0.00     0.010 A 
ATOM      3  C2  UNL d   1      -1.711  -1.133  -0.367  0.00  0.00     0.041 A 
ATOM      4  C3  UNL d   1      -0.395  -1.107   0.134  0.00  0.00    -0.075 A 
ATOM      5  S   UNL d   1       0.991  -1.876  -0.544  0.00  0.00     0.015 SA
ATOM      6  C4  UNL d   1       2.011  -1.295   0.692  0.00  0.00     0.022 A 
ATOM      7  C5  UNL d   1       1.327  -0.531   1.608  0.00  0.00     0.026 A 
ATOM      8  C6  UNL d   1      -0.070  -0.411   1.302  0.00  0.00    -0.082 A 
ATOM      9  C7  UNL d   1      -1.106   0.277   1.980  0.00  0.00     0.045 A 
ENDROOT
TORSDOF 0
ENDMDL
