MODEL 1
REMARK minimizedAffinity -1.15078259
REMARK minimizedRMSD -1
REMARK  0 active torsions:
REMARK  status: ('A' for Active; 'I' for Inactive)
ROOT
ATOM      1  C   UNL d   1       0.595  -0.411  -0.726  0.00  0.00    -0.002 A 
ATOM      2  C1  UNL d   1      -0.669  -0.980  -0.795  0.00  0.00     0.010 A 
ATOM      3  C2  UNL d   1      -1.573  -0.832   0.259  0.00  0.00     0.041 A 
ATOM      4  C3  UNL d   1      -1.182  -0.094   1.393  0.00  0.00    -0.075 A 
ATOM      5  S   UNL d   1      -2.123   0.219   2.804  0.00  0.00     0.015 SA
ATOM      6  C4  UNL d   1      -0.870   1.117   3.531  0.00  0.00     0.022 A 
ATOM      7  C5  UNL d   1       0.246   1.186   2.731  0.00  0.00     0.026 A 
ATOM      8  C6  UNL d   1       0.084   0.490   1.486  0.00  0.00    -0.082 A 
ATOM      9  C7  UNL d   1       0.979   0.321   0.401  0.00  0.00     0.045 A 
ENDROOT
TORSDOF 0
ENDMDL
