MODEL 1
REMARK minimizedAffinity 12.3729639
REMARK minimizedRMSD -1
REMARK  0 active torsions:
REMARK  status: ('A' for Active; 'I' for Inactive)
ROOT
ATOM      1  C   UNL d   1      -5.093  -5.178  -0.403  0.00  0.00     0.020 A 
ATOM      2  C1  UNL d   1      -3.780  -5.622  -0.249  0.00  0.00     0.020 A 
ATOM      3  C2  UNL d   1      -2.966  -5.063   0.739  0.00  0.00     0.034 A 
ATOM      4  C3  UNL d   1      -3.464  -4.058   1.576  0.00  0.00     0.017 A 
ATOM      5  C4  UNL d   1      -4.782  -3.614   1.420  0.00  0.00     0.017 A 
ATOM      6  C5  UNL d   1      -5.593  -4.176   0.429  0.00  0.00     0.034 A 
ATOM      7 Cl   UNL d   1      -5.467  -2.378   2.415  0.00  0.00    -0.070 Cl
ATOM      8 Cl1  UNL d   1      -2.402  -3.413   2.777  0.00  0.00    -0.070 Cl
ENDROOT
TORSDOF 0
ENDMDL
