MODEL 1
REMARK minimizedAffinity 7.79394102
REMARK minimizedRMSD -1
REMARK  0 active torsions:
REMARK  status: ('A' for Active; 'I' for Inactive)
ROOT
ATOM      1  C   UNL d   1       4.634  -1.770  -0.324  0.00  0.00     0.020 A 
ATOM      2  C1  UNL d   1       4.892  -0.636  -1.093  0.00  0.00     0.020 A 
ATOM      3  C2  UNL d   1       4.013   0.448  -1.056  0.00  0.00     0.034 A 
ATOM      4  C3  UNL d   1       2.871   0.400  -0.249  0.00  0.00     0.017 A 
ATOM      5  C4  UNL d   1       2.612  -0.738   0.523  0.00  0.00     0.017 A 
ATOM      6  C5  UNL d   1       3.496  -1.821   0.482  0.00  0.00     0.034 A 
ATOM      7 Cl   UNL d   1       1.224  -0.871   1.544  0.00  0.00    -0.070 Cl
ATOM      8 Cl1  UNL d   1       1.827   1.777  -0.252  0.00  0.00    -0.070 Cl
ENDROOT
TORSDOF 0
ENDMDL
