MODEL 1
REMARK minimizedAffinity 13.7282152
REMARK minimizedRMSD -1
REMARK  0 active torsions:
REMARK  status: ('A' for Active; 'I' for Inactive)
ROOT
ATOM      1  C   UNL d   1      -3.366   2.197  -2.835  0.00  0.00     0.020 A 
ATOM      2  C1  UNL d   1      -2.402   1.401  -2.217  0.00  0.00     0.020 A 
ATOM      3  C2  UNL d   1      -1.163   1.946  -1.873  0.00  0.00     0.034 A 
ATOM      4  C3  UNL d   1      -0.885   3.290  -2.147  0.00  0.00     0.017 A 
ATOM      5  C4  UNL d   1      -1.853   4.087  -2.768  0.00  0.00     0.017 A 
ATOM      6  C5  UNL d   1      -3.092   3.537  -3.110  0.00  0.00     0.034 A 
ATOM      7 Cl   UNL d   1      -1.583   5.754  -3.138  0.00  0.00    -0.070 Cl
ATOM      8 Cl1  UNL d   1       0.668   3.897  -1.694  0.00  0.00    -0.070 Cl
ENDROOT
TORSDOF 0
ENDMDL
