MODEL 1
REMARK minimizedAffinity 9.93503761
REMARK minimizedRMSD -1
REMARK  0 active torsions:
REMARK  status: ('A' for Active; 'I' for Inactive)
ROOT
ATOM      1  C   UNL d   1       4.897  -5.982  -5.997  0.00  0.00     0.020 A 
ATOM      2  C1  UNL d   1       5.999  -5.129  -6.000  0.00  0.00     0.020 A 
ATOM      3  C2  UNL d   1       5.847  -3.791  -5.631  0.00  0.00     0.034 A 
ATOM      4  C3  UNL d   1       4.590  -3.302  -5.258  0.00  0.00     0.017 A 
ATOM      5  C4  UNL d   1       3.484  -4.160  -5.256  0.00  0.00     0.017 A 
ATOM      6  C5  UNL d   1       3.642  -5.499  -5.626  0.00  0.00     0.034 A 
ATOM      7 Cl   UNL d   1       1.901  -3.630  -4.808  0.00  0.00    -0.070 Cl
ATOM      8 Cl1  UNL d   1       4.474  -1.636  -4.813  0.00  0.00    -0.070 Cl
ENDROOT
TORSDOF 0
ENDMDL
