MODEL 1
REMARK minimizedAffinity 5.84396458
REMARK minimizedRMSD -1
REMARK  0 active torsions:
REMARK  status: ('A' for Active; 'I' for Inactive)
ROOT
ATOM      1  C   UNL d   1      -0.850  -0.351   4.993  0.00  0.00     0.020 A 
ATOM      2  C1  UNL d   1      -1.451  -1.603   4.874  0.00  0.00     0.020 A 
ATOM      3  C2  UNL d   1      -1.123  -2.437   3.802  0.00  0.00     0.034 A 
ATOM      4  C3  UNL d   1      -0.191  -2.019   2.845  0.00  0.00     0.017 A 
ATOM      5  C4  UNL d   1       0.412  -0.761   2.966  0.00  0.00     0.017 A 
ATOM      6  C5  UNL d   1       0.080   0.069   4.041  0.00  0.00     0.034 A 
ATOM      7 Cl   UNL d   1       1.572  -0.176   1.825  0.00  0.00    -0.070 Cl
ATOM      8 Cl1  UNL d   1       0.168  -3.101   1.547  0.00  0.00    -0.070 Cl
ENDROOT
TORSDOF 0
ENDMDL
