MODEL 1
REMARK minimizedAffinity 7.58999872
REMARK minimizedRMSD -1
REMARK  0 active torsions:
REMARK  status: ('A' for Active; 'I' for Inactive)
ROOT
ATOM      1  C   UNL d   1      -0.546   1.614  -0.795  0.00  0.00     0.020 A 
ATOM      2  C1  UNL d   1       0.581   2.166  -0.188  0.00  0.00     0.020 A 
ATOM      3  C2  UNL d   1       1.018   3.441  -0.553  0.00  0.00     0.034 A 
ATOM      4  C3  UNL d   1       0.327   4.169  -1.529  0.00  0.00     0.017 A 
ATOM      5  C4  UNL d   1      -0.805   3.614  -2.138  0.00  0.00     0.017 A 
ATOM      6  C5  UNL d   1      -1.237   2.337  -1.768  0.00  0.00     0.034 A 
ATOM      7 Cl   UNL d   1      -1.709   4.451  -3.350  0.00  0.00    -0.070 Cl
ATOM      8 Cl1  UNL d   1       0.922   5.740  -1.931  0.00  0.00    -0.070 Cl
ENDROOT
TORSDOF 0
ENDMDL
