MODEL 1
REMARK minimizedAffinity 8.22604275
REMARK minimizedRMSD -1
REMARK  0 active torsions:
REMARK  status: ('A' for Active; 'I' for Inactive)
ROOT
ATOM      1  C   UNL d   1       0.111  -2.273   2.713  0.00  0.00     0.020 A 
ATOM      2  C1  UNL d   1       0.594  -0.965   2.731  0.00  0.00     0.020 A 
ATOM      3  C2  UNL d   1       1.720  -0.626   1.976  0.00  0.00     0.034 A 
ATOM      4  C3  UNL d   1       2.366  -1.597   1.202  0.00  0.00     0.017 A 
ATOM      5  C4  UNL d   1       1.880  -2.909   1.185  0.00  0.00     0.017 A 
ATOM      6  C5  UNL d   1       0.752  -3.242   1.941  0.00  0.00     0.034 A 
ATOM      7 Cl   UNL d   1       2.623  -4.161   0.253  0.00  0.00    -0.070 Cl
ATOM      8 Cl1  UNL d   1       3.752  -1.108   0.294  0.00  0.00    -0.070 Cl
ENDROOT
TORSDOF 0
ENDMDL
