MODEL 1
REMARK minimizedAffinity 8.44688988
REMARK minimizedRMSD -1
REMARK  0 active torsions:
REMARK  status: ('A' for Active; 'I' for Inactive)
ROOT
ATOM      1  C   UNL d   1      -2.257  -2.678   5.233  0.00  0.00     0.020 A 
ATOM      2  C1  UNL d   1      -1.961  -1.551   5.999  0.00  0.00     0.020 A 
ATOM      3  C2  UNL d   1      -0.901  -0.717   5.635  0.00  0.00     0.034 A 
ATOM      4  C3  UNL d   1      -0.133  -1.010   4.502  0.00  0.00     0.017 A 
ATOM      5  C4  UNL d   1      -0.430  -2.142   3.734  0.00  0.00     0.017 A 
ATOM      6  C5  UNL d   1      -1.493  -2.973   4.103  0.00  0.00     0.034 A 
ATOM      7 Cl   UNL d   1       0.473  -2.568   2.324  0.00  0.00    -0.070 Cl
ATOM      8 Cl1  UNL d   1       1.163   0.064   4.111  0.00  0.00    -0.070 Cl
ENDROOT
TORSDOF 0
ENDMDL
