MODEL 1
REMARK minimizedAffinity 4.95798731
REMARK minimizedRMSD -1
REMARK  0 active torsions:
REMARK  status: ('A' for Active; 'I' for Inactive)
ROOT
ATOM      1  C   UNL d   1       1.264   3.939  -1.212  0.00  0.00     0.020 A 
ATOM      2  C1  UNL d   1       1.026   2.764  -0.499  0.00  0.00     0.020 A 
ATOM      3  C2  UNL d   1       0.023   1.886  -0.915  0.00  0.00     0.034 A 
ATOM      4  C3  UNL d   1      -0.745   2.181  -2.047  0.00  0.00     0.017 A 
ATOM      5  C4  UNL d   1      -0.506   3.360  -2.762  0.00  0.00     0.017 A 
ATOM      6  C5  UNL d   1       0.500   4.236  -2.341  0.00  0.00     0.034 A 
ATOM      7 Cl   UNL d   1      -1.413   3.792  -4.168  0.00  0.00    -0.070 Cl
ATOM      8 Cl1  UNL d   1      -1.969   1.050  -2.505  0.00  0.00    -0.070 Cl
ENDROOT
TORSDOF 0
ENDMDL
