MODEL 1
REMARK minimizedAffinity 12.77178
REMARK minimizedRMSD -1
REMARK  0 active torsions:
REMARK  status: ('A' for Active; 'I' for Inactive)
ROOT
ATOM      1  C   UNL d   1      -2.636  -2.782   2.602  0.00  0.00     0.020 A 
ATOM      2  C1  UNL d   1      -1.950  -3.039   1.416  0.00  0.00     0.020 A 
ATOM      3  C2  UNL d   1      -0.706  -2.448   1.185  0.00  0.00     0.034 A 
ATOM      4  C3  UNL d   1      -0.144  -1.596   2.143  0.00  0.00     0.017 A 
ATOM      5  C4  UNL d   1      -0.833  -1.338   3.334  0.00  0.00     0.017 A 
ATOM      6  C5  UNL d   1      -2.078  -1.934   3.559  0.00  0.00     0.034 A 
ATOM      7 Cl   UNL d   1      -0.203  -0.299   4.563  0.00  0.00    -0.070 Cl
ATOM      8 Cl1  UNL d   1       1.397  -0.899   1.792  0.00  0.00    -0.070 Cl
ENDROOT
TORSDOF 0
ENDMDL
