MODEL 1
REMARK minimizedAffinity 1.63424408
REMARK minimizedRMSD -1
REMARK  0 active torsions:
REMARK  status: ('A' for Active; 'I' for Inactive)
ROOT
ATOM      1  C   UNL d   1      -0.743  -0.368   5.845  0.00  0.00     0.020 A 
ATOM      2  C1  UNL d   1      -1.698  -1.372   6.000  0.00  0.00     0.020 A 
ATOM      3  C2  UNL d   1      -1.909  -2.299   4.976  0.00  0.00     0.034 A 
ATOM      4  C3  UNL d   1      -1.164  -2.222   3.794  0.00  0.00     0.017 A 
ATOM      5  C4  UNL d   1      -0.206  -1.214   3.639  0.00  0.00     0.017 A 
ATOM      6  C5  UNL d   1       0.001  -0.289   4.667  0.00  0.00     0.034 A 
ATOM      7 Cl   UNL d   1       0.751  -1.055   2.209  0.00  0.00    -0.070 Cl
ATOM      8 Cl1  UNL d   1      -1.477  -3.401   2.570  0.00  0.00    -0.070 Cl
ENDROOT
TORSDOF 0
ENDMDL
