MODEL 1
REMARK minimizedAffinity 13.3708029
REMARK minimizedRMSD -1
REMARK  0 active torsions:
REMARK  status: ('A' for Active; 'I' for Inactive)
ROOT
ATOM      1  C   UNL d   1      -1.364  -2.194   2.369  0.00  0.00     0.020 A 
ATOM      2  C1  UNL d   1      -0.062  -1.933   1.944  0.00  0.00     0.020 A 
ATOM      3  C2  UNL d   1       0.804  -1.200   2.759  0.00  0.00     0.034 A 
ATOM      4  C3  UNL d   1       0.369  -0.727   4.002  0.00  0.00     0.017 A 
ATOM      5  C4  UNL d   1      -0.938  -0.990   4.427  0.00  0.00     0.017 A 
ATOM      6  C5  UNL d   1      -1.801  -1.724   3.607  0.00  0.00     0.034 A 
ATOM      7 Cl   UNL d   1      -1.547  -0.439   5.948  0.00  0.00    -0.070 Cl
ATOM      8 Cl1  UNL d   1       1.494   0.172   4.958  0.00  0.00    -0.070 Cl
ENDROOT
TORSDOF 0
ENDMDL
