MODEL 1
REMARK minimizedAffinity 13.5173569
REMARK minimizedRMSD -1
REMARK  0 active torsions:
REMARK  status: ('A' for Active; 'I' for Inactive)
ROOT
ATOM      1  C   UNL d   1       2.615   0.022   2.971  0.00  0.00     0.020 A 
ATOM      2  C1  UNL d   1       2.691  -1.035   2.064  0.00  0.00     0.020 A 
ATOM      3  C2  UNL d   1       1.743  -2.059   2.105  0.00  0.00     0.034 A 
ATOM      4  C3  UNL d   1       0.715  -2.029   3.054  0.00  0.00     0.017 A 
ATOM      5  C4  UNL d   1       0.639  -0.968   3.963  0.00  0.00     0.017 A 
ATOM      6  C5  UNL d   1       1.591   0.055   3.918  0.00  0.00     0.034 A 
ATOM      7 Cl   UNL d   1      -0.601  -0.861   5.163  0.00  0.00    -0.070 Cl
ATOM      8 Cl1  UNL d   1      -0.424  -3.329   3.046  0.00  0.00    -0.070 Cl
ENDROOT
TORSDOF 0
ENDMDL
