MODEL 1
REMARK minimizedAffinity 23.8024197
REMARK minimizedRMSD -1
REMARK  0 active torsions:
REMARK  status: ('A' for Active; 'I' for Inactive)
ROOT
ATOM      1  C   UNL d   1       0.543  -1.436   1.506  0.00  0.00     0.020 A 
ATOM      2  C1  UNL d   1       1.843  -1.482   2.007  0.00  0.00     0.020 A 
ATOM      3  C2  UNL d   1       2.683  -0.375   1.872  0.00  0.00     0.034 A 
ATOM      4  C3  UNL d   1       2.224   0.783   1.234  0.00  0.00     0.017 A 
ATOM      5  C4  UNL d   1       0.919   0.828   0.730  0.00  0.00     0.017 A 
ATOM      6  C5  UNL d   1       0.082  -0.284   0.869  0.00  0.00     0.034 A 
ATOM      7 Cl   UNL d   1       0.281   2.221  -0.070  0.00  0.00    -0.070 Cl
ATOM      8 Cl1  UNL d   1       3.317   2.115   1.102  0.00  0.00    -0.070 Cl
ENDROOT
TORSDOF 0
ENDMDL
