MODEL 1
REMARK minimizedAffinity 17.926918
REMARK minimizedRMSD -1
REMARK  0 active torsions:
REMARK  status: ('A' for Active; 'I' for Inactive)
ROOT
ATOM      1  C   UNL d   1       1.258  -5.888  -5.687  0.00  0.00     0.020 A 
ATOM      2  C1  UNL d   1       0.594  -4.892  -4.972  0.00  0.00     0.020 A 
ATOM      3  C2  UNL d   1       1.283  -3.748  -4.563  0.00  0.00     0.034 A 
ATOM      4  C3  UNL d   1       2.641  -3.598  -4.868  0.00  0.00     0.017 A 
ATOM      5  C4  UNL d   1       3.307  -4.599  -5.586  0.00  0.00     0.017 A 
ATOM      6  C5  UNL d   1       2.611  -5.742  -5.993  0.00  0.00     0.034 A 
ATOM      7 Cl   UNL d   1       4.981  -4.485  -6.000  0.00  0.00    -0.070 Cl
ATOM      8 Cl1  UNL d   1       3.431  -2.158  -4.332  0.00  0.00    -0.070 Cl
ENDROOT
TORSDOF 0
ENDMDL
