MODEL 1
REMARK minimizedAffinity 21.6126366
REMARK minimizedRMSD -1
REMARK  0 active torsions:
REMARK  status: ('A' for Active; 'I' for Inactive)
ROOT
ATOM      1  C   UNL d   1       1.730  -1.563   1.400  0.00  0.00     0.020 A 
ATOM      2  C1  UNL d   1       0.391  -1.245   1.182  0.00  0.00     0.020 A 
ATOM      3  C2  UNL d   1       0.040   0.034   0.743  0.00  0.00     0.034 A 
ATOM      4  C3  UNL d   1       1.029   0.998   0.521  0.00  0.00     0.017 A 
ATOM      5  C4  UNL d   1       2.374   0.677   0.740  0.00  0.00     0.017 A 
ATOM      6  C5  UNL d   1       2.720  -0.604   1.180  0.00  0.00     0.034 A 
ATOM      7 Cl   UNL d   1       3.651   1.814   0.489  0.00  0.00    -0.070 Cl
ATOM      8 Cl1  UNL d   1       0.523   2.559  -0.022  0.00  0.00    -0.070 Cl
ENDROOT
TORSDOF 0
ENDMDL
