MODEL 1
REMARK minimizedAffinity -6.05221415
REMARK minimizedRMSD -1
REMARK  3 active torsions:
REMARK  status: ('A' for Active; 'I' for Inactive)
REMARK    1  A    between atoms: C3'_2  and  C2'_3 
REMARK    2  A    between atoms: C2'_3  and  C1'_4 
REMARK    3  A    between atoms: C1'_4  and  C1_5 
ROOT
ATOM      1  C1  N4B d   1       1.020  -0.495   0.913  0.00  0.00    -0.075 A 
ATOM      2  C2  N4B d   1       0.608  -1.407   1.909  0.00  0.00     0.002 A 
ATOM      3  C3  N4B d   1       1.531  -2.218   2.522  0.00  0.00     0.002 A 
ATOM      4  C4  N4B d   1       2.863  -2.149   2.143  0.00  0.00    -0.004 A 
ATOM      5  C5  N4B d   1       3.257  -1.248   1.197  0.00  0.00     0.002 A 
ATOM      6  C6  N4B d   1       2.340  -0.423   0.576  0.00  0.00     0.002 A 
ENDROOT
BRANCH   1   7
ATOM      7  C1' N4B d   1       0.034   0.352   0.155  0.00  0.00     0.057 C 
BRANCH   7   8
ATOM      8  C2' N4B d   1       0.027   1.759   0.743  0.00  0.00     0.009 C 
BRANCH   8   9
ATOM      9  C3' N4B d   1      -1.381   2.238   1.054  0.00  0.00     0.004 C 
ATOM     10  C4' N4B d   1      -1.432   3.690   1.424  0.00  0.00     0.003 C 
ENDBRANCH   8   9
ENDBRANCH   7   8
ENDBRANCH   1   7
TORSDOF 3
ENDMDL
