MODEL 1
REMARK minimizedAffinity -2.24908137
REMARK minimizedRMSD -1
REMARK  3 active torsions:
REMARK  status: ('A' for Active; 'I' for Inactive)
REMARK    1  A    between atoms: C3'_2  and  C2'_3 
REMARK    2  A    between atoms: C2'_3  and  C1'_4 
REMARK    3  A    between atoms: C1'_4  and  C1_5 
ROOT
ATOM      1  C1  N4B d   1       0.795   1.005   0.266  0.00  0.00    -0.075 A 
ATOM      2  C2  N4B d   1       2.143   0.622   0.446  0.00  0.00     0.002 A 
ATOM      3  C3  N4B d   1       2.490  -0.706   0.404  0.00  0.00     0.002 A 
ATOM      4  C4  N4B d   1       1.509  -1.666   0.204  0.00  0.00    -0.004 A 
ATOM      5  C5  N4B d   1       0.214  -1.286   0.006  0.00  0.00     0.002 A 
ATOM      6  C6  N4B d   1      -0.149   0.046   0.041  0.00  0.00     0.002 A 
ENDROOT
BRANCH   1   7
ATOM      7  C1' N4B d   1       0.354   2.438   0.389  0.00  0.00     0.057 C 
BRANCH   7   8
ATOM      8  C2' N4B d   1      -1.062   2.479   0.956  0.00  0.00     0.009 C 
BRANCH   8   9
ATOM      9  C3' N4B d   1      -1.392   3.833   1.562  0.00  0.00     0.004 C 
ATOM     10  C4' N4B d   1      -2.378   3.740   2.688  0.00  0.00     0.003 C 
ENDBRANCH   8   9
ENDBRANCH   7   8
ENDBRANCH   1   7
TORSDOF 3
ENDMDL
