MODEL 1
REMARK minimizedAffinity -3.24848485
REMARK minimizedRMSD -1
REMARK  3 active torsions:
REMARK  status: ('A' for Active; 'I' for Inactive)
REMARK    1  A    between atoms: C3'_2  and  C2'_3 
REMARK    2  A    between atoms: C2'_3  and  C1'_4 
REMARK    3  A    between atoms: C1'_4  and  C1_5 
ROOT
ATOM      1  C1  N4B d   1      -1.391   0.107  -0.896  0.00  0.00    -0.075 A 
ATOM      2  C2  N4B d   1      -1.501  -0.540   0.354  0.00  0.00     0.002 A 
ATOM      3  C3  N4B d   1      -0.371  -0.966   1.008  0.00  0.00     0.002 A 
ATOM      4  C4  N4B d   1       0.873  -0.774   0.424  0.00  0.00    -0.004 A 
ATOM      5  C5  N4B d   1       0.972  -0.126  -0.772  0.00  0.00     0.002 A 
ATOM      6  C6  N4B d   1      -0.155   0.312  -1.438  0.00  0.00     0.002 A 
ENDROOT
BRANCH   1   7
ATOM      7  C1' N4B d   1      -2.603   0.515  -1.688  0.00  0.00     0.057 C 
BRANCH   7   8
ATOM      8  C2' N4B d   1      -2.510  -0.083  -3.089  0.00  0.00     0.009 C 
BRANCH   8   9
ATOM      9  C3' N4B d   1      -3.018  -1.514  -3.132  0.00  0.00     0.004 C 
ATOM     10  C4' N4B d   1      -4.109  -1.773  -2.136  0.00  0.00     0.003 C 
ENDBRANCH   8   9
ENDBRANCH   7   8
ENDBRANCH   1   7
TORSDOF 3
ENDMDL
