MODEL 1
REMARK minimizedAffinity -0.894881427
REMARK minimizedRMSD -1
REMARK  3 active torsions:
REMARK  status: ('A' for Active; 'I' for Inactive)
REMARK    1  A    between atoms: C3'_2  and  C2'_3 
REMARK    2  A    between atoms: C2'_3  and  C1'_4 
REMARK    3  A    between atoms: C1'_4  and  C1_5 
ROOT
ATOM      1  C1  N4B d   1       0.686   0.057   0.036  0.00  0.00    -0.075 A 
ATOM      2  C2  N4B d   1       1.098   1.235   0.696  0.00  0.00     0.002 A 
ATOM      3  C3  N4B d   1       2.193   1.211   1.524  0.00  0.00     0.002 A 
ATOM      4  C4  N4B d   1       2.878   0.021   1.721  0.00  0.00    -0.004 A 
ATOM      5  C5  N4B d   1       2.488  -1.107   1.060  0.00  0.00     0.002 A 
ATOM      6  C6  N4B d   1       1.392  -1.096   0.222  0.00  0.00     0.002 A 
ENDROOT
BRANCH   1   7
ATOM      7  C1' N4B d   1      -0.557   0.015  -0.811  0.00  0.00     0.057 C 
BRANCH   7   8
ATOM      8  C2' N4B d   1      -1.782   0.006   0.097  0.00  0.00     0.009 C 
BRANCH   8   9
ATOM      9  C3' N4B d   1      -2.700   1.185  -0.176  0.00  0.00     0.004 C 
ATOM     10  C4' N4B d   1      -3.118   1.899   1.075  0.00  0.00     0.003 C 
ENDBRANCH   8   9
ENDBRANCH   7   8
ENDBRANCH   1   7
TORSDOF 3
ENDMDL
