MODEL 1
REMARK minimizedAffinity -5.9305625
REMARK minimizedRMSD -1
REMARK  3 active torsions:
REMARK  status: ('A' for Active; 'I' for Inactive)
REMARK    1  A    between atoms: C3'_2  and  C2'_3 
REMARK    2  A    between atoms: C2'_3  and  C1'_4 
REMARK    3  A    between atoms: C1'_4  and  C1_5 
ROOT
ATOM      1  C1  N4B d   1       0.758   1.287   0.571  0.00  0.00    -0.075 A 
ATOM      2  C2  N4B d   1       0.139   0.041   0.331  0.00  0.00     0.002 A 
ATOM      3  C3  N4B d   1       0.861  -1.120   0.463  0.00  0.00     0.002 A 
ATOM      4  C4  N4B d   1       2.202  -1.058   0.814  0.00  0.00    -0.004 A 
ATOM      5  C5  N4B d   1       2.784   0.148   1.069  0.00  0.00     0.002 A 
ATOM      6  C6  N4B d   1       2.070   1.323   0.944  0.00  0.00     0.002 A 
ENDROOT
BRANCH   1   7
ATOM      7  C1' N4B d   1       0.032   2.588   0.357  0.00  0.00     0.057 C 
BRANCH   7   8
ATOM      8  C2' N4B d   1      -0.612   3.025   1.669  0.00  0.00     0.009 C 
BRANCH   8   9
ATOM      9  C3' N4B d   1      -1.660   4.104   1.456  0.00  0.00     0.004 C 
ATOM     10  C4' N4B d   1      -1.081   5.487   1.477  0.00  0.00     0.003 C 
ENDBRANCH   8   9
ENDBRANCH   7   8
ENDBRANCH   1   7
TORSDOF 3
ENDMDL
