MODEL 1
REMARK minimizedAffinity -4.0240984
REMARK minimizedRMSD -1
REMARK  3 active torsions:
REMARK  status: ('A' for Active; 'I' for Inactive)
REMARK    1  A    between atoms: C3'_2  and  C2'_3 
REMARK    2  A    between atoms: C2'_3  and  C1'_4 
REMARK    3  A    between atoms: C1'_4  and  C1_5 
ROOT
ATOM      1  C1  N4B d   1      -0.038   0.063   0.417  0.00  0.00    -0.075 A 
ATOM      2  C2  N4B d   1      -0.531  -1.205   0.796  0.00  0.00     0.002 A 
ATOM      3  C3  N4B d   1       0.333  -2.264   0.934  0.00  0.00     0.002 A 
ATOM      4  C4  N4B d   1       1.684  -2.084   0.682  0.00  0.00    -0.004 A 
ATOM      5  C5  N4B d   1       2.156  -0.850   0.341  0.00  0.00     0.002 A 
ATOM      6  C6  N4B d   1       1.300   0.224   0.202  0.00  0.00     0.002 A 
ENDROOT
BRANCH   1   7
ATOM      7  C1' N4B d   1      -0.955   1.230   0.170  0.00  0.00     0.057 C 
BRANCH   7   8
ATOM      8  C2' N4B d   1      -0.614   2.351   1.148  0.00  0.00     0.009 C 
BRANCH   8   9
ATOM      9  C3' N4B d   1      -1.855   3.083   1.628  0.00  0.00     0.004 C 
ATOM     10  C4' N4B d   1      -1.633   4.557   1.791  0.00  0.00     0.003 C 
ENDBRANCH   8   9
ENDBRANCH   7   8
ENDBRANCH   1   7
TORSDOF 3
ENDMDL
