MODEL 1
REMARK minimizedAffinity 23.9269447
REMARK minimizedRMSD -1
REMARK  0 active torsions:
REMARK  status: ('A' for Active; 'I' for Inactive)
ROOT
ATOM      1  N1  IND d   1       2.289   2.808  -0.146  0.00  0.00    -0.196 N 
ATOM      2  C2  IND d   1       1.105   2.964  -0.811  0.00  0.00     0.054 A 
ATOM      3  C3  IND d   1       0.342   1.855  -0.681  0.00  0.00    -0.031 A 
ATOM      4  C4  IND d   1       0.796  -0.293   0.663  0.00  0.00     0.051 A 
ATOM      5  C5  IND d   1       1.760  -0.915   1.406  0.00  0.00    -0.031 A 
ATOM      6  C6  IND d   1       2.972  -0.315   1.678  0.00  0.00     0.015 A 
ATOM      7  C7  IND d   1       3.263   0.940   1.224  0.00  0.00    -0.016 A 
ATOM      8  C8  IND d   1       2.290   1.572   0.463  0.00  0.00    -0.047 A 
ATOM      9  C9  IND d   1       1.074   0.951   0.148  0.00  0.00    -0.096 A 
ATOM     10  HN1 IND d   1       2.925   3.385  -0.113  0.00  0.00     0.298 HD
ENDROOT
TORSDOF 0
ENDMDL
