MODEL 1
REMARK minimizedAffinity 11.3624763
REMARK minimizedRMSD -1
REMARK  0 active torsions:
REMARK  status: ('A' for Active; 'I' for Inactive)
ROOT
ATOM      1  N1  IND d   1       3.308  -2.664  -4.485  0.00  0.00    -0.196 N 
ATOM      2  C2  IND d   1       4.382  -2.838  -5.312  0.00  0.00     0.054 A 
ATOM      3  C3  IND d   1       4.263  -3.996  -6.000  0.00  0.00    -0.031 A 
ATOM      4  C4  IND d   1       2.341  -5.708  -5.999  0.00  0.00     0.051 A 
ATOM      5  C5  IND d   1       1.158  -6.000  -5.379  0.00  0.00    -0.031 A 
ATOM      6  C6  IND d   1       0.620  -5.177  -4.411  0.00  0.00     0.015 A 
ATOM      7  C7  IND d   1       1.242  -4.020  -4.034  0.00  0.00    -0.016 A 
ATOM      8  C8  IND d   1       2.446  -3.724  -4.657  0.00  0.00    -0.047 A 
ATOM      9  C9  IND d   1       3.018  -4.577  -5.609  0.00  0.00    -0.096 A 
ATOM     10  HN1 IND d   1       3.191  -2.003  -3.947  0.00  0.00     0.298 HD
ENDROOT
TORSDOF 0
ENDMDL
