MODEL 1
REMARK minimizedAffinity 10.9155693
REMARK minimizedRMSD -1
REMARK  0 active torsions:
REMARK  status: ('A' for Active; 'I' for Inactive)
ROOT
ATOM      1  N1  IND d   1       2.625  -2.622  -4.055  0.00  0.00    -0.196 N 
ATOM      2  C2  IND d   1       3.629  -2.536  -4.980  0.00  0.00     0.054 A 
ATOM      3  C3  IND d   1       3.558  -3.570  -5.848  0.00  0.00    -0.031 A 
ATOM      4  C4  IND d   1       1.820  -5.462  -6.000  0.00  0.00     0.051 A 
ATOM      5  C5  IND d   1       0.735  -5.983  -5.352  0.00  0.00    -0.031 A 
ATOM      6  C6  IND d   1       0.213  -5.397  -4.217  0.00  0.00     0.015 A 
ATOM      7  C7  IND d   1       0.752  -4.256  -3.692  0.00  0.00    -0.016 A 
ATOM      8  C8  IND d   1       1.857  -3.729  -4.343  0.00  0.00    -0.047 A 
ATOM      9  C9  IND d   1       2.418  -4.343  -5.471  0.00  0.00    -0.096 A 
ATOM     10  HN1 IND d   1       2.496  -2.077  -3.403  0.00  0.00     0.298 HD
ENDROOT
TORSDOF 0
ENDMDL
