MODEL 1
REMARK minimizedAffinity 9.19078636
REMARK minimizedRMSD -1
REMARK  0 active torsions:
REMARK  status: ('A' for Active; 'I' for Inactive)
ROOT
ATOM      1  N1  IND d   1       2.346   2.157   0.027  0.00  0.00    -0.196 N 
ATOM      2  C2  IND d   1       1.158   2.516  -0.546  0.00  0.00     0.054 A 
ATOM      3  C3  IND d   1       0.281   1.489  -0.491  0.00  0.00    -0.031 A 
ATOM      4  C4  IND d   1       0.548  -0.835   0.585  0.00  0.00     0.051 A 
ATOM      5  C5  IND d   1       1.467  -1.638   1.199  0.00  0.00    -0.031 A 
ATOM      6  C6  IND d   1       2.752  -1.208   1.461  0.00  0.00     0.015 A 
ATOM      7  C7  IND d   1       3.163   0.051   1.128  0.00  0.00    -0.016 A 
ATOM      8  C8  IND d   1       2.234   0.868   0.499  0.00  0.00    -0.047 A 
ATOM      9  C9  IND d   1       0.942   0.422   0.191  0.00  0.00    -0.096 A 
ATOM     10  HN1 IND d   1       3.046   2.654   0.084  0.00  0.00     0.298 HD
ENDROOT
TORSDOF 0
ENDMDL
