MODEL 1
REMARK minimizedAffinity 11.0882959
REMARK minimizedRMSD -1
REMARK  0 active torsions:
REMARK  status: ('A' for Active; 'I' for Inactive)
ROOT
ATOM      1  N1  IND d   1      -3.785  -2.870   5.589  0.00  0.00    -0.196 N 
ATOM      2  C2  IND d   1      -5.097  -2.933   5.968  0.00  0.00     0.054 A 
ATOM      3  C3  IND d   1      -5.901  -2.913   4.881  0.00  0.00    -0.031 A 
ATOM      4  C4  IND d   1      -5.276  -2.885   2.384  0.00  0.00     0.051 A 
ATOM      5  C5  IND d   1      -4.203  -2.788   1.543  0.00  0.00    -0.031 A 
ATOM      6  C6  IND d   1      -2.910  -2.715   2.017  0.00  0.00     0.015 A 
ATOM      7  C7  IND d   1      -2.639  -2.747   3.356  0.00  0.00    -0.016 A 
ATOM      8  C8  IND d   1      -3.726  -2.838   4.213  0.00  0.00    -0.047 A 
ATOM      9  C9  IND d   1      -5.044  -2.870   3.739  0.00  0.00    -0.096 A 
ATOM     10  HN1 IND d   1      -3.109  -2.853   6.121  0.00  0.00     0.298 HD
ENDROOT
TORSDOF 0
ENDMDL
