MODEL 1
REMARK minimizedAffinity 3.82887912
REMARK minimizedRMSD -1
REMARK  0 active torsions:
REMARK  status: ('A' for Active; 'I' for Inactive)
ROOT
ATOM      1  N1  IND d   1       3.004  -4.050  -5.117  0.00  0.00    -0.196 N 
ATOM      2  C2  IND d   1       3.294  -5.052  -6.000  0.00  0.00     0.054 A 
ATOM      3  C3  IND d   1       2.309  -5.978  -5.999  0.00  0.00    -0.031 A 
ATOM      4  C4  IND d   1       0.084  -5.999  -4.704  0.00  0.00     0.051 A 
ATOM      5  C5  IND d   1      -0.611  -5.316  -3.746  0.00  0.00    -0.031 A 
ATOM      6  C6  IND d   1      -0.128  -4.150  -3.187  0.00  0.00     0.015 A 
ATOM      7  C7  IND d   1       1.068  -3.616  -3.575  0.00  0.00    -0.016 A 
ATOM      8  C8  IND d   1       1.780  -4.312  -4.542  0.00  0.00    -0.047 A 
ATOM      9  C9  IND d   1       1.315  -5.518  -5.082  0.00  0.00    -0.096 A 
ATOM     10  HN1 IND d   1       3.503  -3.370  -4.948  0.00  0.00     0.298 HD
ENDROOT
TORSDOF 0
ENDMDL
