MODEL 1
REMARK minimizedAffinity 23.8268337
REMARK minimizedRMSD -1
REMARK  0 active torsions:
REMARK  status: ('A' for Active; 'I' for Inactive)
ROOT
ATOM      1  N1  IND d   1       3.894  -0.942   0.920  0.00  0.00    -0.196 N 
ATOM      2  C2  IND d   1       4.258   0.261   1.458  0.00  0.00     0.054 A 
ATOM      3  C3  IND d   1       3.271   0.744   2.245  0.00  0.00    -0.031 A 
ATOM      4  C4  IND d   1       1.013  -0.322   2.874  0.00  0.00     0.051 A 
ATOM      5  C5  IND d   1       0.217  -1.399   2.601  0.00  0.00    -0.031 A 
ATOM      6  C6  IND d   1       0.615  -2.400   1.739  0.00  0.00     0.015 A 
ATOM      7  C7  IND d   1       1.834  -2.367   1.123  0.00  0.00    -0.016 A 
ATOM      8  C8  IND d   1       2.642  -1.271   1.392  0.00  0.00    -0.047 A 
ATOM      9  C9  IND d   1       2.226  -0.231   2.233  0.00  0.00    -0.096 A 
ATOM     10  HN1 IND d   1       4.366  -1.413   0.378  0.00  0.00     0.298 HD
ENDROOT
TORSDOF 0
ENDMDL
