MODEL 1
REMARK minimizedAffinity 26.4983807
REMARK minimizedRMSD -1
REMARK  0 active torsions:
REMARK  status: ('A' for Active; 'I' for Inactive)
ROOT
ATOM      1  N1  IND d   1       3.399  -2.136   0.548  0.00  0.00    -0.196 N 
ATOM      2  C2  IND d   1       2.361  -3.022   0.475  0.00  0.00     0.054 A 
ATOM      3  C3  IND d   1       1.396  -2.691   1.362  0.00  0.00    -0.031 A 
ATOM      4  C4  IND d   1       1.267  -0.679   2.962  0.00  0.00     0.051 A 
ATOM      5  C5  IND d   1       1.993   0.387   3.413  0.00  0.00    -0.031 A 
ATOM      6  C6  IND d   1       3.250   0.674   2.921  0.00  0.00     0.015 A 
ATOM      7  C7  IND d   1       3.825  -0.092   1.946  0.00  0.00    -0.016 A 
ATOM      8  C8  IND d   1       3.092  -1.179   1.490  0.00  0.00    -0.047 A 
ATOM      9  C9  IND d   1       1.835  -1.499   2.017  0.00  0.00    -0.096 A 
ATOM     10  HN1 IND d   1       4.122  -2.170   0.083  0.00  0.00     0.298 HD
ENDROOT
TORSDOF 0
ENDMDL
