MODEL 1
REMARK minimizedAffinity 21.4653893
REMARK minimizedRMSD -1
REMARK  0 active torsions:
REMARK  status: ('A' for Active; 'I' for Inactive)
ROOT
ATOM      1  N1  IND d   1       4.862  -1.476  -1.996  0.00  0.00    -0.196 N 
ATOM      2  C2  IND d   1       5.201  -0.453  -2.836  0.00  0.00     0.054 A 
ATOM      3  C3  IND d   1       4.886   0.738  -2.279  0.00  0.00    -0.031 A 
ATOM      4  C4  IND d   1       3.901   1.247   0.044  0.00  0.00     0.051 A 
ATOM      5  C5  IND d   1       3.393   0.636   1.156  0.00  0.00    -0.031 A 
ATOM      6  C6  IND d   1       3.349  -0.738   1.278  0.00  0.00     0.015 A 
ATOM      7  C7  IND d   1       3.826  -1.556   0.292  0.00  0.00    -0.016 A 
ATOM      8  C8  IND d   1       4.336  -0.939  -0.841  0.00  0.00    -0.047 A 
ATOM      9  C9  IND d   1       4.344   0.454  -0.988  0.00  0.00    -0.096 A 
ATOM     10  HN1 IND d   1       4.960  -2.314  -2.160  0.00  0.00     0.298 HD
ENDROOT
TORSDOF 0
ENDMDL
