MODEL 1
REMARK minimizedAffinity 14.7220488
REMARK minimizedRMSD -1
REMARK  0 active torsions:
REMARK  status: ('A' for Active; 'I' for Inactive)
ROOT
ATOM      1  N1  IND d   1       0.913  -3.093  -3.405  0.00  0.00    -0.196 N 
ATOM      2  C2  IND d   1      -0.029  -4.083  -3.377  0.00  0.00     0.054 A 
ATOM      3  C3  IND d   1       0.326  -5.093  -4.202  0.00  0.00    -0.031 A 
ATOM      4  C4  IND d   1       2.457  -5.377  -5.617  0.00  0.00     0.051 A 
ATOM      5  C5  IND d   1       3.593  -4.720  -5.997  0.00  0.00    -0.031 A 
ATOM      6  C6  IND d   1       3.902  -3.462  -5.521  0.00  0.00     0.015 A 
ATOM      7  C7  IND d   1       3.088  -2.817  -4.634  0.00  0.00    -0.016 A 
ATOM      8  C8  IND d   1       1.929  -3.479  -4.251  0.00  0.00    -0.047 A 
ATOM      9  C9  IND d   1       1.590  -4.737  -4.764  0.00  0.00    -0.096 A 
ATOM     10  HN1 IND d   1       0.877  -2.353  -2.968  0.00  0.00     0.298 HD
ENDROOT
TORSDOF 0
ENDMDL
