MODEL 1
REMARK minimizedAffinity 19.6914196
REMARK minimizedRMSD -1
REMARK  0 active torsions:
REMARK  status: ('A' for Active; 'I' for Inactive)
ROOT
ATOM      1  N1  IND d   1       1.931  -4.493   0.837  0.00  0.00    -0.196 N 
ATOM      2  C2  IND d   1       0.696  -4.863   1.292  0.00  0.00     0.054 A 
ATOM      3  C3  IND d   1       0.037  -3.791   1.785  0.00  0.00    -0.031 A 
ATOM      4  C4  IND d   1       0.753  -1.319   1.853  0.00  0.00     0.051 A 
ATOM      5  C5  IND d   1       1.811  -0.496   1.587  0.00  0.00    -0.031 A 
ATOM      6  C6  IND d   1       2.987  -0.973   1.043  0.00  0.00     0.015 A 
ATOM      7  C7  IND d   1       3.144  -2.295   0.734  0.00  0.00    -0.016 A 
ATOM      8  C8  IND d   1       2.074  -3.134   1.010  0.00  0.00    -0.047 A 
ATOM      9  C9  IND d   1       0.894  -2.663   1.600  0.00  0.00    -0.096 A 
ATOM     10  HN1 IND d   1       2.520  -5.021   0.499  0.00  0.00     0.298 HD
ENDROOT
TORSDOF 0
ENDMDL
