MODEL 1
REMARK minimizedAffinity 18.6793671
REMARK minimizedRMSD -1
REMARK  0 active torsions:
REMARK  status: ('A' for Active; 'I' for Inactive)
ROOT
ATOM      1  N1  IND d   1      -0.683  -3.311  -0.805  0.00  0.00    -0.196 N 
ATOM      2  C2  IND d   1      -1.632  -3.191   0.171  0.00  0.00     0.054 A 
ATOM      3  C3  IND d   1      -1.196  -3.752   1.322  0.00  0.00    -0.031 A 
ATOM      4  C4  IND d   1       1.079  -4.832   1.856  0.00  0.00     0.051 A 
ATOM      5  C5  IND d   1       2.257  -5.206   1.273  0.00  0.00    -0.031 A 
ATOM      6  C6  IND d   1       2.522  -4.959  -0.059  0.00  0.00     0.015 A 
ATOM      7  C7  IND d   1       1.619  -4.317  -0.858  0.00  0.00    -0.016 A 
ATOM      8  C8  IND d   1       0.419  -3.943  -0.271  0.00  0.00    -0.047 A 
ATOM      9  C9  IND d   1       0.127  -4.228   1.069  0.00  0.00    -0.096 A 
ATOM     10  HN1 IND d   1      -0.761  -3.038  -1.617  0.00  0.00     0.298 HD
ENDROOT
TORSDOF 0
ENDMDL
