MODEL 1
REMARK minimizedAffinity 14.6025343
REMARK minimizedRMSD -1
REMARK  0 active torsions:
REMARK  status: ('A' for Active; 'I' for Inactive)
ROOT
ATOM      1  N1  IND d   1      -2.409   4.878  -5.236  0.00  0.00    -0.196 N 
ATOM      2  C2  IND d   1      -1.642   6.000  -5.378  0.00  0.00     0.054 A 
ATOM      3  C3  IND d   1      -0.637   6.000  -4.474  0.00  0.00    -0.031 A 
ATOM      4  C4  IND d   1      -0.003   4.212  -2.734  0.00  0.00     0.051 A 
ATOM      5  C5  IND d   1      -0.428   3.026  -2.203  0.00  0.00    -0.031 A 
ATOM      6  C6  IND d   1      -1.557   2.383  -2.668  0.00  0.00     0.015 A 
ATOM      7  C7  IND d   1      -2.300   2.898  -3.692  0.00  0.00    -0.016 A 
ATOM      8  C8  IND d   1      -1.874   4.105  -4.229  0.00  0.00    -0.047 A 
ATOM      9  C9  IND d   1      -0.754   4.784  -3.733  0.00  0.00    -0.096 A 
ATOM     10  HN1 IND d   1      -3.109   4.687  -5.698  0.00  0.00     0.298 HD
ENDROOT
TORSDOF 0
ENDMDL
