MODEL 1
REMARK minimizedAffinity 13.6072044
REMARK minimizedRMSD -1
REMARK  0 active torsions:
REMARK  status: ('A' for Active; 'I' for Inactive)
ROOT
ATOM      1  N1  IND d   1      -1.519   3.017  -3.526  0.00  0.00    -0.196 N 
ATOM      2  C2  IND d   1      -2.746   3.031  -2.923  0.00  0.00     0.054 A 
ATOM      3  C3  IND d   1      -2.628   2.736  -1.609  0.00  0.00    -0.031 A 
ATOM      4  C4  IND d   1      -0.508   2.299  -0.215  0.00  0.00     0.051 A 
ATOM      5  C5  IND d   1       0.845   2.144  -0.332  0.00  0.00    -0.031 A 
ATOM      6  C6  IND d   1       1.492   2.278  -1.543  0.00  0.00     0.015 A 
ATOM      7  C7  IND d   1       0.809   2.584  -2.686  0.00  0.00    -0.016 A 
ATOM      8  C8  IND d   1      -0.566   2.735  -2.572  0.00  0.00    -0.047 A 
ATOM      9  C9  IND d   1      -1.234   2.558  -1.354  0.00  0.00    -0.096 A 
ATOM     10  HN1 IND d   1      -1.368   3.161  -4.360  0.00  0.00     0.298 HD
ENDROOT
TORSDOF 0
ENDMDL
