MODEL 1
REMARK minimizedAffinity 11.7395668
REMARK minimizedRMSD -1
REMARK  0 active torsions:
REMARK  status: ('A' for Active; 'I' for Inactive)
ROOT
ATOM      1  N1  IND d   1       2.483   2.890   0.500  0.00  0.00    -0.196 N 
ATOM      2  C2  IND d   1       1.207   2.866   0.009  0.00  0.00     0.054 A 
ATOM      3  C3  IND d   1       0.708   1.610   0.057  0.00  0.00    -0.031 A 
ATOM      4  C4  IND d   1       1.772  -0.538   0.996  0.00  0.00     0.051 A 
ATOM      5  C5  IND d   1       2.938  -1.023   1.518  0.00  0.00    -0.031 A 
ATOM      6  C6  IND d   1       4.033  -0.212   1.735  0.00  0.00     0.015 A 
ATOM      7  C7  IND d   1       3.999   1.123   1.446  0.00  0.00    -0.016 A 
ATOM      8  C8  IND d   1       2.819   1.618   0.909  0.00  0.00    -0.047 A 
ATOM      9  C9  IND d   1       1.719   0.791   0.647  0.00  0.00    -0.096 A 
ATOM     10  HN1 IND d   1       2.990   3.583   0.545  0.00  0.00     0.298 HD
ENDROOT
TORSDOF 0
ENDMDL
