MODEL 1
REMARK minimizedAffinity 6.47997856
REMARK minimizedRMSD -1
REMARK  0 active torsions:
REMARK  status: ('A' for Active; 'I' for Inactive)
ROOT
ATOM      1  N1  IND d   1       2.707  -1.119   2.649  0.00  0.00    -0.196 N 
ATOM      2  C2  IND d   1       2.275  -1.200   1.354  0.00  0.00     0.054 A 
ATOM      3  C3  IND d   1       0.929  -1.085   1.300  0.00  0.00    -0.031 A 
ATOM      4  C4  IND d   1      -0.754  -0.657   3.201  0.00  0.00     0.051 A 
ATOM      5  C5  IND d   1      -0.838  -0.546   4.561  0.00  0.00    -0.031 A 
ATOM      6  C6  IND d   1       0.279  -0.620   5.369  0.00  0.00     0.015 A 
ATOM      7  C7  IND d   1       1.528  -0.796   4.844  0.00  0.00    -0.016 A 
ATOM      8  C8  IND d   1       1.616  -0.916   3.464  0.00  0.00    -0.047 A 
ATOM      9  C9  IND d   1       0.482  -0.884   2.642  0.00  0.00    -0.096 A 
ATOM     10  HN1 IND d   1       3.524  -1.185   2.910  0.00  0.00     0.298 HD
ENDROOT
TORSDOF 0
ENDMDL
