MODEL 1
REMARK minimizedAffinity 10.514204
REMARK minimizedRMSD -1
REMARK  0 active torsions:
REMARK  status: ('A' for Active; 'I' for Inactive)
ROOT
ATOM      1  N1  IND d   1      -5.425  -4.448   2.778  0.00  0.00    -0.196 N 
ATOM      2  C2  IND d   1      -4.627  -3.377   3.071  0.00  0.00     0.054 A 
ATOM      3  C3  IND d   1      -3.854  -3.062   2.008  0.00  0.00    -0.031 A 
ATOM      4  C4  IND d   1      -3.806  -4.103  -0.346  0.00  0.00     0.051 A 
ATOM      5  C5  IND d   1      -4.328  -5.130  -1.080  0.00  0.00    -0.031 A 
ATOM      6  C6  IND d   1      -5.264  -5.999  -0.556  0.00  0.00     0.015 A 
ATOM      7  C7  IND d   1      -5.722  -5.864   0.724  0.00  0.00    -0.016 A 
ATOM      8  C8  IND d   1      -5.189  -4.826   1.475  0.00  0.00    -0.047 A 
ATOM      9  C9  IND d   1      -4.208  -3.968   0.962  0.00  0.00    -0.096 A 
ATOM     10  HN1 IND d   1      -5.981  -4.822   3.317  0.00  0.00     0.298 HD
ENDROOT
TORSDOF 0
ENDMDL
