MODEL 1
REMARK minimizedAffinity 21.5596294
REMARK minimizedRMSD -1
REMARK  0 active torsions:
REMARK  status: ('A' for Active; 'I' for Inactive)
ROOT
ATOM      1  N1  IND d   1      -2.237   5.999  -5.027  0.00  0.00    -0.196 N 
ATOM      2  C2  IND d   1      -2.254   5.023  -5.983  0.00  0.00     0.054 A 
ATOM      3  C3  IND d   1      -2.573   3.830  -5.432  0.00  0.00    -0.031 A 
ATOM      4  C4  IND d   1      -3.204   3.269  -3.000  0.00  0.00     0.051 A 
ATOM      5  C5  IND d   1      -3.294   3.825  -1.755  0.00  0.00    -0.031 A 
ATOM      6  C6  IND d   1      -3.032   5.161  -1.532  0.00  0.00     0.015 A 
ATOM      7  C7  IND d   1      -2.682   5.998  -2.554  0.00  0.00    -0.016 A 
ATOM      8  C8  IND d   1      -2.584   5.436  -3.819  0.00  0.00    -0.047 A 
ATOM      9  C9  IND d   1      -2.806   4.071  -4.043  0.00  0.00    -0.096 A 
ATOM     10  HN1 IND d   1      -2.043   6.827  -5.158  0.00  0.00     0.298 HD
ENDROOT
TORSDOF 0
ENDMDL
