MODEL 1
REMARK minimizedAffinity -2.51635218
REMARK minimizedRMSD -1
REMARK  1 active torsions:
REMARK  status: ('A' for Active; 'I' for Inactive)
REMARK    1  A    between atoms: C3_4  and  O_7 
ROOT
ATOM      1  C   UNL d   1       1.042   1.054   0.213  0.00  0.00    -0.033 A 
ATOM      2  C1  UNL d   1       0.047   0.415   0.954  0.00  0.00     0.039 A 
ATOM      3  C2  UNL d   1      -1.092  -0.081   0.316  0.00  0.00    -0.080 A 
ATOM      4  C3  UNL d   1      -1.222   0.069  -1.062  0.00  0.00     0.150 A 
ATOM      5  C4  UNL d   1      -0.233   0.701  -1.807  0.00  0.00    -0.007 A 
ATOM      6  C5  UNL d   1       0.903   1.196  -1.168  0.00  0.00     0.039 A 
ENDROOT
BRANCH   4   7
ATOM      7  O   UNL d   1      -2.318  -0.394  -1.729  0.00  0.00    -0.526 OA
ATOM      8  H5  UNL d   1      -2.930  -0.782  -1.082  0.00  0.00     0.418 HD
ENDBRANCH   4   7
TORSDOF 1
ENDMDL
