MODEL 1
REMARK minimizedAffinity -0.39809972
REMARK minimizedRMSD -1
REMARK  1 active torsions:
REMARK  status: ('A' for Active; 'I' for Inactive)
REMARK    1  A    between atoms: C3_4  and  O_7 
ROOT
ATOM      1  C   UNL d   1       0.942   0.985  -0.095  0.00  0.00    -0.033 A 
ATOM      2  C1  UNL d   1      -0.213   0.574   0.574  0.00  0.00     0.039 A 
ATOM      3  C2  UNL d   1      -1.393   0.353  -0.139  0.00  0.00    -0.080 A 
ATOM      4  C3  UNL d   1      -1.405   0.546  -1.518  0.00  0.00     0.150 A 
ATOM      5  C4  UNL d   1      -0.257   0.952  -2.191  0.00  0.00    -0.007 A 
ATOM      6  C5  UNL d   1       0.920   1.173  -1.477  0.00  0.00     0.039 A 
ENDROOT
BRANCH   4   7
ATOM      7  O   UNL d   1      -2.534   0.347  -2.255  0.00  0.00    -0.526 OA
ATOM      8  H5  UNL d   1      -3.255   0.097  -1.654  0.00  0.00     0.418 HD
ENDBRANCH   4   7
TORSDOF 1
ENDMDL
