MODEL 1
REMARK minimizedAffinity -3.19694567
REMARK minimizedRMSD -1
REMARK  1 active torsions:
REMARK  status: ('A' for Active; 'I' for Inactive)
REMARK    1  A    between atoms: C3_4  and  O_7 
ROOT
ATOM      1  C   UNL d   1      -0.789  -0.750   0.744  0.00  0.00    -0.033 A 
ATOM      2  C1  UNL d   1      -0.526   0.465   0.109  0.00  0.00     0.039 A 
ATOM      3  C2  UNL d   1       0.747   1.034   0.188  0.00  0.00    -0.080 A 
ATOM      4  C3  UNL d   1       1.746   0.378   0.902  0.00  0.00     0.150 A 
ATOM      5  C4  UNL d   1       1.491  -0.835   1.533  0.00  0.00    -0.007 A 
ATOM      6  C5  UNL d   1       0.219  -1.401   1.455  0.00  0.00     0.039 A 
ENDROOT
BRANCH   4   7
ATOM      7  O   UNL d   1       3.002   0.896   1.010  0.00  0.00    -0.526 OA
ATOM      8  H5  UNL d   1       3.023   1.751   0.548  0.00  0.00     0.418 HD
ENDBRANCH   4   7
TORSDOF 1
ENDMDL
