MODEL 1
REMARK minimizedAffinity -2.82312846
REMARK minimizedRMSD -1
REMARK  1 active torsions:
REMARK  status: ('A' for Active; 'I' for Inactive)
REMARK    1  A    between atoms: C3_4  and  O_7 
ROOT
ATOM      1  C   UNL d   1       2.440  -0.121   0.983  0.00  0.00    -0.033 A 
ATOM      2  C1  UNL d   1       1.962   1.071   0.436  0.00  0.00     0.039 A 
ATOM      3  C2  UNL d   1       0.665   1.135  -0.076  0.00  0.00    -0.080 A 
ATOM      4  C3  UNL d   1      -0.143   0.002  -0.034  0.00  0.00     0.150 A 
ATOM      5  C4  UNL d   1       0.326  -1.188   0.513  0.00  0.00    -0.007 A 
ATOM      6  C5  UNL d   1       1.622  -1.250   1.023  0.00  0.00     0.039 A 
ENDROOT
BRANCH   4   7
ATOM      7  O   UNL d   1      -1.415   0.015  -0.526  0.00  0.00    -0.526 OA
ATOM      8  H5  UNL d   1      -1.592   0.896  -0.898  0.00  0.00     0.418 HD
ENDBRANCH   4   7
TORSDOF 1
ENDMDL
