MODEL 1
REMARK minimizedAffinity 12.4589825
REMARK minimizedRMSD -1
REMARK  0 active torsions:
REMARK  status: ('A' for Active; 'I' for Inactive)
ROOT
ATOM      1  C   UNL d   1      -0.869  -0.557   2.415  0.00  0.00     0.172 C 
ATOM      2  N   UNL d   1       0.170  -1.482   2.802  0.00  0.00    -0.070 N 
ATOM      3  C1  UNL d   1       1.102  -1.271   3.784  0.00  0.00    -0.004 A 
ATOM      4  C2  UNL d   1       1.911  -2.385   3.845  0.00  0.00    -0.047 A 
ATOM      5  C3  UNL d   1       1.451  -3.296   2.865  0.00  0.00    -0.047 A 
ATOM      6  C4  UNL d   1       0.372  -2.712   2.235  0.00  0.00    -0.004 A 
ENDROOT
TORSDOF 0
ENDMDL
