MODEL 1
REMARK minimizedAffinity 4.97680187
REMARK minimizedRMSD -1
REMARK  0 active torsions:
REMARK  status: ('A' for Active; 'I' for Inactive)
ROOT
ATOM      1  C   UNL d   1      -1.077   4.462  -4.591  0.00  0.00     0.172 C 
ATOM      2  N   UNL d   1       0.106   4.096  -3.848  0.00  0.00    -0.070 N 
ATOM      3  C1  UNL d   1       0.625   4.784  -2.783  0.00  0.00    -0.004 A 
ATOM      4  C2  UNL d   1       1.750   4.114  -2.355  0.00  0.00    -0.047 A 
ATOM      5  C3  UNL d   1       1.914   2.985  -3.192  0.00  0.00    -0.047 A 
ATOM      6  C4  UNL d   1       0.883   2.998  -4.107  0.00  0.00    -0.004 A 
ENDROOT
TORSDOF 0
ENDMDL
