MODEL 1
REMARK minimizedAffinity 1.39942336
REMARK minimizedRMSD -1
REMARK  0 active torsions:
REMARK  status: ('A' for Active; 'I' for Inactive)
ROOT
ATOM      1  C   UNL d   1       2.743   2.233   0.761  0.00  0.00     0.172 C 
ATOM      2  N   UNL d   1       3.981   2.962   0.903  0.00  0.00    -0.070 N 
ATOM      3  C1  UNL d   1       4.332   3.740   1.975  0.00  0.00    -0.004 A 
ATOM      4  C2  UNL d   1       5.584   4.260   1.727  0.00  0.00    -0.047 A 
ATOM      5  C3  UNL d   1       6.000   3.779   0.463  0.00  0.00    -0.047 A 
ATOM      6  C4  UNL d   1       4.989   2.978  -0.025  0.00  0.00    -0.004 A 
ENDROOT
TORSDOF 0
ENDMDL
