MODEL 1
REMARK minimizedAffinity 8.91140461
REMARK minimizedRMSD -1
REMARK  0 active torsions:
REMARK  status: ('A' for Active; 'I' for Inactive)
ROOT
ATOM      1  C   UNL d   1       2.228   2.620  -3.162  0.00  0.00     0.172 C 
ATOM      2  N   UNL d   1       3.472   3.262  -3.518  0.00  0.00    -0.070 N 
ATOM      3  C1  UNL d   1       4.226   4.053  -2.694  0.00  0.00    -0.004 A 
ATOM      4  C2  UNL d   1       5.331   4.469  -3.404  0.00  0.00    -0.047 A 
ATOM      5  C3  UNL d   1       5.237   3.909  -4.700  0.00  0.00    -0.047 A 
ATOM      6  C4  UNL d   1       4.077   3.166  -4.743  0.00  0.00    -0.004 A 
ENDROOT
TORSDOF 0
ENDMDL
