MODEL 1
REMARK minimizedAffinity 9.20154762
REMARK minimizedRMSD -1
REMARK  0 active torsions:
REMARK  status: ('A' for Active; 'I' for Inactive)
ROOT
ATOM      1  C   UNL d   1      -1.843   0.634   3.948  0.00  0.00     0.172 C 
ATOM      2  N   UNL d   1      -1.537  -0.354   2.940  0.00  0.00    -0.070 N 
ATOM      3  C1  UNL d   1      -0.281  -0.713   2.530  0.00  0.00    -0.004 A 
ATOM      4  C2  UNL d   1      -0.415  -1.682   1.559  0.00  0.00    -0.047 A 
ATOM      5  C3  UNL d   1      -1.800  -1.911   1.378  0.00  0.00    -0.047 A 
ATOM      6  C4  UNL d   1      -2.471  -1.076   2.246  0.00  0.00    -0.004 A 
ENDROOT
TORSDOF 0
ENDMDL
