MODEL 1
REMARK minimizedAffinity 8.81831264
REMARK minimizedRMSD -1
REMARK  0 active torsions:
REMARK  status: ('A' for Active; 'I' for Inactive)
ROOT
ATOM      1  C   UNL d   1       2.915  -4.043   0.659  0.00  0.00     0.172 C 
ATOM      2  N   UNL d   1       1.955  -3.189   1.319  0.00  0.00    -0.070 N 
ATOM      3  C1  UNL d   1       2.255  -2.129   2.131  0.00  0.00    -0.004 A 
ATOM      4  C2  UNL d   1       1.068  -1.576   2.560  0.00  0.00    -0.047 A 
ATOM      5  C3  UNL d   1       0.018  -2.331   1.986  0.00  0.00    -0.047 A 
ATOM      6  C4  UNL d   1       0.595  -3.323   1.222  0.00  0.00    -0.004 A 
ENDROOT
TORSDOF 0
ENDMDL
