MODEL 1
REMARK minimizedAffinity 4.12479973
REMARK minimizedRMSD -1
REMARK  0 active torsions:
REMARK  status: ('A' for Active; 'I' for Inactive)
ROOT
ATOM      1  C   UNL d   1       5.991   4.857  -4.926  0.00  0.00     0.172 C 
ATOM      2  N   UNL d   1       4.706   4.360  -4.492  0.00  0.00    -0.070 N 
ATOM      3  C1  UNL d   1       3.857   3.587  -5.237  0.00  0.00    -0.004 A 
ATOM      4  C2  UNL d   1       2.743   3.323  -4.470  0.00  0.00    -0.047 A 
ATOM      5  C3  UNL d   1       2.929   3.960  -3.220  0.00  0.00    -0.047 A 
ATOM      6  C4  UNL d   1       4.153   4.594  -3.261  0.00  0.00    -0.004 A 
ENDROOT
TORSDOF 0
ENDMDL
