MODEL 1
REMARK minimizedAffinity 10.993228
REMARK minimizedRMSD -1
REMARK  0 active torsions:
REMARK  status: ('A' for Active; 'I' for Inactive)
ROOT
ATOM      1  C   UNL d   1      -5.134   2.350   4.451  0.00  0.00     0.172 C 
ATOM      2  N   UNL d   1      -5.348   3.733   4.808  0.00  0.00    -0.070 N 
ATOM      3  C1  UNL d   1      -5.998   4.663   4.043  0.00  0.00    -0.004 A 
ATOM      4  C2  UNL d   1      -5.991   5.857   4.732  0.00  0.00    -0.047 A 
ATOM      5  C3  UNL d   1      -5.312   5.636   5.954  0.00  0.00    -0.047 A 
ATOM      6  C4  UNL d   1      -4.925   4.312   5.975  0.00  0.00    -0.004 A 
ENDROOT
TORSDOF 0
ENDMDL
