MODEL 1
REMARK minimizedAffinity 9.10669327
REMARK minimizedRMSD -1
REMARK  0 active torsions:
REMARK  status: ('A' for Active; 'I' for Inactive)
ROOT
ATOM      1  C   UNL d   1       0.003  -5.999  -5.999  0.00  0.00     0.172 C 
ATOM      2  N   UNL d   1      -0.840  -5.313  -5.048  0.00  0.00    -0.070 N 
ATOM      3  C1  UNL d   1      -2.091  -5.709  -4.658  0.00  0.00    -0.004 A 
ATOM      4  C2  UNL d   1      -2.559  -4.792  -3.742  0.00  0.00    -0.047 A 
ATOM      5  C3  UNL d   1      -1.553  -3.809  -3.577  0.00  0.00    -0.047 A 
ATOM      6  C4  UNL d   1      -0.501  -4.157  -4.397  0.00  0.00    -0.004 A 
ENDROOT
TORSDOF 0
ENDMDL
