MODEL 1
REMARK minimizedAffinity 11.8521118
REMARK minimizedRMSD -1
REMARK  0 active torsions:
REMARK  status: ('A' for Active; 'I' for Inactive)
ROOT
ATOM      1  C   UNL d   1       3.391   3.024  -5.996  0.00  0.00     0.172 C 
ATOM      2  N   UNL d   1       3.199   3.164  -4.571  0.00  0.00    -0.070 N 
ATOM      3  C1  UNL d   1       2.130   2.688  -3.859  0.00  0.00    -0.004 A 
ATOM      4  C2  UNL d   1       2.321   3.023  -2.536  0.00  0.00    -0.047 A 
ATOM      5  C3  UNL d   1       3.546   3.726  -2.450  0.00  0.00    -0.047 A 
ATOM      6  C4  UNL d   1       4.068   3.799  -3.725  0.00  0.00    -0.004 A 
ENDROOT
TORSDOF 0
ENDMDL
