MODEL 1
REMARK minimizedAffinity 8.62410736
REMARK minimizedRMSD -1
REMARK  0 active torsions:
REMARK  status: ('A' for Active; 'I' for Inactive)
ROOT
ATOM      1  C   UNL d   1       1.042  -1.127   3.384  0.00  0.00     0.172 C 
ATOM      2  N   UNL d   1      -0.223  -0.869   2.737  0.00  0.00    -0.070 N 
ATOM      3  C1  UNL d   1      -1.029   0.214   2.963  0.00  0.00    -0.004 A 
ATOM      4  C2  UNL d   1      -2.137   0.092   2.153  0.00  0.00    -0.047 A 
ATOM      5  C3  UNL d   1      -1.992  -1.106   1.415  0.00  0.00    -0.047 A 
ATOM      6  C4  UNL d   1      -0.798  -1.682   1.796  0.00  0.00    -0.004 A 
ENDROOT
TORSDOF 0
ENDMDL
