MODEL 1
REMARK minimizedAffinity 6.53976917
REMARK minimizedRMSD -1
REMARK  0 active torsions:
REMARK  status: ('A' for Active; 'I' for Inactive)
ROOT
ATOM      1  C   UNL d   1       0.949  -2.316   3.467  0.00  0.00     0.172 C 
ATOM      2  N   UNL d   1      -0.141  -1.452   3.080  0.00  0.00    -0.070 N 
ATOM      3  C1  UNL d   1      -0.880  -1.564   1.932  0.00  0.00    -0.004 A 
ATOM      4  C2  UNL d   1      -1.819  -0.555   1.934  0.00  0.00    -0.047 A 
ATOM      5  C3  UNL d   1      -1.638   0.189   3.124  0.00  0.00    -0.047 A 
ATOM      6  C4  UNL d   1      -0.593  -0.388   3.815  0.00  0.00    -0.004 A 
ENDROOT
TORSDOF 0
ENDMDL
