MODEL 1
REMARK minimizedAffinity 6.80881596
REMARK minimizedRMSD -1
REMARK  0 active torsions:
REMARK  status: ('A' for Active; 'I' for Inactive)
ROOT
ATOM      1  C   UNL d   1      -0.966   0.158   5.839  0.00  0.00     0.172 C 
ATOM      2  N   UNL d   1      -1.306   0.254   4.439  0.00  0.00    -0.070 N 
ATOM      3  C1  UNL d   1      -2.189   1.146   3.891  0.00  0.00    -0.004 A 
ATOM      4  C2  UNL d   1      -2.235   0.915   2.533  0.00  0.00    -0.047 A 
ATOM      5  C3  UNL d   1      -1.350  -0.154   2.255  0.00  0.00    -0.047 A 
ATOM      6  C4  UNL d   1      -0.789  -0.544   3.453  0.00  0.00    -0.004 A 
ENDROOT
TORSDOF 0
ENDMDL
