MODEL 1
REMARK minimizedAffinity 4.03267241
REMARK minimizedRMSD -1
REMARK  0 active torsions:
REMARK  status: ('A' for Active; 'I' for Inactive)
ROOT
ATOM      1  C   UNL d   1      -1.799   1.451   3.788  0.00  0.00     0.172 C 
ATOM      2  N   UNL d   1      -1.212   0.551   2.823  0.00  0.00    -0.070 N 
ATOM      3  C1  UNL d   1       0.117   0.481   2.501  0.00  0.00    -0.004 A 
ATOM      4  C2  UNL d   1       0.269  -0.500   1.545  0.00  0.00    -0.047 A 
ATOM      5  C3  UNL d   1      -1.013  -1.038   1.283  0.00  0.00    -0.047 A 
ATOM      6  C4  UNL d   1      -1.912  -0.370   2.088  0.00  0.00    -0.004 A 
ENDROOT
TORSDOF 0
ENDMDL
