MODEL 1
REMARK minimizedAffinity 6.31959009
REMARK minimizedRMSD -1
REMARK  0 active torsions:
REMARK  status: ('A' for Active; 'I' for Inactive)
ROOT
ATOM      1  C   UNL d   1      -2.413   1.164   3.402  0.00  0.00     0.172 C 
ATOM      2  N   UNL d   1      -1.964   0.041   2.613  0.00  0.00    -0.070 N 
ATOM      3  C1  UNL d   1      -2.731  -0.671   1.730  0.00  0.00    -0.004 A 
ATOM      4  C2  UNL d   1      -1.938  -1.656   1.181  0.00  0.00    -0.047 A 
ATOM      5  C3  UNL d   1      -0.650  -1.531   1.755  0.00  0.00    -0.047 A 
ATOM      6  C4  UNL d   1      -0.695  -0.473   2.638  0.00  0.00    -0.004 A 
ENDROOT
TORSDOF 0
ENDMDL
