MODEL 1
REMARK minimizedAffinity 7.92832136
REMARK minimizedRMSD -1
REMARK  0 active torsions:
REMARK  status: ('A' for Active; 'I' for Inactive)
ROOT
ATOM      1  C   UNL d   1      -1.496  -0.999   1.642  0.00  0.00     0.172 C 
ATOM      2  N   UNL d   1      -1.916  -0.013   2.610  0.00  0.00    -0.070 N 
ATOM      3  C1  UNL d   1      -1.628  -0.036   3.949  0.00  0.00    -0.004 A 
ATOM      4  C2  UNL d   1      -2.206   1.076   4.523  0.00  0.00    -0.047 A 
ATOM      5  C3  UNL d   1      -2.865   1.791   3.495  0.00  0.00    -0.047 A 
ATOM      6  C4  UNL d   1      -2.669   1.095   2.321  0.00  0.00    -0.004 A 
ENDROOT
TORSDOF 0
ENDMDL
