MODEL 1
REMARK minimizedAffinity 10.2857399
REMARK minimizedRMSD -1
REMARK  0 active torsions:
REMARK  status: ('A' for Active; 'I' for Inactive)
ROOT
ATOM      1  C   UNL d   1       5.280   4.936  -2.457  0.00  0.00     0.172 C 
ATOM      2  N   UNL d   1       3.916   4.484  -2.599  0.00  0.00    -0.070 N 
ATOM      3  C1  UNL d   1       3.507   3.395  -3.321  0.00  0.00    -0.004 A 
ATOM      4  C2  UNL d   1       2.137   3.302  -3.206  0.00  0.00    -0.047 A 
ATOM      5  C3  UNL d   1       1.707   4.374  -2.388  0.00  0.00    -0.047 A 
ATOM      6  C4  UNL d   1       2.829   5.089  -2.026  0.00  0.00    -0.004 A 
ENDROOT
TORSDOF 0
ENDMDL
