MODEL 1
REMARK minimizedAffinity 6.96590042
REMARK minimizedRMSD -1
REMARK  0 active torsions:
REMARK  status: ('A' for Active; 'I' for Inactive)
ROOT
ATOM      1  C   UNL d   1       1.999   2.931  -2.873  0.00  0.00     0.172 C 
ATOM      2  N   UNL d   1       3.339   3.373  -3.179  0.00  0.00    -0.070 N 
ATOM      3  C1  UNL d   1       4.165   4.063  -2.333  0.00  0.00    -0.004 A 
ATOM      4  C2  UNL d   1       5.351   4.296  -2.996  0.00  0.00    -0.047 A 
ATOM      5  C3  UNL d   1       5.232   3.728  -4.287  0.00  0.00    -0.047 A 
ATOM      6  C4  UNL d   1       3.977   3.163  -4.373  0.00  0.00    -0.004 A 
ENDROOT
TORSDOF 0
ENDMDL
