MODEL 1
REMARK minimizedAffinity -0.529269993
REMARK minimizedRMSD -1
REMARK  2 active torsions:
REMARK  status: ('A' for Active; 'I' for Inactive)
REMARK    1  A    between atoms: C1_2  and  C2_3 
REMARK    2  A    between atoms: C2_3  and  C3_4 
ROOT
ATOM      1  C3  UNL d   1       1.536   0.402   2.037  0.00  0.00    -0.075 A 
ATOM      2  C4  UNL d   1       2.444  -0.350   2.797  0.00  0.00     0.002 A 
ATOM      3  C5  UNL d   1       3.812  -0.289   2.531  0.00  0.00     0.002 A 
ATOM      4  C6  UNL d   1       4.288   0.515   1.498  0.00  0.00    -0.004 A 
ATOM      5  C7  UNL d   1       3.394   1.254   0.726  0.00  0.00     0.002 A 
ATOM      6  C8  UNL d   1       2.025   1.198   0.993  0.00  0.00     0.002 A 
ENDROOT
BRANCH   1   7
ATOM      7  C2  UNL d   1       0.057   0.363   2.339  0.00  0.00     0.056 C 
BRANCH   7   8
ATOM      8  C1  UNL d   1      -0.758   1.432   1.604  0.00  0.00     0.007 C 
ATOM      9  C   UNL d   1      -2.170   0.978   1.258  0.00  0.00     0.009 C 
ENDBRANCH   7   8
ENDBRANCH   1   7
TORSDOF 2
ENDMDL
