MODEL 1
REMARK minimizedAffinity -0.00801483262
REMARK minimizedRMSD -1
REMARK  2 active torsions:
REMARK  status: ('A' for Active; 'I' for Inactive)
REMARK    1  A    between atoms: C1_2  and  C2_3 
REMARK    2  A    between atoms: C2_3  and  C3_4 
ROOT
ATOM      1  C3  UNL d   1       0.685   0.384   2.148  0.00  0.00    -0.075 A 
ATOM      2  C4  UNL d   1       1.342   1.483   1.577  0.00  0.00     0.002 A 
ATOM      3  C5  UNL d   1       2.696   1.408   1.251  0.00  0.00     0.002 A 
ATOM      4  C6  UNL d   1       3.412   0.240   1.501  0.00  0.00    -0.004 A 
ATOM      5  C7  UNL d   1       2.774  -0.853   2.083  0.00  0.00     0.002 A 
ATOM      6  C8  UNL d   1       1.417  -0.783   2.406  0.00  0.00     0.002 A 
ENDROOT
BRANCH   1   7
ATOM      7  C2  UNL d   1      -0.788   0.448   2.476  0.00  0.00     0.056 C 
BRANCH   7   8
ATOM      8  C1  UNL d   1      -1.645   1.082   1.375  0.00  0.00     0.007 C 
ATOM      9  C   UNL d   1      -3.013   1.537   1.866  0.00  0.00     0.009 C 
ENDBRANCH   7   8
ENDBRANCH   1   7
TORSDOF 2
ENDMDL
