MODEL 1
REMARK minimizedAffinity 7.56107187
REMARK minimizedRMSD -1
REMARK  2 active torsions:
REMARK  status: ('A' for Active; 'I' for Inactive)
REMARK    1  A    between atoms: C1_2  and  C2_3 
REMARK    2  A    between atoms: C2_3  and  C3_4 
ROOT
ATOM      1  C3  UNL d   1      -2.218   0.990   3.772  0.00  0.00    -0.075 A 
ATOM      2  C4  UNL d   1      -1.320  -0.079   3.641  0.00  0.00     0.002 A 
ATOM      3  C5  UNL d   1      -0.051   0.123   3.097  0.00  0.00     0.002 A 
ATOM      4  C6  UNL d   1       0.331   1.392   2.668  0.00  0.00    -0.004 A 
ATOM      5  C7  UNL d   1      -0.558   2.459   2.778  0.00  0.00     0.002 A 
ATOM      6  C8  UNL d   1      -1.827   2.260   3.326  0.00  0.00     0.002 A 
ENDROOT
BRANCH   1   7
ATOM      7  C2  UNL d   1      -3.581   0.784   4.387  0.00  0.00     0.056 C 
BRANCH   7   8
ATOM      8  C1  UNL d   1      -3.581  -0.143   5.607  0.00  0.00     0.007 C 
ATOM      9  C   UNL d   1      -4.972  -0.625   5.996  0.00  0.00     0.009 C 
ENDBRANCH   7   8
ENDBRANCH   1   7
TORSDOF 2
ENDMDL
