MODEL 1
REMARK minimizedAffinity 5.55814362
REMARK minimizedRMSD -1
REMARK  2 active torsions:
REMARK  status: ('A' for Active; 'I' for Inactive)
REMARK    1  A    between atoms: C1_2  and  C2_3 
REMARK    2  A    between atoms: C2_3  and  C3_4 
ROOT
ATOM      1  C3  UNL d   1      -1.654   1.147   2.297  0.00  0.00    -0.075 A 
ATOM      2  C4  UNL d   1      -0.254   1.229   2.325  0.00  0.00     0.002 A 
ATOM      3  C5  UNL d   1       0.399   1.824   3.405  0.00  0.00     0.002 A 
ATOM      4  C6  UNL d   1      -0.338   2.354   4.462  0.00  0.00    -0.004 A 
ATOM      5  C7  UNL d   1      -1.729   2.293   4.437  0.00  0.00     0.002 A 
ATOM      6  C8  UNL d   1      -2.385   1.694   3.360  0.00  0.00     0.002 A 
ENDROOT
BRANCH   1   7
ATOM      7  C2  UNL d   1      -2.366   0.478   1.145  0.00  0.00     0.056 C 
BRANCH   7   8
ATOM      8  C1  UNL d   1      -1.566  -0.653   0.491  0.00  0.00     0.007 C 
ATOM      9  C   UNL d   1      -2.306  -1.985   0.483  0.00  0.00     0.009 C 
ENDBRANCH   7   8
ENDBRANCH   1   7
TORSDOF 2
ENDMDL
