MODEL 1
REMARK minimizedAffinity 3.92625451
REMARK minimizedRMSD -1
REMARK  2 active torsions:
REMARK  status: ('A' for Active; 'I' for Inactive)
REMARK    1  A    between atoms: C1_2  and  C2_3 
REMARK    2  A    between atoms: C2_3  and  C3_4 
ROOT
ATOM      1  C3  UNL d   1       3.089   0.578  -4.261  0.00  0.00    -0.075 A 
ATOM      2  C4  UNL d   1       2.289   1.307  -3.370  0.00  0.00     0.002 A 
ATOM      3  C5  UNL d   1       1.797   2.563  -3.724  0.00  0.00     0.002 A 
ATOM      4  C6  UNL d   1       2.106   3.111  -4.968  0.00  0.00    -0.004 A 
ATOM      5  C7  UNL d   1       2.914   2.403  -5.855  0.00  0.00     0.002 A 
ATOM      6  C8  UNL d   1       3.404   1.143  -5.504  0.00  0.00     0.002 A 
ENDROOT
BRANCH   1   7
ATOM      7  C2  UNL d   1       3.600  -0.795  -3.895  0.00  0.00     0.056 C 
BRANCH   7   8
ATOM      8  C1  UNL d   1       2.643  -1.935  -4.261  0.00  0.00     0.007 C 
ATOM      9  C   UNL d   1       2.731  -2.345  -5.725  0.00  0.00     0.009 C 
ENDBRANCH   7   8
ENDBRANCH   1   7
TORSDOF 2
ENDMDL
