MODEL 1
REMARK minimizedAffinity 1.89667273
REMARK minimizedRMSD -1
REMARK  2 active torsions:
REMARK  status: ('A' for Active; 'I' for Inactive)
REMARK    1  A    between atoms: C1_2  and  C2_3 
REMARK    2  A    between atoms: C2_3  and  C3_4 
ROOT
ATOM      1  C3  UNL d   1      -2.442   0.953   3.174  0.00  0.00    -0.075 A 
ATOM      2  C4  UNL d   1      -1.208   0.347   3.451  0.00  0.00     0.002 A 
ATOM      3  C5  UNL d   1      -0.240   0.222   2.454  0.00  0.00     0.002 A 
ATOM      4  C6  UNL d   1      -0.497   0.690   1.167  0.00  0.00    -0.004 A 
ATOM      5  C7  UNL d   1      -1.726   1.279   0.876  0.00  0.00     0.002 A 
ATOM      6  C8  UNL d   1      -2.694   1.409   1.873  0.00  0.00     0.002 A 
ENDROOT
BRANCH   1   7
ATOM      7  C2  UNL d   1      -3.482   1.118   4.256  0.00  0.00     0.056 C 
BRANCH   7   8
ATOM      8  C1  UNL d   1      -3.556  -0.059   5.234  0.00  0.00     0.007 C 
ATOM      9  C   UNL d   1      -4.872  -0.122   6.000  0.00  0.00     0.009 C 
ENDBRANCH   7   8
ENDBRANCH   1   7
TORSDOF 2
ENDMDL
