MODEL 1
REMARK minimizedAffinity 7.71361017
REMARK minimizedRMSD -1
REMARK  2 active torsions:
REMARK  status: ('A' for Active; 'I' for Inactive)
REMARK    1  A    between atoms: C1_2  and  C2_3 
REMARK    2  A    between atoms: C2_3  and  C3_4 
ROOT
ATOM      1  C3  UNL d   1      -1.423   1.198   1.902  0.00  0.00    -0.075 A 
ATOM      2  C4  UNL d   1      -1.341   2.188   2.891  0.00  0.00     0.002 A 
ATOM      3  C5  UNL d   1      -0.191   2.316   3.672  0.00  0.00     0.002 A 
ATOM      4  C6  UNL d   1       0.884   1.451   3.481  0.00  0.00    -0.004 A 
ATOM      5  C7  UNL d   1       0.807   0.453   2.511  0.00  0.00     0.002 A 
ATOM      6  C8  UNL d   1      -0.340   0.326   1.726  0.00  0.00     0.002 A 
ENDROOT
BRANCH   1   7
ATOM      7  C2  UNL d   1      -2.652   1.073   1.034  0.00  0.00     0.056 C 
BRANCH   7   8
ATOM      8  C1  UNL d   1      -2.396   0.395  -0.316  0.00  0.00     0.007 C 
ATOM      9  C   UNL d   1      -3.099  -0.948  -0.456  0.00  0.00     0.009 C 
ENDBRANCH   7   8
ENDBRANCH   1   7
TORSDOF 2
ENDMDL
