MODEL 1
REMARK minimizedAffinity 1.55460203
REMARK minimizedRMSD -1
REMARK  2 active torsions:
REMARK  status: ('A' for Active; 'I' for Inactive)
REMARK    1  A    between atoms: C1_2  and  C2_3 
REMARK    2  A    between atoms: C2_3  and  C3_4 
ROOT
ATOM      1  C3  UNL d   1      -1.152   0.139   2.253  0.00  0.00    -0.075 A 
ATOM      2  C4  UNL d   1      -1.693   1.153   1.448  0.00  0.00     0.002 A 
ATOM      3  C5  UNL d   1      -2.943   1.698   1.741  0.00  0.00     0.002 A 
ATOM      4  C6  UNL d   1      -3.672   1.231   2.833  0.00  0.00    -0.004 A 
ATOM      5  C7  UNL d   1      -3.152   0.213   3.629  0.00  0.00     0.002 A 
ATOM      6  C8  UNL d   1      -1.899  -0.331   3.341  0.00  0.00     0.002 A 
ENDROOT
BRANCH   1   7
ATOM      7  C2  UNL d   1       0.214  -0.434   1.959  0.00  0.00     0.056 C 
BRANCH   7   8
ATOM      8  C1  UNL d   1       1.346   0.597   2.005  0.00  0.00     0.007 C 
ATOM      9  C   UNL d   1       2.708   0.009   1.659  0.00  0.00     0.009 C 
ENDBRANCH   7   8
ENDBRANCH   1   7
TORSDOF 2
ENDMDL
