MODEL 1
REMARK minimizedAffinity 2.50199437
REMARK minimizedRMSD -1
REMARK  2 active torsions:
REMARK  status: ('A' for Active; 'I' for Inactive)
REMARK    1  A    between atoms: C1_2  and  C2_3 
REMARK    2  A    between atoms: C2_3  and  C3_4 
ROOT
ATOM      1  C3  UNL d   1      -2.390   1.853   2.680  0.00  0.00    -0.075 A 
ATOM      2  C4  UNL d   1      -0.993   1.826   2.795  0.00  0.00     0.002 A 
ATOM      3  C5  UNL d   1      -0.217   1.152   1.851  0.00  0.00     0.002 A 
ATOM      4  C6  UNL d   1      -0.827   0.489   0.788  0.00  0.00    -0.004 A 
ATOM      5  C7  UNL d   1      -2.216   0.495   0.673  0.00  0.00     0.002 A 
ATOM      6  C8  UNL d   1      -2.994   1.173   1.614  0.00  0.00     0.002 A 
ENDROOT
BRANCH   1   7
ATOM      7  C2  UNL d   1      -3.234   2.605   3.681  0.00  0.00     0.056 C 
BRANCH   7   8
ATOM      8  C1  UNL d   1      -4.474   1.839   4.152  0.00  0.00     0.007 C 
ATOM      9  C   UNL d   1      -4.646   1.846   5.665  0.00  0.00     0.009 C 
ENDBRANCH   7   8
ENDBRANCH   1   7
TORSDOF 2
ENDMDL
