MODEL 1
REMARK minimizedAffinity 6.68523407
REMARK minimizedRMSD -1
REMARK  2 active torsions:
REMARK  status: ('A' for Active; 'I' for Inactive)
REMARK    1  A    between atoms: C1_2  and  C2_3 
REMARK    2  A    between atoms: C2_3  and  C3_4 
ROOT
ATOM      1  C3  UNL d   1      -0.243   0.471   1.856  0.00  0.00    -0.075 A 
ATOM      2  C4  UNL d   1      -1.104   0.198   0.784  0.00  0.00     0.002 A 
ATOM      3  C5  UNL d   1      -2.420   0.663   0.794  0.00  0.00     0.002 A 
ATOM      4  C6  UNL d   1      -2.893   1.397   1.880  0.00  0.00    -0.004 A 
ATOM      5  C7  UNL d   1      -2.051   1.660   2.959  0.00  0.00     0.002 A 
ATOM      6  C8  UNL d   1      -0.734   1.199   2.948  0.00  0.00     0.002 A 
ENDROOT
BRANCH   1   7
ATOM      7  C2  UNL d   1       1.190  -0.005   1.837  0.00  0.00     0.056 C 
BRANCH   7   8
ATOM      8  C1  UNL d   1       2.055   0.665   0.765  0.00  0.00     0.007 C 
ATOM      9  C   UNL d   1       3.405  -0.013   0.572  0.00  0.00     0.009 C 
ENDBRANCH   7   8
ENDBRANCH   1   7
TORSDOF 2
ENDMDL
