MODEL 1
REMARK minimizedAffinity 8.99629498
REMARK minimizedRMSD -1
REMARK  2 active torsions:
REMARK  status: ('A' for Active; 'I' for Inactive)
REMARK    1  A    between atoms: C1_2  and  C2_3 
REMARK    2  A    between atoms: C2_3  and  C3_4 
ROOT
ATOM      1  C3  UNL d   1      -5.986  -0.159   4.360  0.00  0.00    -0.075 A 
ATOM      2  C4  UNL d   1      -6.000  -1.538   4.103  0.00  0.00     0.002 A 
ATOM      3  C5  UNL d   1      -6.000  -2.014   2.792  0.00  0.00     0.002 A 
ATOM      4  C6  UNL d   1      -5.997  -1.121   1.723  0.00  0.00    -0.004 A 
ATOM      5  C7  UNL d   1      -6.000   0.251   1.966  0.00  0.00     0.002 A 
ATOM      6  C8  UNL d   1      -5.995   0.730   3.277  0.00  0.00     0.002 A 
ENDROOT
BRANCH   1   7
ATOM      7  C2  UNL d   1      -5.956   0.362   5.777  0.00  0.00     0.056 C 
BRANCH   7   8
ATOM      8  C1  UNL d   1      -4.972   1.517   5.995  0.00  0.00     0.007 C 
ATOM      9  C   UNL d   1      -5.624   2.889   5.893  0.00  0.00     0.009 C 
ENDBRANCH   7   8
ENDBRANCH   1   7
TORSDOF 2
ENDMDL
