MODEL 1
REMARK minimizedAffinity 2.92970848
REMARK minimizedRMSD -1
REMARK  2 active torsions:
REMARK  status: ('A' for Active; 'I' for Inactive)
REMARK    1  A    between atoms: C1_2  and  C2_3 
REMARK    2  A    between atoms: C2_3  and  C3_4 
ROOT
ATOM      1  C3  UNL d   1      -2.481   1.364   2.767  0.00  0.00    -0.075 A 
ATOM      2  C4  UNL d   1      -3.003   1.159   1.481  0.00  0.00     0.002 A 
ATOM      3  C5  UNL d   1      -2.184   0.701   0.449  0.00  0.00     0.002 A 
ATOM      4  C6  UNL d   1      -0.833   0.452   0.686  0.00  0.00    -0.004 A 
ATOM      5  C7  UNL d   1      -0.301   0.668   1.955  0.00  0.00     0.002 A 
ATOM      6  C8  UNL d   1      -1.119   1.122   2.991  0.00  0.00     0.002 A 
ENDROOT
BRANCH   1   7
ATOM      7  C2  UNL d   1      -3.369   1.831   3.896  0.00  0.00     0.056 C 
BRANCH   7   8
ATOM      8  C1  UNL d   1      -3.744   0.729   4.892  0.00  0.00     0.007 C 
ATOM      9  C   UNL d   1      -4.670   1.211   6.000  0.00  0.00     0.009 C 
ENDBRANCH   7   8
ENDBRANCH   1   7
TORSDOF 2
ENDMDL
