MODEL 1
REMARK minimizedAffinity 10.8631554
REMARK minimizedRMSD -1
REMARK  1 active torsions:
REMARK  status: ('A' for Active; 'I' for Inactive)
REMARK    1  A    between atoms: N_2  and  C1_3 
ROOT
ATOM      1  C1  UNL d   1      -0.413   4.298  -4.150  0.00  0.00     0.143 A 
ATOM      2  C2  UNL d   1       0.712   4.297  -3.319  0.00  0.00    -0.057 A 
ATOM      3  C3  UNL d   1       1.796   5.149  -3.564  0.00  0.00     0.033 A 
ATOM      4  C4  UNL d   1       1.785   5.999  -4.665  0.00  0.00    -0.042 A 
ATOM      5  C5  UNL d   1       0.688   5.999  -5.518  0.00  0.00     0.033 A 
ATOM      6  C6  UNL d   1      -0.394   5.151  -5.265  0.00  0.00    -0.057 A 
ENDROOT
BRANCH   1   7
ATOM      7  N   UNL d   1      -1.479   3.405  -4.016  0.00  0.00    -0.732 N 
ATOM      8  C   UNL d   1      -1.946   3.006  -2.706  0.00  0.00     0.284 C 
ATOM      9  H3  UNL d   1      -2.224   3.586  -4.686  0.00  0.00     0.395 HD
ENDBRANCH   1   7
TORSDOF 1
ENDMDL
