MODEL 1
REMARK minimizedAffinity 10.2720747
REMARK minimizedRMSD -1
REMARK  1 active torsions:
REMARK  status: ('A' for Active; 'I' for Inactive)
REMARK    1  A    between atoms: N_2  and  C1_3 
ROOT
ATOM      1  C1  UNL d   1       1.343  -3.141  -2.535  0.00  0.00     0.143 A 
ATOM      2  C2  UNL d   1       1.171  -2.136  -1.577  0.00  0.00    -0.057 A 
ATOM      3  C3  UNL d   1       1.409  -2.379  -0.218  0.00  0.00     0.033 A 
ATOM      4  C4  UNL d   1       1.796  -3.644   0.210  0.00  0.00    -0.042 A 
ATOM      5  C5  UNL d   1       1.949  -4.665  -0.721  0.00  0.00     0.033 A 
ATOM      6  C6  UNL d   1       1.717  -4.414  -2.077  0.00  0.00    -0.057 A 
ENDROOT
BRANCH   1   7
ATOM      7  N   UNL d   1       1.027  -2.989  -3.887  0.00  0.00    -0.732 N 
ATOM      8  C   UNL d   1       1.777  -2.073  -4.720  0.00  0.00     0.284 C 
ATOM      9  H3  UNL d   1       0.807  -3.874  -4.336  0.00  0.00     0.395 HD
ENDBRANCH   1   7
TORSDOF 1
ENDMDL
