MODEL 1
REMARK minimizedAffinity 11.6574287
REMARK minimizedRMSD -1
REMARK  1 active torsions:
REMARK  status: ('A' for Active; 'I' for Inactive)
REMARK    1  A    between atoms: N_2  and  C1_3 
ROOT
ATOM      1  C1  UNL d   1       1.128   3.744   1.834  0.00  0.00     0.143 A 
ATOM      2  C2  UNL d   1       0.733   3.001   2.951  0.00  0.00    -0.057 A 
ATOM      3  C3  UNL d   1      -0.217   1.978   2.843  0.00  0.00     0.033 A 
ATOM      4  C4  UNL d   1      -0.812   1.699   1.617  0.00  0.00    -0.042 A 
ATOM      5  C5  UNL d   1      -0.453   2.442   0.498  0.00  0.00     0.033 A 
ATOM      6  C6  UNL d   1       0.502   3.458   0.611  0.00  0.00    -0.057 A 
ENDROOT
BRANCH   1   7
ATOM      7  N   UNL d   1       1.995   4.839   1.895  0.00  0.00    -0.732 N 
ATOM      8  C   UNL d   1       1.780   5.997   1.055  0.00  0.00     0.284 C 
ATOM      9  H3  UNL d   1       2.272   5.062   2.848  0.00  0.00     0.395 HD
ENDBRANCH   1   7
TORSDOF 1
ENDMDL
