MODEL 1
REMARK minimizedAffinity 7.44981527
REMARK minimizedRMSD -1
REMARK  1 active torsions:
REMARK  status: ('A' for Active; 'I' for Inactive)
REMARK    1  A    between atoms: N_2  and  C1_3 
ROOT
ATOM      1  C1  UNL d   1      -5.023   5.986   1.749  0.00  0.00     0.143 A 
ATOM      2  C2  UNL d   1      -3.627   5.927   1.679  0.00  0.00    -0.057 A 
ATOM      3  C3  UNL d   1      -2.962   5.917   0.447  0.00  0.00     0.033 A 
ATOM      4  C4  UNL d   1      -3.685   5.938  -0.741  0.00  0.00    -0.042 A 
ATOM      5  C5  UNL d   1      -5.074   5.971  -0.695  0.00  0.00     0.033 A 
ATOM      6  C6  UNL d   1      -5.733   5.987   0.538  0.00  0.00    -0.057 A 
ENDROOT
BRANCH   1   7
ATOM      7  N   UNL d   1      -5.746   5.898   2.941  0.00  0.00    -0.732 N 
ATOM      8  C   UNL d   1      -5.063   5.843   4.216  0.00  0.00     0.284 C 
ATOM      9  H3  UNL d   1      -6.573   6.491   2.938  0.00  0.00     0.395 HD
ENDBRANCH   1   7
TORSDOF 1
ENDMDL
