MODEL 1
REMARK minimizedAffinity 15.4133205
REMARK minimizedRMSD -1
REMARK  1 active torsions:
REMARK  status: ('A' for Active; 'I' for Inactive)
REMARK    1  A    between atoms: N_2  and  C1_3 
ROOT
ATOM      1  C1  UNL d   1      -5.052   5.886   2.306  0.00  0.00     0.143 A 
ATOM      2  C2  UNL d   1      -5.886   5.905   1.183  0.00  0.00    -0.057 A 
ATOM      3  C3  UNL d   1      -5.356   5.919  -0.114  0.00  0.00     0.033 A 
ATOM      4  C4  UNL d   1      -3.979   5.943  -0.309  0.00  0.00    -0.042 A 
ATOM      5  C5  UNL d   1      -3.132   5.949   0.793  0.00  0.00     0.033 A 
ATOM      6  C6  UNL d   1      -3.667   5.929   2.085  0.00  0.00    -0.057 A 
ENDROOT
BRANCH   1   7
ATOM      7  N   UNL d   1      -5.517   5.971   3.621  0.00  0.00    -0.732 N 
ATOM      8  C   UNL d   1      -4.593   5.921   4.734  0.00  0.00     0.284 C 
ATOM      9  H3  UNL d   1      -6.259   6.660   3.727  0.00  0.00     0.395 HD
ENDBRANCH   1   7
TORSDOF 1
ENDMDL
