MODEL 1
REMARK minimizedAffinity 11.6391335
REMARK minimizedRMSD -1
REMARK  1 active torsions:
REMARK  status: ('A' for Active; 'I' for Inactive)
REMARK    1  A    between atoms: N_2  and  C1_3 
ROOT
ATOM      1  C1  UNL d   1      -4.727   5.932   1.404  0.00  0.00     0.143 A 
ATOM      2  C2  UNL d   1      -3.562   5.703   0.664  0.00  0.00    -0.057 A 
ATOM      3  C3  UNL d   1      -3.602   5.566  -0.729  0.00  0.00     0.033 A 
ATOM      4  C4  UNL d   1      -4.816   5.626  -1.405  0.00  0.00    -0.042 A 
ATOM      5  C5  UNL d   1      -5.990   5.828  -0.688  0.00  0.00     0.033 A 
ATOM      6  C6  UNL d   1      -5.943   5.971   0.703  0.00  0.00    -0.057 A 
ENDROOT
BRANCH   1   7
ATOM      7  N   UNL d   1      -4.766   5.979   2.800  0.00  0.00    -0.732 N 
ATOM      8  C   UNL d   1      -5.885   5.418   3.526  0.00  0.00     0.284 C 
ATOM      9  H3  UNL d   1      -3.859   5.785   3.220  0.00  0.00     0.395 HD
ENDBRANCH   1   7
TORSDOF 1
ENDMDL
