MODEL 1
REMARK minimizedAffinity 8.83962059
REMARK minimizedRMSD -1
REMARK  1 active torsions:
REMARK  status: ('A' for Active; 'I' for Inactive)
REMARK    1  A    between atoms: N_2  and  C1_3 
ROOT
ATOM      1  C1  UNL d   1       1.195  -2.694  -3.330  0.00  0.00     0.143 A 
ATOM      2  C2  UNL d   1       1.999  -1.586  -3.617  0.00  0.00    -0.057 A 
ATOM      3  C3  UNL d   1       2.264  -1.203  -4.938  0.00  0.00     0.033 A 
ATOM      4  C4  UNL d   1       1.751  -1.943  -5.998  0.00  0.00    -0.042 A 
ATOM      5  C5  UNL d   1       0.970  -3.063  -5.736  0.00  0.00     0.033 A 
ATOM      6  C6  UNL d   1       0.704  -3.436  -4.415  0.00  0.00    -0.057 A 
ENDROOT
BRANCH   1   7
ATOM      7  N   UNL d   1       0.977  -3.183  -2.039  0.00  0.00    -0.732 N 
ATOM      8  C   UNL d   1       1.665  -4.367  -1.573  0.00  0.00     0.284 C 
ATOM      9  H3  UNL d   1       0.914  -2.439  -1.348  0.00  0.00     0.395 HD
ENDBRANCH   1   7
TORSDOF 1
ENDMDL
