MODEL 1
REMARK minimizedAffinity 7.38164282
REMARK minimizedRMSD -1
REMARK  1 active torsions:
REMARK  status: ('A' for Active; 'I' for Inactive)
REMARK    1  A    between atoms: N_2  and  C1_3 
ROOT
ATOM      1  C1  UNL d   1       1.355  -2.744  -3.551  0.00  0.00     0.143 A 
ATOM      2  C2  UNL d   1       0.963  -3.316  -4.766  0.00  0.00    -0.057 A 
ATOM      3  C3  UNL d   1       1.170  -2.652  -5.981  0.00  0.00     0.033 A 
ATOM      4  C4  UNL d   1       1.748  -1.387  -6.000  0.00  0.00    -0.042 A 
ATOM      5  C5  UNL d   1       2.123  -0.788  -4.802  0.00  0.00     0.033 A 
ATOM      6  C6  UNL d   1       1.919  -1.459  -3.592  0.00  0.00    -0.057 A 
ENDROOT
BRANCH   1   7
ATOM      7  N   UNL d   1       1.087  -3.311  -2.302  0.00  0.00    -0.732 N 
ATOM      8  C   UNL d   1       1.454  -2.620  -1.085  0.00  0.00     0.284 C 
ATOM      9  H3  UNL d   1       0.174  -3.759  -2.267  0.00  0.00     0.395 HD
ENDBRANCH   1   7
TORSDOF 1
ENDMDL
