MODEL 1
REMARK minimizedAffinity 13.0016279
REMARK minimizedRMSD -1
REMARK  1 active torsions:
REMARK  status: ('A' for Active; 'I' for Inactive)
REMARK    1  A    between atoms: N_2  and  C1_3 
ROOT
ATOM      1  C1  UNL d   1      -4.998   5.971   2.365  0.00  0.00     0.143 A 
ATOM      2  C2  UNL d   1      -3.673   5.841   1.934  0.00  0.00    -0.057 A 
ATOM      3  C3  UNL d   1      -3.355   5.779   0.572  0.00  0.00     0.033 A 
ATOM      4  C4  UNL d   1      -4.363   5.817  -0.386  0.00  0.00    -0.042 A 
ATOM      5  C5  UNL d   1      -5.689   5.920   0.020  0.00  0.00     0.033 A 
ATOM      6  C6  UNL d   1      -6.000   5.989   1.381  0.00  0.00    -0.057 A 
ENDROOT
BRANCH   1   7
ATOM      7  N   UNL d   1      -5.387   5.938   3.706  0.00  0.00    -0.732 N 
ATOM      8  C   UNL d   1      -4.398   5.990   4.762  0.00  0.00     0.284 C 
ATOM      9  H3  UNL d   1      -6.214   6.502   3.885  0.00  0.00     0.395 HD
ENDBRANCH   1   7
TORSDOF 1
ENDMDL
