MODEL 1
REMARK minimizedAffinity 1.34446979
REMARK minimizedRMSD -1
REMARK  1 active torsions:
REMARK  status: ('A' for Active; 'I' for Inactive)
REMARK    1  A    between atoms: N_2  and  C1_3 
ROOT
ATOM      1  C1  UNL d   1      -5.877  -5.012   3.537  0.00  0.00     0.143 A 
ATOM      2  C2  UNL d   1      -5.500  -3.673   3.687  0.00  0.00    -0.057 A 
ATOM      3  C3  UNL d   1      -5.299  -2.847   2.575  0.00  0.00     0.033 A 
ATOM      4  C4  UNL d   1      -5.444  -3.354   1.288  0.00  0.00    -0.042 A 
ATOM      5  C5  UNL d   1      -5.794  -4.688   1.114  0.00  0.00     0.033 A 
ATOM      6  C6  UNL d   1      -6.000  -5.507   2.229  0.00  0.00    -0.057 A 
ENDROOT
BRANCH   1   7
ATOM      7  N   UNL d   1      -5.995  -5.911   4.600  0.00  0.00    -0.732 N 
ATOM      8  C   UNL d   1      -5.964  -5.442   5.968  0.00  0.00     0.284 C 
ATOM      9  H3  UNL d   1      -6.691  -6.632   4.423  0.00  0.00     0.395 HD
ENDBRANCH   1   7
TORSDOF 1
ENDMDL
