MODEL 1
REMARK minimizedAffinity 12.5740824
REMARK minimizedRMSD -1
REMARK  1 active torsions:
REMARK  status: ('A' for Active; 'I' for Inactive)
REMARK    1  A    between atoms: N_2  and  C1_3 
ROOT
ATOM      1  C1  UNL d   1      -0.377   4.276  -2.088  0.00  0.00     0.143 A 
ATOM      2  C2  UNL d   1      -0.190   5.560  -1.565  0.00  0.00    -0.057 A 
ATOM      3  C3  UNL d   1       0.282   5.750  -0.260  0.00  0.00     0.033 A 
ATOM      4  C4  UNL d   1       0.548   4.656   0.556  0.00  0.00    -0.042 A 
ATOM      5  C5  UNL d   1       0.346   3.371   0.065  0.00  0.00     0.033 A 
ATOM      6  C6  UNL d   1      -0.119   3.187  -1.241  0.00  0.00    -0.057 A 
ENDROOT
BRANCH   1   7
ATOM      7  N   UNL d   1      -0.936   4.022  -3.343  0.00  0.00    -0.732 N 
ATOM      8  C   UNL d   1      -2.095   3.164  -3.473  0.00  0.00     0.284 C 
ATOM      9  H3  UNL d   1      -0.965   4.852  -3.931  0.00  0.00     0.395 HD
ENDBRANCH   1   7
TORSDOF 1
ENDMDL
