MODEL 1
REMARK minimizedAffinity 11.4266052
REMARK minimizedRMSD -1
REMARK  1 active torsions:
REMARK  status: ('A' for Active; 'I' for Inactive)
REMARK    1  A    between atoms: N_2  and  C1_3 
ROOT
ATOM      1  C1  UNL d   1       1.174  -3.148  -3.603  0.00  0.00     0.143 A 
ATOM      2  C2  UNL d   1       0.511  -3.398  -4.809  0.00  0.00    -0.057 A 
ATOM      3  C3  UNL d   1       0.911  -2.779  -6.000  0.00  0.00     0.033 A 
ATOM      4  C4  UNL d   1       1.967  -1.874  -6.000  0.00  0.00    -0.042 A 
ATOM      5  C5  UNL d   1       2.626  -1.592  -4.808  0.00  0.00     0.033 A 
ATOM      6  C6  UNL d   1       2.226  -2.218  -3.624  0.00  0.00    -0.057 A 
ENDROOT
BRANCH   1   7
ATOM      7  N   UNL d   1       0.762  -3.656  -2.369  0.00  0.00    -0.732 N 
ATOM      8  C   UNL d   1       1.138  -2.995  -1.137  0.00  0.00     0.284 C 
ATOM      9  H3  UNL d   1      -0.200  -3.987  -2.387  0.00  0.00     0.395 HD
ENDBRANCH   1   7
TORSDOF 1
ENDMDL
