MODEL 1
REMARK minimizedAffinity 9.84967995
REMARK minimizedRMSD -1
REMARK  1 active torsions:
REMARK  status: ('A' for Active; 'I' for Inactive)
REMARK    1  A    between atoms: N_2  and  C1_3 
ROOT
ATOM      1  C1  UNL d   1       1.555  -2.610  -1.616  0.00  0.00     0.143 A 
ATOM      2  C2  UNL d   1       1.637  -1.379  -0.957  0.00  0.00    -0.057 A 
ATOM      3  C3  UNL d   1       1.917  -1.305   0.412  0.00  0.00     0.033 A 
ATOM      4  C4  UNL d   1       2.094  -2.467   1.156  0.00  0.00    -0.042 A 
ATOM      5  C5  UNL d   1       1.992  -3.703   0.528  0.00  0.00     0.033 A 
ATOM      6  C6  UNL d   1       1.718  -3.770  -0.842  0.00  0.00    -0.057 A 
ENDROOT
BRANCH   1   7
ATOM      7  N   UNL d   1       1.182  -2.753  -2.954  0.00  0.00    -0.732 N 
ATOM      8  C   UNL d   1       1.987  -2.178  -4.010  0.00  0.00     0.284 C 
ATOM      9  H3  UNL d   1       0.828  -3.685  -3.162  0.00  0.00     0.395 HD
ENDBRANCH   1   7
TORSDOF 1
ENDMDL
