MODEL 1
REMARK minimizedAffinity 6.09193182
REMARK minimizedRMSD -1
REMARK  3 active torsions:
REMARK  status: ('A' for Active; 'I' for Inactive)
REMARK    1  A    between atoms: C3'_2  and  C2'_3 
REMARK    2  A    between atoms: C2'_3  and  C1'_4 
REMARK    3  A    between atoms: C1'_4  and  C1_5 
ROOT
ATOM      1  C1  N4B d   1      -1.177  -2.625   1.077  0.00  0.00    -0.075 A 
ATOM      2  C2  N4B d   1      -0.370  -1.471   1.182  0.00  0.00     0.002 A 
ATOM      3  C3  N4B d   1      -0.372  -0.537   0.175  0.00  0.00     0.002 A 
ATOM      4  C4  N4B d   1      -1.156  -0.744  -0.950  0.00  0.00    -0.004 A 
ATOM      5  C5  N4B d   1      -1.952  -1.848  -1.033  0.00  0.00     0.002 A 
ATOM      6  C6  N4B d   1      -1.963  -2.793  -0.026  0.00  0.00     0.002 A 
ENDROOT
BRANCH   1   7
ATOM      7  C1' N4B d   1      -1.143  -3.715   2.113  0.00  0.00     0.057 C 
BRANCH   7   8
ATOM      8  C2' N4B d   1      -1.163  -5.071   1.413  0.00  0.00     0.009 C 
BRANCH   8   9
ATOM      9  C3' N4B d   1      -2.212  -5.999   2.002  0.00  0.00     0.004 C 
ATOM     10  C4' N4B d   1      -3.514  -5.948   1.260  0.00  0.00     0.003 C 
ENDBRANCH   8   9
ENDBRANCH   7   8
ENDBRANCH   1   7
TORSDOF 3
ENDMDL
