MODEL 1
REMARK minimizedAffinity 10.4344101
REMARK minimizedRMSD -1
REMARK  3 active torsions:
REMARK  status: ('A' for Active; 'I' for Inactive)
REMARK    1  A    between atoms: C3'_2  and  C2'_3 
REMARK    2  A    between atoms: C2'_3  and  C1'_4 
REMARK    3  A    between atoms: C1'_4  and  C1_5 
ROOT
ATOM      1  C1  N4B d   1       2.281   0.635   1.124  0.00  0.00    -0.075 A 
ATOM      2  C2  N4B d   1       1.192   0.213   1.918  0.00  0.00     0.002 A 
ATOM      3  C3  N4B d   1       0.245   1.122   2.322  0.00  0.00     0.002 A 
ATOM      4  C4  N4B d   1       0.376   2.455   1.963  0.00  0.00    -0.004 A 
ATOM      5  C5  N4B d   1       1.417   2.849   1.175  0.00  0.00     0.002 A 
ATOM      6  C6  N4B d   1       2.374   1.946   0.757  0.00  0.00     0.002 A 
ENDROOT
BRANCH   1   7
ATOM      7  C1' N4B d   1       3.387  -0.305   0.729  0.00  0.00     0.057 C 
BRANCH   7   8
ATOM      8  C2' N4B d   1       4.190  -0.683   1.970  0.00  0.00     0.009 C 
BRANCH   8   9
ATOM      9  C3' N4B d   1       5.683  -0.717   1.693  0.00  0.00     0.004 C 
ATOM     10  C4' N4B d   1       6.000  -0.900   0.238  0.00  0.00     0.003 C 
ENDBRANCH   8   9
ENDBRANCH   7   8
ENDBRANCH   1   7
TORSDOF 3
ENDMDL
