MODEL 1
REMARK minimizedAffinity 6.43574524
REMARK minimizedRMSD -1
REMARK  3 active torsions:
REMARK  status: ('A' for Active; 'I' for Inactive)
REMARK    1  A    between atoms: C3'_2  and  C2'_3 
REMARK    2  A    between atoms: C2'_3  and  C1'_4 
REMARK    3  A    between atoms: C1'_4  and  C1_5 
ROOT
ATOM      1  C1  N4B d   1       4.823  -0.793   0.868  0.00  0.00    -0.075 A 
ATOM      2  C2  N4B d   1       5.606  -1.867   0.390  0.00  0.00     0.002 A 
ATOM      3  C3  N4B d   1       5.999  -1.896  -0.925  0.00  0.00     0.002 A 
ATOM      4  C4  N4B d   1       5.608  -0.878  -1.782  0.00  0.00    -0.004 A 
ATOM      5  C5  N4B d   1       4.873   0.168  -1.306  0.00  0.00     0.002 A 
ATOM      6  C6  N4B d   1       4.474   0.213   0.015  0.00  0.00     0.002 A 
ENDROOT
BRANCH   1   7
ATOM      7  C1' N4B d   1       4.296  -0.760   2.277  0.00  0.00     0.057 C 
BRANCH   7   8
ATOM      8  C2' N4B d   1       5.451  -0.981   3.249  0.00  0.00     0.009 C 
BRANCH   8   9
ATOM      9  C3' N4B d   1       5.010  -1.728   4.496  0.00  0.00     0.004 C 
ATOM     10  C4' N4B d   1       6.000  -1.622   5.617  0.00  0.00     0.003 C 
ENDBRANCH   8   9
ENDBRANCH   7   8
ENDBRANCH   1   7
TORSDOF 3
ENDMDL
