MODEL 1
REMARK minimizedAffinity 12.7051296
REMARK minimizedRMSD -1
REMARK  3 active torsions:
REMARK  status: ('A' for Active; 'I' for Inactive)
REMARK    1  A    between atoms: C3'_2  and  C2'_3 
REMARK    2  A    between atoms: C2'_3  and  C1'_4 
REMARK    3  A    between atoms: C1'_4  and  C1_5 
ROOT
ATOM      1  C1  N4B d   1      -4.824   1.057   3.795  0.00  0.00    -0.075 A 
ATOM      2  C2  N4B d   1      -5.509   0.845   5.011  0.00  0.00     0.002 A 
ATOM      3  C3  N4B d   1      -5.463   1.797   6.000  0.00  0.00     0.002 A 
ATOM      4  C4  N4B d   1      -4.726   2.955   5.803  0.00  0.00    -0.004 A 
ATOM      5  C5  N4B d   1      -4.088   3.163   4.615  0.00  0.00     0.002 A 
ATOM      6  C6  N4B d   1      -4.129   2.217   3.611  0.00  0.00     0.002 A 
ENDROOT
BRANCH   1   7
ATOM      7  C1' N4B d   1      -4.774   0.007   2.718  0.00  0.00     0.057 C 
BRANCH   7   8
ATOM      8  C2' N4B d   1      -3.319  -0.357   2.440  0.00  0.00     0.009 C 
BRANCH   8   9
ATOM      9  C3' N4B d   1      -3.170  -1.174   1.169  0.00  0.00     0.004 C 
ATOM     10  C4' N4B d   1      -1.877  -1.932   1.113  0.00  0.00     0.003 C 
ENDBRANCH   8   9
ENDBRANCH   7   8
ENDBRANCH   1   7
TORSDOF 3
ENDMDL
