MODEL 1
REMARK minimizedAffinity 6.55902338
REMARK minimizedRMSD -1
REMARK  3 active torsions:
REMARK  status: ('A' for Active; 'I' for Inactive)
REMARK    1  A    between atoms: C3'_2  and  C2'_3 
REMARK    2  A    between atoms: C2'_3  and  C1'_4 
REMARK    3  A    between atoms: C1'_4  and  C1_5 
ROOT
ATOM      1  C1  N4B d   1      -5.535   2.255   4.937  0.00  0.00    -0.075 A 
ATOM      2  C2  N4B d   1      -5.885   0.949   5.347  0.00  0.00     0.002 A 
ATOM      3  C3  N4B d   1      -5.912  -0.074   4.431  0.00  0.00     0.002 A 
ATOM      4  C4  N4B d   1      -5.611   0.187   3.102  0.00  0.00    -0.004 A 
ATOM      5  C5  N4B d   1      -5.249   1.446   2.720  0.00  0.00     0.002 A 
ATOM      6  C6  N4B d   1      -5.215   2.483   3.631  0.00  0.00     0.002 A 
ENDROOT
BRANCH   1   7
ATOM      7  C1' N4B d   1      -5.575   3.422   5.886  0.00  0.00     0.057 C 
BRANCH   7   8
ATOM      8  C2' N4B d   1      -4.185   4.044   5.974  0.00  0.00     0.009 C 
BRANCH   8   9
ATOM      9  C3' N4B d   1      -4.222   5.549   5.772  0.00  0.00     0.004 C 
ATOM     10  C4' N4B d   1      -5.318   5.984   4.846  0.00  0.00     0.003 C 
ENDBRANCH   8   9
ENDBRANCH   7   8
ENDBRANCH   1   7
TORSDOF 3
ENDMDL
