MODEL 1
REMARK minimizedAffinity 15.5440674
REMARK minimizedRMSD -1
REMARK  3 active torsions:
REMARK  status: ('A' for Active; 'I' for Inactive)
REMARK    1  A    between atoms: C3'_2  and  C2'_3 
REMARK    2  A    between atoms: C2'_3  and  C1'_4 
REMARK    3  A    between atoms: C1'_4  and  C1_5 
ROOT
ATOM      1  C1  N4B d   1      -3.596  -3.805  -2.491  0.00  0.00    -0.075 A 
ATOM      2  C2  N4B d   1      -3.191  -4.954  -1.776  0.00  0.00     0.002 A 
ATOM      3  C3  N4B d   1      -4.065  -6.000  -1.606  0.00  0.00     0.002 A 
ATOM      4  C4  N4B d   1      -5.349  -5.912  -2.123  0.00  0.00    -0.004 A 
ATOM      5  C5  N4B d   1      -5.723  -4.809  -2.834  0.00  0.00     0.002 A 
ATOM      6  C6  N4B d   1      -4.854  -3.752  -3.016  0.00  0.00     0.002 A 
ENDROOT
BRANCH   1   7
ATOM      7  C1' N4B d   1      -2.704  -2.601  -2.629  0.00  0.00     0.057 C 
BRANCH   7   8
ATOM      8  C2' N4B d   1      -1.246  -3.048  -2.568  0.00  0.00     0.009 C 
BRANCH   8   9
ATOM      9  C3' N4B d   1      -0.713  -3.435  -3.937  0.00  0.00     0.004 C 
ATOM     10  C4' N4B d   1      -0.330  -4.882  -4.023  0.00  0.00     0.003 C 
ENDBRANCH   8   9
ENDBRANCH   7   8
ENDBRANCH   1   7
TORSDOF 3
ENDMDL
