MODEL 1
REMARK minimizedAffinity 13.0478258
REMARK minimizedRMSD -1
REMARK  3 active torsions:
REMARK  status: ('A' for Active; 'I' for Inactive)
REMARK    1  A    between atoms: C3'_2  and  C2'_3 
REMARK    2  A    between atoms: C2'_3  and  C1'_4 
REMARK    3  A    between atoms: C1'_4  and  C1_5 
ROOT
ATOM      1  C1  N4B d   1      -2.827  -3.601   1.097  0.00  0.00    -0.075 A 
ATOM      2  C2  N4B d   1      -3.646  -4.733   0.893  0.00  0.00     0.002 A 
ATOM      3  C3  N4B d   1      -3.348  -5.918   1.520  0.00  0.00     0.002 A 
ATOM      4  C4  N4B d   1      -2.231  -6.000   2.337  0.00  0.00    -0.004 A 
ATOM      5  C5  N4B d   1      -1.459  -4.895   2.549  0.00  0.00     0.002 A 
ATOM      6  C6  N4B d   1      -1.749  -3.696   1.929  0.00  0.00     0.002 A 
ENDROOT
BRANCH   1   7
ATOM      7  C1' N4B d   1      -3.063  -2.307   0.367  0.00  0.00     0.057 C 
BRANCH   7   8
ATOM      8  C2' N4B d   1      -1.884  -2.034  -0.562  0.00  0.00     0.009 C 
BRANCH   8   9
ATOM      9  C3' N4B d   1      -2.337  -1.689  -1.970  0.00  0.00     0.004 C 
ATOM     10  C4' N4B d   1      -3.126  -2.790  -2.612  0.00  0.00     0.003 C 
ENDBRANCH   8   9
ENDBRANCH   7   8
ENDBRANCH   1   7
TORSDOF 3
ENDMDL
