MODEL 1
REMARK minimizedAffinity 9.13853645
REMARK minimizedRMSD -1
REMARK  3 active torsions:
REMARK  status: ('A' for Active; 'I' for Inactive)
REMARK    1  A    between atoms: C3'_2  and  C2'_3 
REMARK    2  A    between atoms: C2'_3  and  C1'_4 
REMARK    3  A    between atoms: C1'_4  and  C1_5 
ROOT
ATOM      1  C1  N4B d   1      -3.678  -3.415  -2.534  0.00  0.00    -0.075 A 
ATOM      2  C2  N4B d   1      -3.589  -4.658  -1.870  0.00  0.00     0.002 A 
ATOM      3  C3  N4B d   1      -4.703  -5.453  -1.748  0.00  0.00     0.002 A 
ATOM      4  C4  N4B d   1      -5.915  -5.018  -2.264  0.00  0.00    -0.004 A 
ATOM      5  C5  N4B d   1      -5.986  -3.828  -2.926  0.00  0.00     0.002 A 
ATOM      6  C6  N4B d   1      -4.874  -3.021  -3.059  0.00  0.00     0.002 A 
ENDROOT
BRANCH   1   7
ATOM      7  C1' N4B d   1      -2.508  -2.473  -2.616  0.00  0.00     0.057 C 
BRANCH   7   8
ATOM      8  C2' N4B d   1      -1.676  -2.815  -3.849  0.00  0.00     0.009 C 
BRANCH   8   9
ATOM      9  C3' N4B d   1      -1.427  -1.597  -4.722  0.00  0.00     0.004 C 
ATOM     10  C4' N4B d   1      -0.716  -1.932  -5.998  0.00  0.00     0.003 C 
ENDBRANCH   8   9
ENDBRANCH   7   8
ENDBRANCH   1   7
TORSDOF 3
ENDMDL
