MODEL 1
REMARK minimizedAffinity 14.9028444
REMARK minimizedRMSD -1
REMARK  3 active torsions:
REMARK  status: ('A' for Active; 'I' for Inactive)
REMARK    1  A    between atoms: C3'_2  and  C2'_3 
REMARK    2  A    between atoms: C2'_3  and  C1'_4 
REMARK    3  A    between atoms: C1'_4  and  C1_5 
ROOT
ATOM      1  C1  N4B d   1      -3.654  -3.729  -2.653  0.00  0.00    -0.075 A 
ATOM      2  C2  N4B d   1      -4.890  -3.472  -3.284  0.00  0.00     0.002 A 
ATOM      3  C3  N4B d   1      -5.841  -4.460  -3.360  0.00  0.00     0.002 A 
ATOM      4  C4  N4B d   1      -5.572  -5.713  -2.831  0.00  0.00    -0.004 A 
ATOM      5  C5  N4B d   1      -4.385  -5.946  -2.201  0.00  0.00     0.002 A 
ATOM      6  C6  N4B d   1      -3.421  -4.961  -2.114  0.00  0.00     0.002 A 
ENDROOT
BRANCH   1   7
ATOM      7  C1' N4B d   1      -2.550  -2.707  -2.622  0.00  0.00     0.057 C 
BRANCH   7   8
ATOM      8  C2' N4B d   1      -1.204  -3.424  -2.575  0.00  0.00     0.009 C 
BRANCH   8   9
ATOM      9  C3' N4B d   1      -0.699  -3.776  -3.964  0.00  0.00     0.004 C 
ATOM     10  C4' N4B d   1       0.045  -5.077  -4.000  0.00  0.00     0.003 C 
ENDBRANCH   8   9
ENDBRANCH   7   8
ENDBRANCH   1   7
TORSDOF 3
ENDMDL
