MODEL 1
REMARK minimizedAffinity -2.23784471
REMARK minimizedRMSD -1
REMARK  0 active torsions:
REMARK  status: ('A' for Active; 'I' for Inactive)
ROOT
ATOM      1  C   UNL d   1       1.482   4.676  -5.981  0.00  0.00     0.020 A 
ATOM      2  C1  UNL d   1       2.121   5.916  -5.976  0.00  0.00     0.020 A 
ATOM      3  C2  UNL d   1       3.516   5.982  -5.979  0.00  0.00     0.034 A 
ATOM      4  C3  UNL d   1       4.276   4.807  -5.985  0.00  0.00     0.017 A 
ATOM      5  C4  UNL d   1       3.634   3.564  -5.990  0.00  0.00     0.017 A 
ATOM      6  C5  UNL d   1       2.237   3.503  -5.988  0.00  0.00     0.034 A 
ATOM      7 Cl   UNL d   1       4.505   2.071  -5.999  0.00  0.00    -0.070 Cl
ATOM      8 Cl1  UNL d   1       5.997   4.964  -5.988  0.00  0.00    -0.070 Cl
ENDROOT
TORSDOF 0
ENDMDL
