MODEL 1
REMARK minimizedAffinity 10.2355366
REMARK minimizedRMSD -1
REMARK  0 active torsions:
REMARK  status: ('A' for Active; 'I' for Inactive)
ROOT
ATOM      1  C   UNL d   1       0.248   0.304   1.000  0.00  0.00     0.020 A 
ATOM      2  C1  UNL d   1      -0.677   1.018   0.239  0.00  0.00     0.020 A 
ATOM      3  C2  UNL d   1      -2.033   0.690   0.302  0.00  0.00     0.034 A 
ATOM      4  C3  UNL d   1      -2.468  -0.354   1.126  0.00  0.00     0.017 A 
ATOM      5  C4  UNL d   1      -1.538  -1.070   1.889  0.00  0.00     0.017 A 
ATOM      6  C5  UNL d   1      -0.181  -0.737   1.823  0.00  0.00     0.034 A 
ATOM      7 Cl   UNL d   1      -1.998  -2.371   2.929  0.00  0.00    -0.070 Cl
ATOM      8 Cl1  UNL d   1      -4.159  -0.705   1.155  0.00  0.00    -0.070 Cl
ENDROOT
TORSDOF 0
ENDMDL
