MODEL 1
REMARK minimizedAffinity 6.00780058
REMARK minimizedRMSD -1
REMARK  0 active torsions:
REMARK  status: ('A' for Active; 'I' for Inactive)
ROOT
ATOM      1  C   UNL d   1       1.966  -1.833   0.766  0.00  0.00     0.020 A 
ATOM      2  C1  UNL d   1       1.512  -0.902  -0.167  0.00  0.00     0.020 A 
ATOM      3  C2  UNL d   1       0.273  -0.282   0.012  0.00  0.00     0.034 A 
ATOM      4  C3  UNL d   1      -0.516  -0.594   1.125  0.00  0.00     0.017 A 
ATOM      5  C4  UNL d   1      -0.059  -1.529   2.061  0.00  0.00     0.017 A 
ATOM      6  C5  UNL d   1       1.183  -2.146   1.877  0.00  0.00     0.034 A 
ATOM      7 Cl   UNL d   1      -0.975  -1.965   3.460  0.00  0.00    -0.070 Cl
ATOM      8 Cl1  UNL d   1      -2.037   0.210   1.283  0.00  0.00    -0.070 Cl
ENDROOT
TORSDOF 0
ENDMDL
