MODEL 1
REMARK minimizedAffinity 2.23116446
REMARK minimizedRMSD -1
REMARK  0 active torsions:
REMARK  status: ('A' for Active; 'I' for Inactive)
ROOT
ATOM      1  C   UNL d   1       3.542   5.992   1.481  0.00  0.00     0.020 A 
ATOM      2  C1  UNL d   1       4.698   5.994   2.260  0.00  0.00     0.020 A 
ATOM      3  C2  UNL d   1       4.602   5.996   3.653  0.00  0.00     0.034 A 
ATOM      4  C3  UNL d   1       3.347   5.997   4.271  0.00  0.00     0.017 A 
ATOM      5  C4  UNL d   1       2.186   5.995   3.489  0.00  0.00     0.017 A 
ATOM      6  C5  UNL d   1       2.289   5.992   2.094  0.00  0.00     0.034 A 
ATOM      7 Cl   UNL d   1       0.602   5.995   4.180  0.00  0.00    -0.070 Cl
ATOM      8 Cl1  UNL d   1       3.302   6.000   5.999  0.00  0.00    -0.070 Cl
ENDROOT
TORSDOF 0
ENDMDL
