MODEL 1
REMARK minimizedAffinity 1.24642968
REMARK minimizedRMSD -1
REMARK  0 active torsions:
REMARK  status: ('A' for Active; 'I' for Inactive)
ROOT
ATOM      1  C   UNL d   1      -0.924  -0.213   0.982  0.00  0.00     0.020 A 
ATOM      2  C1  UNL d   1      -0.719   1.165   1.018  0.00  0.00     0.020 A 
ATOM      3  C2  UNL d   1       0.460   1.710   0.505  0.00  0.00     0.034 A 
ATOM      4  C3  UNL d   1       1.440   0.876  -0.045  0.00  0.00     0.017 A 
ATOM      5  C4  UNL d   1       1.234  -0.508  -0.081  0.00  0.00     0.017 A 
ATOM      6  C5  UNL d   1       0.051  -1.048   0.433  0.00  0.00     0.034 A 
ATOM      7 Cl   UNL d   1       2.396  -1.601  -0.745  0.00  0.00    -0.070 Cl
ATOM      8 Cl1  UNL d   1       2.873   1.618  -0.661  0.00  0.00    -0.070 Cl
ENDROOT
TORSDOF 0
ENDMDL
