MODEL 1
REMARK minimizedAffinity 5.83718824
REMARK minimizedRMSD -1
REMARK  0 active torsions:
REMARK  status: ('A' for Active; 'I' for Inactive)
ROOT
ATOM      1  C   UNL d   1      -2.608  -0.453  -0.038  0.00  0.00     0.020 A 
ATOM      2  C1  UNL d   1      -2.890  -0.222   1.307  0.00  0.00     0.020 A 
ATOM      3  C2  UNL d   1      -1.870  -0.300   2.258  0.00  0.00     0.034 A 
ATOM      4  C3  UNL d   1      -0.564  -0.611   1.864  0.00  0.00     0.017 A 
ATOM      5  C4  UNL d   1      -0.281  -0.843   0.513  0.00  0.00     0.017 A 
ATOM      6  C5  UNL d   1      -1.307  -0.763  -0.434  0.00  0.00     0.034 A 
ATOM      7 Cl   UNL d   1       1.306  -1.231  -0.049  0.00  0.00    -0.070 Cl
ATOM      8 Cl1  UNL d   1       0.648  -0.691   3.093  0.00  0.00    -0.070 Cl
ENDROOT
TORSDOF 0
ENDMDL
