MODEL 1
REMARK minimizedAffinity 5.9510541
REMARK minimizedRMSD -1
REMARK  0 active torsions:
REMARK  status: ('A' for Active; 'I' for Inactive)
ROOT
ATOM      1  C   UNL d   1       3.901   5.999   0.606  0.00  0.00     0.020 A 
ATOM      2  C1  UNL d   1       5.162   5.999   1.202  0.00  0.00     0.020 A 
ATOM      3  C2  UNL d   1       5.276   5.999   2.594  0.00  0.00     0.034 A 
ATOM      4  C3  UNL d   1       4.128   5.999   3.395  0.00  0.00     0.017 A 
ATOM      5  C4  UNL d   1       2.863   5.999   2.796  0.00  0.00     0.017 A 
ATOM      6  C5  UNL d   1       2.754   5.999   1.401  0.00  0.00     0.034 A 
ATOM      7 Cl   UNL d   1       1.401   5.998   3.717  0.00  0.00    -0.070 Cl
ATOM      8 Cl1  UNL d   1       4.344   5.999   5.109  0.00  0.00    -0.070 Cl
ENDROOT
TORSDOF 0
ENDMDL
