MODEL 1
REMARK minimizedAffinity -1.21685648
REMARK minimizedRMSD -1
REMARK  0 active torsions:
REMARK  status: ('A' for Active; 'I' for Inactive)
ROOT
ATOM      1  C   UNL d   1      -2.236  -0.371  -0.007  0.00  0.00     0.020 A 
ATOM      2  C1  UNL d   1      -2.554  -0.343   1.350  0.00  0.00     0.020 A 
ATOM      3  C2  UNL d   1      -1.548  -0.493   2.307  0.00  0.00     0.034 A 
ATOM      4  C3  UNL d   1      -0.218  -0.672   1.907  0.00  0.00     0.017 A 
ATOM      5  C4  UNL d   1       0.100  -0.700   0.544  0.00  0.00     0.017 A 
ATOM      6  C5  UNL d   1      -0.912  -0.549  -0.409  0.00  0.00     0.034 A 
ATOM      7 Cl   UNL d   1       1.717  -0.916  -0.026  0.00  0.00    -0.070 Cl
ATOM      8 Cl1  UNL d   1       0.975  -0.851   3.143  0.00  0.00    -0.070 Cl
ENDROOT
TORSDOF 0
ENDMDL
