MODEL 1
REMARK minimizedAffinity 10.7898188
REMARK minimizedRMSD -1
REMARK  0 active torsions:
REMARK  status: ('A' for Active; 'I' for Inactive)
ROOT
ATOM      1  C   UNL d   1      -0.673  -1.227   2.003  0.00  0.00     0.020 A 
ATOM      2  C1  UNL d   1      -1.208  -0.459   0.969  0.00  0.00     0.020 A 
ATOM      3  C2  UNL d   1      -0.441  -0.182  -0.165  0.00  0.00     0.034 A 
ATOM      4  C3  UNL d   1       0.866  -0.673  -0.267  0.00  0.00     0.017 A 
ATOM      5  C4  UNL d   1       1.402  -1.444   0.771  0.00  0.00     0.017 A 
ATOM      6  C5  UNL d   1       0.629  -1.718   1.904  0.00  0.00     0.034 A 
ATOM      7 Cl   UNL d   1       3.007  -2.084   0.717  0.00  0.00    -0.070 Cl
ATOM      8 Cl1  UNL d   1       1.758  -0.292  -1.697  0.00  0.00    -0.070 Cl
ENDROOT
TORSDOF 0
ENDMDL
