MODEL 1
REMARK minimizedAffinity 4.50803804
REMARK minimizedRMSD -1
REMARK  0 active torsions:
REMARK  status: ('A' for Active; 'I' for Inactive)
ROOT
ATOM      1  C   UNL d   1       0.696  -0.454  -0.112  0.00  0.00     0.020 A 
ATOM      2  C1  UNL d   1      -0.221  -0.460  -1.162  0.00  0.00     0.020 A 
ATOM      3  C2  UNL d   1      -1.577  -0.669  -0.903  0.00  0.00     0.034 A 
ATOM      4  C3  UNL d   1      -2.020  -0.872   0.409  0.00  0.00     0.017 A 
ATOM      5  C4  UNL d   1      -1.098  -0.866   1.462  0.00  0.00     0.017 A 
ATOM      6  C5  UNL d   1       0.258  -0.656   1.197  0.00  0.00     0.034 A 
ATOM      7 Cl   UNL d   1      -1.569  -1.110   3.107  0.00  0.00    -0.070 Cl
ATOM      8 Cl1  UNL d   1      -3.712  -1.124   0.656  0.00  0.00    -0.070 Cl
ENDROOT
TORSDOF 0
ENDMDL
