MODEL 1
REMARK minimizedAffinity -3.17459989
REMARK minimizedRMSD -1
REMARK  0 active torsions:
REMARK  status: ('A' for Active; 'I' for Inactive)
ROOT
ATOM      1  C   UNL d   1      -1.922   1.347  -2.929  0.00  0.00     0.172 C 
ATOM      2  N   UNL d   1      -1.083   0.821  -1.879  0.00  0.00    -0.070 N 
ATOM      3  C1  UNL d   1      -0.870   1.407  -0.659  0.00  0.00    -0.004 A 
ATOM      4  C2  UNL d   1      -0.013   0.596   0.054  0.00  0.00    -0.047 A 
ATOM      5  C3  UNL d   1       0.301  -0.514  -0.766  0.00  0.00    -0.047 A 
ATOM      6  C4  UNL d   1      -0.375  -0.349  -1.956  0.00  0.00    -0.004 A 
ENDROOT
TORSDOF 0
ENDMDL
