MODEL 1
REMARK minimizedAffinity -3.19330525
REMARK minimizedRMSD -1
REMARK  0 active torsions:
REMARK  status: ('A' for Active; 'I' for Inactive)
ROOT
ATOM      1  C   UNL d   1       0.120  -0.026   0.007  0.00  0.00     0.172 C 
ATOM      2  N   UNL d   1      -0.833   0.676  -0.821  0.00  0.00    -0.070 N 
ATOM      3  C1  UNL d   1      -1.453   1.854  -0.501  0.00  0.00    -0.004 A 
ATOM      4  C2  UNL d   1      -2.282   2.193  -1.548  0.00  0.00    -0.047 A 
ATOM      5  C3  UNL d   1      -2.158   1.182  -2.531  0.00  0.00    -0.047 A 
ATOM      6  C4  UNL d   1      -1.254   0.256  -2.055  0.00  0.00    -0.004 A 
ENDROOT
TORSDOF 0
ENDMDL
