MODEL 1
REMARK minimizedAffinity -4.08811188
REMARK minimizedRMSD -1
REMARK  0 active torsions:
REMARK  status: ('A' for Active; 'I' for Inactive)
ROOT
ATOM      1  C   UNL d   1      -0.043   0.034   0.018  0.00  0.00     0.172 C 
ATOM      2  N   UNL d   1       0.195  -1.213   0.706  0.00  0.00    -0.070 N 
ATOM      3  C1  UNL d   1      -0.261  -1.534   1.957  0.00  0.00    -0.004 A 
ATOM      4  C2  UNL d   1       0.178  -2.807   2.253  0.00  0.00    -0.047 A 
ATOM      5  C3  UNL d   1       0.923  -3.266   1.141  0.00  0.00    -0.047 A 
ATOM      6  C4  UNL d   1       0.918  -2.260   0.199  0.00  0.00    -0.004 A 
ENDROOT
TORSDOF 0
ENDMDL
