MODEL 1
REMARK minimizedAffinity -0.0869509876
REMARK minimizedRMSD -1
REMARK  0 active torsions:
REMARK  status: ('A' for Active; 'I' for Inactive)
ROOT
ATOM      1  C   UNL d   1       0.451  -0.391   0.305  0.00  0.00     0.172 C 
ATOM      2  N   UNL d   1      -0.532   0.583  -0.109  0.00  0.00    -0.070 N 
ATOM      3  C1  UNL d   1      -1.086   1.547   0.689  0.00  0.00    -0.004 A 
ATOM      4  C2  UNL d   1      -1.975   2.270  -0.076  0.00  0.00    -0.047 A 
ATOM      5  C3  UNL d   1      -1.955   1.721  -1.380  0.00  0.00    -0.047 A 
ATOM      6  C4  UNL d   1      -1.053   0.677  -1.373  0.00  0.00    -0.004 A 
ENDROOT
TORSDOF 0
ENDMDL
