MODEL 1
REMARK minimizedAffinity -3.73188663
REMARK minimizedRMSD -1
REMARK  0 active torsions:
REMARK  status: ('A' for Active; 'I' for Inactive)
ROOT
ATOM      1  C   UNL d   1      -0.134   0.112  -0.840  0.00  0.00     0.172 C 
ATOM      2  N   UNL d   1       0.362  -1.007  -0.073  0.00  0.00    -0.070 N 
ATOM      3  C1  UNL d   1      -0.089  -2.297  -0.159  0.00  0.00    -0.004 A 
ATOM      4  C2  UNL d   1       0.637  -3.058   0.731  0.00  0.00    -0.047 A 
ATOM      5  C3  UNL d   1       1.556  -2.196   1.375  0.00  0.00    -0.047 A 
ATOM      6  C4  UNL d   1       1.364  -0.932   0.858  0.00  0.00    -0.004 A 
ENDROOT
TORSDOF 0
ENDMDL
