MODEL 1
REMARK minimizedAffinity -2.53611827
REMARK minimizedRMSD -1
REMARK  0 active torsions:
REMARK  status: ('A' for Active; 'I' for Inactive)
ROOT
ATOM      1  C   UNL d   1       2.100  -1.811   1.018  0.00  0.00     0.172 C 
ATOM      2  N   UNL d   1       1.212  -0.866   0.384  0.00  0.00    -0.070 N 
ATOM      3  C1  UNL d   1      -0.037  -0.522   0.829  0.00  0.00    -0.004 A 
ATOM      4  C2  UNL d   1      -0.557   0.405  -0.048  0.00  0.00    -0.047 A 
ATOM      5  C3  UNL d   1       0.412   0.626  -1.055  0.00  0.00    -0.047 A 
ATOM      6  C4  UNL d   1       1.497  -0.174  -0.763  0.00  0.00    -0.004 A 
ENDROOT
TORSDOF 0
ENDMDL
