MODEL 1
REMARK minimizedAffinity -0.819383621
REMARK minimizedRMSD -1
REMARK  0 active torsions:
REMARK  status: ('A' for Active; 'I' for Inactive)
ROOT
ATOM      1  C   UNL d   1       1.831  -0.994  -0.047  0.00  0.00     0.172 C 
ATOM      2  N   UNL d   1       0.882   0.075  -0.253  0.00  0.00    -0.070 N 
ATOM      3  C1  UNL d   1      -0.480  -0.063  -0.293  0.00  0.00    -0.004 A 
ATOM      4  C2  UNL d   1      -1.024   1.184  -0.508  0.00  0.00    -0.047 A 
ATOM      5  C3  UNL d   1       0.047   2.104  -0.600  0.00  0.00    -0.047 A 
ATOM      6  C4  UNL d   1       1.216   1.391  -0.439  0.00  0.00    -0.004 A 
ENDROOT
TORSDOF 0
ENDMDL
