MODEL 1
REMARK minimizedAffinity -3.33179259
REMARK minimizedRMSD -1
REMARK  0 active torsions:
REMARK  status: ('A' for Active; 'I' for Inactive)
ROOT
ATOM      1  C   UNL d   1      -0.545   1.164  -0.239  0.00  0.00     0.172 C 
ATOM      2  N   UNL d   1       0.276   0.070   0.225  0.00  0.00    -0.070 N 
ATOM      3  C1  UNL d   1      -0.137  -0.946   1.044  0.00  0.00    -0.004 A 
ATOM      4  C2  UNL d   1       0.937  -1.785   1.251  0.00  0.00    -0.047 A 
ATOM      5  C3  UNL d   1       2.033  -1.254   0.531  0.00  0.00    -0.047 A 
ATOM      6  C4  UNL d   1       1.596  -0.106  -0.095  0.00  0.00    -0.004 A 
ENDROOT
TORSDOF 0
ENDMDL
