MODEL 1
REMARK minimizedAffinity -3.07958221
REMARK minimizedRMSD -1
REMARK  0 active torsions:
REMARK  status: ('A' for Active; 'I' for Inactive)
ROOT
ATOM      1  C   UNL d   1       2.412   0.701  -0.634  0.00  0.00     0.172 C 
ATOM      2  N   UNL d   1       1.853  -0.593  -0.317  0.00  0.00    -0.070 N 
ATOM      3  C1  UNL d   1       2.352  -1.473   0.606  0.00  0.00    -0.004 A 
ATOM      4  C2  UNL d   1       1.538  -2.585   0.611  0.00  0.00    -0.047 A 
ATOM      5  C3  UNL d   1       0.515  -2.366  -0.342  0.00  0.00    -0.047 A 
ATOM      6  C4  UNL d   1       0.735  -1.125  -0.902  0.00  0.00    -0.004 A 
ENDROOT
TORSDOF 0
ENDMDL
