MODEL 1
REMARK minimizedAffinity -3.16647816
REMARK minimizedRMSD -1
REMARK  0 active torsions:
REMARK  status: ('A' for Active; 'I' for Inactive)
ROOT
ATOM      1  C   UNL d   1      -0.897   0.741  -0.687  0.00  0.00     0.172 C 
ATOM      2  N   UNL d   1      -0.029  -0.277  -0.143  0.00  0.00    -0.070 N 
ATOM      3  C1  UNL d   1      -0.418  -1.305   0.673  0.00  0.00    -0.004 A 
ATOM      4  C2  UNL d   1       0.700  -2.054   0.971  0.00  0.00    -0.047 A 
ATOM      5  C3  UNL d   1       1.800  -1.454   0.312  0.00  0.00    -0.047 A 
ATOM      6  C4  UNL d   1       1.320  -0.355  -0.370  0.00  0.00    -0.004 A 
ENDROOT
TORSDOF 0
ENDMDL
