MODEL 1
REMARK minimizedAffinity -3.37605762
REMARK minimizedRMSD -1
REMARK  0 active torsions:
REMARK  status: ('A' for Active; 'I' for Inactive)
ROOT
ATOM      1  C   UNL d   1      -0.774   0.894  -0.676  0.00  0.00     0.172 C 
ATOM      2  N   UNL d   1       0.200  -0.109  -0.316  0.00  0.00    -0.070 N 
ATOM      3  C1  UNL d   1      -0.047  -1.231   0.429  0.00  0.00    -0.004 A 
ATOM      4  C2  UNL d   1       1.136  -1.928   0.548  0.00  0.00    -0.047 A 
ATOM      5  C3  UNL d   1       2.128  -1.200  -0.149  0.00  0.00    -0.047 A 
ATOM      6  C4  UNL d   1       1.522  -0.078  -0.675  0.00  0.00    -0.004 A 
ENDROOT
TORSDOF 0
ENDMDL
