MODEL 1
REMARK minimizedAffinity -2.62108684
REMARK minimizedRMSD -1
REMARK  0 active torsions:
REMARK  status: ('A' for Active; 'I' for Inactive)
ROOT
ATOM      1  C   UNL d   1      -0.621   0.761  -0.094  0.00  0.00     0.172 C 
ATOM      2  N   UNL d   1       0.443  -0.188   0.137  0.00  0.00    -0.070 N 
ATOM      3  C1  UNL d   1       1.649  -0.207  -0.511  0.00  0.00    -0.004 A 
ATOM      4  C2  UNL d   1       2.381  -1.261  -0.007  0.00  0.00    -0.047 A 
ATOM      5  C3  UNL d   1       1.587  -1.896   0.977  0.00  0.00    -0.047 A 
ATOM      6  C4  UNL d   1       0.392  -1.212   1.045  0.00  0.00    -0.004 A 
ENDROOT
TORSDOF 0
ENDMDL
