MODEL 1
REMARK minimizedAffinity -0.18401745
REMARK minimizedRMSD -1
REMARK  0 active torsions:
REMARK  status: ('A' for Active; 'I' for Inactive)
ROOT
ATOM      1  C   UNL d   1       1.433  -0.749   0.365  0.00  0.00     0.172 C 
ATOM      2  N   UNL d   1       0.484   0.274  -0.005  0.00  0.00    -0.070 N 
ATOM      3  C1  UNL d   1      -0.816   0.059  -0.379  0.00  0.00    -0.004 A 
ATOM      4  C2  UNL d   1      -1.385   1.284  -0.651  0.00  0.00    -0.047 A 
ATOM      5  C3  UNL d   1      -0.393   2.270  -0.434  0.00  0.00    -0.047 A 
ATOM      6  C4  UNL d   1       0.754   1.616  -0.035  0.00  0.00    -0.004 A 
ENDROOT
TORSDOF 0
ENDMDL
