MODEL 1
REMARK minimizedAffinity -2.54867697
REMARK minimizedRMSD -1
REMARK  0 active torsions:
REMARK  status: ('A' for Active; 'I' for Inactive)
ROOT
ATOM      1  C   UNL d   1      -1.608   2.154  -1.963  0.00  0.00     0.172 C 
ATOM      2  N   UNL d   1      -1.011   1.193  -1.066  0.00  0.00    -0.070 N 
ATOM      3  C1  UNL d   1       0.036   0.364  -1.366  0.00  0.00    -0.004 A 
ATOM      4  C2  UNL d   1       0.307  -0.396  -0.249  0.00  0.00    -0.047 A 
ATOM      5  C3  UNL d   1      -0.611  -0.011   0.757  0.00  0.00    -0.047 A 
ATOM      6  C4  UNL d   1      -1.415   0.974   0.225  0.00  0.00    -0.004 A 
ENDROOT
TORSDOF 0
ENDMDL
