MODEL 1
REMARK minimizedAffinity -2.53946519
REMARK minimizedRMSD -1
REMARK  0 active torsions:
REMARK  status: ('A' for Active; 'I' for Inactive)
ROOT
ATOM      1  C   UNL d   1       2.087  -1.127   0.529  0.00  0.00     0.172 C 
ATOM      2  N   UNL d   1       0.898  -0.567  -0.070  0.00  0.00    -0.070 N 
ATOM      3  C1  UNL d   1       0.399  -0.889  -1.304  0.00  0.00    -0.004 A 
ATOM      4  C2  UNL d   1      -0.741  -0.142  -1.506  0.00  0.00    -0.047 A 
ATOM      5  C3  UNL d   1      -0.933   0.658  -0.354  0.00  0.00    -0.047 A 
ATOM      6  C4  UNL d   1       0.096   0.374   0.519  0.00  0.00    -0.004 A 
ENDROOT
TORSDOF 0
ENDMDL
