MODEL 1
REMARK minimizedAffinity -1.41708803
REMARK minimizedRMSD -1
REMARK  1 active torsions:
REMARK  status: ('A' for Active; 'I' for Inactive)
REMARK    1  A    between atoms: C1_2  and  C2_3 
ROOT
ATOM      1  C2  UNL d   1      -0.618  -1.812  -0.121  0.00  0.00    -0.081 A 
ATOM      2  C3  UNL d   1      -1.734  -1.185   0.447  0.00  0.00     0.006 A 
ATOM      3  C4  UNL d   1      -1.680   0.163   0.811  0.00  0.00     0.002 A 
ATOM      4  C5  UNL d   1      -0.514   0.907   0.605  0.00  0.00    -0.080 A 
ATOM      5  C6  UNL d   1      -0.453   2.363   0.963  0.00  0.00     0.076 C 
ATOM      6  C7  UNL d   1       0.607   0.276   0.054  0.00  0.00     0.002 A 
ATOM      7  C8  UNL d   1       0.554  -1.071  -0.309  0.00  0.00     0.006 A 
ENDROOT
BRANCH   1   8
ATOM      8  C1  UNL d   1      -0.694  -3.248  -0.573  0.00  0.00     0.054 C 
ATOM      9  C   UNL d   1      -0.637  -3.354  -2.090  0.00  0.00     0.018 C 
ENDBRANCH   1   8
TORSDOF 1
ENDMDL
