MODEL 1
REMARK minimizedAffinity -3.95004749
REMARK minimizedRMSD -1
REMARK  1 active torsions:
REMARK  status: ('A' for Active; 'I' for Inactive)
REMARK    1  A    between atoms: C1_2  and  C2_3 
ROOT
ATOM      1  C2  UNL d   1      -1.039  -0.072   0.017  0.00  0.00    -0.081 A 
ATOM      2  C3  UNL d   1      -1.703  -0.489  -1.143  0.00  0.00     0.006 A 
ATOM      3  C4  UNL d   1      -1.255  -1.605  -1.853  0.00  0.00     0.002 A 
ATOM      4  C5  UNL d   1      -0.142  -2.328  -1.411  0.00  0.00    -0.080 A 
ATOM      5  C6  UNL d   1       0.331  -3.546  -2.147  0.00  0.00     0.076 C 
ATOM      6  C7  UNL d   1       0.533  -1.901  -0.262  0.00  0.00     0.002 A 
ATOM      7  C8  UNL d   1       0.086  -0.784   0.448  0.00  0.00     0.006 A 
ENDROOT
BRANCH   1   8
ATOM      8  C1  UNL d   1      -1.558   1.093   0.821  0.00  0.00     0.054 C 
ATOM      9  C   UNL d   1      -0.732   2.348   0.573  0.00  0.00     0.018 C 
ENDBRANCH   1   8
TORSDOF 1
ENDMDL
