MODEL 1
REMARK minimizedAffinity -1.40286207
REMARK minimizedRMSD -1
REMARK  1 active torsions:
REMARK  status: ('A' for Active; 'I' for Inactive)
REMARK    1  A    between atoms: C1_2  and  C2_3 
ROOT
ATOM      1  C2  UNL d   1      -0.628  -1.517  -0.928  0.00  0.00    -0.081 A 
ATOM      2  C3  UNL d   1      -1.827  -0.796  -0.979  0.00  0.00     0.006 A 
ATOM      3  C4  UNL d   1      -1.994   0.357  -0.208  0.00  0.00     0.002 A 
ATOM      4  C5  UNL d   1      -0.963   0.813   0.619  0.00  0.00    -0.080 A 
ATOM      5  C6  UNL d   1      -1.118   2.066   1.429  0.00  0.00     0.076 C 
ATOM      6  C7  UNL d   1       0.230   0.084   0.683  0.00  0.00     0.002 A 
ATOM      7  C8  UNL d   1       0.397  -1.070  -0.086  0.00  0.00     0.006 A 
ENDROOT
BRANCH   1   8
ATOM      8  C1  UNL d   1      -0.421  -2.724  -1.807  0.00  0.00     0.054 C 
ATOM      9  C   UNL d   1      -1.689  -3.076  -2.571  0.00  0.00     0.018 C 
ENDBRANCH   1   8
TORSDOF 1
ENDMDL
