MODEL 1
REMARK minimizedAffinity -3.30945849
REMARK minimizedRMSD -1
REMARK  1 active torsions:
REMARK  status: ('A' for Active; 'I' for Inactive)
REMARK    1  A    between atoms: C1_2  and  C2_3 
ROOT
ATOM      1  C2  UNL d   1      -0.092  -1.129  -0.347  0.00  0.00    -0.081 A 
ATOM      2  C3  UNL d   1       1.210  -0.647  -0.167  0.00  0.00     0.006 A 
ATOM      3  C4  UNL d   1       1.432   0.700   0.132  0.00  0.00     0.002 A 
ATOM      4  C5  UNL d   1       0.356   1.584   0.264  0.00  0.00    -0.080 A 
ATOM      5  C6  UNL d   1       0.578   3.025   0.615  0.00  0.00     0.076 C 
ATOM      6  C7  UNL d   1      -0.944   1.106   0.067  0.00  0.00     0.002 A 
ATOM      7  C8  UNL d   1      -1.166  -0.240  -0.233  0.00  0.00     0.006 A 
ENDROOT
BRANCH   1   8
ATOM      8  C1  UNL d   1      -0.338  -2.593  -0.606  0.00  0.00     0.054 C 
ATOM      9  C   UNL d   1      -0.114  -2.942  -2.070  0.00  0.00     0.018 C 
ENDBRANCH   1   8
TORSDOF 1
ENDMDL
