MODEL 1
REMARK minimizedAffinity -4.2392621
REMARK minimizedRMSD -1
REMARK  1 active torsions:
REMARK  status: ('A' for Active; 'I' for Inactive)
REMARK    1  A    between atoms: C1_2  and  C2_3 
ROOT
ATOM      1  C2  UNL d   1       1.640   0.699   0.315  0.00  0.00    -0.081 A 
ATOM      2  C3  UNL d   1       1.129   2.002   0.279  0.00  0.00     0.006 A 
ATOM      3  C4  UNL d   1      -0.250   2.224   0.327  0.00  0.00     0.002 A 
ATOM      4  C5  UNL d   1      -1.139   1.148   0.420  0.00  0.00    -0.080 A 
ATOM      5  C6  UNL d   1      -2.619   1.373   0.504  0.00  0.00     0.076 C 
ATOM      6  C7  UNL d   1      -0.629  -0.155   0.439  0.00  0.00     0.002 A 
ATOM      7  C8  UNL d   1       0.749  -0.377   0.390  0.00  0.00     0.006 A 
ENDROOT
BRANCH   1   8
ATOM      8  C1  UNL d   1       3.128   0.460   0.328  0.00  0.00     0.054 C 
ATOM      9  C   UNL d   1       3.888   1.671  -0.193  0.00  0.00     0.018 C 
ENDBRANCH   1   8
TORSDOF 1
ENDMDL
