MODEL 1
REMARK minimizedAffinity -4.6333065
REMARK minimizedRMSD -1
REMARK  1 active torsions:
REMARK  status: ('A' for Active; 'I' for Inactive)
REMARK    1  A    between atoms: C1_2  and  C2_3 
ROOT
ATOM      1  C2  UNL d   1       0.417  -0.478  -0.154  0.00  0.00    -0.081 A 
ATOM      2  C3  UNL d   1       1.238  -0.972  -1.175  0.00  0.00     0.006 A 
ATOM      3  C4  UNL d   1       1.009  -2.239  -1.717  0.00  0.00     0.002 A 
ATOM      4  C5  UNL d   1      -0.050  -3.028  -1.255  0.00  0.00    -0.080 A 
ATOM      5  C6  UNL d   1      -0.326  -4.377  -1.850  0.00  0.00     0.076 C 
ATOM      6  C7  UNL d   1      -0.860  -2.541  -0.223  0.00  0.00     0.002 A 
ATOM      7  C8  UNL d   1      -0.630  -1.275   0.320  0.00  0.00     0.006 A 
ENDROOT
BRANCH   1   8
ATOM      8  C1  UNL d   1       0.622   0.914   0.388  0.00  0.00     0.054 C 
ATOM      9  C   UNL d   1      -0.691   1.681   0.453  0.00  0.00     0.018 C 
ENDBRANCH   1   8
TORSDOF 1
ENDMDL
