MODEL 1
REMARK minimizedAffinity -2.22161508
REMARK minimizedRMSD -1
REMARK  1 active torsions:
REMARK  status: ('A' for Active; 'I' for Inactive)
REMARK    1  A    between atoms: C1_2  and  C2_3 
ROOT
ATOM      1  C2  UNL d   1      -0.369  -1.778  -0.731  0.00  0.00    -0.081 A 
ATOM      2  C3  UNL d   1      -1.430  -1.506   0.141  0.00  0.00     0.006 A 
ATOM      3  C4  UNL d   1      -1.532  -0.261   0.765  0.00  0.00     0.002 A 
ATOM      4  C5  UNL d   1      -0.580   0.735   0.522  0.00  0.00    -0.080 A 
ATOM      5  C6  UNL d   1      -0.695   2.087   1.162  0.00  0.00     0.076 C 
ATOM      6  C7  UNL d   1       0.489   0.458  -0.336  0.00  0.00     0.002 A 
ATOM      7  C8  UNL d   1       0.592  -0.787  -0.960  0.00  0.00     0.006 A 
ENDROOT
BRANCH   1   8
ATOM      8  C1  UNL d   1      -0.291  -3.098  -1.456  0.00  0.00     0.054 C 
ATOM      9  C   UNL d   1      -1.388  -3.219  -2.503  0.00  0.00     0.018 C 
ENDBRANCH   1   8
TORSDOF 1
ENDMDL
