MODEL 1
REMARK minimizedAffinity -1.39371097
REMARK minimizedRMSD -1
REMARK  1 active torsions:
REMARK  status: ('A' for Active; 'I' for Inactive)
REMARK    1  A    between atoms: C1_2  and  C2_3 
ROOT
ATOM      1  C2  UNL d   1      -0.098  -1.389  -0.169  0.00  0.00    -0.081 A 
ATOM      2  C3  UNL d   1      -1.307  -0.753   0.139  0.00  0.00     0.006 A 
ATOM      3  C4  UNL d   1      -1.316   0.564   0.604  0.00  0.00     0.002 A 
ATOM      4  C5  UNL d   1      -0.118   1.269   0.761  0.00  0.00    -0.080 A 
ATOM      5  C6  UNL d   1      -0.116   2.694   1.231  0.00  0.00     0.076 C 
ATOM      6  C7  UNL d   1       1.091   0.628   0.470  0.00  0.00     0.002 A 
ATOM      7  C8  UNL d   1       1.101  -0.689   0.006  0.00  0.00     0.006 A 
ENDROOT
BRANCH   1   8
ATOM      8  C1  UNL d   1      -0.089  -2.788  -0.732  0.00  0.00     0.054 C 
ATOM      9  C   UNL d   1      -0.136  -2.772  -2.253  0.00  0.00     0.018 C 
ENDBRANCH   1   8
TORSDOF 1
ENDMDL
