MODEL 1
REMARK minimizedAffinity -3.666852
REMARK minimizedRMSD -1
REMARK  1 active torsions:
REMARK  status: ('A' for Active; 'I' for Inactive)
REMARK    1  A    between atoms: C1_2  and  C2_3 
ROOT
ATOM      1  C2  UNL d   1      -0.326  -1.288  -1.361  0.00  0.00    -0.081 A 
ATOM      2  C3  UNL d   1       0.227  -1.065  -0.095  0.00  0.00     0.006 A 
ATOM      3  C4  UNL d   1      -0.148   0.052   0.655  0.00  0.00     0.002 A 
ATOM      4  C5  UNL d   1      -1.088   0.960   0.156  0.00  0.00    -0.080 A 
ATOM      5  C6  UNL d   1      -1.522   2.147   0.964  0.00  0.00     0.076 C 
ATOM      6  C7  UNL d   1      -1.628   0.747  -1.117  0.00  0.00     0.002 A 
ATOM      7  C8  UNL d   1      -1.253  -0.370  -1.868  0.00  0.00     0.006 A 
ENDROOT
BRANCH   1   8
ATOM      8  C1  UNL d   1       0.027  -2.525  -2.145  0.00  0.00     0.054 C 
ATOM      9  C   UNL d   1      -1.112  -2.943  -3.064  0.00  0.00     0.018 C 
ENDBRANCH   1   8
TORSDOF 1
ENDMDL
