MODEL 1
REMARK minimizedAffinity -3.45913553
REMARK minimizedRMSD -1
REMARK  1 active torsions:
REMARK  status: ('A' for Active; 'I' for Inactive)
REMARK    1  A    between atoms: C1_2  and  C2_3 
ROOT
ATOM      1  C2  UNL d   1      -0.347  -0.700  -0.256  0.00  0.00    -0.081 A 
ATOM      2  C3  UNL d   1       0.790  -0.357  -0.997  0.00  0.00     0.006 A 
ATOM      3  C4  UNL d   1       1.081  -1.016  -2.193  0.00  0.00     0.002 A 
ATOM      4  C5  UNL d   1       0.237  -2.024  -2.672  0.00  0.00    -0.080 A 
ATOM      5  C6  UNL d   1       0.522  -2.719  -3.970  0.00  0.00     0.076 C 
ATOM      6  C7  UNL d   1      -0.890  -2.378  -1.923  0.00  0.00     0.002 A 
ATOM      7  C8  UNL d   1      -1.182  -1.720  -0.726  0.00  0.00     0.006 A 
ENDROOT
BRANCH   1   8
ATOM      8  C1  UNL d   1      -0.699   0.054   1.002  0.00  0.00     0.054 C 
ATOM      9  C   UNL d   1      -1.782   1.091   0.740  0.00  0.00     0.018 C 
ENDBRANCH   1   8
TORSDOF 1
ENDMDL
