MODEL 1
REMARK minimizedAffinity -0.767484248
REMARK minimizedRMSD -1
REMARK  1 active torsions:
REMARK  status: ('A' for Active; 'I' for Inactive)
REMARK    1  A    between atoms: C1_2  and  C2_3 
ROOT
ATOM      1  C2  UNL d   1      -0.088  -1.226  -0.782  0.00  0.00    -0.081 A 
ATOM      2  C3  UNL d   1      -0.777  -1.261   0.437  0.00  0.00     0.006 A 
ATOM      3  C4  UNL d   1      -1.052  -0.078   1.128  0.00  0.00     0.002 A 
ATOM      4  C5  UNL d   1      -0.651   1.157   0.609  0.00  0.00    -0.080 A 
ATOM      5  C6  UNL d   1      -0.967   2.436   1.326  0.00  0.00     0.076 C 
ATOM      6  C7  UNL d   1       0.052   1.190  -0.600  0.00  0.00     0.002 A 
ATOM      7  C8  UNL d   1       0.329   0.009  -1.291  0.00  0.00     0.006 A 
ENDROOT
BRANCH   1   8
ATOM      8  C1  UNL d   1       0.154  -2.494  -1.561  0.00  0.00     0.054 C 
ATOM      9  C   UNL d   1      -1.150  -3.074  -2.092  0.00  0.00     0.018 C 
ENDBRANCH   1   8
TORSDOF 1
ENDMDL
