MODEL 1
REMARK minimizedAffinity -1.66728902
REMARK minimizedRMSD -1
REMARK  1 active torsions:
REMARK  status: ('A' for Active; 'I' for Inactive)
REMARK    1  A    between atoms: C1_2  and  C2_3 
ROOT
ATOM      1  C2  UNL d   1      -0.208  -1.096  -0.977  0.00  0.00    -0.081 A 
ATOM      2  C3  UNL d   1      -1.019  -0.055  -1.444  0.00  0.00     0.006 A 
ATOM      3  C4  UNL d   1      -1.113   1.143  -0.732  0.00  0.00     0.002 A 
ATOM      4  C5  UNL d   1      -0.392   1.323   0.454  0.00  0.00    -0.080 A 
ATOM      5  C6  UNL d   1      -0.461   2.615   1.212  0.00  0.00     0.076 C 
ATOM      6  C7  UNL d   1       0.405   0.276   0.929  0.00  0.00     0.002 A 
ATOM      7  C8  UNL d   1       0.499  -0.922   0.218  0.00  0.00     0.006 A 
ENDROOT
BRANCH   1   8
ATOM      8  C1  UNL d   1      -0.054  -2.365  -1.776  0.00  0.00     0.054 C 
ATOM      9  C   UNL d   1      -1.403  -2.889  -2.248  0.00  0.00     0.018 C 
ENDBRANCH   1   8
TORSDOF 1
ENDMDL
