MODEL 1
REMARK minimizedAffinity -4.47967052
REMARK minimizedRMSD -1
REMARK  0 active torsions:
REMARK  status: ('A' for Active; 'I' for Inactive)
ROOT
ATOM      1  C   UNL d   1       2.963  -0.661   0.528  0.00  0.00     0.124 A 
ATOM      2  C1  UNL d   1       1.965  -1.470   0.004  0.00  0.00     0.062 A 
ATOM      3  C2  UNL d   1       0.704  -0.944  -0.263  0.00  0.00     0.162 A 
ATOM      4  C3  UNL d   1       0.435   0.401  -0.007  0.00  0.00    -0.034 A 
ATOM      5  C4  UNL d   1       1.443   1.209   0.521  0.00  0.00     0.162 A 
ATOM      6  C5  UNL d   1       2.701   0.678   0.786  0.00  0.00     0.062 A 
ATOM      7  F   UNL d   1       3.664   1.462   1.292  0.00  0.00    -0.097 F 
ATOM      8  F1  UNL d   1       1.218   2.506   0.778  0.00  0.00    -0.096 F 
ATOM      9  I   UNL d   1      -1.449   1.192  -0.405  0.00  0.00    -0.060 I 
ATOM     10  F2  UNL d   1      -0.241  -1.749  -0.769  0.00  0.00    -0.096 F 
ATOM     11  F3  UNL d   1       2.215  -2.764  -0.245  0.00  0.00    -0.097 F 
ATOM     12  F4  UNL d   1       4.175  -1.170   0.785  0.00  0.00    -0.092 F 
ENDROOT
TORSDOF 0
ENDMDL
