MODEL 1
REMARK minimizedAffinity 0.799077749
REMARK minimizedRMSD -1
REMARK  0 active torsions:
REMARK  status: ('A' for Active; 'I' for Inactive)
ROOT
ATOM      1  C   UNL d   1      -1.536  -0.131  -0.336  0.00  0.00     0.124 A 
ATOM      2  C1  UNL d   1      -0.952   0.932   0.338  0.00  0.00     0.062 A 
ATOM      3  C2  UNL d   1       0.433   1.016   0.447  0.00  0.00     0.162 A 
ATOM      4  C3  UNL d   1       1.245   0.033  -0.120  0.00  0.00    -0.034 A 
ATOM      5  C4  UNL d   1       0.650  -1.034  -0.796  0.00  0.00     0.162 A 
ATOM      6  C5  UNL d   1      -0.735  -1.112  -0.903  0.00  0.00     0.062 A 
ATOM      7  F   UNL d   1      -1.298  -2.140  -1.554  0.00  0.00    -0.097 F 
ATOM      8  F1  UNL d   1       1.400  -1.996  -1.354  0.00  0.00    -0.096 F 
ATOM      9  I   UNL d   1       3.316   0.154   0.041  0.00  0.00    -0.060 I 
ATOM     10  F2  UNL d   1       0.971   2.054   1.105  0.00  0.00    -0.096 F 
ATOM     11  F3  UNL d   1      -1.723   1.882   0.887  0.00  0.00    -0.097 F 
ATOM     12  F4  UNL d   1      -2.869  -0.209  -0.439  0.00  0.00    -0.092 F 
ENDROOT
TORSDOF 0
ENDMDL
