MODEL 1
REMARK minimizedAffinity 0.655841708
REMARK minimizedRMSD -1
REMARK  0 active torsions:
REMARK  status: ('A' for Active; 'I' for Inactive)
ROOT
ATOM      1  C   UNL d   1       2.141  -0.893   0.165  0.00  0.00     0.124 A 
ATOM      2  C1  UNL d   1       1.518   0.015   1.009  0.00  0.00     0.062 A 
ATOM      3  C2  UNL d   1       0.164   0.299   0.855  0.00  0.00     0.162 A 
ATOM      4  C3  UNL d   1      -0.576  -0.326  -0.148  0.00  0.00    -0.034 A 
ATOM      5  C4  UNL d   1       0.058  -1.237  -0.995  0.00  0.00     0.162 A 
ATOM      6  C5  UNL d   1       1.411  -1.518  -0.836  0.00  0.00     0.062 A 
ATOM      7  F   UNL d   1       2.011  -2.396  -1.653  0.00  0.00    -0.097 F 
ATOM      8  F1  UNL d   1      -0.625  -1.856  -1.970  0.00  0.00    -0.096 F 
ATOM      9  I   UNL d   1      -2.601   0.097  -0.383  0.00  0.00    -0.060 I 
ATOM     10  F2  UNL d   1      -0.412   1.181   1.686  0.00  0.00    -0.096 F 
ATOM     11  F3  UNL d   1       2.222   0.620   1.977  0.00  0.00    -0.097 F 
ATOM     12  F4  UNL d   1       3.444  -1.165   0.315  0.00  0.00    -0.092 F 
ENDROOT
TORSDOF 0
ENDMDL
