MODEL 1
REMARK minimizedAffinity -1.53532362
REMARK minimizedRMSD -1
REMARK  0 active torsions:
REMARK  status: ('A' for Active; 'I' for Inactive)
ROOT
ATOM      1  C   UNL d   1       1.934  -0.471   0.140  0.00  0.00     0.124 A 
ATOM      2  C1  UNL d   1       1.206  -1.375  -0.621  0.00  0.00     0.062 A 
ATOM      3  C2  UNL d   1      -0.162  -1.193  -0.806  0.00  0.00     0.162 A 
ATOM      4  C3  UNL d   1      -0.811  -0.102  -0.229  0.00  0.00    -0.034 A 
ATOM      5  C4  UNL d   1      -0.072   0.803   0.536  0.00  0.00     0.162 A 
ATOM      6  C5  UNL d   1       1.294   0.617   0.717  0.00  0.00     0.062 A 
ATOM      7  F   UNL d   1       1.996   1.492   1.453  0.00  0.00    -0.097 F 
ATOM      8  F1  UNL d   1      -0.665   1.864   1.104  0.00  0.00    -0.096 F 
ATOM      9  I   UNL d   1      -2.856   0.174  -0.503  0.00  0.00    -0.060 I 
ATOM     10  F2  UNL d   1      -0.840  -2.083  -1.546  0.00  0.00    -0.096 F 
ATOM     11  F3  UNL d   1       1.821  -2.427  -1.179  0.00  0.00    -0.097 F 
ATOM     12  F4  UNL d   1       3.249  -0.648   0.317  0.00  0.00    -0.092 F 
ENDROOT
TORSDOF 0
ENDMDL
