MODEL 1
REMARK minimizedAffinity -2.85396624
REMARK minimizedRMSD -1
REMARK  0 active torsions:
REMARK  status: ('A' for Active; 'I' for Inactive)
ROOT
ATOM      1  C   UNL d   1       1.608  -0.151  -0.399  0.00  0.00     0.124 A 
ATOM      2  C1  UNL d   1       1.204   1.173  -0.502  0.00  0.00     0.062 A 
ATOM      3  C2  UNL d   1      -0.123   1.521  -0.268  0.00  0.00     0.162 A 
ATOM      4  C3  UNL d   1      -1.057   0.542   0.073  0.00  0.00    -0.034 A 
ATOM      5  C4  UNL d   1      -0.644  -0.787   0.174  0.00  0.00     0.162 A 
ATOM      6  C5  UNL d   1       0.684  -1.129  -0.061  0.00  0.00     0.062 A 
ATOM      7  F   UNL d   1       1.072  -2.409   0.040  0.00  0.00    -0.097 F 
ATOM      8  F1  UNL d   1      -1.515  -1.753   0.500  0.00  0.00    -0.096 F 
ATOM      9  I   UNL d   1      -3.043   1.058   0.423  0.00  0.00    -0.060 I 
ATOM     10  F2  UNL d   1      -0.485   2.808  -0.375  0.00  0.00    -0.096 F 
ATOM     11  F3  UNL d   1       2.095   2.121  -0.830  0.00  0.00    -0.097 F 
ATOM     12  F4  UNL d   1       2.886  -0.482  -0.625  0.00  0.00    -0.092 F 
ENDROOT
TORSDOF 0
ENDMDL
