MODEL 1
REMARK minimizedAffinity -3.52859545
REMARK minimizedRMSD -1
REMARK  0 active torsions:
REMARK  status: ('A' for Active; 'I' for Inactive)
ROOT
ATOM      1  C   UNL d   1       1.899  -0.612   0.217  0.00  0.00     0.124 A 
ATOM      2  C1  UNL d   1       1.084  -1.640  -0.237  0.00  0.00     0.062 A 
ATOM      3  C2  UNL d   1      -0.282  -1.429  -0.404  0.00  0.00     0.162 A 
ATOM      4  C3  UNL d   1      -0.842  -0.184  -0.117  0.00  0.00    -0.034 A 
ATOM      5  C4  UNL d   1      -0.016   0.845   0.341  0.00  0.00     0.162 A 
ATOM      6  C5  UNL d   1       1.348   0.629   0.505  0.00  0.00     0.062 A 
ATOM      7  F   UNL d   1       2.134   1.623   0.944  0.00  0.00    -0.097 F 
ATOM      8  F1  UNL d   1      -0.522   2.054   0.626  0.00  0.00    -0.096 F 
ATOM      9  I   UNL d   1      -2.883   0.135  -0.364  0.00  0.00    -0.060 I 
ATOM     10  F2  UNL d   1      -1.045  -2.440  -0.844  0.00  0.00    -0.096 F 
ATOM     11  F3  UNL d   1       1.614  -2.839  -0.516  0.00  0.00    -0.097 F 
ATOM     12  F4  UNL d   1       3.212  -0.817   0.377  0.00  0.00    -0.092 F 
ENDROOT
TORSDOF 0
ENDMDL
