MODEL 1
REMARK minimizedAffinity -1.56716371
REMARK minimizedRMSD -1
REMARK  0 active torsions:
REMARK  status: ('A' for Active; 'I' for Inactive)
ROOT
ATOM      1  C   UNL d   1       1.487  -0.028   0.101  0.00  0.00     0.124 A 
ATOM      2  C1  UNL d   1       0.888   1.220   0.190  0.00  0.00     0.062 A 
ATOM      3  C2  UNL d   1      -0.499   1.331   0.211  0.00  0.00     0.162 A 
ATOM      4  C3  UNL d   1      -1.298   0.190   0.144  0.00  0.00    -0.034 A 
ATOM      5  C4  UNL d   1      -0.688  -1.063   0.054  0.00  0.00     0.162 A 
ATOM      6  C5  UNL d   1       0.699  -1.169   0.033  0.00  0.00     0.062 A 
ATOM      7  F   UNL d   1       1.276  -2.376  -0.053  0.00  0.00    -0.097 F 
ATOM      8  F1  UNL d   1      -1.426  -2.181  -0.013  0.00  0.00    -0.096 F 
ATOM      9  I   UNL d   1      -3.372   0.352   0.175  0.00  0.00    -0.060 I 
ATOM     10  F2  UNL d   1      -1.051   2.551   0.298  0.00  0.00    -0.096 F 
ATOM     11  F3  UNL d   1       1.648   2.324   0.255  0.00  0.00    -0.097 F 
ATOM     12  F4  UNL d   1       2.822  -0.132   0.080  0.00  0.00    -0.092 F 
ENDROOT
TORSDOF 0
ENDMDL
