MODEL 1
REMARK minimizedAffinity -1.60442805
REMARK minimizedRMSD -1
REMARK  0 active torsions:
REMARK  status: ('A' for Active; 'I' for Inactive)
ROOT
ATOM      1  C   UNL d   1       3.153   0.054  -0.548  0.00  0.00     0.124 A 
ATOM      2  C1  UNL d   1       2.351  -1.079  -0.557  0.00  0.00     0.062 A 
ATOM      3  C2  UNL d   1       0.968  -0.958  -0.463  0.00  0.00     0.162 A 
ATOM      4  C3  UNL d   1       0.377   0.301  -0.359  0.00  0.00    -0.034 A 
ATOM      5  C4  UNL d   1       1.190   1.436  -0.349  0.00  0.00     0.162 A 
ATOM      6  C5  UNL d   1       2.572   1.310  -0.444  0.00  0.00     0.062 A 
ATOM      7  F   UNL d   1       3.345   2.406  -0.435  0.00  0.00    -0.097 F 
ATOM      8  F1  UNL d   1       0.654   2.661  -0.251  0.00  0.00    -0.096 F 
ATOM      9  I   UNL d   1      -1.691   0.485  -0.217  0.00  0.00    -0.060 I 
ATOM     10  F2  UNL d   1       0.218  -2.070  -0.474  0.00  0.00    -0.096 F 
ATOM     11  F3  UNL d   1       2.911  -2.293  -0.657  0.00  0.00    -0.097 F 
ATOM     12  F4  UNL d   1       4.484  -0.065  -0.638  0.00  0.00    -0.092 F 
ENDROOT
TORSDOF 0
ENDMDL
