MODEL 1
REMARK minimizedAffinity -0.57786262
REMARK minimizedRMSD -1
REMARK  0 active torsions:
REMARK  status: ('A' for Active; 'I' for Inactive)
ROOT
ATOM      1  C   UNL d   1       3.838  -0.354  -0.946  0.00  0.00     0.124 A 
ATOM      2  C1  UNL d   1       3.258   0.536  -0.053  0.00  0.00     0.062 A 
ATOM      3  C2  UNL d   1       1.999   0.273   0.480  0.00  0.00     0.162 A 
ATOM      4  C3  UNL d   1       1.312  -0.887   0.122  0.00  0.00    -0.034 A 
ATOM      5  C4  UNL d   1       1.901  -1.777  -0.778  0.00  0.00     0.162 A 
ATOM      6  C5  UNL d   1       3.159  -1.509  -1.307  0.00  0.00     0.062 A 
ATOM      7  F   UNL d   1       3.718  -2.370  -2.170  0.00  0.00    -0.097 F 
ATOM      8  F1  UNL d   1       1.268  -2.901  -1.143  0.00  0.00    -0.096 F 
ATOM      9  I   UNL d   1      -0.570  -1.284   0.917  0.00  0.00    -0.060 I 
ATOM     10  F2  UNL d   1       1.463   1.151   1.341  0.00  0.00    -0.096 F 
ATOM     11  F3  UNL d   1       3.911   1.654   0.297  0.00  0.00    -0.097 F 
ATOM     12  F4  UNL d   1       5.049  -0.097  -1.458  0.00  0.00    -0.092 F 
ENDROOT
TORSDOF 0
ENDMDL
