MODEL 1
REMARK minimizedAffinity -5.94912195
REMARK minimizedRMSD -1
REMARK  0 active torsions:
REMARK  status: ('A' for Active; 'I' for Inactive)
ROOT
ATOM      1  C   UNL d   1      -1.071   0.384  -0.721  0.00  0.00     0.124 A 
ATOM      2  C1  UNL d   1      -0.606   1.692  -0.732  0.00  0.00     0.062 A 
ATOM      3  C2  UNL d   1       0.762   1.949  -0.742  0.00  0.00     0.162 A 
ATOM      4  C3  UNL d   1       1.676   0.895  -0.741  0.00  0.00    -0.034 A 
ATOM      5  C4  UNL d   1       1.200  -0.418  -0.728  0.00  0.00     0.162 A 
ATOM      6  C5  UNL d   1      -0.168  -0.669  -0.718  0.00  0.00     0.062 A 
ATOM      7  F   UNL d   1      -0.615  -1.933  -0.707  0.00  0.00    -0.097 F 
ATOM      8  F1  UNL d   1       2.051  -1.455  -0.727  0.00  0.00    -0.096 F 
ATOM      9  I   UNL d   1       3.722   1.274  -0.755  0.00  0.00    -0.060 I 
ATOM     10  F2  UNL d   1       1.183   3.222  -0.753  0.00  0.00    -0.096 F 
ATOM     11  F3  UNL d   1      -1.477   2.712  -0.733  0.00  0.00    -0.097 F 
ATOM     12  F4  UNL d   1      -2.388   0.141  -0.711  0.00  0.00    -0.092 F 
ENDROOT
TORSDOF 0
ENDMDL
