MODEL 1
REMARK minimizedAffinity -2.52447033
REMARK minimizedRMSD -1
REMARK  1 active torsions:
REMARK  status: ('A' for Active; 'I' for Inactive)
REMARK    1  A    between atoms: C1_2  and  C2_3 
ROOT
ATOM      1  C2  UNL d   1      -0.104   0.110  -0.996  0.00  0.00    -0.081 A 
ATOM      2  C3  UNL d   1       0.995   0.119  -0.130  0.00  0.00     0.006 A 
ATOM      3  C4  UNL d   1       0.808   0.042   1.253  0.00  0.00     0.002 A 
ATOM      4  C5  UNL d   1      -0.480  -0.054   1.790  0.00  0.00    -0.080 A 
ATOM      5  C6  UNL d   1      -0.694  -0.168   3.270  0.00  0.00     0.076 C 
ATOM      6  C7  UNL d   1      -1.580  -0.046   0.925  0.00  0.00     0.002 A 
ATOM      7  C8  UNL d   1      -1.393   0.032  -0.457  0.00  0.00     0.006 A 
ENDROOT
BRANCH   1   8
ATOM      8  C1  UNL d   1       0.097   0.128  -2.490  0.00  0.00     0.054 C 
ATOM      9  C   UNL d   1       0.630  -1.207  -2.993  0.00  0.00     0.018 C 
ENDBRANCH   1   8
TORSDOF 1
ENDMDL
