MODEL 1
REMARK minimizedAffinity 6.64897871
REMARK minimizedRMSD -1
REMARK  1 active torsions:
REMARK  status: ('A' for Active; 'I' for Inactive)
REMARK    1  A    between atoms: C1_2  and  C2_3 
ROOT
ATOM      1  C2  UNL d   1      -1.923   0.220   1.200  0.00  0.00    -0.081 A 
ATOM      2  C3  UNL d   1      -3.281   0.489   0.988  0.00  0.00     0.006 A 
ATOM      3  C4  UNL d   1      -3.783   0.617  -0.309  0.00  0.00     0.002 A 
ATOM      4  C5  UNL d   1      -2.940   0.470  -1.415  0.00  0.00    -0.080 A 
ATOM      5  C6  UNL d   1      -3.472   0.574  -2.813  0.00  0.00     0.076 C 
ATOM      6  C7  UNL d   1      -1.580   0.218  -1.203  0.00  0.00     0.002 A 
ATOM      7  C8  UNL d   1      -1.076   0.092   0.093  0.00  0.00     0.006 A 
ENDROOT
BRANCH   1   8
ATOM      8  C1  UNL d   1      -1.390   0.018   2.595  0.00  0.00     0.054 C 
ATOM      9  C   UNL d   1       0.125  -0.122   2.594  0.00  0.00     0.018 C 
ENDBRANCH   1   8
TORSDOF 1
ENDMDL
