MODEL 1
REMARK minimizedAffinity 3.70284986
REMARK minimizedRMSD -1
REMARK  1 active torsions:
REMARK  status: ('A' for Active; 'I' for Inactive)
REMARK    1  A    between atoms: C1_2  and  C2_3 
ROOT
ATOM      1  C2  UNL d   1      -0.889   0.009   2.418  0.00  0.00    -0.081 A 
ATOM      2  C3  UNL d   1      -1.199  -0.183   1.066  0.00  0.00     0.006 A 
ATOM      3  C4  UNL d   1      -2.526  -0.146   0.631  0.00  0.00     0.002 A 
ATOM      4  C5  UNL d   1      -3.564   0.091   1.539  0.00  0.00    -0.080 A 
ATOM      5  C6  UNL d   1      -4.990   0.163   1.081  0.00  0.00     0.076 C 
ATOM      6  C7  UNL d   1      -3.256   0.265   2.893  0.00  0.00     0.002 A 
ATOM      7  C8  UNL d   1      -1.929   0.228   3.328  0.00  0.00     0.006 A 
ENDROOT
BRANCH   1   8
ATOM      8  C1  UNL d   1       0.546   0.034   2.879  0.00  0.00     0.054 C 
ATOM      9  C   UNL d   1       0.964   1.432   3.309  0.00  0.00     0.018 C 
ENDBRANCH   1   8
TORSDOF 1
ENDMDL
