MODEL 1
REMARK minimizedAffinity 9.23364353
REMARK minimizedRMSD -1
REMARK  1 active torsions:
REMARK  status: ('A' for Active; 'I' for Inactive)
REMARK    1  A    between atoms: C1_2  and  C2_3 
ROOT
ATOM      1  C2  UNL d   1      -1.093   0.337   2.209  0.00  0.00    -0.081 A 
ATOM      2  C3  UNL d   1      -2.131   0.442   3.142  0.00  0.00     0.006 A 
ATOM      3  C4  UNL d   1      -3.461   0.292   2.741  0.00  0.00     0.002 A 
ATOM      4  C5  UNL d   1      -3.774   0.027   1.404  0.00  0.00    -0.080 A 
ATOM      5  C6  UNL d   1      -5.195  -0.166   0.966  0.00  0.00     0.076 C 
ATOM      6  C7  UNL d   1      -2.738  -0.060   0.468  0.00  0.00     0.002 A 
ATOM      7  C8  UNL d   1      -1.408   0.090   0.868  0.00  0.00     0.006 A 
ENDROOT
BRANCH   1   8
ATOM      8  C1  UNL d   1       0.346   0.434   2.649  0.00  0.00     0.054 C 
ATOM      9  C   UNL d   1       0.900  -0.930   3.033  0.00  0.00     0.018 C 
ENDBRANCH   1   8
TORSDOF 1
ENDMDL
