MODEL 1
REMARK minimizedAffinity 6.7851429
REMARK minimizedRMSD -1
REMARK  1 active torsions:
REMARK  status: ('A' for Active; 'I' for Inactive)
REMARK    1  A    between atoms: C1_2  and  C2_3 
ROOT
ATOM      1  C2  UNL d   1      -1.358  -0.089   2.601  0.00  0.00    -0.081 A 
ATOM      2  C3  UNL d   1      -0.493   1.007   2.492  0.00  0.00     0.006 A 
ATOM      3  C4  UNL d   1       0.891   0.821   2.507  0.00  0.00     0.002 A 
ATOM      4  C5  UNL d   1       1.434  -0.463   2.623  0.00  0.00    -0.080 A 
ATOM      5  C6  UNL d   1       2.918  -0.679   2.609  0.00  0.00     0.076 C 
ATOM      6  C7  UNL d   1       0.570  -1.556   2.749  0.00  0.00     0.002 A 
ATOM      7  C8  UNL d   1      -0.814  -1.371   2.735  0.00  0.00     0.006 A 
ENDROOT
BRANCH   1   8
ATOM      8  C1  UNL d   1      -2.851   0.102   2.520  0.00  0.00     0.054 C 
ATOM      9  C   UNL d   1      -3.205   1.458   1.928  0.00  0.00     0.018 C 
ENDBRANCH   1   8
TORSDOF 1
ENDMDL
