MODEL 1
REMARK minimizedAffinity 2.87593365
REMARK minimizedRMSD -1
REMARK  1 active torsions:
REMARK  status: ('A' for Active; 'I' for Inactive)
REMARK    1  A    between atoms: C1_2  and  C2_3 
ROOT
ATOM      1  C2  UNL d   1      -0.974   0.700   1.571  0.00  0.00    -0.081 A 
ATOM      2  C3  UNL d   1      -0.326   0.644   0.331  0.00  0.00     0.006 A 
ATOM      3  C4  UNL d   1       1.061   0.495   0.263  0.00  0.00     0.002 A 
ATOM      4  C5  UNL d   1       1.822   0.391   1.432  0.00  0.00    -0.080 A 
ATOM      5  C6  UNL d   1       3.309   0.200   1.371  0.00  0.00     0.076 C 
ATOM      6  C7  UNL d   1       1.178   0.464   2.671  0.00  0.00     0.002 A 
ATOM      7  C8  UNL d   1      -0.209   0.614   2.740  0.00  0.00     0.006 A 
ENDROOT
BRANCH   1   8
ATOM      8  C1  UNL d   1      -2.476   0.796   1.648  0.00  0.00     0.054 C 
ATOM      9  C   UNL d   1      -2.918   1.581   2.875  0.00  0.00     0.018 C 
ENDBRANCH   1   8
TORSDOF 1
ENDMDL
