MODEL 1
REMARK minimizedAffinity 4.48835182
REMARK minimizedRMSD -1
REMARK  1 active torsions:
REMARK  status: ('A' for Active; 'I' for Inactive)
REMARK    1  A    between atoms: C1_2  and  C2_3 
ROOT
ATOM      1  C2  UNL d   1      -1.128   1.003   1.341  0.00  0.00    -0.081 A 
ATOM      2  C3  UNL d   1      -0.463   0.712   0.143  0.00  0.00     0.006 A 
ATOM      3  C4  UNL d   1       0.907   0.442   0.141  0.00  0.00     0.002 A 
ATOM      4  C5  UNL d   1       1.634   0.450   1.337  0.00  0.00    -0.080 A 
ATOM      5  C6  UNL d   1       3.100   0.132   1.353  0.00  0.00     0.076 C 
ATOM      6  C7  UNL d   1       0.974   0.758   2.531  0.00  0.00     0.002 A 
ATOM      7  C8  UNL d   1      -0.396   1.029   2.533  0.00  0.00     0.006 A 
ENDROOT
BRANCH   1   8
ATOM      8  C1  UNL d   1      -2.618   1.231   1.355  0.00  0.00     0.054 C 
ATOM      9  C   UNL d   1      -3.059   1.924   2.636  0.00  0.00     0.018 C 
ENDBRANCH   1   8
TORSDOF 1
ENDMDL
