MODEL 1
REMARK minimizedAffinity -0.865329027
REMARK minimizedRMSD -1
REMARK  1 active torsions:
REMARK  status: ('A' for Active; 'I' for Inactive)
REMARK    1  A    between atoms: C1_2  and  C2_3 
ROOT
ATOM      1  C2  UNL d   1      -1.010   0.908   3.128  0.00  0.00    -0.081 A 
ATOM      2  C3  UNL d   1       0.380   0.857   3.286  0.00  0.00     0.006 A 
ATOM      3  C4  UNL d   1       1.197   0.432   2.235  0.00  0.00     0.002 A 
ATOM      4  C5  UNL d   1       0.638   0.060   1.008  0.00  0.00    -0.080 A 
ATOM      5  C6  UNL d   1       1.506  -0.369  -0.138  0.00  0.00     0.076 C 
ATOM      6  C7  UNL d   1      -0.752   0.094   0.856  0.00  0.00     0.002 A 
ATOM      7  C8  UNL d   1      -1.569   0.518   1.906  0.00  0.00     0.006 A 
ENDROOT
BRANCH   1   8
ATOM      8  C1  UNL d   1      -1.889   1.427   4.237  0.00  0.00     0.054 C 
ATOM      9  C   UNL d   1      -3.265   1.816   3.717  0.00  0.00     0.018 C 
ENDBRANCH   1   8
TORSDOF 1
ENDMDL
