MODEL 1
REMARK minimizedAffinity 0.0787990987
REMARK minimizedRMSD -1
REMARK  1 active torsions:
REMARK  status: ('A' for Active; 'I' for Inactive)
REMARK    1  A    between atoms: C1_2  and  C2_3 
ROOT
ATOM      1  C2  UNL d   1       1.129   0.325   0.796  0.00  0.00    -0.081 A 
ATOM      2  C3  UNL d   1       0.131   0.576   1.745  0.00  0.00     0.006 A 
ATOM      3  C4  UNL d   1      -1.203   0.709   1.352  0.00  0.00     0.002 A 
ATOM      4  C5  UNL d   1      -1.562   0.586   0.006  0.00  0.00    -0.080 A 
ATOM      5  C6  UNL d   1      -2.994   0.697  -0.426  0.00  0.00     0.076 C 
ATOM      6  C7  UNL d   1      -0.562   0.353  -0.945  0.00  0.00     0.002 A 
ATOM      7  C8  UNL d   1       0.772   0.220  -0.552  0.00  0.00     0.006 A 
ENDROOT
BRANCH   1   8
ATOM      8  C1  UNL d   1       2.559   0.116   1.225  0.00  0.00     0.054 C 
ATOM      9  C   UNL d   1       3.415   1.335   0.910  0.00  0.00     0.018 C 
ENDBRANCH   1   8
TORSDOF 1
ENDMDL
