MODEL 1
REMARK minimizedAffinity -4.71771955
REMARK minimizedRMSD -1
REMARK  1 active torsions:
REMARK  status: ('A' for Active; 'I' for Inactive)
REMARK    1  A    between atoms: C1_2  and  C2_3 
ROOT
ATOM      1  C2  UNL d   1      -0.154   0.235  -0.627  0.00  0.00    -0.081 A 
ATOM      2  C3  UNL d   1       0.828   0.198   0.370  0.00  0.00     0.006 A 
ATOM      3  C4  UNL d   1       0.484  -0.095   1.692  0.00  0.00     0.002 A 
ATOM      4  C5  UNL d   1      -0.845  -0.364   2.037  0.00  0.00    -0.080 A 
ATOM      5  C6  UNL d   1      -1.223  -0.711   3.446  0.00  0.00     0.076 C 
ATOM      6  C7  UNL d   1      -1.828  -0.310   1.043  0.00  0.00     0.002 A 
ATOM      7  C8  UNL d   1      -1.485  -0.016  -0.278  0.00  0.00     0.006 A 
ENDROOT
BRANCH   1   8
ATOM      8  C1  UNL d   1       0.223   0.487  -2.065  0.00  0.00     0.054 C 
ATOM      9  C   UNL d   1       0.997  -0.686  -2.648  0.00  0.00     0.018 C 
ENDBRANCH   1   8
TORSDOF 1
ENDMDL
