MODEL 1
REMARK minimizedAffinity 0.338229567
REMARK minimizedRMSD -1
REMARK  1 active torsions:
REMARK  status: ('A' for Active; 'I' for Inactive)
REMARK    1  A    between atoms: C1_2  and  C2_3 
ROOT
ATOM      1  C2  UNL d   1      -1.288  -0.104   0.681  0.00  0.00    -0.081 A 
ATOM      2  C3  UNL d   1      -0.663  -0.316   1.916  0.00  0.00     0.006 A 
ATOM      3  C4  UNL d   1       0.692  -0.022   2.084  0.00  0.00     0.002 A 
ATOM      4  C5  UNL d   1       1.442   0.497   1.023  0.00  0.00    -0.080 A 
ATOM      5  C6  UNL d   1       2.890   0.846   1.199  0.00  0.00     0.076 C 
ATOM      6  C7  UNL d   1       0.822   0.693  -0.216  0.00  0.00     0.002 A 
ATOM      7  C8  UNL d   1      -0.532   0.398  -0.385  0.00  0.00     0.006 A 
ENDROOT
BRANCH   1   8
ATOM      8  C1  UNL d   1      -2.764  -0.360   0.514  0.00  0.00     0.054 C 
ATOM      9  C   UNL d   1      -3.430   0.744  -0.295  0.00  0.00     0.018 C 
ENDBRANCH   1   8
TORSDOF 1
ENDMDL
