MODEL 1
REMARK minimizedAffinity 2.80656886
REMARK minimizedRMSD -1
REMARK  1 active torsions:
REMARK  status: ('A' for Active; 'I' for Inactive)
REMARK    1  A    between atoms: C1_2  and  C2_3 
ROOT
ATOM      1  C2  UNL d   1       3.657   0.868  -0.312  0.00  0.00    -0.073 A 
ATOM      2  C3  UNL d   1       4.638   0.207  -1.060  0.00  0.00    -0.002 A 
ATOM      3  C4  UNL d   1       5.802   0.876  -1.441  0.00  0.00     0.004 A 
ATOM      4  C5  UNL d   1       6.000   2.207  -1.074  0.00  0.00    -0.004 A 
ATOM      5  C6  UNL d   1       5.036   2.880  -0.317  0.00  0.00    -0.075 A 
ATOM      6  C7  UNL d   1       5.232   4.313   0.085  0.00  0.00     0.076 C 
ATOM      7  C8  UNL d   1       3.868   2.203   0.060  0.00  0.00     0.001 A 
ENDROOT
BRANCH   1   8
ATOM      8  C1  UNL d   1       2.401   0.148   0.107  0.00  0.00     0.053 C 
ATOM      9  C   UNL d   1       1.426   1.071   0.820  0.00  0.00     0.018 C 
ENDBRANCH   1   8
TORSDOF 1
ENDMDL
