MODEL 1
REMARK minimizedAffinity -1.43210495
REMARK minimizedRMSD -1
REMARK  1 active torsions:
REMARK  status: ('A' for Active; 'I' for Inactive)
REMARK    1  A    between atoms: C1_2  and  C2_3 
ROOT
ATOM      1  C2  UNL d   1       2.451   1.745   1.518  0.00  0.00    -0.073 A 
ATOM      2  C3  UNL d   1       2.167   0.974   0.385  0.00  0.00    -0.002 A 
ATOM      3  C4  UNL d   1       3.115   0.837  -0.630  0.00  0.00     0.004 A 
ATOM      4  C5  UNL d   1       4.357   1.463  -0.520  0.00  0.00    -0.004 A 
ATOM      5  C6  UNL d   1       4.664   2.228   0.610  0.00  0.00    -0.075 A 
ATOM      6  C7  UNL d   1       5.994   2.909   0.742  0.00  0.00     0.076 C 
ATOM      7  C8  UNL d   1       3.706   2.363   1.624  0.00  0.00     0.001 A 
ENDROOT
BRANCH   1   8
ATOM      8  C1  UNL d   1       1.434   1.890   2.620  0.00  0.00     0.053 C 
ATOM      9  C   UNL d   1       1.899   2.850   3.703  0.00  0.00     0.018 C 
ENDBRANCH   1   8
TORSDOF 1
ENDMDL
