MODEL 1
REMARK minimizedAffinity 5.81391144
REMARK minimizedRMSD -1
REMARK  1 active torsions:
REMARK  status: ('A' for Active; 'I' for Inactive)
REMARK    1  A    between atoms: C1_2  and  C2_3 
ROOT
ATOM      1  C2  UNL d   1      -5.311   1.436  -3.024  0.00  0.00    -0.073 A 
ATOM      2  C3  UNL d   1      -5.990   0.900  -4.124  0.00  0.00    -0.002 A 
ATOM      3  C4  UNL d   1      -5.354  -0.006  -4.974  0.00  0.00     0.004 A 
ATOM      4  C5  UNL d   1      -4.036  -0.390  -4.728  0.00  0.00    -0.004 A 
ATOM      5  C6  UNL d   1      -3.344   0.125  -3.627  0.00  0.00    -0.075 A 
ATOM      6  C7  UNL d   1      -1.925  -0.278  -3.351  0.00  0.00     0.076 C 
ATOM      7  C8  UNL d   1      -3.989   1.036  -2.781  0.00  0.00     0.001 A 
ENDROOT
BRANCH   1   8
ATOM      8  C1  UNL d   1      -5.996   2.410  -2.101  0.00  0.00     0.053 C 
ATOM      9  C   UNL d   1      -5.936   3.834  -2.628  0.00  0.00     0.018 C 
ENDBRANCH   1   8
TORSDOF 1
ENDMDL
