MODEL 1
REMARK minimizedAffinity 14.4571705
REMARK minimizedRMSD -1
REMARK  1 active torsions:
REMARK  status: ('A' for Active; 'I' for Inactive)
REMARK    1  A    between atoms: C1_2  and  C2_3 
ROOT
ATOM      1  C2  UNL d   1      -4.507   2.391  -2.836  0.00  0.00    -0.073 A 
ATOM      2  C3  UNL d   1      -5.262   2.135  -3.986  0.00  0.00    -0.002 A 
ATOM      3  C4  UNL d   1      -6.000   0.955  -4.096  0.00  0.00     0.004 A 
ATOM      4  C5  UNL d   1      -5.995   0.025  -3.056  0.00  0.00    -0.004 A 
ATOM      5  C6  UNL d   1      -5.255   0.269  -1.895  0.00  0.00    -0.075 A 
ATOM      6  C7  UNL d   1      -5.237  -0.723  -0.769  0.00  0.00     0.076 C 
ATOM      7  C8  UNL d   1      -4.515   1.455  -1.793  0.00  0.00     0.001 A 
ENDROOT
BRANCH   1   8
ATOM      8  C1  UNL d   1      -3.714   3.667  -2.711  0.00  0.00     0.053 C 
ATOM      9  C   UNL d   1      -2.611   3.758  -3.753  0.00  0.00     0.018 C 
ENDBRANCH   1   8
TORSDOF 1
ENDMDL
