MODEL 1
REMARK minimizedAffinity 1.29501832
REMARK minimizedRMSD -1
REMARK  0 active torsions:
REMARK  status: ('A' for Active; 'I' for Inactive)
ROOT
ATOM      1  C1  DEN d   1       0.261  -2.229  -0.712  0.00  0.00     0.130 A 
ATOM      2  C2  DEN d   1       0.672  -2.330  -2.109  0.00  0.00    -0.031 A 
ATOM      3  C3  DEN d   1      -0.546  -2.349  -2.943  0.00  0.00     0.027 A 
ATOM      4  C4  DEN d   1      -3.016  -2.227  -2.210  0.00  0.00     0.027 A 
ATOM      5  C5  DEN d   1      -3.863  -2.145  -1.127  0.00  0.00    -0.003 A 
ATOM      6  C6  DEN d   1      -3.400  -2.119   0.162  0.00  0.00     0.001 A 
ATOM      7  C7  DEN d   1      -2.050  -2.131   0.398  0.00  0.00     0.017 A 
ATOM      8  C8  DEN d   1      -1.191  -2.222  -0.689  0.00  0.00    -0.094 A 
ATOM      9  C9  DEN d   1      -1.678  -2.234  -1.984  0.00  0.00    -0.072 A 
ENDROOT
TORSDOF 0
ENDMDL
