MODEL 1
REMARK minimizedAffinity -4.02946234
REMARK minimizedRMSD -1
REMARK  0 active torsions:
REMARK  status: ('A' for Active; 'I' for Inactive)
ROOT
ATOM      1  C1  DEN d   1      -0.884  -1.013   1.420  0.00  0.00     0.130 A 
ATOM      2  C2  DEN d   1      -1.159  -2.422   1.151  0.00  0.00    -0.031 A 
ATOM      3  C3  DEN d   1      -0.657  -2.735  -0.202  0.00  0.00     0.027 A 
ATOM      4  C4  DEN d   1       0.517  -1.184  -1.896  0.00  0.00     0.027 A 
ATOM      5  C5  DEN d   1       0.960   0.100  -2.122  0.00  0.00    -0.003 A 
ATOM      6  C6  DEN d   1       0.791   1.103  -1.205  0.00  0.00     0.001 A 
ATOM      7  C7  DEN d   1       0.202   0.828   0.001  0.00  0.00     0.017 A 
ATOM      8  C8  DEN d   1      -0.254  -0.463   0.234  0.00  0.00    -0.094 A 
ATOM      9  C9  DEN d   1      -0.062  -1.466  -0.701  0.00  0.00    -0.072 A 
ENDROOT
TORSDOF 0
ENDMDL
