MODEL 1
REMARK minimizedAffinity -5.6744175
REMARK minimizedRMSD -1
REMARK  0 active torsions:
REMARK  status: ('A' for Active; 'I' for Inactive)
ROOT
ATOM      1  C1  DEN d   1       1.980   2.531   0.389  0.00  0.00     0.130 A 
ATOM      2  C2  DEN d   1       0.750   2.865   1.104  0.00  0.00    -0.031 A 
ATOM      3  C3  DEN d   1      -0.346   2.061   0.527  0.00  0.00     0.027 A 
ATOM      4  C4  DEN d   1      -0.258   0.337  -1.390  0.00  0.00     0.027 A 
ATOM      5  C5  DEN d   1       0.562  -0.276  -2.312  0.00  0.00    -0.003 A 
ATOM      6  C6  DEN d   1       1.893   0.027  -2.421  0.00  0.00     0.001 A 
ATOM      7  C7  DEN d   1       2.455   0.935  -1.562  0.00  0.00     0.017 A 
ATOM      8  C8  DEN d   1       1.634   1.562  -0.634  0.00  0.00    -0.094 A 
ATOM      9  C9  DEN d   1       0.293   1.233  -0.532  0.00  0.00    -0.072 A 
ENDROOT
TORSDOF 0
ENDMDL
