MODEL 1
REMARK minimizedAffinity -4.94303417
REMARK minimizedRMSD -1
REMARK  0 active torsions:
REMARK  status: ('A' for Active; 'I' for Inactive)
ROOT
ATOM      1  C1  DEN d   1       2.977   2.834  -0.576  0.00  0.00     0.130 A 
ATOM      2  C2  DEN d   1       2.631   3.330   0.754  0.00  0.00    -0.031 A 
ATOM      3  C3  DEN d   1       1.437   2.595   1.218  0.00  0.00     0.027 A 
ATOM      4  C4  DEN d   1       0.102   0.744   0.016  0.00  0.00     0.027 A 
ATOM      5  C5  DEN d   1       0.008  -0.003  -1.137  0.00  0.00    -0.003 A 
ATOM      6  C6  DEN d   1       0.869   0.164  -2.189  0.00  0.00     0.001 A 
ATOM      7  C7  DEN d   1       1.891   1.071  -2.091  0.00  0.00     0.017 A 
ATOM      8  C8  DEN d   1       1.988   1.834  -0.934  0.00  0.00    -0.094 A 
ATOM      9  C9  DEN d   1       1.115   1.641   0.122  0.00  0.00    -0.072 A 
ENDROOT
TORSDOF 0
ENDMDL
