MODEL 1
REMARK minimizedAffinity -4.38355207
REMARK minimizedRMSD -1
REMARK  0 active torsions:
REMARK  status: ('A' for Active; 'I' for Inactive)
ROOT
ATOM      1  C1  DEN d   1      -1.245  -2.242   0.289  0.00  0.00     0.130 A 
ATOM      2  C2  DEN d   1      -1.424  -2.091   1.731  0.00  0.00    -0.031 A 
ATOM      3  C3  DEN d   1      -0.752  -0.843   2.145  0.00  0.00     0.027 A 
ATOM      4  C4  DEN d   1       0.534   0.864   0.701  0.00  0.00     0.027 A 
ATOM      5  C5  DEN d   1       0.962   1.159  -0.574  0.00  0.00    -0.003 A 
ATOM      6  C6  DEN d   1       0.715   0.331  -1.637  0.00  0.00     0.001 A 
ATOM      7  C7  DEN d   1      -0.018  -0.812  -1.451  0.00  0.00     0.017 A 
ATOM      8  C8  DEN d   1      -0.446  -1.120  -0.167  0.00  0.00    -0.094 A 
ATOM      9  C9  DEN d   1      -0.197  -0.263   0.892  0.00  0.00    -0.072 A 
ENDROOT
TORSDOF 0
ENDMDL
