MODEL 1
REMARK minimizedAffinity 6.17008018
REMARK minimizedRMSD -1
REMARK  0 active torsions:
REMARK  status: ('A' for Active; 'I' for Inactive)
ROOT
ATOM      1  C1  DEN d   1      -1.478   0.411   1.226  0.00  0.00     0.130 A 
ATOM      2  C2  DEN d   1      -0.460   0.689   2.235  0.00  0.00    -0.031 A 
ATOM      3  C3  DEN d   1       0.138  -0.596   2.647  0.00  0.00     0.027 A 
ATOM      4  C4  DEN d   1      -0.407  -2.978   1.822  0.00  0.00     0.027 A 
ATOM      5  C5  DEN d   1      -1.207  -3.719   0.979  0.00  0.00    -0.003 A 
ATOM      6  C6  DEN d   1      -2.168  -3.143   0.191  0.00  0.00     0.001 A 
ATOM      7  C7  DEN d   1      -2.324  -1.782   0.196  0.00  0.00     0.017 A 
ATOM      8  C8  DEN d   1      -1.526  -1.029   1.048  0.00  0.00    -0.094 A 
ATOM      9  C9  DEN d   1      -0.552  -1.629   1.828  0.00  0.00    -0.072 A 
ENDROOT
TORSDOF 0
ENDMDL
