MODEL 1
REMARK minimizedAffinity 8.45820618
REMARK minimizedRMSD -1
REMARK  0 active torsions:
REMARK  status: ('A' for Active; 'I' for Inactive)
ROOT
ATOM      1  C1  DEN d   1      -0.677   1.696   1.558  0.00  0.00     0.130 A 
ATOM      2  C2  DEN d   1      -0.561   0.581   0.622  0.00  0.00    -0.031 A 
ATOM      3  C3  DEN d   1       0.809   0.590   0.069  0.00  0.00     0.027 A 
ATOM      4  C4  DEN d   1       2.751   2.211   0.573  0.00  0.00     0.027 A 
ATOM      5  C5  DEN d   1       3.126   3.324   1.291  0.00  0.00    -0.003 A 
ATOM      6  C6  DEN d   1       2.258   3.987   2.117  0.00  0.00     0.001 A 
ATOM      7  C7  DEN d   1       0.981   3.516   2.278  0.00  0.00     0.017 A 
ATOM      8  C8  DEN d   1       0.593   2.399   1.551  0.00  0.00    -0.094 A 
ATOM      9  C9  DEN d   1       1.490   1.735   0.731  0.00  0.00    -0.072 A 
ENDROOT
TORSDOF 0
ENDMDL
