MODEL 1
REMARK minimizedAffinity 0.624778986
REMARK minimizedRMSD -1
REMARK  0 active torsions:
REMARK  status: ('A' for Active; 'I' for Inactive)
ROOT
ATOM      1  C1  DEN d   1      -1.257   0.415   2.442  0.00  0.00     0.130 A 
ATOM      2  C2  DEN d   1      -1.029   1.777   1.969  0.00  0.00    -0.031 A 
ATOM      3  C3  DEN d   1      -0.778   1.720   0.515  0.00  0.00     0.027 A 
ATOM      4  C4  DEN d   1      -0.725  -0.335  -1.043  0.00  0.00     0.027 A 
ATOM      5  C5  DEN d   1      -0.849  -1.706  -1.097  0.00  0.00    -0.003 A 
ATOM      6  C6  DEN d   1      -1.083  -2.463   0.020  0.00  0.00     0.001 A 
ATOM      7  C7  DEN d   1      -1.244  -1.849   1.234  0.00  0.00     0.017 A 
ATOM      8  C8  DEN d   1      -1.113  -0.468   1.298  0.00  0.00    -0.094 A 
ATOM      9  C9  DEN d   1      -0.889   0.281   0.156  0.00  0.00    -0.072 A 
ENDROOT
TORSDOF 0
ENDMDL
