MODEL 1
REMARK minimizedAffinity -4.61260557
REMARK minimizedRMSD -1
REMARK  0 active torsions:
REMARK  status: ('A' for Active; 'I' for Inactive)
ROOT
ATOM      1  C1  DEN d   1      -0.103   0.556  -0.925  0.00  0.00     0.130 A 
ATOM      2  C2  DEN d   1       0.683  -0.076  -1.981  0.00  0.00    -0.031 A 
ATOM      3  C3  DEN d   1       2.026   0.538  -1.980  0.00  0.00     0.027 A 
ATOM      4  C4  DEN d   1       2.961   2.393  -0.451  0.00  0.00     0.027 A 
ATOM      5  C5  DEN d   1       2.664   3.247   0.588  0.00  0.00    -0.003 A 
ATOM      6  C6  DEN d   1       1.423   3.288   1.168  0.00  0.00     0.001 A 
ATOM      7  C7  DEN d   1       0.447   2.427   0.743  0.00  0.00     0.017 A 
ATOM      8  C8  DEN d   1       0.737   1.567  -0.309  0.00  0.00    -0.094 A 
ATOM      9  C9  DEN d   1       2.000   1.533  -0.874  0.00  0.00    -0.072 A 
ENDROOT
TORSDOF 0
ENDMDL
