MODEL 1
REMARK minimizedAffinity 0.112769477
REMARK minimizedRMSD -1
REMARK  0 active torsions:
REMARK  status: ('A' for Active; 'I' for Inactive)
ROOT
ATOM      1  C1  DEN d   1       4.490   2.324  -0.060  0.00  0.00     0.130 A 
ATOM      2  C2  DEN d   1       4.165   1.298  -1.048  0.00  0.00    -0.031 A 
ATOM      3  C3  DEN d   1       2.716   1.028  -0.965  0.00  0.00     0.027 A 
ATOM      4  C4  DEN d   1       0.952   2.095   0.584  0.00  0.00     0.027 A 
ATOM      5  C5  DEN d   1       0.752   3.005   1.599  0.00  0.00    -0.003 A 
ATOM      6  C6  DEN d   1       1.781   3.721   2.150  0.00  0.00     0.001 A 
ATOM      7  C7  DEN d   1       3.052   3.572   1.659  0.00  0.00     0.017 A 
ATOM      8  C8  DEN d   1       3.262   2.651   0.641  0.00  0.00    -0.094 A 
ATOM      9  C9  DEN d   1       2.206   1.946   0.088  0.00  0.00    -0.072 A 
ENDROOT
TORSDOF 0
ENDMDL
