MODEL 1
REMARK minimizedAffinity -5.42885447
REMARK minimizedRMSD -1
REMARK  0 active torsions:
REMARK  status: ('A' for Active; 'I' for Inactive)
ROOT
ATOM      1  C1  DEN d   1       0.008  -2.496  -0.139  0.00  0.00     0.130 A 
ATOM      2  C2  DEN d   1      -0.468  -2.238   1.218  0.00  0.00    -0.031 A 
ATOM      3  C3  DEN d   1      -0.409  -0.781   1.453  0.00  0.00     0.027 A 
ATOM      4  C4  DEN d   1       0.362   1.091  -0.145  0.00  0.00     0.027 A 
ATOM      5  C5  DEN d   1       0.863   1.360  -1.399  0.00  0.00    -0.003 A 
ATOM      6  C6  DEN d   1       1.144   0.369  -2.302  0.00  0.00     0.001 A 
ATOM      7  C7  DEN d   1       0.883  -0.937  -1.979  0.00  0.00     0.017 A 
ATOM      8  C8  DEN d   1       0.384  -1.217  -0.713  0.00  0.00    -0.094 A 
ATOM      9  C9  DEN d   1       0.095  -0.200   0.180  0.00  0.00    -0.072 A 
ENDROOT
TORSDOF 0
ENDMDL
