MODEL 1
REMARK minimizedAffinity -5.30793524
REMARK minimizedRMSD -1
REMARK  0 active torsions:
REMARK  status: ('A' for Active; 'I' for Inactive)
ROOT
ATOM      1  C1  DEN d   1       1.627  -0.346  -1.147  0.00  0.00     0.130 A 
ATOM      2  C2  DEN d   1       1.417   1.045  -0.758  0.00  0.00    -0.031 A 
ATOM      3  C3  DEN d   1       0.388   1.073   0.300  0.00  0.00     0.027 A 
ATOM      4  C4  DEN d   1      -0.890  -0.894   1.373  0.00  0.00     0.027 A 
ATOM      5  C5  DEN d   1      -1.061  -2.261   1.362  0.00  0.00    -0.003 A 
ATOM      6  C6  DEN d   1      -0.378  -3.075   0.498  0.00  0.00     0.001 A 
ATOM      7  C7  DEN d   1       0.541  -2.534  -0.361  0.00  0.00     0.017 A 
ATOM      8  C8  DEN d   1       0.714  -1.156  -0.361  0.00  0.00    -0.094 A 
ATOM      9  C9  DEN d   1       0.023  -0.351   0.528  0.00  0.00    -0.072 A 
ENDROOT
TORSDOF 0
ENDMDL
