MODEL 1
REMARK minimizedAffinity -0.271694362
REMARK minimizedRMSD -1
REMARK  0 active torsions:
REMARK  status: ('A' for Active; 'I' for Inactive)
ROOT
ATOM      1  C1  DEN d   1      -0.097  -0.177   0.213  0.00  0.00     0.130 A 
ATOM      2  C2  DEN d   1      -1.151   0.319   1.093  0.00  0.00    -0.031 A 
ATOM      3  C3  DEN d   1      -0.728   1.633   1.617  0.00  0.00     0.027 A 
ATOM      4  C4  DEN d   1       1.443   2.944   1.149  0.00  0.00     0.027 A 
ATOM      5  C5  DEN d   1       2.644   2.922   0.475  0.00  0.00    -0.003 A 
ATOM      6  C6  DEN d   1       3.028   1.860  -0.300  0.00  0.00     0.001 A 
ATOM      7  C7  DEN d   1       2.182   0.794  -0.457  0.00  0.00     0.017 A 
ATOM      8  C8  DEN d   1       0.972   0.805   0.225  0.00  0.00    -0.094 A 
ATOM      9  C9  DEN d   1       0.598   1.894   0.994  0.00  0.00    -0.072 A 
ENDROOT
TORSDOF 0
ENDMDL
