MODEL 1
REMARK minimizedAffinity -0.214286953
REMARK minimizedRMSD -1
REMARK  0 active torsions:
REMARK  status: ('A' for Active; 'I' for Inactive)
ROOT
ATOM      1  C1  DEN d   1      -1.654  -0.186   2.491  0.00  0.00     0.130 A 
ATOM      2  C2  DEN d   1      -2.291   1.026   2.998  0.00  0.00    -0.031 A 
ATOM      3  C3  DEN d   1      -2.087   2.100   2.005  0.00  0.00     0.027 A 
ATOM      4  C4  DEN d   1      -0.856   2.003  -0.259  0.00  0.00     0.027 A 
ATOM      5  C5  DEN d   1      -0.142   1.194  -1.115  0.00  0.00    -0.003 A 
ATOM      6  C6  DEN d   1       0.146  -0.112  -0.815  0.00  0.00     0.001 A 
ATOM      7  C7  DEN d   1      -0.322  -0.660   0.349  0.00  0.00     0.017 A 
ATOM      8  C8  DEN d   1      -1.037   0.152   1.220  0.00  0.00    -0.094 A 
ATOM      9  C9  DEN d   1      -1.328   1.466   0.894  0.00  0.00    -0.072 A 
ENDROOT
TORSDOF 0
ENDMDL
