MODEL 1
REMARK minimizedAffinity -5.10600042
REMARK minimizedRMSD -1
REMARK  0 active torsions:
REMARK  status: ('A' for Active; 'I' for Inactive)
ROOT
ATOM      1  C1  DEN d   1       0.301  -2.522  -0.113  0.00  0.00     0.130 A 
ATOM      2  C2  DEN d   1      -0.539  -2.471   1.080  0.00  0.00    -0.031 A 
ATOM      3  C3  DEN d   1      -0.824  -1.053   1.378  0.00  0.00     0.027 A 
ATOM      4  C4  DEN d   1      -0.053   1.058   0.112  0.00  0.00     0.027 A 
ATOM      5  C5  DEN d   1       0.685   1.520  -0.955  0.00  0.00    -0.003 A 
ATOM      6  C6  DEN d   1       1.369   0.676  -1.790  0.00  0.00     0.001 A 
ATOM      7  C7  DEN d   1       1.292  -0.678  -1.598  0.00  0.00     0.017 A 
ATOM      8  C8  DEN d   1       0.556  -1.151  -0.519  0.00  0.00    -0.094 A 
ATOM      9  C9  DEN d   1      -0.138  -0.283   0.306  0.00  0.00    -0.072 A 
ENDROOT
TORSDOF 0
ENDMDL
