MODEL 1
REMARK minimizedAffinity -2.37421942
REMARK minimizedRMSD -1
REMARK  2 active torsions:
REMARK  status: ('A' for Active; 'I' for Inactive)
REMARK    1  A    between atoms: C1_2  and  C2_3 
REMARK    2  A    between atoms: C2_3  and  C3_4 
ROOT
ATOM      1  C3  UNL d   1      -2.016  -1.881  -1.246  0.00  0.00    -0.075 A 
ATOM      2  C4  UNL d   1      -2.848  -2.673  -0.441  0.00  0.00     0.002 A 
ATOM      3  C5  UNL d   1      -3.632  -3.679  -1.008  0.00  0.00     0.002 A 
ATOM      4  C6  UNL d   1      -3.603  -3.898  -2.383  0.00  0.00    -0.004 A 
ATOM      5  C7  UNL d   1      -2.793  -3.105  -3.194  0.00  0.00     0.002 A 
ATOM      6  C8  UNL d   1      -2.004  -2.101  -2.629  0.00  0.00     0.002 A 
ENDROOT
BRANCH   1   7
ATOM      7  C2  UNL d   1      -1.143  -0.810  -0.635  0.00  0.00     0.056 C 
BRANCH   7   8
ATOM      8  C1  UNL d   1      -0.304  -0.033  -1.655  0.00  0.00     0.007 C 
ATOM      9  C   UNL d   1      -0.490   1.475  -1.560  0.00  0.00     0.009 C 
ENDBRANCH   7   8
ENDBRANCH   1   7
TORSDOF 2
ENDMDL
