MODEL 1
REMARK minimizedAffinity -0.335233867
REMARK minimizedRMSD -1
REMARK  2 active torsions:
REMARK  status: ('A' for Active; 'I' for Inactive)
REMARK    1  A    between atoms: C1_2  and  C2_3 
REMARK    2  A    between atoms: C2_3  and  C3_4 
ROOT
ATOM      1  C3  UNL d   1      -2.274  -1.688  -0.701  0.00  0.00    -0.075 A 
ATOM      2  C4  UNL d   1      -2.677  -0.954   0.424  0.00  0.00     0.002 A 
ATOM      3  C5  UNL d   1      -1.766  -0.147   1.106  0.00  0.00     0.002 A 
ATOM      4  C6  UNL d   1      -0.442  -0.071   0.679  0.00  0.00    -0.004 A 
ATOM      5  C7  UNL d   1      -0.027  -0.809  -0.427  0.00  0.00     0.002 A 
ATOM      6  C8  UNL d   1      -0.937  -1.614  -1.114  0.00  0.00     0.002 A 
ENDROOT
BRANCH   1   7
ATOM      7  C2  UNL d   1      -3.262  -2.541  -1.461  0.00  0.00     0.056 C 
BRANCH   7   8
ATOM      8  C1  UNL d   1      -2.631  -3.386  -2.572  0.00  0.00     0.007 C 
ATOM      9  C   UNL d   1      -2.488  -4.856  -2.200  0.00  0.00     0.009 C 
ENDBRANCH   7   8
ENDBRANCH   1   7
TORSDOF 2
ENDMDL
