MODEL 1
REMARK minimizedAffinity -1.88856578
REMARK minimizedRMSD -1
REMARK  2 active torsions:
REMARK  status: ('A' for Active; 'I' for Inactive)
REMARK    1  A    between atoms: C1_2  and  C2_3 
REMARK    2  A    between atoms: C2_3  and  C3_4 
ROOT
ATOM      1  C3  UNL d   1      -4.830   5.579   3.017  0.00  0.00    -0.075 A 
ATOM      2  C4  UNL d   1      -3.843   4.762   3.586  0.00  0.00     0.002 A 
ATOM      3  C5  UNL d   1      -3.941   4.354   4.917  0.00  0.00     0.002 A 
ATOM      4  C6  UNL d   1      -5.021   4.764   5.696  0.00  0.00    -0.004 A 
ATOM      5  C7  UNL d   1      -5.999   5.590   5.146  0.00  0.00     0.002 A 
ATOM      6  C8  UNL d   1      -5.905   5.996   3.814  0.00  0.00     0.002 A 
ENDROOT
BRANCH   1   7
ATOM      7  C2  UNL d   1      -4.745   6.000   1.569  0.00  0.00     0.056 C 
BRANCH   7   8
ATOM      8  C1  UNL d   1      -4.640   4.830   0.585  0.00  0.00     0.007 C 
ATOM      9  C   UNL d   1      -5.979   4.163   0.301  0.00  0.00     0.009 C 
ENDBRANCH   7   8
ENDBRANCH   1   7
TORSDOF 2
ENDMDL
