MODEL 1
REMARK minimizedAffinity 5.32614994
REMARK minimizedRMSD -1
REMARK  2 active torsions:
REMARK  status: ('A' for Active; 'I' for Inactive)
REMARK    1  A    between atoms: C1_2  and  C2_3 
REMARK    2  A    between atoms: C2_3  and  C3_4 
ROOT
ATOM      1  C3  UNL d   1      -1.568  -0.186   1.083  0.00  0.00    -0.075 A 
ATOM      2  C4  UNL d   1      -0.577  -0.855   0.351  0.00  0.00     0.002 A 
ATOM      3  C5  UNL d   1       0.010  -0.254  -0.763  0.00  0.00     0.002 A 
ATOM      4  C6  UNL d   1      -0.394   1.018  -1.165  0.00  0.00    -0.004 A 
ATOM      5  C7  UNL d   1      -1.389   1.686  -0.455  0.00  0.00     0.002 A 
ATOM      6  C8  UNL d   1      -1.974   1.088   0.662  0.00  0.00     0.002 A 
ENDROOT
BRANCH   1   7
ATOM      7  C2  UNL d   1      -2.185  -0.819   2.307  0.00  0.00     0.056 C 
BRANCH   7   8
ATOM      8  C1  UNL d   1      -1.866  -0.088   3.615  0.00  0.00     0.007 C 
ATOM      9  C   UNL d   1      -3.006   0.798   4.101  0.00  0.00     0.009 C 
ENDBRANCH   7   8
ENDBRANCH   1   7
TORSDOF 2
ENDMDL
