MODEL 1
REMARK minimizedAffinity 1.74557567
REMARK minimizedRMSD -1
REMARK  2 active torsions:
REMARK  status: ('A' for Active; 'I' for Inactive)
REMARK    1  A    between atoms: C1_2  and  C2_3 
REMARK    2  A    between atoms: C2_3  and  C3_4 
ROOT
ATOM      1  C3  UNL d   1      -4.091   4.559   3.123  0.00  0.00    -0.075 A 
ATOM      2  C4  UNL d   1      -5.175   5.319   3.589  0.00  0.00     0.002 A 
ATOM      3  C5  UNL d   1      -6.000   5.999   2.692  0.00  0.00     0.002 A 
ATOM      4  C6  UNL d   1      -5.747   5.937   1.324  0.00  0.00    -0.004 A 
ATOM      5  C7  UNL d   1      -4.664   5.199   0.852  0.00  0.00     0.002 A 
ATOM      6  C8  UNL d   1      -3.840   4.514   1.746  0.00  0.00     0.002 A 
ENDROOT
BRANCH   1   7
ATOM      7  C2  UNL d   1      -3.212   3.797   4.086  0.00  0.00     0.056 C 
BRANCH   7   8
ATOM      8  C1  UNL d   1      -3.813   2.471   4.563  0.00  0.00     0.007 C 
ATOM      9  C   UNL d   1      -3.426   1.287   3.686  0.00  0.00     0.009 C 
ENDBRANCH   7   8
ENDBRANCH   1   7
TORSDOF 2
ENDMDL
