MODEL 1
REMARK minimizedAffinity 2.13677716
REMARK minimizedRMSD -1
REMARK  2 active torsions:
REMARK  status: ('A' for Active; 'I' for Inactive)
REMARK    1  A    between atoms: C1_2  and  C2_3 
REMARK    2  A    between atoms: C2_3  and  C3_4 
ROOT
ATOM      1  C3  UNL d   1      -4.119  -3.748  -1.948  0.00  0.00    -0.075 A 
ATOM      2  C4  UNL d   1      -5.069  -3.077  -1.164  0.00  0.00     0.002 A 
ATOM      3  C5  UNL d   1      -6.000  -3.793  -0.411  0.00  0.00     0.002 A 
ATOM      4  C6  UNL d   1      -6.000  -5.186  -0.440  0.00  0.00    -0.004 A 
ATOM      5  C7  UNL d   1      -5.072  -5.863  -1.228  0.00  0.00     0.002 A 
ATOM      6  C8  UNL d   1      -4.136  -5.149  -1.979  0.00  0.00     0.002 A 
ENDROOT
BRANCH   1   7
ATOM      7  C2  UNL d   1      -3.090  -2.979  -2.742  0.00  0.00     0.056 C 
BRANCH   7   8
ATOM      8  C1  UNL d   1      -2.938  -3.454  -4.191  0.00  0.00     0.007 C 
ATOM      9  C   UNL d   1      -2.596  -2.329  -5.158  0.00  0.00     0.009 C 
ENDBRANCH   7   8
ENDBRANCH   1   7
TORSDOF 2
ENDMDL
