MODEL 1
REMARK minimizedAffinity 4.6667285
REMARK minimizedRMSD -1
REMARK  2 active torsions:
REMARK  status: ('A' for Active; 'I' for Inactive)
REMARK    1  A    between atoms: C1_2  and  C2_3 
REMARK    2  A    between atoms: C2_3  and  C3_4 
ROOT
ATOM      1  C3  UNL d   1      -4.470   4.297   3.753  0.00  0.00    -0.075 A 
ATOM      2  C4  UNL d   1      -5.545   5.172   3.967  0.00  0.00     0.002 A 
ATOM      3  C5  UNL d   1      -5.999   6.000   2.940  0.00  0.00     0.002 A 
ATOM      4  C6  UNL d   1      -5.380   5.971   1.692  0.00  0.00    -0.004 A 
ATOM      5  C7  UNL d   1      -4.301   5.118   1.474  0.00  0.00     0.002 A 
ATOM      6  C8  UNL d   1      -3.847   4.285   2.498  0.00  0.00     0.002 A 
ENDROOT
BRANCH   1   7
ATOM      7  C2  UNL d   1      -3.992   3.377   4.851  0.00  0.00     0.056 C 
BRANCH   7   8
ATOM      8  C1  UNL d   1      -4.658   1.997   4.843  0.00  0.00     0.007 C 
ATOM      9  C   UNL d   1      -3.918   0.978   3.988  0.00  0.00     0.009 C 
ENDBRANCH   7   8
ENDBRANCH   1   7
TORSDOF 2
ENDMDL
