MODEL 1
REMARK minimizedAffinity 9.90304756
REMARK minimizedRMSD -1
REMARK  2 active torsions:
REMARK  status: ('A' for Active; 'I' for Inactive)
REMARK    1  A    between atoms: C1_2  and  C2_3 
REMARK    2  A    between atoms: C2_3  and  C3_4 
ROOT
ATOM      1  C3  UNL d   1      -2.331  -2.023  -1.972  0.00  0.00    -0.075 A 
ATOM      2  C4  UNL d   1      -2.104  -1.567  -3.279  0.00  0.00     0.002 A 
ATOM      3  C5  UNL d   1      -2.467  -2.350  -4.375  0.00  0.00     0.002 A 
ATOM      4  C6  UNL d   1      -3.051  -3.600  -4.179  0.00  0.00    -0.004 A 
ATOM      5  C7  UNL d   1      -3.265  -4.070  -2.885  0.00  0.00     0.002 A 
ATOM      6  C8  UNL d   1      -2.907  -3.287  -1.787  0.00  0.00     0.002 A 
ENDROOT
BRANCH   1   7
ATOM      7  C2  UNL d   1      -1.967  -1.168  -0.782  0.00  0.00     0.056 C 
BRANCH   7   8
ATOM      8  C1  UNL d   1      -0.524  -0.652  -0.802  0.00  0.00     0.007 C 
ATOM      9  C   UNL d   1       0.234  -0.936   0.487  0.00  0.00     0.009 C 
ENDBRANCH   7   8
ENDBRANCH   1   7
TORSDOF 2
ENDMDL
