MODEL 1
REMARK minimizedAffinity -4.15765429
REMARK minimizedRMSD -1
REMARK  2 active torsions:
REMARK  status: ('A' for Active; 'I' for Inactive)
REMARK    1  A    between atoms: C1_2  and  C2_3 
REMARK    2  A    between atoms: C2_3  and  C3_4 
ROOT
ATOM      1  C3  UNL d   1      -4.460   0.995   5.813  0.00  0.00    -0.075 A 
ATOM      2  C4  UNL d   1      -3.202   0.405   6.000  0.00  0.00     0.002 A 
ATOM      3  C5  UNL d   1      -3.025  -0.964   5.800  0.00  0.00     0.002 A 
ATOM      4  C6  UNL d   1      -4.104  -1.761   5.423  0.00  0.00    -0.004 A 
ATOM      5  C7  UNL d   1      -5.362  -1.188   5.251  0.00  0.00     0.002 A 
ATOM      6  C8  UNL d   1      -5.541   0.182   5.446  0.00  0.00     0.002 A 
ENDROOT
BRANCH   1   7
ATOM      7  C2  UNL d   1      -4.652   2.482   5.999  0.00  0.00     0.056 C 
BRANCH   7   8
ATOM      8  C1  UNL d   1      -4.875   3.250   4.692  0.00  0.00     0.007 C 
ATOM      9  C   UNL d   1      -4.880   4.761   4.877  0.00  0.00     0.009 C 
ENDBRANCH   7   8
ENDBRANCH   1   7
TORSDOF 2
ENDMDL
