MODEL 1
REMARK minimizedAffinity 7.88953781
REMARK minimizedRMSD -1
REMARK  2 active torsions:
REMARK  status: ('A' for Active; 'I' for Inactive)
REMARK    1  A    between atoms: C1_2  and  C2_3 
REMARK    2  A    between atoms: C2_3  and  C3_4 
ROOT
ATOM      1  C3  UNL d   1       0.816   2.108   4.401  0.00  0.00    -0.075 A 
ATOM      2  C4  UNL d   1       0.600   0.894   3.733  0.00  0.00     0.002 A 
ATOM      3  C5  UNL d   1       1.557  -0.119   3.779  0.00  0.00     0.002 A 
ATOM      4  C6  UNL d   1       2.744   0.070   4.482  0.00  0.00    -0.004 A 
ATOM      5  C7  UNL d   1       2.977   1.279   5.136  0.00  0.00     0.002 A 
ATOM      6  C8  UNL d   1       2.019   2.293   5.096  0.00  0.00     0.002 A 
ENDROOT
BRANCH   1   7
ATOM      7  C2  UNL d   1      -0.229   3.198   4.380  0.00  0.00     0.056 C 
BRANCH   7   8
ATOM      8  C1  UNL d   1      -1.351   3.007   5.406  0.00  0.00     0.007 C 
ATOM      9  C   UNL d   1      -2.642   3.717   5.023  0.00  0.00     0.009 C 
ENDBRANCH   7   8
ENDBRANCH   1   7
TORSDOF 2
ENDMDL
