MODEL 1
REMARK minimizedAffinity -4.78846788
REMARK minimizedRMSD -1
REMARK  2 active torsions:
REMARK  status: ('A' for Active; 'I' for Inactive)
REMARK    1  A    between atoms: C1_2  and  C2_3 
REMARK    2  A    between atoms: C2_3  and  C3_4 
ROOT
ATOM      1  C3  UNL d   1      -4.970   1.688   4.948  0.00  0.00    -0.075 A 
ATOM      2  C4  UNL d   1      -4.877   1.823   3.555  0.00  0.00     0.002 A 
ATOM      3  C5  UNL d   1      -4.840   3.087   2.967  0.00  0.00     0.002 A 
ATOM      4  C6  UNL d   1      -4.906   4.230   3.760  0.00  0.00    -0.004 A 
ATOM      5  C7  UNL d   1      -5.016   4.108   5.143  0.00  0.00     0.002 A 
ATOM      6  C8  UNL d   1      -5.048   2.845   5.736  0.00  0.00     0.002 A 
ENDROOT
BRANCH   1   7
ATOM      7  C2  UNL d   1      -4.980   0.323   5.594  0.00  0.00     0.056 C 
BRANCH   7   8
ATOM      8  C1  UNL d   1      -4.637  -0.822   4.635  0.00  0.00     0.007 C 
ATOM      9  C   UNL d   1      -3.150  -1.149   4.597  0.00  0.00     0.009 C 
ENDBRANCH   7   8
ENDBRANCH   1   7
TORSDOF 2
ENDMDL
