MODEL 1
REMARK minimizedAffinity -4.44646025
REMARK minimizedRMSD -1
REMARK  2 active torsions:
REMARK  status: ('A' for Active; 'I' for Inactive)
REMARK    1  A    between atoms: C1_2  and  C2_3 
REMARK    2  A    between atoms: C2_3  and  C3_4 
ROOT
ATOM      1  C3  UNL d   1      -4.362   3.597   3.902  0.00  0.00    -0.075 A 
ATOM      2  C4  UNL d   1      -4.814   3.389   5.213  0.00  0.00     0.002 A 
ATOM      3  C5  UNL d   1      -5.358   4.441   5.950  0.00  0.00     0.002 A 
ATOM      4  C6  UNL d   1      -5.448   5.714   5.391  0.00  0.00    -0.004 A 
ATOM      5  C7  UNL d   1      -4.987   5.936   4.095  0.00  0.00     0.002 A 
ATOM      6  C8  UNL d   1      -4.446   4.884   3.354  0.00  0.00     0.002 A 
ENDROOT
BRANCH   1   7
ATOM      7  C2  UNL d   1      -3.799   2.456   3.088  0.00  0.00     0.056 C 
BRANCH   7   8
ATOM      8  C1  UNL d   1      -3.971   1.080   3.741  0.00  0.00     0.007 C 
ATOM      9  C   UNL d   1      -2.781   0.157   3.516  0.00  0.00     0.009 C 
ENDBRANCH   7   8
ENDBRANCH   1   7
TORSDOF 2
ENDMDL
