MODEL 1
REMARK minimizedAffinity -1.94080877
REMARK minimizedRMSD -1
REMARK  2 active torsions:
REMARK  status: ('A' for Active; 'I' for Inactive)
REMARK    1  A    between atoms: C1_2  and  C2_3 
REMARK    2  A    between atoms: C2_3  and  C3_4 
ROOT
ATOM      1  C3  UNL d   1      -5.331   5.309   3.605  0.00  0.00    -0.075 A 
ATOM      2  C4  UNL d   1      -4.879   3.982   3.568  0.00  0.00     0.002 A 
ATOM      3  C5  UNL d   1      -4.470   3.340   4.737  0.00  0.00     0.002 A 
ATOM      4  C6  UNL d   1      -4.498   4.017   5.954  0.00  0.00    -0.004 A 
ATOM      5  C7  UNL d   1      -4.930   5.341   6.000  0.00  0.00     0.002 A 
ATOM      6  C8  UNL d   1      -5.344   5.985   4.832  0.00  0.00     0.002 A 
ENDROOT
BRANCH   1   7
ATOM      7  C2  UNL d   1      -5.803   6.000   2.348  0.00  0.00     0.056 C 
BRANCH   7   8
ATOM      8  C1  UNL d   1      -4.810   5.922   1.183  0.00  0.00     0.007 C 
ATOM      9  C   UNL d   1      -5.479   6.000  -0.182  0.00  0.00     0.009 C 
ENDBRANCH   7   8
ENDBRANCH   1   7
TORSDOF 2
ENDMDL
