MODEL 1
REMARK minimizedAffinity 2.24462128
REMARK minimizedRMSD -1
REMARK  2 active torsions:
REMARK  status: ('A' for Active; 'I' for Inactive)
REMARK    1  A    between atoms: C1_2  and  C2_3 
REMARK    2  A    between atoms: C2_3  and  C3_4 
ROOT
ATOM      1  C3  UNL d   1      -4.449   5.745   3.634  0.00  0.00    -0.075 A 
ATOM      2  C4  UNL d   1      -5.761   5.762   3.136  0.00  0.00     0.002 A 
ATOM      3  C5  UNL d   1      -5.997   5.878   1.766  0.00  0.00     0.002 A 
ATOM      4  C6  UNL d   1      -4.929   5.988   0.879  0.00  0.00    -0.004 A 
ATOM      5  C7  UNL d   1      -3.623   5.989   1.363  0.00  0.00     0.002 A 
ATOM      6  C8  UNL d   1      -3.383   5.869   2.733  0.00  0.00     0.002 A 
ENDROOT
BRANCH   1   7
ATOM      7  C2  UNL d   1      -4.186   5.590   5.112  0.00  0.00     0.056 C 
BRANCH   7   8
ATOM      8  C1  UNL d   1      -4.225   4.140   5.605  0.00  0.00     0.007 C 
ATOM      9  C   UNL d   1      -3.788   3.135   4.547  0.00  0.00     0.009 C 
ENDBRANCH   7   8
ENDBRANCH   1   7
TORSDOF 2
ENDMDL
