MODEL 1
REMARK minimizedAffinity -0.974502146
REMARK minimizedRMSD -1
REMARK  0 active torsions:
REMARK  status: ('A' for Active; 'I' for Inactive)
ROOT
ATOM      1  C   UNL d   1      -2.218   0.738   0.411  0.00  0.00     0.172 C 
ATOM      2  N   UNL d   1      -1.391   0.203   1.467  0.00  0.00    -0.070 N 
ATOM      3  C1  UNL d   1      -0.036   0.017   1.403  0.00  0.00    -0.004 A 
ATOM      4  C2  UNL d   1       0.375  -0.510   2.608  0.00  0.00    -0.047 A 
ATOM      5  C3  UNL d   1      -0.773  -0.646   3.424  0.00  0.00    -0.047 A 
ATOM      6  C4  UNL d   1      -1.852  -0.197   2.693  0.00  0.00    -0.004 A 
ENDROOT
TORSDOF 0
ENDMDL
