MODEL 1
REMARK minimizedAffinity 3.07396913
REMARK minimizedRMSD -1
REMARK  0 active torsions:
REMARK  status: ('A' for Active; 'I' for Inactive)
ROOT
ATOM      1  C   UNL d   1       3.032   5.862  -0.550  0.00  0.00     0.172 C 
ATOM      2  N   UNL d   1       2.992   4.437  -0.319  0.00  0.00    -0.070 N 
ATOM      3  C1  UNL d   1       3.142   3.469  -1.276  0.00  0.00    -0.004 A 
ATOM      4  C2  UNL d   1       3.041   2.242  -0.655  0.00  0.00    -0.047 A 
ATOM      5  C3  UNL d   1       2.822   2.482   0.722  0.00  0.00    -0.047 A 
ATOM      6  C4  UNL d   1       2.796   3.849   0.903  0.00  0.00    -0.004 A 
ENDROOT
TORSDOF 0
ENDMDL
