MODEL 1
REMARK minimizedAffinity 5.1600318
REMARK minimizedRMSD -1
REMARK  0 active torsions:
REMARK  status: ('A' for Active; 'I' for Inactive)
ROOT
ATOM      1  C   UNL d   1      -3.635  -1.472   2.853  0.00  0.00     0.172 C 
ATOM      2  N   UNL d   1      -3.131  -0.724   1.725  0.00  0.00    -0.070 N 
ATOM      3  C1  UNL d   1      -2.501   0.490   1.789  0.00  0.00    -0.004 A 
ATOM      4  C2  UNL d   1      -2.176   0.865   0.504  0.00  0.00    -0.047 A 
ATOM      5  C3  UNL d   1      -2.627  -0.159  -0.363  0.00  0.00    -0.047 A 
ATOM      6  C4  UNL d   1      -3.214  -1.130   0.419  0.00  0.00    -0.004 A 
ENDROOT
TORSDOF 0
ENDMDL
