MODEL 1
REMARK minimizedAffinity 2.13063359
REMARK minimizedRMSD -1
REMARK  0 active torsions:
REMARK  status: ('A' for Active; 'I' for Inactive)
ROOT
ATOM      1  C   UNL d   1       0.714  -0.210   0.364  0.00  0.00     0.172 C 
ATOM      2  N   UNL d   1      -0.729  -0.172   0.392  0.00  0.00    -0.070 N 
ATOM      3  C1  UNL d   1      -1.559  -0.644  -0.589  0.00  0.00    -0.004 A 
ATOM      4  C2  UNL d   1      -2.858  -0.424  -0.185  0.00  0.00    -0.047 A 
ATOM      5  C3  UNL d   1      -2.807   0.204   1.082  0.00  0.00    -0.047 A 
ATOM      6  C4  UNL d   1      -1.477   0.348   1.416  0.00  0.00    -0.004 A 
ENDROOT
TORSDOF 0
ENDMDL
