MODEL 1
REMARK minimizedAffinity 0.229420215
REMARK minimizedRMSD -1
REMARK  0 active torsions:
REMARK  status: ('A' for Active; 'I' for Inactive)
ROOT
ATOM      1  C   UNL d   1      -2.231   0.023   0.870  0.00  0.00     0.172 C 
ATOM      2  N   UNL d   1      -2.132  -0.431   2.237  0.00  0.00    -0.070 N 
ATOM      3  C1  UNL d   1      -2.972  -1.326   2.844  0.00  0.00    -0.004 A 
ATOM      4  C2  UNL d   1      -2.542  -1.494   4.142  0.00  0.00    -0.047 A 
ATOM      5  C3  UNL d   1      -1.405  -0.672   4.322  0.00  0.00    -0.047 A 
ATOM      6  C4  UNL d   1      -1.173  -0.025   3.127  0.00  0.00    -0.004 A 
ENDROOT
TORSDOF 0
ENDMDL
