MODEL 1
REMARK minimizedAffinity -1.14380801
REMARK minimizedRMSD -1
REMARK  0 active torsions:
REMARK  status: ('A' for Active; 'I' for Inactive)
ROOT
ATOM      1  C   UNL d   1      -1.904   0.587   0.207  0.00  0.00     0.172 C 
ATOM      2  N   UNL d   1      -1.329   0.115   1.445  0.00  0.00    -0.070 N 
ATOM      3  C1  UNL d   1      -1.970   0.063   2.654  0.00  0.00    -0.004 A 
ATOM      4  C2  UNL d   1      -1.084  -0.446   3.579  0.00  0.00    -0.047 A 
ATOM      5  C3  UNL d   1       0.132  -0.707   2.903  0.00  0.00    -0.047 A 
ATOM      6  C4  UNL d   1      -0.048  -0.351   1.583  0.00  0.00    -0.004 A 
ENDROOT
TORSDOF 0
ENDMDL
