MODEL 1
REMARK minimizedAffinity 2.68534517
REMARK minimizedRMSD -1
REMARK  0 active torsions:
REMARK  status: ('A' for Active; 'I' for Inactive)
ROOT
ATOM      1  C   UNL d   1       0.744  -0.817   2.984  0.00  0.00     0.172 C 
ATOM      2  N   UNL d   1       0.051  -0.421   1.781  0.00  0.00    -0.070 N 
ATOM      3  C1  UNL d   1      -1.263  -0.045   1.704  0.00  0.00    -0.004 A 
ATOM      4  C2  UNL d   1      -1.539   0.256   0.387  0.00  0.00    -0.047 A 
ATOM      5  C3  UNL d   1      -0.350   0.053  -0.352  0.00  0.00    -0.047 A 
ATOM      6  C4  UNL d   1       0.619  -0.365   0.535  0.00  0.00    -0.004 A 
ENDROOT
TORSDOF 0
ENDMDL
