MODEL 1
REMARK minimizedAffinity 1.7758832
REMARK minimizedRMSD -1
REMARK  0 active torsions:
REMARK  status: ('A' for Active; 'I' for Inactive)
ROOT
ATOM      1  C   UNL d   1       0.327  -0.866   3.570  0.00  0.00     0.172 C 
ATOM      2  N   UNL d   1      -0.596  -0.406   2.558  0.00  0.00    -0.070 N 
ATOM      3  C1  UNL d   1      -1.925  -0.139   2.753  0.00  0.00    -0.004 A 
ATOM      4  C2  UNL d   1      -2.452   0.274   1.549  0.00  0.00    -0.047 A 
ATOM      5  C3  UNL d   1      -1.405   0.254   0.598  0.00  0.00    -0.047 A 
ATOM      6  C4  UNL d   1      -0.267  -0.172   1.250  0.00  0.00    -0.004 A 
ENDROOT
TORSDOF 0
ENDMDL
