MODEL 1
REMARK minimizedAffinity 0.702391326
REMARK minimizedRMSD -1
REMARK  0 active torsions:
REMARK  status: ('A' for Active; 'I' for Inactive)
ROOT
ATOM      1  C   UNL d   1       0.100  -1.509   3.977  0.00  0.00     0.172 C 
ATOM      2  N   UNL d   1      -0.460  -0.970   2.760  0.00  0.00    -0.070 N 
ATOM      3  C1  UNL d   1       0.115  -1.035   1.519  0.00  0.00    -0.004 A 
ATOM      4  C2  UNL d   1      -0.730  -0.408   0.629  0.00  0.00    -0.047 A 
ATOM      5  C3  UNL d   1      -1.851   0.050   1.361  0.00  0.00    -0.047 A 
ATOM      6  C4  UNL d   1      -1.658  -0.311   2.677  0.00  0.00    -0.004 A 
ENDROOT
TORSDOF 0
ENDMDL
