MODEL 1
REMARK minimizedAffinity -0.802585185
REMARK minimizedRMSD -1
REMARK  0 active torsions:
REMARK  status: ('A' for Active; 'I' for Inactive)
ROOT
ATOM      1  C   UNL d   1      -3.967  -1.679   3.780  0.00  0.00     0.172 C 
ATOM      2  N   UNL d   1      -2.564  -1.346   3.708  0.00  0.00    -0.070 N 
ATOM      3  C1  UNL d   1      -1.570  -1.911   4.460  0.00  0.00    -0.004 A 
ATOM      4  C2  UNL d   1      -0.378  -1.325   4.094  0.00  0.00    -0.047 A 
ATOM      5  C3  UNL d   1      -0.666  -0.374   3.086  0.00  0.00    -0.047 A 
ATOM      6  C4  UNL d   1      -2.027  -0.408   2.866  0.00  0.00    -0.004 A 
ENDROOT
TORSDOF 0
ENDMDL
