MODEL 1
REMARK minimizedAffinity 7.93398952
REMARK minimizedRMSD -1
REMARK  0 active torsions:
REMARK  status: ('A' for Active; 'I' for Inactive)
ROOT
ATOM      1  C   UNL d   1      -0.195  -2.423   1.640  0.00  0.00    -0.002 A 
ATOM      2  C1  UNL d   1       1.127  -2.018   1.755  0.00  0.00     0.010 A 
ATOM      3  C2  UNL d   1       1.561  -1.319   2.884  0.00  0.00     0.041 A 
ATOM      4  C3  UNL d   1       0.634  -1.034   3.906  0.00  0.00    -0.075 A 
ATOM      5  S   UNL d   1       0.939  -0.192   5.379  0.00  0.00     0.015 SA
ATOM      6  C4  UNL d   1      -0.679  -0.350   5.891  0.00  0.00     0.022 A 
ATOM      7  C5  UNL d   1      -1.447  -1.026   4.973  0.00  0.00     0.026 A 
ATOM      8  C6  UNL d   1      -0.702  -1.432   3.814  0.00  0.00    -0.082 A 
ATOM      9  C7  UNL d   1      -1.111  -2.138   2.656  0.00  0.00     0.045 A 
ENDROOT
TORSDOF 0
ENDMDL
