MODEL 1
REMARK minimizedAffinity 24.2275467
REMARK minimizedRMSD -1
REMARK  0 active torsions:
REMARK  status: ('A' for Active; 'I' for Inactive)
ROOT
ATOM      1  C   UNL d   1      -3.390  -6.000  -0.395  0.00  0.00    -0.002 A 
ATOM      2  C1  UNL d   1      -4.544  -5.347  -0.802  0.00  0.00     0.010 A 
ATOM      3  C2  UNL d   1      -5.041  -4.262  -0.077  0.00  0.00     0.041 A 
ATOM      4  C3  UNL d   1      -4.350  -3.840   1.076  0.00  0.00    -0.075 A 
ATOM      5  S   UNL d   1      -4.772  -2.535   2.121  0.00  0.00     0.015 SA
ATOM      6  C4  UNL d   1      -3.429  -2.813   3.133  0.00  0.00     0.022 A 
ATOM      7  C5  UNL d   1      -2.667  -3.871   2.699  0.00  0.00     0.026 A 
ATOM      8  C6  UNL d   1      -3.185  -4.481   1.506  0.00  0.00    -0.082 A 
ATOM      9  C7  UNL d   1      -2.707  -5.577   0.749  0.00  0.00     0.045 A 
ENDROOT
TORSDOF 0
ENDMDL
