MODEL 1
REMARK minimizedAffinity 16.6851597
REMARK minimizedRMSD -1
REMARK  0 active torsions:
REMARK  status: ('A' for Active; 'I' for Inactive)
ROOT
ATOM      1  C   UNL d   1      -1.694  -2.573   3.788  0.00  0.00    -0.002 A 
ATOM      2  C1  UNL d   1      -1.138  -1.933   2.689  0.00  0.00     0.010 A 
ATOM      3  C2  UNL d   1      -0.107  -2.534   1.964  0.00  0.00     0.041 A 
ATOM      4  C3  UNL d   1       0.360  -3.802   2.366  0.00  0.00    -0.075 A 
ATOM      5  S   UNL d   1       1.613  -4.729   1.629  0.00  0.00     0.015 SA
ATOM      6  C4  UNL d   1       1.439  -5.996   2.756  0.00  0.00     0.022 A 
ATOM      7  C5  UNL d   1       0.454  -5.735   3.679  0.00  0.00     0.026 A 
ATOM      8  C6  UNL d   1      -0.185  -4.465   3.469  0.00  0.00    -0.082 A 
ATOM      9  C7  UNL d   1      -1.228  -3.830   4.183  0.00  0.00     0.045 A 
ENDROOT
TORSDOF 0
ENDMDL
