MODEL 1
REMARK minimizedAffinity 17.7086048
REMARK minimizedRMSD -1
REMARK  0 active torsions:
REMARK  status: ('A' for Active; 'I' for Inactive)
ROOT
ATOM      1  C   UNL d   1       0.957  -0.296   2.885  0.00  0.00    -0.002 A 
ATOM      2  C1  UNL d   1       1.088  -0.921   1.653  0.00  0.00     0.010 A 
ATOM      3  C2  UNL d   1       0.178  -1.902   1.255  0.00  0.00     0.041 A 
ATOM      4  C3  UNL d   1      -0.877  -2.246   2.122  0.00  0.00    -0.075 A 
ATOM      5  S   UNL d   1      -2.111  -3.417   1.845  0.00  0.00     0.015 SA
ATOM      6  C4  UNL d   1      -2.842  -3.115   3.354  0.00  0.00     0.022 A 
ATOM      7  C5  UNL d   1      -2.174  -2.146   4.066  0.00  0.00     0.026 A 
ATOM      8  C6  UNL d   1      -1.031  -1.629   3.367  0.00  0.00    -0.082 A 
ATOM      9  C7  UNL d   1      -0.091  -0.639   3.743  0.00  0.00     0.045 A 
ENDROOT
TORSDOF 0
ENDMDL
