MODEL 1
REMARK minimizedAffinity 17.4647579
REMARK minimizedRMSD -1
REMARK  0 active torsions:
REMARK  status: ('A' for Active; 'I' for Inactive)
ROOT
ATOM      1  C   UNL d   1      -3.906  -3.463   2.808  0.00  0.00    -0.002 A 
ATOM      2  C1  UNL d   1      -5.267  -3.223   2.685  0.00  0.00     0.010 A 
ATOM      3  C2  UNL d   1      -5.991  -3.766   1.622  0.00  0.00     0.041 A 
ATOM      4  C3  UNL d   1      -5.318  -4.563   0.676  0.00  0.00    -0.075 A 
ATOM      5  S   UNL d   1      -6.000  -5.333  -0.708  0.00  0.00     0.015 SA
ATOM      6  C4  UNL d   1      -4.500  -6.000  -1.169  0.00  0.00     0.022 A 
ATOM      7  C5  UNL d   1      -3.493  -5.653  -0.300  0.00  0.00     0.026 A 
ATOM      8  C6  UNL d   1      -3.948  -4.820   0.778  0.00  0.00    -0.082 A 
ATOM      9  C7  UNL d   1      -3.241  -4.255   1.867  0.00  0.00     0.045 A 
ENDROOT
TORSDOF 0
ENDMDL
