MODEL 1
REMARK minimizedAffinity 11.1199322
REMARK minimizedRMSD -1
REMARK  0 active torsions:
REMARK  status: ('A' for Active; 'I' for Inactive)
ROOT
ATOM      1  C   UNL d   1       1.248   3.214  -1.273  0.00  0.00    -0.002 A 
ATOM      2  C1  UNL d   1       0.652   2.307  -0.408  0.00  0.00     0.010 A 
ATOM      3  C2  UNL d   1      -0.694   1.965  -0.553  0.00  0.00     0.041 A 
ATOM      4  C3  UNL d   1      -1.438   2.554  -1.594  0.00  0.00    -0.075 A 
ATOM      5  S   UNL d   1      -3.100   2.285  -1.965  0.00  0.00     0.015 SA
ATOM      6  C4  UNL d   1      -3.058   3.366  -3.281  0.00  0.00     0.022 A 
ATOM      7  C5  UNL d   1      -1.815   3.928  -3.448  0.00  0.00     0.026 A 
ATOM      8  C6  UNL d   1      -0.860   3.469  -2.479  0.00  0.00    -0.082 A 
ATOM      9  C7  UNL d   1       0.506   3.796  -2.305  0.00  0.00     0.045 A 
ENDROOT
TORSDOF 0
ENDMDL
