MODEL 1
REMARK minimizedAffinity 6.24768925
REMARK minimizedRMSD -1
REMARK  0 active torsions:
REMARK  status: ('A' for Active; 'I' for Inactive)
ROOT
ATOM      1  C   UNL d   1       1.028  -1.062   1.452  0.00  0.00    -0.002 A 
ATOM      2  C1  UNL d   1       0.465  -2.329   1.500  0.00  0.00     0.010 A 
ATOM      3  C2  UNL d   1      -0.171  -2.780   2.659  0.00  0.00     0.041 A 
ATOM      4  C3  UNL d   1      -0.234  -1.926   3.778  0.00  0.00    -0.075 A 
ATOM      5  S   UNL d   1      -0.963  -2.264   5.303  0.00  0.00     0.015 SA
ATOM      6  C4  UNL d   1      -0.546  -0.733   5.926  0.00  0.00     0.022 A 
ATOM      7  C5  UNL d   1       0.134   0.029   5.006  0.00  0.00     0.026 A 
ATOM      8  C6  UNL d   1       0.324  -0.645   3.753  0.00  0.00    -0.082 A 
ATOM      9  C7  UNL d   1       0.963  -0.218   2.564  0.00  0.00     0.045 A 
ENDROOT
TORSDOF 0
ENDMDL
