MODEL 1
REMARK minimizedAffinity 14.9845495
REMARK minimizedRMSD -1
REMARK  0 active torsions:
REMARK  status: ('A' for Active; 'I' for Inactive)
ROOT
ATOM      1  C   UNL d   1       1.740  -0.972   1.488  0.00  0.00    -0.002 A 
ATOM      2  C1  UNL d   1       0.947  -2.040   1.090  0.00  0.00     0.010 A 
ATOM      3  C2  UNL d   1      -0.067  -2.519   1.922  0.00  0.00     0.041 A 
ATOM      4  C3  UNL d   1      -0.275  -1.901   3.170  0.00  0.00    -0.075 A 
ATOM      5  S   UNL d   1      -1.458  -2.317   4.353  0.00  0.00     0.015 SA
ATOM      6  C4  UNL d   1      -0.939  -1.088   5.413  0.00  0.00     0.022 A 
ATOM      7  C5  UNL d   1       0.110  -0.367   4.894  0.00  0.00     0.026 A 
ATOM      8  C6  UNL d   1       0.510  -0.824   3.592  0.00  0.00    -0.082 A 
ATOM      9  C7  UNL d   1       1.531  -0.361   2.727  0.00  0.00     0.045 A 
ENDROOT
TORSDOF 0
ENDMDL
