MODEL 1
REMARK minimizedAffinity 21.1336765
REMARK minimizedRMSD -1
REMARK  0 active torsions:
REMARK  status: ('A' for Active; 'I' for Inactive)
ROOT
ATOM      1  C   UNL d   1       3.930  -1.645   1.065  0.00  0.00    -0.002 A 
ATOM      2  C1  UNL d   1       3.900  -0.748   2.123  0.00  0.00     0.010 A 
ATOM      3  C2  UNL d   1       2.687  -0.385   2.711  0.00  0.00     0.041 A 
ATOM      4  C3  UNL d   1       1.493  -0.944   2.214  0.00  0.00    -0.075 A 
ATOM      5  S   UNL d   1      -0.109  -0.646   2.778  0.00  0.00     0.015 SA
ATOM      6  C4  UNL d   1      -0.790  -1.703   1.628  0.00  0.00     0.022 A 
ATOM      7  C5  UNL d   1       0.166  -2.278   0.824  0.00  0.00     0.026 A 
ATOM      8  C6  UNL d   1       1.498  -1.850   1.149  0.00  0.00    -0.082 A 
ATOM      9  C7  UNL d   1       2.744  -2.198   0.574  0.00  0.00     0.045 A 
ENDROOT
TORSDOF 0
ENDMDL
