MODEL 1
REMARK minimizedAffinity 9.38875961
REMARK minimizedRMSD -1
REMARK  0 active torsions:
REMARK  status: ('A' for Active; 'I' for Inactive)
ROOT
ATOM      1  C   UNL d   1      -4.502  -5.586  -0.743  0.00  0.00    -0.002 A 
ATOM      2  C1  UNL d   1      -5.660  -6.000  -0.100  0.00  0.00     0.010 A 
ATOM      3  C2  UNL d   1      -5.935  -5.586   1.205  0.00  0.00     0.041 A 
ATOM      4  C3  UNL d   1      -5.018  -4.739   1.858  0.00  0.00    -0.075 A 
ATOM      5  S   UNL d   1      -5.146  -4.104   3.456  0.00  0.00     0.015 SA
ATOM      6  C4  UNL d   1      -3.667  -3.268   3.323  0.00  0.00     0.022 A 
ATOM      7  C5  UNL d   1      -3.076  -3.458   2.096  0.00  0.00     0.026 A 
ATOM      8  C6  UNL d   1      -3.845  -4.308   1.232  0.00  0.00    -0.082 A 
ATOM      9  C7  UNL d   1      -3.595  -4.747  -0.091  0.00  0.00     0.045 A 
ENDROOT
TORSDOF 0
ENDMDL
