MODEL 1
REMARK minimizedAffinity 26.3357182
REMARK minimizedRMSD -1
REMARK  0 active torsions:
REMARK  status: ('A' for Active; 'I' for Inactive)
ROOT
ATOM      1  C   UNL d   1      -2.011   5.093  -5.449  0.00  0.00    -0.002 A 
ATOM      2  C1  UNL d   1      -1.349   5.999  -4.633  0.00  0.00     0.010 A 
ATOM      3  C2  UNL d   1      -0.877   5.613  -3.377  0.00  0.00     0.041 A 
ATOM      4  C3  UNL d   1      -1.082   4.286  -2.951  0.00  0.00    -0.075 A 
ATOM      5  S   UNL d   1      -0.591   3.587  -1.453  0.00  0.00     0.015 SA
ATOM      6  C4  UNL d   1      -1.248   2.068  -1.861  0.00  0.00     0.022 A 
ATOM      7  C5  UNL d   1      -1.832   2.076  -3.106  0.00  0.00     0.026 A 
ATOM      8  C6  UNL d   1      -1.746   3.354  -3.755  0.00  0.00    -0.082 A 
ATOM      9  C7  UNL d   1      -2.213   3.777  -5.022  0.00  0.00     0.045 A 
ENDROOT
TORSDOF 0
ENDMDL
