MODEL 1
REMARK minimizedAffinity 15.1978884
REMARK minimizedRMSD -1
REMARK  0 active torsions:
REMARK  status: ('A' for Active; 'I' for Inactive)
ROOT
ATOM      1  C   UNL d   1      -0.563  -4.128   1.655  0.00  0.00    -0.002 A 
ATOM      2  C1  UNL d   1       0.714  -4.667   1.715  0.00  0.00     0.010 A 
ATOM      3  C2  UNL d   1       1.835  -3.835   1.756  0.00  0.00     0.041 A 
ATOM      4  C3  UNL d   1       1.649  -2.439   1.738  0.00  0.00    -0.075 A 
ATOM      5  S   UNL d   1       2.873  -1.226   1.782  0.00  0.00     0.015 SA
ATOM      6  C4  UNL d   1       1.730   0.036   1.723  0.00  0.00     0.022 A 
ATOM      7  C5  UNL d   1       0.441  -0.438   1.670  0.00  0.00     0.026 A 
ATOM      8  C6  UNL d   1       0.372  -1.872   1.679  0.00  0.00    -0.082 A 
ATOM      9  C7  UNL d   1      -0.744  -2.742   1.637  0.00  0.00     0.045 A 
ENDROOT
TORSDOF 0
ENDMDL
