MODEL 1
REMARK minimizedAffinity 18.7159729
REMARK minimizedRMSD -1
REMARK  0 active torsions:
REMARK  status: ('A' for Active; 'I' for Inactive)
ROOT
ATOM      1  C   UNL d   1       1.724   0.064   3.121  0.00  0.00    -0.002 A 
ATOM      2  C1  UNL d   1       0.682  -0.853   3.122  0.00  0.00     0.010 A 
ATOM      3  C2  UNL d   1       0.627  -1.867   2.164  0.00  0.00     0.041 A 
ATOM      4  C3  UNL d   1       1.647  -1.946   1.196  0.00  0.00    -0.075 A 
ATOM      5  S   UNL d   1       1.788  -3.104  -0.073  0.00  0.00     0.015 SA
ATOM      6  C4  UNL d   1       3.235  -2.411  -0.647  0.00  0.00     0.022 A 
ATOM      7  C5  UNL d   1       3.616  -1.321   0.101  0.00  0.00     0.026 A 
ATOM      8  C6  UNL d   1       2.708  -1.036   1.175  0.00  0.00    -0.082 A 
ATOM      9  C7  UNL d   1       2.735  -0.019   2.160  0.00  0.00     0.045 A 
ENDROOT
TORSDOF 0
ENDMDL
