MODEL 1
REMARK minimizedAffinity 24.3787899
REMARK minimizedRMSD -1
REMARK  0 active torsions:
REMARK  status: ('A' for Active; 'I' for Inactive)
ROOT
ATOM      1  C   UNL d   1      -3.037   4.060  -1.529  0.00  0.00    -0.002 A 
ATOM      2  C1  UNL d   1      -3.093   2.790  -2.086  0.00  0.00     0.010 A 
ATOM      3  C2  UNL d   1      -2.907   2.608  -3.458  0.00  0.00     0.041 A 
ATOM      4  C3  UNL d   1      -2.659   3.734  -4.268  0.00  0.00    -0.075 A 
ATOM      5  S   UNL d   1      -2.399   3.752  -5.972  0.00  0.00     0.015 SA
ATOM      6  C4  UNL d   1      -2.207   5.446  -6.000  0.00  0.00     0.022 A 
ATOM      7  C5  UNL d   1      -2.335   6.000  -4.748  0.00  0.00     0.026 A 
ATOM      8  C6  UNL d   1      -2.597   5.023  -3.729  0.00  0.00    -0.082 A 
ATOM      9  C7  UNL d   1      -2.791   5.174  -2.335  0.00  0.00     0.045 A 
ENDROOT
TORSDOF 0
ENDMDL
