MODEL 1
REMARK minimizedAffinity 9.25529099
REMARK minimizedRMSD -1
REMARK  0 active torsions:
REMARK  status: ('A' for Active; 'I' for Inactive)
ROOT
ATOM      1  C   UNL d   1      -3.262  -2.915   2.384  0.00  0.00    -0.002 A 
ATOM      2  C1  UNL d   1      -4.501  -3.325   2.855  0.00  0.00     0.010 A 
ATOM      3  C2  UNL d   1      -5.246  -4.278   2.158  0.00  0.00     0.041 A 
ATOM      4  C3  UNL d   1      -4.718  -4.819   0.969  0.00  0.00    -0.075 A 
ATOM      5  S   UNL d   1      -5.452  -6.000  -0.051  0.00  0.00     0.015 SA
ATOM      6  C4  UNL d   1      -4.136  -5.988  -1.135  0.00  0.00     0.022 A 
ATOM      7  C5  UNL d   1      -3.153  -5.111  -0.744  0.00  0.00     0.026 A 
ATOM      8  C6  UNL d   1      -3.472  -4.423   0.475  0.00  0.00    -0.082 A 
ATOM      9  C7  UNL d   1      -2.742  -3.454   1.205  0.00  0.00     0.045 A 
ENDROOT
TORSDOF 0
ENDMDL
