MODEL 1
REMARK minimizedAffinity 21.0198898
REMARK minimizedRMSD -1
REMARK  0 active torsions:
REMARK  status: ('A' for Active; 'I' for Inactive)
ROOT
ATOM      1  C   UNL d   1      -1.581   5.593  -3.370  0.00  0.00    -0.002 A 
ATOM      2  C1  UNL d   1      -1.487   4.259  -3.740  0.00  0.00     0.010 A 
ATOM      3  C2  UNL d   1      -2.341   3.305  -3.182  0.00  0.00     0.041 A 
ATOM      4  C3  UNL d   1      -3.302   3.719  -2.239  0.00  0.00    -0.075 A 
ATOM      5  S   UNL d   1      -4.454   2.728  -1.425  0.00  0.00     0.015 SA
ATOM      6  C4  UNL d   1      -5.099   4.052  -0.568  0.00  0.00     0.022 A 
ATOM      7  C5  UNL d   1      -4.462   5.229  -0.882  0.00  0.00     0.026 A 
ATOM      8  C6  UNL d   1      -3.417   5.057  -1.851  0.00  0.00    -0.082 A 
ATOM      9  C7  UNL d   1      -2.536   6.000  -2.434  0.00  0.00     0.045 A 
ENDROOT
TORSDOF 0
ENDMDL
