MODEL 1
REMARK minimizedAffinity 5.54990101
REMARK minimizedRMSD -1
REMARK  1 active torsions:
REMARK  status: ('A' for Active; 'I' for Inactive)
REMARK    1  A    between atoms: C1_2  and  C2_3 
ROOT
ATOM      1  C2  UNL d   1       0.725   2.183  -3.507  0.00  0.00    -0.077 A 
ATOM      2  C3  UNL d   1       1.693   1.205  -3.774  0.00  0.00     0.002 A 
ATOM      3  C4  UNL d   1       2.458   0.666  -2.737  0.00  0.00     0.002 A 
ATOM      4  C5  UNL d   1       2.260   1.096  -1.427  0.00  0.00    -0.004 A 
ATOM      5  C6  UNL d   1       1.301   2.070  -1.151  0.00  0.00     0.002 A 
ATOM      6  C7  UNL d   1       0.537   2.610  -2.186  0.00  0.00     0.002 A 
ENDROOT
BRANCH   1   7
ATOM      7  C1  UNL d   1      -0.135   2.730  -4.616  0.00  0.00     0.055 C 
ATOM      8  C   UNL d   1       0.596   3.809  -5.402  0.00  0.00     0.019 C 
ENDBRANCH   1   7
TORSDOF 1
ENDMDL
