MODEL 1
REMARK minimizedAffinity 9.35582542
REMARK minimizedRMSD -1
REMARK  1 active torsions:
REMARK  status: ('A' for Active; 'I' for Inactive)
REMARK    1  A    between atoms: C1_2  and  C2_3 
ROOT
ATOM      1  C2  UNL d   1      -0.796  -3.723   3.586  0.00  0.00    -0.077 A 
ATOM      2  C3  UNL d   1      -1.121  -2.662   2.729  0.00  0.00     0.002 A 
ATOM      3  C4  UNL d   1      -2.210  -1.835   3.011  0.00  0.00     0.002 A 
ATOM      4  C5  UNL d   1      -2.980  -2.058   4.151  0.00  0.00    -0.004 A 
ATOM      5  C6  UNL d   1      -2.666  -3.112   5.008  0.00  0.00     0.002 A 
ATOM      6  C7  UNL d   1      -1.578  -3.940   4.727  0.00  0.00     0.002 A 
ENDROOT
BRANCH   1   7
ATOM      7  C1  UNL d   1       0.408  -4.586   3.310  0.00  0.00     0.055 C 
ATOM      8  C   UNL d   1       0.232  -5.387   2.028  0.00  0.00     0.019 C 
ENDBRANCH   1   7
TORSDOF 1
ENDMDL
