MODEL 1
REMARK minimizedAffinity 6.12789106
REMARK minimizedRMSD -1
REMARK  1 active torsions:
REMARK  status: ('A' for Active; 'I' for Inactive)
REMARK    1  A    between atoms: C1_2  and  C2_3 
ROOT
ATOM      1  C2  UNL d   1      -0.816   5.169  -5.862  0.00  0.00    -0.077 A 
ATOM      2  C3  UNL d   1      -2.078   5.779  -5.910  0.00  0.00     0.002 A 
ATOM      3  C4  UNL d   1      -3.238   5.015  -5.769  0.00  0.00     0.002 A 
ATOM      4  C5  UNL d   1      -3.147   3.638  -5.574  0.00  0.00    -0.004 A 
ATOM      5  C6  UNL d   1      -1.898   3.022  -5.527  0.00  0.00     0.002 A 
ATOM      6  C7  UNL d   1      -0.737   3.784  -5.669  0.00  0.00     0.002 A 
ENDROOT
BRANCH   1   7
ATOM      7  C1  UNL d   1       0.437   5.999  -5.965  0.00  0.00     0.055 C 
ATOM      8  C   UNL d   1       1.680   5.122  -5.999  0.00  0.00     0.019 C 
ENDBRANCH   1   7
TORSDOF 1
ENDMDL
