MODEL 1
REMARK minimizedAffinity 7.39982557
REMARK minimizedRMSD -1
REMARK  1 active torsions:
REMARK  status: ('A' for Active; 'I' for Inactive)
REMARK    1  A    between atoms: C1_2  and  C2_3 
ROOT
ATOM      1  C2  UNL d   1      -3.904   3.846  -5.245  0.00  0.00    -0.077 A 
ATOM      2  C3  UNL d   1      -4.251   3.637  -3.903  0.00  0.00     0.002 A 
ATOM      3  C4  UNL d   1      -5.293   4.363  -3.322  0.00  0.00     0.002 A 
ATOM      4  C5  UNL d   1      -5.999   5.297  -4.076  0.00  0.00    -0.004 A 
ATOM      5  C6  UNL d   1      -5.661   5.513  -5.411  0.00  0.00     0.002 A 
ATOM      6  C7  UNL d   1      -4.619   4.790  -5.994  0.00  0.00     0.002 A 
ENDROOT
BRANCH   1   7
ATOM      7  C1  UNL d   1      -2.813   3.029  -5.888  0.00  0.00     0.055 C 
ATOM      8  C   UNL d   1      -2.787   1.611  -5.338  0.00  0.00     0.019 C 
ENDBRANCH   1   7
TORSDOF 1
ENDMDL
