MODEL 1
REMARK minimizedAffinity 4.18510056
REMARK minimizedRMSD -1
REMARK  1 active torsions:
REMARK  status: ('A' for Active; 'I' for Inactive)
REMARK    1  A    between atoms: C1_2  and  C2_3 
ROOT
ATOM      1  C2  UNL d   1       0.898   2.769  -4.503  0.00  0.00    -0.077 A 
ATOM      2  C3  UNL d   1       1.001   3.963  -5.230  0.00  0.00     0.002 A 
ATOM      3  C4  UNL d   1      -0.086   4.436  -5.968  0.00  0.00     0.002 A 
ATOM      4  C5  UNL d   1      -1.284   3.724  -5.982  0.00  0.00    -0.004 A 
ATOM      5  C6  UNL d   1      -1.395   2.534  -5.264  0.00  0.00     0.002 A 
ATOM      6  C7  UNL d   1      -0.310   2.059  -4.526  0.00  0.00     0.002 A 
ENDROOT
BRANCH   1   7
ATOM      7  C1  UNL d   1       2.053   2.282  -3.666  0.00  0.00     0.055 C 
ATOM      8  C   UNL d   1       2.004   0.773  -3.481  0.00  0.00     0.019 C 
ENDBRANCH   1   7
TORSDOF 1
ENDMDL
