MODEL 1
REMARK minimizedAffinity 0.994263113
REMARK minimizedRMSD -1
REMARK  1 active torsions:
REMARK  status: ('A' for Active; 'I' for Inactive)
REMARK    1  A    between atoms: C1_2  and  C2_3 
ROOT
ATOM      1  C2  UNL d   1      -0.865   4.593  -5.910  0.00  0.00    -0.077 A 
ATOM      2  C3  UNL d   1       0.522   4.398  -5.960  0.00  0.00     0.002 A 
ATOM      3  C4  UNL d   1       1.056   3.109  -5.924  0.00  0.00     0.002 A 
ATOM      4  C5  UNL d   1       0.211   2.005  -5.842  0.00  0.00    -0.004 A 
ATOM      5  C6  UNL d   1      -1.171   2.188  -5.790  0.00  0.00     0.002 A 
ATOM      6  C7  UNL d   1      -1.706   3.476  -5.825  0.00  0.00     0.002 A 
ENDROOT
BRANCH   1   7
ATOM      7  C1  UNL d   1      -1.445   5.980  -5.999  0.00  0.00     0.055 C 
ATOM      8  C   UNL d   1      -2.965   5.950  -5.936  0.00  0.00     0.019 C 
ENDBRANCH   1   7
TORSDOF 1
ENDMDL
