MODEL 1
REMARK minimizedAffinity 3.86999202
REMARK minimizedRMSD -1
REMARK  1 active torsions:
REMARK  status: ('A' for Active; 'I' for Inactive)
REMARK    1  A    between atoms: C1_2  and  C2_3 
ROOT
ATOM      1  C2  UNL d   1       0.076   2.262  -4.558  0.00  0.00    -0.077 A 
ATOM      2  C3  UNL d   1       0.488   3.392  -5.279  0.00  0.00     0.002 A 
ATOM      3  C4  UNL d   1      -0.441   4.147  -5.999  0.00  0.00     0.002 A 
ATOM      4  C5  UNL d   1      -1.786   3.783  -6.000  0.00  0.00    -0.004 A 
ATOM      5  C6  UNL d   1      -2.204   2.660  -5.287  0.00  0.00     0.002 A 
ATOM      6  C7  UNL d   1      -1.278   1.903  -4.569  0.00  0.00     0.002 A 
ENDROOT
BRANCH   1   7
ATOM      7  C1  UNL d   1       1.068   1.475  -3.742  0.00  0.00     0.055 C 
ATOM      8  C   UNL d   1       2.464   1.552  -4.343  0.00  0.00     0.019 C 
ENDBRANCH   1   7
TORSDOF 1
ENDMDL
