MODEL 1
REMARK minimizedAffinity 6.92241001
REMARK minimizedRMSD -1
REMARK  1 active torsions:
REMARK  status: ('A' for Active; 'I' for Inactive)
REMARK    1  A    between atoms: C1_2  and  C2_3 
ROOT
ATOM      1  C2  UNL d   1      -4.465  -4.530  -0.128  0.00  0.00    -0.077 A 
ATOM      2  C3  UNL d   1      -3.778  -5.638  -0.643  0.00  0.00     0.002 A 
ATOM      3  C4  UNL d   1      -2.474  -5.501  -1.122  0.00  0.00     0.002 A 
ATOM      4  C5  UNL d   1      -1.844  -4.258  -1.086  0.00  0.00    -0.004 A 
ATOM      5  C6  UNL d   1      -2.520  -3.150  -0.577  0.00  0.00     0.002 A 
ATOM      6  C7  UNL d   1      -3.824  -3.285  -0.099  0.00  0.00     0.002 A 
ENDROOT
BRANCH   1   7
ATOM      7  C1  UNL d   1      -5.854  -4.687   0.434  0.00  0.00     0.055 C 
ATOM      8  C   UNL d   1      -5.999  -5.998   1.194  0.00  0.00     0.019 C 
ENDBRANCH   1   7
TORSDOF 1
ENDMDL
