MODEL 1
REMARK minimizedAffinity -1.3899194
REMARK minimizedRMSD -1
REMARK  1 active torsions:
REMARK  status: ('A' for Active; 'I' for Inactive)
REMARK    1  A    between atoms: C1_2  and  C2_3 
ROOT
ATOM      1  C2  UNL d   1      -2.834   4.708  -5.904  0.00  0.00    -0.077 A 
ATOM      2  C3  UNL d   1      -2.174   5.944  -5.906  0.00  0.00     0.002 A 
ATOM      3  C4  UNL d   1      -0.779   6.000  -5.872  0.00  0.00     0.002 A 
ATOM      4  C5  UNL d   1      -0.034   4.823  -5.840  0.00  0.00    -0.004 A 
ATOM      5  C6  UNL d   1      -0.682   3.588  -5.837  0.00  0.00     0.002 A 
ATOM      6  C7  UNL d   1      -2.076   3.531  -5.869  0.00  0.00     0.002 A 
ENDROOT
BRANCH   1   7
ATOM      7  C1  UNL d   1      -4.337   4.645  -5.991  0.00  0.00     0.055 C 
ATOM      8  C   UNL d   1      -4.970   5.971  -5.595  0.00  0.00     0.019 C 
ENDBRANCH   1   7
TORSDOF 1
ENDMDL
