MODEL 1
REMARK minimizedAffinity 9.03083134
REMARK minimizedRMSD -1
REMARK  1 active torsions:
REMARK  status: ('A' for Active; 'I' for Inactive)
REMARK    1  A    between atoms: C1_2  and  C2_3 
ROOT
ATOM      1  C2  UNL d   1      -3.346  -3.580  -0.035  0.00  0.00    -0.077 A 
ATOM      2  C3  UNL d   1      -2.707  -4.064  -1.185  0.00  0.00     0.002 A 
ATOM      3  C4  UNL d   1      -3.110  -5.269  -1.763  0.00  0.00     0.002 A 
ATOM      4  C5  UNL d   1      -4.155  -5.999  -1.200  0.00  0.00    -0.004 A 
ATOM      5  C6  UNL d   1      -4.796  -5.527  -0.055  0.00  0.00     0.002 A 
ATOM      6  C7  UNL d   1      -4.394  -4.322   0.524  0.00  0.00     0.002 A 
ENDROOT
BRANCH   1   7
ATOM      7  C1  UNL d   1      -2.946  -2.255   0.560  0.00  0.00     0.055 C 
ATOM      8  C   UNL d   1      -1.653  -2.373   1.354  0.00  0.00     0.019 C 
ENDBRANCH   1   7
TORSDOF 1
ENDMDL
