MODEL 1
REMARK minimizedAffinity 13.4396582
REMARK minimizedRMSD -1
REMARK  1 active torsions:
REMARK  status: ('A' for Active; 'I' for Inactive)
REMARK    1  A    between atoms: C1_2  and  C2_3 
ROOT
ATOM      1  C2  UNL d   1       2.750   1.953  -4.356  0.00  0.00    -0.077 A 
ATOM      2  C3  UNL d   1       2.615   0.571  -4.159  0.00  0.00     0.002 A 
ATOM      3  C4  UNL d   1       2.203   0.070  -2.923  0.00  0.00     0.002 A 
ATOM      4  C5  UNL d   1       1.917   0.944  -1.876  0.00  0.00    -0.004 A 
ATOM      5  C6  UNL d   1       2.049   2.320  -2.061  0.00  0.00     0.002 A 
ATOM      6  C7  UNL d   1       2.463   2.822  -3.295  0.00  0.00     0.002 A 
ENDROOT
BRANCH   1   7
ATOM      7  C1  UNL d   1       3.147   2.497  -5.703  0.00  0.00     0.055 C 
ATOM      8  C   UNL d   1       4.366   3.402  -5.596  0.00  0.00     0.019 C 
ENDBRANCH   1   7
TORSDOF 1
ENDMDL
