MODEL 1
REMARK minimizedAffinity 7.43495178
REMARK minimizedRMSD -1
REMARK  1 active torsions:
REMARK  status: ('A' for Active; 'I' for Inactive)
REMARK    1  A    between atoms: C1_2  and  C2_3 
ROOT
ATOM      1  C2  UNL d   1      -0.784   4.552  -5.681  0.00  0.00    -0.077 A 
ATOM      2  C3  UNL d   1      -0.563   3.219  -5.307  0.00  0.00     0.002 A 
ATOM      3  C4  UNL d   1      -1.627   2.317  -5.247  0.00  0.00     0.002 A 
ATOM      4  C5  UNL d   1      -2.917   2.736  -5.563  0.00  0.00    -0.004 A 
ATOM      5  C6  UNL d   1      -3.148   4.060  -5.934  0.00  0.00     0.002 A 
ATOM      6  C7  UNL d   1      -2.086   4.964  -5.994  0.00  0.00     0.002 A 
ENDROOT
BRANCH   1   7
ATOM      7  C1  UNL d   1       0.369   5.515  -5.795  0.00  0.00     0.055 C 
ATOM      8  C   UNL d   1       1.687   4.779  -5.991  0.00  0.00     0.019 C 
ENDBRANCH   1   7
TORSDOF 1
ENDMDL
