MODEL 1
REMARK minimizedAffinity -1.73219323
REMARK minimizedRMSD -1
REMARK  0 active torsions:
REMARK  status: ('A' for Active; 'I' for Inactive)
ROOT
ATOM      1  C1  BNZ d   1      -1.149   5.999  -4.642  0.00  0.00     0.000 A 
ATOM      2  C2  BNZ d   1      -0.174   5.976  -5.603  0.00  0.00     0.000 A 
ATOM      3  C3  BNZ d   1       1.148   5.940  -5.257  0.00  0.00     0.000 A 
ATOM      4  C4  BNZ d   1       1.494   5.968  -3.954  0.00  0.00     0.000 A 
ATOM      5  C5  BNZ d   1       0.522   6.000  -2.974  0.00  0.00     0.000 A 
ATOM      6  C6  BNZ d   1      -0.808   5.997  -3.324  0.00  0.00     0.000 A 
ENDROOT
TORSDOF 0
ENDMDL
