MODEL 1
REMARK minimizedAffinity 0.0413643643
REMARK minimizedRMSD -1
REMARK  0 active torsions:
REMARK  status: ('A' for Active; 'I' for Inactive)
ROOT
ATOM      1  C1  BNZ d   1       4.287   5.181  -3.867  0.00  0.00     0.000 A 
ATOM      2  C2  BNZ d   1       5.094   4.076  -3.803  0.00  0.00     0.000 A 
ATOM      3  C3  BNZ d   1       5.966   3.787  -4.816  0.00  0.00     0.000 A 
ATOM      4  C4  BNZ d   1       6.000   4.578  -5.907  0.00  0.00     0.000 A 
ATOM      5  C5  BNZ d   1       5.185   5.690  -5.991  0.00  0.00     0.000 A 
ATOM      6  C6  BNZ d   1       4.338   6.000  -4.952  0.00  0.00     0.000 A 
ENDROOT
TORSDOF 0
ENDMDL
