MODEL 1
REMARK minimizedAffinity -3.32158995
REMARK minimizedRMSD -1
REMARK  0 active torsions:
REMARK  status: ('A' for Active; 'I' for Inactive)
ROOT
ATOM      1  C1  BNZ d   1      -0.919  -2.501  -4.328  0.00  0.00     0.000 A 
ATOM      2  C2  BNZ d   1       0.290  -2.821  -3.769  0.00  0.00     0.000 A 
ATOM      3  C3  BNZ d   1       1.416  -2.112  -4.081  0.00  0.00     0.000 A 
ATOM      4  C4  BNZ d   1       1.340  -1.110  -4.981  0.00  0.00     0.000 A 
ATOM      5  C5  BNZ d   1       0.131  -0.781  -5.560  0.00  0.00     0.000 A 
ATOM      6  C6  BNZ d   1      -1.008  -1.472  -5.214  0.00  0.00     0.000 A 
ENDROOT
TORSDOF 0
ENDMDL
