MODEL 1
REMARK minimizedAffinity 0.563303232
REMARK minimizedRMSD -1
REMARK  0 active torsions:
REMARK  status: ('A' for Active; 'I' for Inactive)
ROOT
ATOM      1  C1  BNZ d   1      -3.592   5.937  -2.343  0.00  0.00     0.000 A 
ATOM      2  C2  BNZ d   1      -2.272   5.928  -1.980  0.00  0.00     0.000 A 
ATOM      3  C3  BNZ d   1      -1.286   5.978  -2.925  0.00  0.00     0.000 A 
ATOM      4  C4  BNZ d   1      -1.620   5.998  -4.231  0.00  0.00     0.000 A 
ATOM      5  C5  BNZ d   1      -2.946   5.999  -4.613  0.00  0.00     0.000 A 
ATOM      6  C6  BNZ d   1      -3.937   5.987  -3.658  0.00  0.00     0.000 A 
ENDROOT
TORSDOF 0
ENDMDL
