MODEL 1
REMARK minimizedAffinity -2.65415645
REMARK minimizedRMSD -1
REMARK  0 active torsions:
REMARK  status: ('A' for Active; 'I' for Inactive)
ROOT
ATOM      1  C1  BNZ d   1       3.945   3.626  -4.436  0.00  0.00     0.000 A 
ATOM      2  C2  BNZ d   1       5.273   3.655  -4.103  0.00  0.00     0.000 A 
ATOM      3  C3  BNZ d   1       5.927   4.844  -3.938  0.00  0.00     0.000 A 
ATOM      4  C4  BNZ d   1       5.265   6.000  -4.147  0.00  0.00     0.000 A 
ATOM      5  C5  BNZ d   1       3.929   5.987  -4.493  0.00  0.00     0.000 A 
ATOM      6  C6  BNZ d   1       3.263   4.790  -4.619  0.00  0.00     0.000 A 
ENDROOT
TORSDOF 0
ENDMDL
