MODEL 1
REMARK minimizedAffinity -0.924172521
REMARK minimizedRMSD -1
REMARK  0 active torsions:
REMARK  status: ('A' for Active; 'I' for Inactive)
ROOT
ATOM      1  C1  BNZ d   1      -1.455   5.999  -2.426  0.00  0.00     0.000 A 
ATOM      2  C2  BNZ d   1      -0.089   5.995  -2.525  0.00  0.00     0.000 A 
ATOM      3  C3  BNZ d   1       0.524   6.000  -3.746  0.00  0.00     0.000 A 
ATOM      4  C4  BNZ d   1      -0.227   5.968  -4.866  0.00  0.00     0.000 A 
ATOM      5  C5  BNZ d   1      -1.605   5.962  -4.783  0.00  0.00     0.000 A 
ATOM      6  C6  BNZ d   1      -2.220   5.997  -3.552  0.00  0.00     0.000 A 
ENDROOT
TORSDOF 0
ENDMDL
