MODEL 1
REMARK minimizedAffinity 1.39627135
REMARK minimizedRMSD -1
REMARK  0 active torsions:
REMARK  status: ('A' for Active; 'I' for Inactive)
ROOT
ATOM      1  C1  BNZ d   1       5.184   3.715  -3.766  0.00  0.00     0.000 A 
ATOM      2  C2  BNZ d   1       3.992   3.770  -4.438  0.00  0.00     0.000 A 
ATOM      3  C3  BNZ d   1       3.610   4.907  -5.094  0.00  0.00     0.000 A 
ATOM      4  C4  BNZ d   1       4.401   5.999  -5.043  0.00  0.00     0.000 A 
ATOM      5  C5  BNZ d   1       5.601   5.962  -4.361  0.00  0.00     0.000 A 
ATOM      6  C6  BNZ d   1       6.000   4.803  -3.735  0.00  0.00     0.000 A 
ENDROOT
TORSDOF 0
ENDMDL
