MODEL 1
REMARK minimizedAffinity -1.18597054
REMARK minimizedRMSD -1
REMARK  0 active torsions:
REMARK  status: ('A' for Active; 'I' for Inactive)
ROOT
ATOM      1  C1  BNZ d   1       2.922   6.000  -4.833  0.00  0.00     0.000 A 
ATOM      2  C2  BNZ d   1       2.264   5.979  -3.632  0.00  0.00     0.000 A 
ATOM      3  C3  BNZ d   1       0.898   5.942  -3.583  0.00  0.00     0.000 A 
ATOM      4  C4  BNZ d   1       0.192   5.968  -4.732  0.00  0.00     0.000 A 
ATOM      5  C5  BNZ d   1       0.841   5.998  -5.950  0.00  0.00     0.000 A 
ATOM      6  C6  BNZ d   1       2.216   5.995  -5.997  0.00  0.00     0.000 A 
ENDROOT
TORSDOF 0
ENDMDL
