MODEL 1
REMARK minimizedAffinity 2.79026461
REMARK minimizedRMSD -1
REMARK  0 active torsions:
REMARK  status: ('A' for Active; 'I' for Inactive)
ROOT
ATOM      1  C1  BNZ d   1       1.155   5.974  -4.769  0.00  0.00     0.000 A 
ATOM      2  C2  BNZ d   1       1.868   5.929  -3.601  0.00  0.00     0.000 A 
ATOM      3  C3  BNZ d   1       3.235   5.913  -3.615  0.00  0.00     0.000 A 
ATOM      4  C4  BNZ d   1       3.885   5.901  -4.797  0.00  0.00     0.000 A 
ATOM      5  C5  BNZ d   1       3.180   5.937  -5.983  0.00  0.00     0.000 A 
ATOM      6  C6  BNZ d   1       1.805   5.992  -5.964  0.00  0.00     0.000 A 
ENDROOT
TORSDOF 0
ENDMDL
