MODEL 1
REMARK minimizedAffinity 2.06860924
REMARK minimizedRMSD -1
REMARK  0 active torsions:
REMARK  status: ('A' for Active; 'I' for Inactive)
ROOT
ATOM      1  C1  BNZ d   1      -0.746   5.988  -3.029  0.00  0.00     0.000 A 
ATOM      2  C2  BNZ d   1      -1.127   5.999  -1.714  0.00  0.00     0.000 A 
ATOM      3  C3  BNZ d   1      -2.450   5.983  -1.369  0.00  0.00     0.000 A 
ATOM      4  C4  BNZ d   1      -3.388   5.998  -2.337  0.00  0.00     0.000 A 
ATOM      5  C5  BNZ d   1      -3.019   5.996  -3.668  0.00  0.00     0.000 A 
ATOM      6  C6  BNZ d   1      -1.687   5.972  -4.011  0.00  0.00     0.000 A 
ENDROOT
TORSDOF 0
ENDMDL
