MODEL 1
REMARK minimizedAffinity -1.57715726
REMARK minimizedRMSD -1
REMARK  0 active torsions:
REMARK  status: ('A' for Active; 'I' for Inactive)
ROOT
ATOM      1  C1  BNZ d   1      -1.450   5.995  -4.883  0.00  0.00     0.000 A 
ATOM      2  C2  BNZ d   1      -0.370   5.998  -5.726  0.00  0.00     0.000 A 
ATOM      3  C3  BNZ d   1       0.903   5.977  -5.231  0.00  0.00     0.000 A 
ATOM      4  C4  BNZ d   1       1.096   5.994  -3.896  0.00  0.00     0.000 A 
ATOM      5  C5  BNZ d   1       0.018   6.000  -3.034  0.00  0.00     0.000 A 
ATOM      6  C6  BNZ d   1      -1.263   5.981  -3.536  0.00  0.00     0.000 A 
ENDROOT
TORSDOF 0
ENDMDL
