MODEL 1
REMARK minimizedAffinity -1.45454645
REMARK minimizedRMSD -1
REMARK  0 active torsions:
REMARK  status: ('A' for Active; 'I' for Inactive)
ROOT
ATOM      1  C1  BNZ d   1      -3.582   5.983  -3.100  0.00  0.00     0.000 A 
ATOM      2  C2  BNZ d   1      -2.747   5.716  -2.049  0.00  0.00     0.000 A 
ATOM      3  C3  BNZ d   1      -1.418   5.472  -2.255  0.00  0.00     0.000 A 
ATOM      4  C4  BNZ d   1      -0.934   5.455  -3.514  0.00  0.00     0.000 A 
ATOM      5  C5  BNZ d   1      -1.766   5.713  -4.585  0.00  0.00     0.000 A 
ATOM      6  C6  BNZ d   1      -3.095   5.997  -4.371  0.00  0.00     0.000 A 
ENDROOT
TORSDOF 0
ENDMDL
