MODEL 1
REMARK minimizedAffinity 0.846147418
REMARK minimizedRMSD -1
REMARK  0 active torsions:
REMARK  status: ('A' for Active; 'I' for Inactive)
ROOT
ATOM      1  C1  BNZ d   1       1.299   2.314   1.660  0.00  0.00     0.000 A 
ATOM      2  C2  BNZ d   1       0.724   1.140   2.068  0.00  0.00     0.000 A 
ATOM      3  C3  BNZ d   1       0.040   0.352   1.185  0.00  0.00     0.000 A 
ATOM      4  C4  BNZ d   1      -0.102   0.758  -0.094  0.00  0.00     0.000 A 
ATOM      5  C5  BNZ d   1       0.463   1.944  -0.517  0.00  0.00     0.000 A 
ATOM      6  C6  BNZ d   1       1.184   2.715   0.365  0.00  0.00     0.000 A 
ENDROOT
TORSDOF 0
ENDMDL
