MODEL 1
REMARK minimizedAffinity -0.702545702
REMARK minimizedRMSD -1
REMARK  0 active torsions:
REMARK  status: ('A' for Active; 'I' for Inactive)
ROOT
ATOM      1  C1  BNZ d   1      -2.808   5.968  -2.519  0.00  0.00     0.000 A 
ATOM      2  C2  BNZ d   1      -1.438   5.961  -2.524  0.00  0.00     0.000 A 
ATOM      3  C3  BNZ d   1      -0.742   5.997  -3.699  0.00  0.00     0.000 A 
ATOM      4  C4  BNZ d   1      -1.414   5.999  -4.868  0.00  0.00     0.000 A 
ATOM      5  C5  BNZ d   1      -2.795   5.997  -4.881  0.00  0.00     0.000 A 
ATOM      6  C6  BNZ d   1      -3.493   6.000  -3.695  0.00  0.00     0.000 A 
ENDROOT
TORSDOF 0
ENDMDL
