MODEL 1
REMARK minimizedAffinity 13.5500736
REMARK minimizedRMSD -1
REMARK  0 active torsions:
REMARK  status: ('A' for Active; 'I' for Inactive)
ROOT
ATOM      1  O1  BZF d   1       3.696   4.910   1.131  0.00  0.00    -0.204 OA
ATOM      2  C2  BZF d   1       3.199   3.627   1.001  0.00  0.00     0.174 A 
ATOM      3  C3  BZF d   1       3.714   2.816   1.947  0.00  0.00    -0.012 A 
ATOM      4  C3A BZF d   1       4.517   3.665   2.773  0.00  0.00    -0.107 A 
ATOM      5  C4  BZF d   1       5.273   3.446   3.889  0.00  0.00     0.055 A 
ATOM      6  C5  BZF d   1       5.992   4.474   4.412  0.00  0.00    -0.016 A 
ATOM      7  C6  BZF d   1       5.983   5.730   3.842  0.00  0.00     0.022 A 
ATOM      8  C7  BZF d   1       5.244   5.997   2.737  0.00  0.00     0.029 A 
ATOM      9  C7A BZF d   1       4.490   4.968   2.226  0.00  0.00     0.058 A 
ENDROOT
TORSDOF 0
ENDMDL
