MODEL 1
REMARK minimizedAffinity 7.14224148
REMARK minimizedRMSD -1
REMARK  0 active torsions:
REMARK  status: ('A' for Active; 'I' for Inactive)
ROOT
ATOM      1  O1  BZF d   1       1.137  -3.196   3.669  0.00  0.00    -0.204 OA
ATOM      2  C2  BZF d   1       1.856  -2.980   4.829  0.00  0.00     0.174 A 
ATOM      3  C3  BZF d   1       1.982  -1.660   5.074  0.00  0.00    -0.012 A 
ATOM      4  C3A BZF d   1       1.221  -1.012   4.051  0.00  0.00    -0.107 A 
ATOM      5  C4  BZF d   1       0.950   0.297   3.768  0.00  0.00     0.055 A 
ATOM      6  C5  BZF d   1       0.234   0.597   2.653  0.00  0.00    -0.016 A 
ATOM      7  C6  BZF d   1      -0.221  -0.384   1.796  0.00  0.00     0.022 A 
ATOM      8  C7  BZF d   1       0.019  -1.696   2.038  0.00  0.00     0.029 A 
ATOM      9  C7A BZF d   1       0.714  -2.005   3.181  0.00  0.00     0.058 A 
ENDROOT
TORSDOF 0
ENDMDL
