MODEL 1
REMARK minimizedAffinity 5.41320133
REMARK minimizedRMSD -1
REMARK  0 active torsions:
REMARK  status: ('A' for Active; 'I' for Inactive)
ROOT
ATOM      1  O1  BZF d   1      -1.855   1.391   2.421  0.00  0.00    -0.204 OA
ATOM      2  C2  BZF d   1      -2.734   0.775   1.551  0.00  0.00     0.174 A 
ATOM      3  C3  BZF d   1      -2.250  -0.417   1.147  0.00  0.00    -0.012 A 
ATOM      4  C3A BZF d   1      -1.033  -0.597   1.878  0.00  0.00    -0.107 A 
ATOM      5  C4  BZF d   1      -0.104  -1.596   1.923  0.00  0.00     0.055 A 
ATOM      6  C5  BZF d   1       1.008  -1.431   2.687  0.00  0.00    -0.016 A 
ATOM      7  C6  BZF d   1       1.224  -0.278   3.414  0.00  0.00     0.022 A 
ATOM      8  C7  BZF d   1       0.328   0.739   3.405  0.00  0.00     0.029 A 
ATOM      9  C7A BZF d   1      -0.812   0.560   2.660  0.00  0.00     0.058 A 
ENDROOT
TORSDOF 0
ENDMDL
