MODEL 1
REMARK minimizedAffinity 5.34383249
REMARK minimizedRMSD -1
REMARK  0 active torsions:
REMARK  status: ('A' for Active; 'I' for Inactive)
ROOT
ATOM      1  O1  BZF d   1      -0.780  -4.091  -1.847  0.00  0.00    -0.204 OA
ATOM      2  C2  BZF d   1      -0.700  -2.713  -1.891  0.00  0.00     0.174 A 
ATOM      3  C3  BZF d   1      -0.952  -2.259  -3.136  0.00  0.00    -0.012 A 
ATOM      4  C3A BZF d   1      -1.297  -3.420  -3.897  0.00  0.00    -0.107 A 
ATOM      5  C4  BZF d   1      -1.665  -3.615  -5.198  0.00  0.00     0.055 A 
ATOM      6  C5  BZF d   1      -1.863  -4.883  -5.646  0.00  0.00    -0.016 A 
ATOM      7  C6  BZF d   1      -1.696  -5.978  -4.823  0.00  0.00     0.022 A 
ATOM      8  C7  BZF d   1      -1.337  -5.834  -3.524  0.00  0.00     0.029 A 
ATOM      9  C7A BZF d   1      -1.169  -4.552  -3.060  0.00  0.00     0.058 A 
ENDROOT
TORSDOF 0
ENDMDL
