MODEL 1
REMARK minimizedAffinity 6.84776831
REMARK minimizedRMSD -1
REMARK  0 active torsions:
REMARK  status: ('A' for Active; 'I' for Inactive)
ROOT
ATOM      1  O1  BZF d   1      -1.753  -4.560  -3.940  0.00  0.00    -0.204 OA
ATOM      2  C2  BZF d   1      -1.831  -4.801  -5.298  0.00  0.00     0.174 A 
ATOM      3  C3  BZF d   1      -1.354  -3.752  -5.999  0.00  0.00    -0.012 A 
ATOM      4  C3A BZF d   1      -0.867  -2.833  -5.016  0.00  0.00    -0.107 A 
ATOM      5  C4  BZF d   1      -0.263  -1.611  -5.092  0.00  0.00     0.055 A 
ATOM      6  C5  BZF d   1       0.021  -0.943  -3.943  0.00  0.00    -0.016 A 
ATOM      7  C6  BZF d   1      -0.289  -1.464  -2.704  0.00  0.00     0.022 A 
ATOM      8  C7  BZF d   1      -0.884  -2.675  -2.579  0.00  0.00     0.029 A 
ATOM      9  C7A BZF d   1      -1.143  -3.368  -3.736  0.00  0.00     0.058 A 
ENDROOT
TORSDOF 0
ENDMDL
