MODEL 1
REMARK minimizedAffinity 6.47444391
REMARK minimizedRMSD -1
REMARK  0 active torsions:
REMARK  status: ('A' for Active; 'I' for Inactive)
ROOT
ATOM      1  O1  BZF d   1      -0.867  -3.003  -3.230  0.00  0.00    -0.204 OA
ATOM      2  C2  BZF d   1      -1.435  -2.476  -2.086  0.00  0.00     0.174 A 
ATOM      3  C3  BZF d   1      -1.013  -1.212  -1.881  0.00  0.00    -0.012 A 
ATOM      4  C3A BZF d   1      -0.198  -0.898  -3.015  0.00  0.00    -0.107 A 
ATOM      5  C4  BZF d   1       0.492   0.217  -3.396  0.00  0.00     0.055 A 
ATOM      6  C5  BZF d   1       1.248   0.172  -4.524  0.00  0.00    -0.016 A 
ATOM      7  C6  BZF d   1       1.340  -0.970  -5.292  0.00  0.00     0.022 A 
ATOM      8  C7  BZF d   1       0.670  -2.100  -4.957  0.00  0.00     0.029 A 
ATOM      9  C7A BZF d   1      -0.121  -2.048  -3.835  0.00  0.00     0.058 A 
ENDROOT
TORSDOF 0
ENDMDL
