MODEL 1
REMARK minimizedAffinity 9.2685709
REMARK minimizedRMSD -1
REMARK  0 active torsions:
REMARK  status: ('A' for Active; 'I' for Inactive)
ROOT
ATOM      1  O1  BZF d   1       0.017  -0.274  -2.971  0.00  0.00    -0.204 OA
ATOM      2  C2  BZF d   1       0.296  -0.601  -4.284  0.00  0.00     0.174 A 
ATOM      3  C3  BZF d   1      -0.148  -1.841  -4.573  0.00  0.00    -0.012 A 
ATOM      4  C3A BZF d   1      -0.825  -2.283  -3.392  0.00  0.00    -0.107 A 
ATOM      5  C4  BZF d   1      -1.493  -3.429  -3.066  0.00  0.00     0.055 A 
ATOM      6  C5  BZF d   1      -1.976  -3.575  -1.804  0.00  0.00    -0.016 A 
ATOM      7  C6  BZF d   1      -1.804  -2.600  -0.844  0.00  0.00     0.022 A 
ATOM      8  C7  BZF d   1      -1.153  -1.445  -1.121  0.00  0.00     0.029 A 
ATOM      9  C7A BZF d   1      -0.693  -1.279  -2.405  0.00  0.00     0.058 A 
ENDROOT
TORSDOF 0
ENDMDL
