MODEL 1
REMARK minimizedAffinity 7.05307674
REMARK minimizedRMSD -1
REMARK  0 active torsions:
REMARK  status: ('A' for Active; 'I' for Inactive)
ROOT
ATOM      1  O1  BZF d   1      -0.234  -3.024   4.106  0.00  0.00    -0.204 OA
ATOM      2  C2  BZF d   1       0.913  -3.372   4.792  0.00  0.00     0.174 A 
ATOM      3  C3  BZF d   1       1.874  -2.442   4.620  0.00  0.00    -0.012 A 
ATOM      4  C3A BZF d   1       1.261  -1.405   3.849  0.00  0.00    -0.107 A 
ATOM      5  C4  BZF d   1       1.702  -0.205   3.370  0.00  0.00     0.055 A 
ATOM      6  C5  BZF d   1       0.876   0.539   2.589  0.00  0.00    -0.016 A 
ATOM      7  C6  BZF d   1      -0.395   0.112   2.264  0.00  0.00     0.022 A 
ATOM      8  C7  BZF d   1      -0.879  -1.069   2.720  0.00  0.00     0.029 A 
ATOM      9  C7A BZF d   1      -0.058  -1.808   3.536  0.00  0.00     0.058 A 
ENDROOT
TORSDOF 0
ENDMDL
