MODEL 1
REMARK minimizedAffinity 16.6580658
REMARK minimizedRMSD -1
REMARK  0 active torsions:
REMARK  status: ('A' for Active; 'I' for Inactive)
ROOT
ATOM      1  O1  BZF d   1       3.632  -2.296   4.074  0.00  0.00    -0.204 OA
ATOM      2  C2  BZF d   1       2.478  -2.685   3.421  0.00  0.00     0.174 A 
ATOM      3  C3  BZF d   1       1.911  -1.638   2.787  0.00  0.00    -0.012 A 
ATOM      4  C3A BZF d   1       2.814  -0.546   2.984  0.00  0.00    -0.107 A 
ATOM      5  C4  BZF d   1       2.811   0.759   2.580  0.00  0.00     0.055 A 
ATOM      6  C5  BZF d   1       3.805   1.583   3.003  0.00  0.00    -0.016 A 
ATOM      7  C6  BZF d   1       4.813   1.139   3.833  0.00  0.00     0.022 A 
ATOM      8  C7  BZF d   1       4.861  -0.148   4.256  0.00  0.00     0.029 A 
ATOM      9  C7A BZF d   1       3.876  -0.992   3.804  0.00  0.00     0.058 A 
ENDROOT
TORSDOF 0
ENDMDL
