MODEL 1
REMARK minimizedAffinity 17.3559837
REMARK minimizedRMSD -1
REMARK  0 active torsions:
REMARK  status: ('A' for Active; 'I' for Inactive)
ROOT
ATOM      1  O1  BZF d   1      -0.013  -1.590  -1.575  0.00  0.00    -0.204 OA
ATOM      2  C2  BZF d   1      -1.283  -2.112  -1.724  0.00  0.00     0.174 A 
ATOM      3  C3  BZF d   1      -1.692  -2.017  -3.006  0.00  0.00    -0.012 A 
ATOM      4  C3A BZF d   1      -0.574  -1.482  -3.719  0.00  0.00    -0.107 A 
ATOM      5  C4  BZF d   1      -0.358  -1.173  -5.032  0.00  0.00     0.055 A 
ATOM      6  C5  BZF d   1       0.819  -0.598  -5.390  0.00  0.00    -0.016 A 
ATOM      7  C6  BZF d   1       1.800  -0.312  -4.463  0.00  0.00     0.022 A 
ATOM      8  C7  BZF d   1       1.634  -0.604  -3.150  0.00  0.00     0.029 A 
ATOM      9  C7A BZF d   1       0.458  -1.216  -2.789  0.00  0.00     0.058 A 
ENDROOT
TORSDOF 0
ENDMDL
