MODEL 1
REMARK minimizedAffinity 11.8060598
REMARK minimizedRMSD -1
REMARK  0 active torsions:
REMARK  status: ('A' for Active; 'I' for Inactive)
ROOT
ATOM      1  O1  BZF d   1       1.911  -0.149  -4.430  0.00  0.00    -0.204 OA
ATOM      2  C2  BZF d   1       3.225  -0.427  -4.108  0.00  0.00     0.174 A 
ATOM      3  C3  BZF d   1       3.294  -1.197  -3.003  0.00  0.00    -0.012 A 
ATOM      4  C3A BZF d   1       1.936  -1.491  -2.663  0.00  0.00    -0.107 A 
ATOM      5  C4  BZF d   1       1.354  -2.227  -1.671  0.00  0.00     0.055 A 
ATOM      6  C5  BZF d   1      -0.001  -2.253  -1.576  0.00  0.00    -0.016 A 
ATOM      7  C6  BZF d   1      -0.804  -1.551  -2.451  0.00  0.00     0.022 A 
ATOM      8  C7  BZF d   1      -0.273  -0.811  -3.455  0.00  0.00     0.029 A 
ATOM      9  C7A BZF d   1       1.095  -0.810  -3.574  0.00  0.00     0.058 A 
ENDROOT
TORSDOF 0
ENDMDL
