MODEL 1
REMARK minimizedAffinity 0.774180353
REMARK minimizedRMSD -1
REMARK  2 active torsions:
REMARK  status: ('A' for Active; 'I' for Inactive)
REMARK    1  A    between atoms: C2'_3  and  C1'_4 
REMARK    2  A    between atoms: C1'_4  and  C1_5 
ROOT
ATOM      1  C1  I4B d   1      -2.317   1.485  -3.226  0.00  0.00    -0.075 A 
ATOM      2  C2  I4B d   1      -2.719   1.829  -1.959  0.00  0.00     0.003 A 
ATOM      3  C3  I4B d   1      -3.973   1.394  -1.466  0.00  0.00     0.002 A 
ATOM      4  C4  I4B d   1      -4.810   0.665  -2.286  0.00  0.00    -0.004 A 
ATOM      5  C5  I4B d   1      -4.391   0.297  -3.562  0.00  0.00     0.002 A 
ATOM      6  C6  I4B d   1      -3.132   0.699  -4.031  0.00  0.00     0.003 A 
ENDROOT
BRANCH   1   7
ATOM      7  C1' I4B d   1      -1.001   1.989  -3.726  0.00  0.00     0.060 C 
BRANCH   7   8
ATOM      8  C2' I4B d   1      -1.118   3.486  -3.922  0.00  0.00    -0.013 C 
ATOM      9  C4' I4B d   1       0.143   4.192  -3.496  0.00  0.00     0.013 C 
ATOM     10  C3' I4B d   1      -1.420   3.742  -5.368  0.00  0.00     0.013 C 
ENDBRANCH   7   8
ENDBRANCH   1   7
TORSDOF 2
ENDMDL
