MODEL 1
REMARK minimizedAffinity -2.40308666
REMARK minimizedRMSD -1
REMARK  2 active torsions:
REMARK  status: ('A' for Active; 'I' for Inactive)
REMARK    1  A    between atoms: C2'_3  and  C1'_4 
REMARK    2  A    between atoms: C1'_4  and  C1_5 
ROOT
ATOM      1  C1  I4B d   1       1.846  -1.311   1.723  0.00  0.00    -0.075 A 
ATOM      2  C2  I4B d   1       0.774  -0.540   1.348  0.00  0.00     0.003 A 
ATOM      3  C3  I4B d   1       0.841   0.252   0.177  0.00  0.00     0.002 A 
ATOM      4  C4  I4B d   1       2.009   0.282  -0.558  0.00  0.00    -0.004 A 
ATOM      5  C5  I4B d   1       3.086  -0.518  -0.189  0.00  0.00     0.002 A 
ATOM      6  C6  I4B d   1       3.000  -1.329   0.952  0.00  0.00     0.003 A 
ENDROOT
BRANCH   1   7
ATOM      7  C1' I4B d   1       1.753  -2.110   2.984  0.00  0.00     0.060 C 
BRANCH   7   8
ATOM      8  C2' I4B d   1       1.403  -1.161   4.113  0.00  0.00    -0.013 C 
ATOM      9  C4' I4B d   1       0.583  -1.852   5.171  0.00  0.00     0.013 C 
ATOM     10  C3' I4B d   1       2.684  -0.629   4.683  0.00  0.00     0.013 C 
ENDBRANCH   7   8
ENDBRANCH   1   7
TORSDOF 2
ENDMDL
