MODEL 1
REMARK minimizedAffinity -2.52857327
REMARK minimizedRMSD -1
REMARK  2 active torsions:
REMARK  status: ('A' for Active; 'I' for Inactive)
REMARK    1  A    between atoms: C2'_3  and  C1'_4 
REMARK    2  A    between atoms: C1'_4  and  C1_5 
ROOT
ATOM      1  C1  I4B d   1       2.701  -0.824   1.800  0.00  0.00    -0.075 A 
ATOM      2  C2  I4B d   1       1.489  -0.802   2.444  0.00  0.00     0.003 A 
ATOM      3  C3  I4B d   1       1.434  -0.766   3.858  0.00  0.00     0.002 A 
ATOM      4  C4  I4B d   1       2.606  -0.803   4.585  0.00  0.00    -0.004 A 
ATOM      5  C5  I4B d   1       3.834  -0.802   3.931  0.00  0.00     0.002 A 
ATOM      6  C6  I4B d   1       3.883  -0.800   2.529  0.00  0.00     0.003 A 
ENDROOT
BRANCH   1   7
ATOM      7  C1' I4B d   1       2.723  -0.895   0.306  0.00  0.00     0.060 C 
BRANCH   7   8
ATOM      8  C2' I4B d   1       1.954   0.296  -0.229  0.00  0.00    -0.013 C 
ATOM      9  C4' I4B d   1       2.849   1.212  -1.021  0.00  0.00     0.013 C 
ATOM     10  C3' I4B d   1       0.827  -0.222  -1.073  0.00  0.00     0.013 C 
ENDBRANCH   7   8
ENDBRANCH   1   7
TORSDOF 2
ENDMDL
