MODEL 1
REMARK minimizedAffinity -0.402038425
REMARK minimizedRMSD -1
REMARK  2 active torsions:
REMARK  status: ('A' for Active; 'I' for Inactive)
REMARK    1  A    between atoms: C2'_3  and  C1'_4 
REMARK    2  A    between atoms: C1'_4  and  C1_5 
ROOT
ATOM      1  C1  I4B d   1       1.745  -1.605   1.880  0.00  0.00    -0.075 A 
ATOM      2  C2  I4B d   1       0.676  -1.332   1.063  0.00  0.00     0.003 A 
ATOM      3  C3  I4B d   1       0.851  -0.545  -0.101  0.00  0.00     0.002 A 
ATOM      4  C4  I4B d   1       2.093  -0.013  -0.381  0.00  0.00    -0.004 A 
ATOM      5  C5  I4B d   1       3.180  -0.310   0.435  0.00  0.00     0.002 A 
ATOM      6  C6  I4B d   1       3.008  -1.121   1.567  0.00  0.00     0.003 A 
ENDROOT
BRANCH   1   7
ATOM      7  C1' I4B d   1       1.518  -2.412   3.119  0.00  0.00     0.060 C 
BRANCH   7   8
ATOM      8  C2' I4B d   1       1.430  -1.454   4.290  0.00  0.00    -0.013 C 
ATOM      9  C4' I4B d   1       0.490  -1.971   5.347  0.00  0.00     0.013 C 
ATOM     10  C3' I4B d   1       2.812  -1.267   4.839  0.00  0.00     0.013 C 
ENDBRANCH   7   8
ENDBRANCH   1   7
TORSDOF 2
ENDMDL
