MODEL 1
REMARK minimizedAffinity 7.46189737
REMARK minimizedRMSD -1
REMARK  2 active torsions:
REMARK  status: ('A' for Active; 'I' for Inactive)
REMARK    1  A    between atoms: C2'_3  and  C1'_4 
REMARK    2  A    between atoms: C1'_4  and  C1_5 
ROOT
ATOM      1  C1  I4B d   1       0.531   0.305  -1.620  0.00  0.00    -0.075 A 
ATOM      2  C2  I4B d   1      -0.005  -0.917  -1.299  0.00  0.00     0.003 A 
ATOM      3  C3  I4B d   1       0.299  -1.525  -0.057  0.00  0.00     0.002 A 
ATOM      4  C4  I4B d   1       1.179  -0.904   0.806  0.00  0.00    -0.004 A 
ATOM      5  C5  I4B d   1       1.704   0.345   0.488  0.00  0.00     0.002 A 
ATOM      6  C6  I4B d   1       1.368   0.960  -0.727  0.00  0.00     0.003 A 
ENDROOT
BRANCH   1   7
ATOM      7  C1' I4B d   1       0.214   0.903  -2.955  0.00  0.00     0.060 C 
BRANCH   7   8
ATOM      8  C2' I4B d   1      -0.807   2.002  -2.743  0.00  0.00    -0.013 C 
ATOM      9  C4' I4B d   1      -0.470   3.223  -3.556  0.00  0.00     0.013 C 
ATOM     10  C3' I4B d   1      -2.155   1.459  -3.114  0.00  0.00     0.013 C 
ENDBRANCH   7   8
ENDBRANCH   1   7
TORSDOF 2
ENDMDL
