MODEL 1
REMARK minimizedAffinity 4.02900743
REMARK minimizedRMSD -1
REMARK  2 active torsions:
REMARK  status: ('A' for Active; 'I' for Inactive)
REMARK    1  A    between atoms: C2'_3  and  C1'_4 
REMARK    2  A    between atoms: C1'_4  and  C1_5 
ROOT
ATOM      1  C1  I4B d   1       2.421  -0.904   1.296  0.00  0.00    -0.075 A 
ATOM      2  C2  I4B d   1       3.637  -0.426   0.875  0.00  0.00     0.003 A 
ATOM      3  C3  I4B d   1       4.732  -0.375   1.770  0.00  0.00     0.002 A 
ATOM      4  C4  I4B d   1       4.556  -0.763   3.083  0.00  0.00    -0.004 A 
ATOM      5  C5  I4B d   1       3.329  -1.269   3.503  0.00  0.00     0.002 A 
ATOM      6  C6  I4B d   1       2.258  -1.352   2.601  0.00  0.00     0.003 A 
ENDROOT
BRANCH   1   7
ATOM      7  C1' I4B d   1       1.277  -0.913   0.333  0.00  0.00     0.060 C 
BRANCH   7   8
ATOM      8  C2' I4B d   1       0.315   0.185   0.741  0.00  0.00    -0.013 C 
ATOM      9  C4' I4B d   1       0.577   1.452  -0.030  0.00  0.00     0.013 C 
ATOM     10  C3' I4B d   1      -1.080  -0.313   0.508  0.00  0.00     0.013 C 
ENDBRANCH   7   8
ENDBRANCH   1   7
TORSDOF 2
ENDMDL
