MODEL 1
REMARK minimizedAffinity 7.3735404
REMARK minimizedRMSD -1
REMARK  2 active torsions:
REMARK  status: ('A' for Active; 'I' for Inactive)
REMARK    1  A    between atoms: C2'_3  and  C1'_4 
REMARK    2  A    between atoms: C1'_4  and  C1_5 
ROOT
ATOM      1  C1  I4B d   1       2.065   1.112   0.131  0.00  0.00    -0.075 A 
ATOM      2  C2  I4B d   1       1.526   2.333   0.450  0.00  0.00     0.003 A 
ATOM      3  C3  I4B d   1       2.262   3.520   0.219  0.00  0.00     0.002 A 
ATOM      4  C4  I4B d   1       3.545   3.436  -0.282  0.00  0.00    -0.004 A 
ATOM      5  C5  I4B d   1       4.082   2.199  -0.627  0.00  0.00     0.002 A 
ATOM      6  C6  I4B d   1       3.332   1.030  -0.430  0.00  0.00     0.003 A 
ENDROOT
BRANCH   1   7
ATOM      7  C1' I4B d   1       1.272  -0.123   0.419  0.00  0.00     0.060 C 
BRANCH   7   8
ATOM      8  C2' I4B d   1       0.018  -0.082  -0.430  0.00  0.00    -0.013 C 
ATOM      9  C4' I4B d   1       0.354   0.011  -1.895  0.00  0.00     0.013 C 
ATOM     10  C3' I4B d   1      -0.782  -1.316  -0.136  0.00  0.00     0.013 C 
ENDBRANCH   7   8
ENDBRANCH   1   7
TORSDOF 2
ENDMDL
