MODEL 1
REMARK minimizedAffinity 0.885988116
REMARK minimizedRMSD -1
REMARK  2 active torsions:
REMARK  status: ('A' for Active; 'I' for Inactive)
REMARK    1  A    between atoms: C2'_3  and  C1'_4 
REMARK    2  A    between atoms: C1'_4  and  C1_5 
ROOT
ATOM      1  C1  I4B d   1       2.727  -0.828   1.188  0.00  0.00    -0.075 A 
ATOM      2  C2  I4B d   1       4.092  -0.867   1.044  0.00  0.00     0.003 A 
ATOM      3  C3  I4B d   1       4.923  -1.052   2.176  0.00  0.00     0.002 A 
ATOM      4  C4  I4B d   1       4.353  -1.144   3.429  0.00  0.00    -0.004 A 
ATOM      5  C5  I4B d   1       2.968  -1.127   3.570  0.00  0.00     0.002 A 
ATOM      6  C6  I4B d   1       2.149  -0.981   2.441  0.00  0.00     0.003 A 
ENDROOT
BRANCH   1   7
ATOM      7  C1' I4B d   1       1.882  -0.598  -0.025  0.00  0.00     0.060 C 
BRANCH   7   8
ATOM      8  C2' I4B d   1       0.450  -0.409   0.434  0.00  0.00    -0.013 C 
ATOM      9  C4' I4B d   1      -0.214   0.724  -0.303  0.00  0.00     0.013 C 
ATOM     10  C3' I4B d   1      -0.281  -1.700   0.215  0.00  0.00     0.013 C 
ENDBRANCH   7   8
ENDBRANCH   1   7
TORSDOF 2
ENDMDL
