MODEL 1
REMARK minimizedAffinity -0.0999584123
REMARK minimizedRMSD -1
REMARK  2 active torsions:
REMARK  status: ('A' for Active; 'I' for Inactive)
REMARK    1  A    between atoms: C2'_3  and  C1'_4 
REMARK    2  A    between atoms: C1'_4  and  C1_5 
ROOT
ATOM      1  C1  I4B d   1       3.024   1.901  -0.207  0.00  0.00    -0.075 A 
ATOM      2  C2  I4B d   1       1.780   2.413   0.061  0.00  0.00     0.003 A 
ATOM      3  C3  I4B d   1       1.634   3.770   0.440  0.00  0.00     0.002 A 
ATOM      4  C4  I4B d   1       2.756   4.559   0.588  0.00  0.00    -0.004 A 
ATOM      5  C5  I4B d   1       4.016   4.043   0.294  0.00  0.00     0.002 A 
ATOM      6  C6  I4B d   1       4.150   2.709  -0.118  0.00  0.00     0.003 A 
ENDROOT
BRANCH   1   7
ATOM      7  C1' I4B d   1       3.145   0.455  -0.573  0.00  0.00     0.060 C 
BRANCH   7   8
ATOM      8  C2' I4B d   1       2.218  -0.334   0.329  0.00  0.00    -0.013 C 
ATOM      9  C4' I4B d   1       1.022  -0.844  -0.430  0.00  0.00     0.013 C 
ATOM     10  C3' I4B d   1       3.004  -1.464   0.925  0.00  0.00     0.013 C 
ENDBRANCH   7   8
ENDBRANCH   1   7
TORSDOF 2
ENDMDL
