MODEL 1
REMARK minimizedAffinity 4.02149343
REMARK minimizedRMSD -1
REMARK  1 active torsions:
REMARK  status: ('A' for Active; 'I' for Inactive)
REMARK    1  A    between atoms: C1_2  and  C2_3 
ROOT
ATOM      1  C2  UNL d   1       1.226   1.645  -0.965  0.00  0.00    -0.077 A 
ATOM      2  C3  UNL d   1      -0.154   1.682  -0.721  0.00  0.00     0.002 A 
ATOM      3  C4  UNL d   1      -0.638   2.020   0.544  0.00  0.00     0.002 A 
ATOM      4  C5  UNL d   1       0.249   2.328   1.573  0.00  0.00    -0.004 A 
ATOM      5  C6  UNL d   1       1.624   2.292   1.340  0.00  0.00     0.002 A 
ATOM      6  C7  UNL d   1       2.110   1.953   0.077  0.00  0.00     0.002 A 
ENDROOT
BRANCH   1   7
ATOM      7  C1  UNL d   1       1.750   1.329  -2.342  0.00  0.00     0.055 C 
ATOM      8  C   UNL d   1       2.820   0.248  -2.292  0.00  0.00     0.019 C 
ENDBRANCH   1   7
TORSDOF 1
ENDMDL
