MODEL 1
REMARK minimizedAffinity 0.216042623
REMARK minimizedRMSD -1
REMARK  1 active torsions:
REMARK  status: ('A' for Active; 'I' for Inactive)
REMARK    1  A    between atoms: C1_2  and  C2_3 
ROOT
ATOM      1  C2  UNL d   1      -5.371   0.913   4.000  0.00  0.00    -0.077 A 
ATOM      2  C3  UNL d   1      -4.187   0.270   3.611  0.00  0.00     0.002 A 
ATOM      3  C4  UNL d   1      -3.630  -0.729   4.412  0.00  0.00     0.002 A 
ATOM      4  C5  UNL d   1      -4.252  -1.096   5.603  0.00  0.00    -0.004 A 
ATOM      5  C6  UNL d   1      -5.428  -0.461   6.000  0.00  0.00     0.002 A 
ATOM      6  C7  UNL d   1      -5.986   0.538   5.202  0.00  0.00     0.002 A 
ENDROOT
BRANCH   1   7
ATOM      7  C1  UNL d   1      -6.000   1.956   3.114  0.00  0.00     0.055 C 
ATOM      8  C   UNL d   1      -5.989   3.326   3.777  0.00  0.00     0.019 C 
ENDBRANCH   1   7
TORSDOF 1
ENDMDL
