MODEL 1
REMARK minimizedAffinity -0.986494362
REMARK minimizedRMSD -1
REMARK  1 active torsions:
REMARK  status: ('A' for Active; 'I' for Inactive)
REMARK    1  A    between atoms: C1_2  and  C2_3 
ROOT
ATOM      1  C2  UNL d   1      -3.699   0.894   4.899  0.00  0.00    -0.077 A 
ATOM      2  C3  UNL d   1      -4.808   0.268   4.313  0.00  0.00     0.002 A 
ATOM      3  C4  UNL d   1      -4.629  -0.731   3.353  0.00  0.00     0.002 A 
ATOM      4  C5  UNL d   1      -3.345  -1.114   2.975  0.00  0.00    -0.004 A 
ATOM      5  C6  UNL d   1      -2.235  -0.496   3.550  0.00  0.00     0.002 A 
ATOM      6  C7  UNL d   1      -2.412   0.503   4.509  0.00  0.00     0.002 A 
ENDROOT
BRANCH   1   7
ATOM      7  C1  UNL d   1      -3.889   1.936   5.970  0.00  0.00     0.055 C 
ATOM      8  C   UNL d   1      -3.759   3.342   5.403  0.00  0.00     0.019 C 
ENDBRANCH   1   7
TORSDOF 1
ENDMDL
