MODEL 1
REMARK minimizedAffinity 2.75507903
REMARK minimizedRMSD -1
REMARK  1 active torsions:
REMARK  status: ('A' for Active; 'I' for Inactive)
REMARK    1  A    between atoms: C1_2  and  C2_3 
ROOT
ATOM      1  C2  UNL d   1       0.931  -0.390  -2.774  0.00  0.00    -0.077 A 
ATOM      2  C3  UNL d   1       0.783  -0.885  -4.077  0.00  0.00     0.002 A 
ATOM      3  C4  UNL d   1       0.714  -2.261  -4.306  0.00  0.00     0.002 A 
ATOM      4  C5  UNL d   1       0.789  -3.151  -3.237  0.00  0.00    -0.004 A 
ATOM      5  C6  UNL d   1       0.939  -2.668  -1.937  0.00  0.00     0.002 A 
ATOM      6  C7  UNL d   1       1.009  -1.294  -1.707  0.00  0.00     0.002 A 
ENDROOT
BRANCH   1   7
ATOM      7  C1  UNL d   1       0.956   1.095  -2.520  0.00  0.00     0.055 C 
ATOM      8  C   UNL d   1       1.182   1.873  -3.808  0.00  0.00     0.019 C 
ENDBRANCH   1   7
TORSDOF 1
ENDMDL
