MODEL 1
REMARK minimizedAffinity 2.41910601
REMARK minimizedRMSD -1
REMARK  1 active torsions:
REMARK  status: ('A' for Active; 'I' for Inactive)
REMARK    1  A    between atoms: C1_2  and  C2_3 
ROOT
ATOM      1  C2  UNL d   1       2.433  -0.812  -1.915  0.00  0.00    -0.077 A 
ATOM      2  C3  UNL d   1       1.404  -1.646  -2.376  0.00  0.00     0.002 A 
ATOM      3  C4  UNL d   1       1.109  -2.837  -1.710  0.00  0.00     0.002 A 
ATOM      4  C5  UNL d   1       1.834  -3.203  -0.578  0.00  0.00    -0.004 A 
ATOM      5  C6  UNL d   1       2.860  -2.381  -0.113  0.00  0.00     0.002 A 
ATOM      6  C7  UNL d   1       3.158  -1.191  -0.778  0.00  0.00     0.002 A 
ENDROOT
BRANCH   1   7
ATOM      7  C1  UNL d   1       2.720   0.497  -2.603  0.00  0.00     0.055 C 
ATOM      8  C   UNL d   1       1.521   1.431  -2.538  0.00  0.00     0.019 C 
ENDBRANCH   1   7
TORSDOF 1
ENDMDL
