MODEL 1
REMARK minimizedAffinity 4.07837725
REMARK minimizedRMSD -1
REMARK  1 active torsions:
REMARK  status: ('A' for Active; 'I' for Inactive)
REMARK    1  A    between atoms: C1_2  and  C2_3 
ROOT
ATOM      1  C2  UNL d   1       1.412  -1.182  -2.658  0.00  0.00    -0.077 A 
ATOM      2  C3  UNL d   1       1.144  -0.171  -3.591  0.00  0.00     0.002 A 
ATOM      3  C4  UNL d   1       1.716   1.095  -3.445  0.00  0.00     0.002 A 
ATOM      4  C5  UNL d   1       2.562   1.359  -2.370  0.00  0.00    -0.004 A 
ATOM      5  C6  UNL d   1       2.832   0.360  -1.435  0.00  0.00     0.002 A 
ATOM      6  C7  UNL d   1       2.260  -0.905  -1.578  0.00  0.00     0.002 A 
ENDROOT
BRANCH   1   7
ATOM      7  C1  UNL d   1       0.835  -2.561  -2.840  0.00  0.00     0.055 C 
ATOM      8  C   UNL d   1      -0.537  -2.678  -2.193  0.00  0.00     0.019 C 
ENDBRANCH   1   7
TORSDOF 1
ENDMDL
