MODEL 1
REMARK minimizedAffinity -2.54464197
REMARK minimizedRMSD -1
REMARK  1 active torsions:
REMARK  status: ('A' for Active; 'I' for Inactive)
REMARK    1  A    between atoms: C1_2  and  C2_3 
ROOT
ATOM      1  C2  UNL d   1       1.556   1.957  -1.422  0.00  0.00    -0.077 A 
ATOM      2  C3  UNL d   1       2.237   2.201  -0.221  0.00  0.00     0.002 A 
ATOM      3  C4  UNL d   1       1.530   2.367   0.971  0.00  0.00     0.002 A 
ATOM      4  C5  UNL d   1       0.139   2.287   0.975  0.00  0.00    -0.004 A 
ATOM      5  C6  UNL d   1      -0.548   2.047  -0.215  0.00  0.00     0.002 A 
ATOM      6  C7  UNL d   1       0.158   1.882  -1.407  0.00  0.00     0.002 A 
ENDROOT
BRANCH   1   7
ATOM      7  C1  UNL d   1       2.320   1.729  -2.700  0.00  0.00     0.055 C 
ATOM      8  C   UNL d   1       1.458   2.019  -3.919  0.00  0.00     0.019 C 
ENDBRANCH   1   7
TORSDOF 1
ENDMDL
