MODEL 1
REMARK minimizedAffinity 4.64357138
REMARK minimizedRMSD -1
REMARK  1 active torsions:
REMARK  status: ('A' for Active; 'I' for Inactive)
REMARK    1  A    between atoms: C1_2  and  C2_3 
ROOT
ATOM      1  C2  UNL d   1       2.255  -0.204  -2.274  0.00  0.00    -0.077 A 
ATOM      2  C3  UNL d   1       1.215  -0.991  -2.788  0.00  0.00     0.002 A 
ATOM      3  C4  UNL d   1       0.918  -2.230  -2.218  0.00  0.00     0.002 A 
ATOM      4  C5  UNL d   1       1.653  -2.691  -1.128  0.00  0.00    -0.004 A 
ATOM      5  C6  UNL d   1       2.691  -1.917  -0.610  0.00  0.00     0.002 A 
ATOM      6  C7  UNL d   1       2.990  -0.679  -1.180  0.00  0.00     0.002 A 
ENDROOT
BRANCH   1   7
ATOM      7  C1  UNL d   1       2.545   1.154  -2.857  0.00  0.00     0.055 C 
ATOM      8  C   UNL d   1       1.460   1.580  -3.835  0.00  0.00     0.019 C 
ENDBRANCH   1   7
TORSDOF 1
ENDMDL
