MODEL 1
REMARK minimizedAffinity 4.72072077
REMARK minimizedRMSD -1
REMARK  1 active torsions:
REMARK  status: ('A' for Active; 'I' for Inactive)
REMARK    1  A    between atoms: C1_2  and  C2_3 
ROOT
ATOM      1  C2  UNL d   1       1.704   0.684  -1.993  0.00  0.00    -0.077 A 
ATOM      2  C3  UNL d   1       2.578  -0.391  -1.780  0.00  0.00     0.002 A 
ATOM      3  C4  UNL d   1       2.096  -1.607  -1.293  0.00  0.00     0.002 A 
ATOM      4  C5  UNL d   1       0.738  -1.761  -1.018  0.00  0.00    -0.004 A 
ATOM      5  C6  UNL d   1      -0.138  -0.697  -1.224  0.00  0.00     0.002 A 
ATOM      6  C7  UNL d   1       0.342   0.520  -1.710  0.00  0.00     0.002 A 
ENDROOT
BRANCH   1   7
ATOM      7  C1  UNL d   1       2.214   1.981  -2.565  0.00  0.00     0.055 C 
ATOM      8  C   UNL d   1       1.110   2.742  -3.283  0.00  0.00     0.019 C 
ENDBRANCH   1   7
TORSDOF 1
ENDMDL
