MODEL 1
REMARK minimizedAffinity 2.41178942
REMARK minimizedRMSD -1
REMARK  1 active torsions:
REMARK  status: ('A' for Active; 'I' for Inactive)
REMARK    1  A    between atoms: C1_2  and  C2_3 
ROOT
ATOM      1  C2  UNL d   1       1.247   1.949   0.233  0.00  0.00    -0.077 A 
ATOM      2  C3  UNL d   1       2.171   1.496  -0.719  0.00  0.00     0.002 A 
ATOM      3  C4  UNL d   1       1.739   1.076  -1.979  0.00  0.00     0.002 A 
ATOM      4  C5  UNL d   1       0.383   1.110  -2.299  0.00  0.00    -0.004 A 
ATOM      5  C6  UNL d   1      -0.544   1.557  -1.358  0.00  0.00     0.002 A 
ATOM      6  C7  UNL d   1      -0.114   1.975  -0.098  0.00  0.00     0.002 A 
ENDROOT
BRANCH   1   7
ATOM      7  C1  UNL d   1       1.716   2.448   1.575  0.00  0.00     0.055 C 
ATOM      8  C   UNL d   1       2.972   1.718   2.029  0.00  0.00     0.019 C 
ENDBRANCH   1   7
TORSDOF 1
ENDMDL
