MODEL 1
REMARK minimizedAffinity 5.24656916
REMARK minimizedRMSD -1
REMARK  1 active torsions:
REMARK  status: ('A' for Active; 'I' for Inactive)
REMARK    1  A    between atoms: C1_2  and  C2_3 
ROOT
ATOM      1  C2  UNL d   1      -0.096  -1.977  -1.223  0.00  0.00    -0.077 A 
ATOM      2  C3  UNL d   1       0.555  -0.829  -1.697  0.00  0.00     0.002 A 
ATOM      3  C4  UNL d   1       1.879  -0.569  -1.338  0.00  0.00     0.002 A 
ATOM      4  C5  UNL d   1       2.564  -1.453  -0.507  0.00  0.00    -0.004 A 
ATOM      5  C6  UNL d   1       1.924  -2.597  -0.029  0.00  0.00     0.002 A 
ATOM      6  C7  UNL d   1       0.601  -2.858  -0.386  0.00  0.00     0.002 A 
ENDROOT
BRANCH   1   7
ATOM      7  C1  UNL d   1      -1.508  -2.285  -1.649  0.00  0.00     0.055 C 
ATOM      8  C   UNL d   1      -2.503  -1.340  -0.991  0.00  0.00     0.019 C 
ENDBRANCH   1   7
TORSDOF 1
ENDMDL
