MODEL 1
REMARK minimizedAffinity 0.921353757
REMARK minimizedRMSD -1
REMARK  1 active torsions:
REMARK  status: ('A' for Active; 'I' for Inactive)
REMARK    1  A    between atoms: C1_2  and  C2_3 
ROOT
ATOM      1  C2  UNL d   1       2.343  -0.276  -1.752  0.00  0.00    -0.077 A 
ATOM      2  C3  UNL d   1       3.222   0.202  -2.734  0.00  0.00     0.002 A 
ATOM      3  C4  UNL d   1       3.033   1.467  -3.295  0.00  0.00     0.002 A 
ATOM      4  C5  UNL d   1       1.971   2.265  -2.877  0.00  0.00    -0.004 A 
ATOM      5  C6  UNL d   1       1.091   1.798  -1.901  0.00  0.00     0.002 A 
ATOM      6  C7  UNL d   1       1.276   0.533  -1.341  0.00  0.00     0.002 A 
ENDROOT
BRANCH   1   7
ATOM      7  C1  UNL d   1       2.573  -1.620  -1.110  0.00  0.00     0.055 C 
ATOM      8  C   UNL d   1       1.336  -2.500  -1.211  0.00  0.00     0.019 C 
ENDBRANCH   1   7
TORSDOF 1
ENDMDL
