MODEL 1
REMARK minimizedAffinity 6.40333796
REMARK minimizedRMSD -1
REMARK  2 active torsions:
REMARK  status: ('A' for Active; 'I' for Inactive)
REMARK    1  A    between atoms: C2'_3  and  C1'_4 
REMARK    2  A    between atoms: C1'_4  and  C1_5 
ROOT
ATOM      1  C1  I4B d   1      -0.835  -0.340   1.083  0.00  0.00    -0.075 A 
ATOM      2  C2  I4B d   1      -2.019  -0.127   0.422  0.00  0.00     0.003 A 
ATOM      3  C3  I4B d   1      -2.061  -0.159  -0.993  0.00  0.00     0.002 A 
ATOM      4  C4  I4B d   1      -0.894  -0.355  -1.704  0.00  0.00    -0.004 A 
ATOM      5  C5  I4B d   1       0.301  -0.593  -1.032  0.00  0.00     0.002 A 
ATOM      6  C6  I4B d   1       0.329  -0.598   0.370  0.00  0.00     0.003 A 
ENDROOT
BRANCH   1   7
ATOM      7  C1' I4B d   1      -0.820  -0.267   2.577  0.00  0.00     0.060 C 
BRANCH   7   8
ATOM      8  C2' I4B d   1      -0.482  -1.645   3.108  0.00  0.00    -0.013 C 
ATOM      9  C4' I4B d   1      -1.672  -2.566   3.032  0.00  0.00     0.013 C 
ATOM     10  C3' I4B d   1       0.668  -2.180   2.309  0.00  0.00     0.013 C 
ENDBRANCH   7   8
ENDBRANCH   1   7
TORSDOF 2
ENDMDL
