MODEL 1
REMARK minimizedAffinity 0.377611786
REMARK minimizedRMSD -1
REMARK  2 active torsions:
REMARK  status: ('A' for Active; 'I' for Inactive)
REMARK    1  A    between atoms: C2'_3  and  C1'_4 
REMARK    2  A    between atoms: C1'_4  and  C1_5 
ROOT
ATOM      1  C1  I4B d   1      -0.095  -2.503   2.600  0.00  0.00    -0.075 A 
ATOM      2  C2  I4B d   1      -1.012  -3.348   3.172  0.00  0.00     0.003 A 
ATOM      3  C3  I4B d   1      -0.794  -4.747   3.164  0.00  0.00     0.002 A 
ATOM      4  C4  I4B d   1       0.323  -5.257   2.534  0.00  0.00    -0.004 A 
ATOM      5  C5  I4B d   1       1.263  -4.397   1.975  0.00  0.00     0.002 A 
ATOM      6  C6  I4B d   1       1.060  -3.010   2.019  0.00  0.00     0.003 A 
ENDROOT
BRANCH   1   7
ATOM      7  C1' I4B d   1      -0.373  -1.033   2.598  0.00  0.00     0.060 C 
BRANCH   7   8
ATOM      8  C2' I4B d   1      -0.833  -0.648   1.206  0.00  0.00    -0.013 C 
ATOM      9  C4' I4B d   1      -1.955   0.355   1.261  0.00  0.00     0.013 C 
ATOM     10  C3' I4B d   1       0.349  -0.098   0.464  0.00  0.00     0.013 C 
ENDBRANCH   7   8
ENDBRANCH   1   7
TORSDOF 2
ENDMDL
