MODEL 1
REMARK minimizedAffinity -1.50378633
REMARK minimizedRMSD -1
REMARK  2 active torsions:
REMARK  status: ('A' for Active; 'I' for Inactive)
REMARK    1  A    between atoms: C2'_3  and  C1'_4 
REMARK    2  A    between atoms: C1'_4  and  C1_5 
ROOT
ATOM      1  C1  I4B d   1       0.513  -2.222   2.806  0.00  0.00    -0.075 A 
ATOM      2  C2  I4B d   1       0.686  -1.401   1.720  0.00  0.00     0.003 A 
ATOM      3  C3  I4B d   1      -0.413  -0.687   1.184  0.00  0.00     0.002 A 
ATOM      4  C4  I4B d   1      -1.668  -0.861   1.731  0.00  0.00    -0.004 A 
ATOM      5  C5  I4B d   1      -1.837  -1.676   2.846  0.00  0.00     0.002 A 
ATOM      6  C6  I4B d   1      -0.737  -2.352   3.395  0.00  0.00     0.003 A 
ENDROOT
BRANCH   1   7
ATOM      7  C1' I4B d   1       1.689  -2.987   3.326  0.00  0.00     0.060 C 
BRANCH   7   8
ATOM      8  C2' I4B d   1       1.805  -4.267   2.524  0.00  0.00    -0.013 C 
ATOM      9  C4' I4B d   1       0.467  -4.945   2.384  0.00  0.00     0.013 C 
ATOM     10  C3' I4B d   1       2.381  -3.924   1.183  0.00  0.00     0.013 C 
ENDBRANCH   7   8
ENDBRANCH   1   7
TORSDOF 2
ENDMDL
