MODEL 1
REMARK minimizedAffinity 5.01787424
REMARK minimizedRMSD -1
REMARK  2 active torsions:
REMARK  status: ('A' for Active; 'I' for Inactive)
REMARK    1  A    between atoms: C2'_3  and  C1'_4 
REMARK    2  A    between atoms: C1'_4  and  C1_5 
ROOT
ATOM      1  C1  I4B d   1      -2.409  -1.465   1.869  0.00  0.00    -0.075 A 
ATOM      2  C2  I4B d   1      -2.131  -0.916   0.642  0.00  0.00     0.003 A 
ATOM      3  C3  I4B d   1      -0.790  -0.679   0.254  0.00  0.00     0.002 A 
ATOM      4  C4  I4B d   1       0.232  -0.958   1.138  0.00  0.00    -0.004 A 
ATOM      5  C5  I4B d   1      -0.050  -1.535   2.373  0.00  0.00     0.002 A 
ATOM      6  C6  I4B d   1      -1.378  -1.802   2.736  0.00  0.00     0.003 A 
ENDROOT
BRANCH   1   7
ATOM      7  C1' I4B d   1      -3.838  -1.670   2.260  0.00  0.00     0.060 C 
BRANCH   7   8
ATOM      8  C2' I4B d   1      -4.506  -0.312   2.319  0.00  0.00    -0.013 C 
ATOM      9  C4' I4B d   1      -5.999  -0.431   2.159  0.00  0.00     0.013 C 
ATOM     10  C3' I4B d   1      -4.151   0.322   3.630  0.00  0.00     0.013 C 
ENDBRANCH   7   8
ENDBRANCH   1   7
TORSDOF 2
ENDMDL
