MODEL 1
REMARK minimizedAffinity -2.12274981
REMARK minimizedRMSD -1
REMARK  2 active torsions:
REMARK  status: ('A' for Active; 'I' for Inactive)
REMARK    1  A    between atoms: C2'_3  and  C1'_4 
REMARK    2  A    between atoms: C1'_4  and  C1_5 
ROOT
ATOM      1  C1  I4B d   1       0.103  -1.929   2.203  0.00  0.00    -0.075 A 
ATOM      2  C2  I4B d   1      -0.819  -2.249   3.167  0.00  0.00     0.003 A 
ATOM      3  C3  I4B d   1      -0.780  -3.516   3.798  0.00  0.00     0.002 A 
ATOM      4  C4  I4B d   1       0.161  -4.444   3.401  0.00  0.00    -0.004 A 
ATOM      5  C5  I4B d   1       1.110  -4.110   2.439  0.00  0.00     0.002 A 
ATOM      6  C6  I4B d   1       1.089  -2.840   1.845  0.00  0.00     0.003 A 
ENDROOT
BRANCH   1   7
ATOM      7  C1' I4B d   1       0.012  -0.594   1.533  0.00  0.00     0.060 C 
BRANCH   7   8
ATOM      8  C2' I4B d   1      -1.236  -0.587   0.674  0.00  0.00    -0.013 C 
ATOM      9  C4' I4B d   1      -2.217   0.454   1.146  0.00  0.00     0.013 C 
ATOM     10  C3' I4B d   1      -0.821  -0.336  -0.744  0.00  0.00     0.013 C 
ENDBRANCH   7   8
ENDBRANCH   1   7
TORSDOF 2
ENDMDL
