MODEL 1
REMARK minimizedAffinity 0.869864404
REMARK minimizedRMSD -1
REMARK  2 active torsions:
REMARK  status: ('A' for Active; 'I' for Inactive)
REMARK    1  A    between atoms: C2'_3  and  C1'_4 
REMARK    2  A    between atoms: C1'_4  and  C1_5 
ROOT
ATOM      1  C1  I4B d   1      -1.778  -0.820   1.449  0.00  0.00    -0.075 A 
ATOM      2  C2  I4B d   1      -1.083  -1.418   2.471  0.00  0.00     0.003 A 
ATOM      3  C3  I4B d   1       0.225  -1.912   2.249  0.00  0.00     0.002 A 
ATOM      4  C4  I4B d   1       0.776  -1.834   0.986  0.00  0.00    -0.004 A 
ATOM      5  C5  I4B d   1       0.079  -1.208  -0.043  0.00  0.00     0.002 A 
ATOM      6  C6  I4B d   1      -1.202  -0.686   0.193  0.00  0.00     0.003 A 
ENDROOT
BRANCH   1   7
ATOM      7  C1' I4B d   1      -3.170  -0.339   1.710  0.00  0.00     0.060 C 
BRANCH   7   8
ATOM      8  C2' I4B d   1      -4.113  -1.140   0.835  0.00  0.00    -0.013 C 
ATOM      9  C4' I4B d   1      -4.002  -2.614   1.121  0.00  0.00     0.013 C 
ATOM     10  C3' I4B d   1      -5.507  -0.644   1.081  0.00  0.00     0.013 C 
ENDBRANCH   7   8
ENDBRANCH   1   7
TORSDOF 2
ENDMDL
