MODEL 1
REMARK minimizedAffinity -1.71792114
REMARK minimizedRMSD -1
REMARK  2 active torsions:
REMARK  status: ('A' for Active; 'I' for Inactive)
REMARK    1  A    between atoms: C2'_3  and  C1'_4 
REMARK    2  A    between atoms: C1'_4  and  C1_5 
ROOT
ATOM      1  C1  I4B d   1       1.651  -2.999   2.063  0.00  0.00    -0.075 A 
ATOM      2  C2  I4B d   1       1.778  -2.533   0.778  0.00  0.00     0.003 A 
ATOM      3  C3  I4B d   1       1.014  -1.422   0.345  0.00  0.00     0.002 A 
ATOM      4  C4  I4B d   1       0.105  -0.844   1.207  0.00  0.00    -0.004 A 
ATOM      5  C5  I4B d   1      -0.005  -1.304   2.516  0.00  0.00     0.002 A 
ATOM      6  C6  I4B d   1       0.782  -2.380   2.951  0.00  0.00     0.003 A 
ENDROOT
BRANCH   1   7
ATOM      7  C1' I4B d   1       2.449  -4.195   2.478  0.00  0.00     0.060 C 
BRANCH   7   8
ATOM      8  C2' I4B d   1       3.840  -3.722   2.850  0.00  0.00    -0.013 C 
ATOM      9  C4' I4B d   1       4.064  -3.804   4.337  0.00  0.00     0.013 C 
ATOM     10  C3' I4B d   1       4.831  -4.566   2.105  0.00  0.00     0.013 C 
ENDBRANCH   7   8
ENDBRANCH   1   7
TORSDOF 2
ENDMDL
