MODEL 1
REMARK minimizedAffinity 3.61688328
REMARK minimizedRMSD -1
REMARK  2 active torsions:
REMARK  status: ('A' for Active; 'I' for Inactive)
REMARK    1  A    between atoms: C2'_3  and  C1'_4 
REMARK    2  A    between atoms: C1'_4  and  C1_5 
ROOT
ATOM      1  C1  I4B d   1       0.884  -1.535   0.658  0.00  0.00    -0.075 A 
ATOM      2  C2  I4B d   1       0.395  -1.723   1.927  0.00  0.00     0.003 A 
ATOM      3  C3  I4B d   1       0.829  -2.826   2.702  0.00  0.00     0.002 A 
ATOM      4  C4  I4B d   1       1.708  -3.738   2.153  0.00  0.00    -0.004 A 
ATOM      5  C5  I4B d   1       2.219  -3.534   0.875  0.00  0.00     0.002 A 
ATOM      6  C6  I4B d   1       1.815  -2.419   0.127  0.00  0.00     0.003 A 
ENDROOT
BRANCH   1   7
ATOM      7  C1' I4B d   1       0.379  -0.378  -0.144  0.00  0.00     0.060 C 
BRANCH   7   8
ATOM      8  C2' I4B d   1      -0.979   0.013   0.403  0.00  0.00    -0.013 C 
ATOM      9  C4' I4B d   1      -1.031   1.481   0.735  0.00  0.00     0.013 C 
ATOM     10  C3' I4B d   1      -2.012  -0.348  -0.622  0.00  0.00     0.013 C 
ENDBRANCH   7   8
ENDBRANCH   1   7
TORSDOF 2
ENDMDL
