MODEL 1
REMARK minimizedAffinity -2.21605873
REMARK minimizedRMSD -1
REMARK  0 active torsions:
REMARK  status: ('A' for Active; 'I' for Inactive)
ROOT
ATOM      1  C   UNL d   1      -0.317  -0.846  -2.930  0.00  0.00     0.172 C 
ATOM      2  N   UNL d   1       1.093  -0.750  -3.231  0.00  0.00    -0.070 N 
ATOM      3  C1  UNL d   1       1.821   0.408  -3.284  0.00  0.00    -0.004 A 
ATOM      4  C2  UNL d   1       3.121   0.075  -3.599  0.00  0.00    -0.047 A 
ATOM      5  C3  UNL d   1       3.175  -1.332  -3.742  0.00  0.00    -0.047 A 
ATOM      6  C4  UNL d   1       1.906  -1.817  -3.508  0.00  0.00    -0.004 A 
ENDROOT
TORSDOF 0
ENDMDL
