MODEL 1
REMARK minimizedAffinity -2.22925782
REMARK minimizedRMSD -1
REMARK  0 active torsions:
REMARK  status: ('A' for Active; 'I' for Inactive)
ROOT
ATOM      1  C   UNL d   1      -1.175  -0.663   2.592  0.00  0.00     0.172 C 
ATOM      2  N   UNL d   1      -1.072  -0.426   1.171  0.00  0.00    -0.070 N 
ATOM      3  C1  UNL d   1      -2.112  -0.113   0.337  0.00  0.00    -0.004 A 
ATOM      4  C2  UNL d   1      -1.602   0.034  -0.935  0.00  0.00    -0.047 A 
ATOM      5  C3  UNL d   1      -0.208  -0.199  -0.863  0.00  0.00    -0.047 A 
ATOM      6  C4  UNL d   1       0.093  -0.482   0.453  0.00  0.00    -0.004 A 
ENDROOT
TORSDOF 0
ENDMDL
