MODEL 1
REMARK minimizedAffinity -3.90000343
REMARK minimizedRMSD -1
REMARK  0 active torsions:
REMARK  status: ('A' for Active; 'I' for Inactive)
ROOT
ATOM      1  C   UNL d   1      -0.035   0.373  -0.616  0.00  0.00     0.172 C 
ATOM      2  N   UNL d   1      -0.226   0.004   0.767  0.00  0.00    -0.070 N 
ATOM      3  C1  UNL d   1       0.742   0.006   1.735  0.00  0.00    -0.004 A 
ATOM      4  C2  UNL d   1       0.161  -0.406   2.915  0.00  0.00    -0.047 A 
ATOM      5  C3  UNL d   1      -1.204  -0.666   2.646  0.00  0.00    -0.047 A 
ATOM      6  C4  UNL d   1      -1.416  -0.404   1.309  0.00  0.00    -0.004 A 
ENDROOT
TORSDOF 0
ENDMDL
