MODEL 1
REMARK minimizedAffinity 0.674043834
REMARK minimizedRMSD -1
REMARK  0 active torsions:
REMARK  status: ('A' for Active; 'I' for Inactive)
ROOT
ATOM      1  C   UNL d   1       2.556  -1.129   2.825  0.00  0.00     0.172 C 
ATOM      2  N   UNL d   1       1.217  -0.696   2.501  0.00  0.00    -0.070 N 
ATOM      3  C1  UNL d   1       0.107  -1.497   2.462  0.00  0.00    -0.004 A 
ATOM      4  C2  UNL d   1      -0.969  -0.709   2.114  0.00  0.00    -0.047 A 
ATOM      5  C3  UNL d   1      -0.489   0.610   1.938  0.00  0.00    -0.047 A 
ATOM      6  C4  UNL d   1       0.868   0.590   2.183  0.00  0.00    -0.004 A 
ENDROOT
TORSDOF 0
ENDMDL
