MODEL 1
REMARK minimizedAffinity -3.89892459
REMARK minimizedRMSD -1
REMARK  0 active torsions:
REMARK  status: ('A' for Active; 'I' for Inactive)
ROOT
ATOM      1  C   UNL d   1      -0.221   0.185  -0.058  0.00  0.00     0.172 C 
ATOM      2  N   UNL d   1      -0.867  -0.046   1.213  0.00  0.00    -0.070 N 
ATOM      3  C1  UNL d   1      -0.239  -0.420   2.371  0.00  0.00    -0.004 A 
ATOM      4  C2  UNL d   1      -1.199  -0.536   3.353  0.00  0.00    -0.047 A 
ATOM      5  C3  UNL d   1      -2.447  -0.221   2.764  0.00  0.00    -0.047 A 
ATOM      6  C4  UNL d   1      -2.212   0.078   1.439  0.00  0.00    -0.004 A 
ENDROOT
TORSDOF 0
ENDMDL
