MODEL 1
REMARK minimizedAffinity -3.62022305
REMARK minimizedRMSD -1
REMARK  0 active torsions:
REMARK  status: ('A' for Active; 'I' for Inactive)
ROOT
ATOM      1  C   UNL d   1       4.234   0.588  -3.650  0.00  0.00     0.172 C 
ATOM      2  N   UNL d   1       3.007  -0.173  -3.660  0.00  0.00    -0.070 N 
ATOM      3  C1  UNL d   1       1.752   0.335  -3.458  0.00  0.00    -0.004 A 
ATOM      4  C2  UNL d   1       0.855  -0.709  -3.547  0.00  0.00    -0.047 A 
ATOM      5  C3  UNL d   1       1.598  -1.884  -3.810  0.00  0.00    -0.047 A 
ATOM      6  C4  UNL d   1       2.928  -1.523  -3.875  0.00  0.00    -0.004 A 
ENDROOT
TORSDOF 0
ENDMDL
