MODEL 1
REMARK minimizedAffinity -0.323405057
REMARK minimizedRMSD -1
REMARK  0 active torsions:
REMARK  status: ('A' for Active; 'I' for Inactive)
ROOT
ATOM      1  C   UNL d   1      -0.688  -0.493  -0.570  0.00  0.00     0.172 C 
ATOM      2  N   UNL d   1       0.053  -0.191   0.632  0.00  0.00    -0.070 N 
ATOM      3  C1  UNL d   1       1.321  -0.621   0.918  0.00  0.00    -0.004 A 
ATOM      4  C2  UNL d   1       1.669  -0.119   2.154  0.00  0.00    -0.047 A 
ATOM      5  C3  UNL d   1       0.571   0.638   2.627  0.00  0.00    -0.047 A 
ATOM      6  C4  UNL d   1      -0.415   0.577   1.666  0.00  0.00    -0.004 A 
ENDROOT
TORSDOF 0
ENDMDL
