MODEL 1
REMARK minimizedAffinity -1.23895514
REMARK minimizedRMSD -1
REMARK  0 active torsions:
REMARK  status: ('A' for Active; 'I' for Inactive)
ROOT
ATOM      1  C   UNL d   1       1.290   2.156   3.880  0.00  0.00     0.172 C 
ATOM      2  N   UNL d   1       0.712   1.398   2.796  0.00  0.00    -0.070 N 
ATOM      3  C1  UNL d   1      -0.264   0.446   2.919  0.00  0.00    -0.004 A 
ATOM      4  C2  UNL d   1      -0.541  -0.040   1.660  0.00  0.00    -0.047 A 
ATOM      5  C3  UNL d   1       0.299   0.642   0.748  0.00  0.00    -0.047 A 
ATOM      6  C4  UNL d   1       1.064   1.527   1.478  0.00  0.00    -0.004 A 
ENDROOT
TORSDOF 0
ENDMDL
