MODEL 1
REMARK minimizedAffinity 1.12160063
REMARK minimizedRMSD -1
REMARK  0 active torsions:
REMARK  status: ('A' for Active; 'I' for Inactive)
ROOT
ATOM      1  C   UNL d   1      -2.287   0.648   2.036  0.00  0.00     0.172 C 
ATOM      2  N   UNL d   1      -0.954   0.098   2.115  0.00  0.00    -0.070 N 
ATOM      3  C1  UNL d   1       0.061   0.576   2.901  0.00  0.00    -0.004 A 
ATOM      4  C2  UNL d   1       1.166  -0.221   2.692  0.00  0.00    -0.047 A 
ATOM      5  C3  UNL d   1       0.803  -1.211   1.748  0.00  0.00    -0.047 A 
ATOM      6  C4  UNL d   1      -0.515  -0.990   1.408  0.00  0.00    -0.004 A 
ENDROOT
TORSDOF 0
ENDMDL
