MODEL 1
REMARK minimizedAffinity 0.209847763
REMARK minimizedRMSD -1
REMARK  0 active torsions:
REMARK  status: ('A' for Active; 'I' for Inactive)
ROOT
ATOM      1  C   UNL d   1      -2.183  -0.129   2.420  0.00  0.00     0.172 C 
ATOM      2  N   UNL d   1      -0.743  -0.201   2.509  0.00  0.00    -0.070 N 
ATOM      3  C1  UNL d   1      -0.028  -1.233   3.055  0.00  0.00    -0.004 A 
ATOM      4  C2  UNL d   1       1.310  -0.923   2.948  0.00  0.00    -0.047 A 
ATOM      5  C3  UNL d   1       1.403   0.340   2.316  0.00  0.00    -0.047 A 
ATOM      6  C4  UNL d   1       0.117   0.764   2.056  0.00  0.00    -0.004 A 
ENDROOT
TORSDOF 0
ENDMDL
