MODEL 1
REMARK minimizedAffinity -0.715888083
REMARK minimizedRMSD -1
REMARK  0 active torsions:
REMARK  status: ('A' for Active; 'I' for Inactive)
ROOT
ATOM      1  C   UNL d   1       1.736   0.132  -5.994  0.00  0.00     0.172 C 
ATOM      2  N   UNL d   1       2.205   1.389  -5.460  0.00  0.00    -0.070 N 
ATOM      3  C1  UNL d   1       1.484   2.236  -4.663  0.00  0.00    -0.004 A 
ATOM      4  C2  UNL d   1       2.282   3.320  -4.368  0.00  0.00    -0.047 A 
ATOM      5  C3  UNL d   1       3.526   3.117  -5.012  0.00  0.00    -0.047 A 
ATOM      6  C4  UNL d   1       3.451   1.914  -5.681  0.00  0.00    -0.004 A 
ENDROOT
TORSDOF 0
ENDMDL
