MODEL 1
REMARK minimizedAffinity 1.36682427
REMARK minimizedRMSD -1
REMARK  0 active torsions:
REMARK  status: ('A' for Active; 'I' for Inactive)
ROOT
ATOM      1  C   UNL d   1      -0.375  -2.625  -1.136  0.00  0.00     0.172 C 
ATOM      2  N   UNL d   1      -0.066  -1.415  -1.862  0.00  0.00    -0.070 N 
ATOM      3  C1  UNL d   1       0.692  -1.338  -3.000  0.00  0.00    -0.004 A 
ATOM      4  C2  UNL d   1       0.749  -0.015  -3.380  0.00  0.00    -0.047 A 
ATOM      5  C3  UNL d   1      -0.000   0.729  -2.438  0.00  0.00    -0.047 A 
ATOM      6  C4  UNL d   1      -0.494  -0.162  -1.509  0.00  0.00    -0.004 A 
ENDROOT
TORSDOF 0
ENDMDL
