MODEL 1
REMARK minimizedAffinity -3.1739707
REMARK minimizedRMSD -1
REMARK  1 active torsions:
REMARK  status: ('A' for Active; 'I' for Inactive)
REMARK    1  A    between atoms: C1_2  and  C2_3 
ROOT
ATOM      1  C2  UNL d   1      -0.837  -0.225   2.573  0.00  0.00    -0.081 A 
ATOM      2  C3  UNL d   1       0.462  -0.131   2.057  0.00  0.00     0.006 A 
ATOM      3  C4  UNL d   1       1.548  -0.631   2.779  0.00  0.00     0.002 A 
ATOM      4  C5  UNL d   1       1.354  -1.241   4.023  0.00  0.00    -0.080 A 
ATOM      5  C6  UNL d   1       2.508  -1.809   4.794  0.00  0.00     0.076 C 
ATOM      6  C7  UNL d   1       0.059  -1.320   4.546  0.00  0.00     0.002 A 
ATOM      7  C8  UNL d   1      -1.028  -0.819   3.825  0.00  0.00     0.006 A 
ENDROOT
BRANCH   1   8
ATOM      8  C1  UNL d   1      -2.017   0.255   1.768  0.00  0.00     0.054 C 
ATOM      9  C   UNL d   1      -1.896  -0.157   0.308  0.00  0.00     0.018 C 
ENDBRANCH   1   8
TORSDOF 1
ENDMDL
