MODEL 1
REMARK minimizedAffinity 6.0050025
REMARK minimizedRMSD -1
REMARK  1 active torsions:
REMARK  status: ('A' for Active; 'I' for Inactive)
REMARK    1  A    between atoms: C1_2  and  C2_3 
ROOT
ATOM      1  C2  UNL d   1       1.049   0.294   0.322  0.00  0.00    -0.081 A 
ATOM      2  C3  UNL d   1       0.017  -0.437  -0.280  0.00  0.00     0.006 A 
ATOM      3  C4  UNL d   1      -1.169  -0.690   0.414  0.00  0.00     0.002 A 
ATOM      4  C5  UNL d   1      -1.346  -0.209   1.716  0.00  0.00    -0.080 A 
ATOM      5  C6  UNL d   1      -2.626  -0.448   2.461  0.00  0.00     0.076 C 
ATOM      6  C7  UNL d   1      -0.309   0.506   2.323  0.00  0.00     0.002 A 
ATOM      7  C8  UNL d   1       0.878   0.758   1.630  0.00  0.00     0.006 A 
ENDROOT
BRANCH   1   8
ATOM      8  C1  UNL d   1       2.303   0.624  -0.447  0.00  0.00     0.054 C 
ATOM      9  C   UNL d   1       2.976   1.873   0.102  0.00  0.00     0.018 C 
ENDBRANCH   1   8
TORSDOF 1
ENDMDL
