MODEL 1
REMARK minimizedAffinity 9.5395422
REMARK minimizedRMSD -1
REMARK  1 active torsions:
REMARK  status: ('A' for Active; 'I' for Inactive)
REMARK    1  A    between atoms: C1_2  and  C2_3 
ROOT
ATOM      1  C2  UNL d   1       1.069  -0.503  -0.024  0.00  0.00    -0.081 A 
ATOM      2  C3  UNL d   1       0.433   0.105   1.064  0.00  0.00     0.006 A 
ATOM      3  C4  UNL d   1      -0.942   0.352   1.033  0.00  0.00     0.002 A 
ATOM      4  C5  UNL d   1      -1.703  -0.012  -0.083  0.00  0.00    -0.080 A 
ATOM      5  C6  UNL d   1      -3.185   0.220  -0.116  0.00  0.00     0.076 C 
ATOM      6  C7  UNL d   1      -1.064  -0.604  -1.177  0.00  0.00     0.002 A 
ATOM      7  C8  UNL d   1       0.310  -0.850  -1.147  0.00  0.00     0.006 A 
ENDROOT
BRANCH   1   8
ATOM      8  C1  UNL d   1       2.540  -0.830   0.033  0.00  0.00     0.054 C 
ATOM      9  C   UNL d   1       3.357   0.155  -0.791  0.00  0.00     0.018 C 
ENDBRANCH   1   8
TORSDOF 1
ENDMDL
