MODEL 1
REMARK minimizedAffinity 0.343043983
REMARK minimizedRMSD -1
REMARK  1 active torsions:
REMARK  status: ('A' for Active; 'I' for Inactive)
REMARK    1  A    between atoms: C1_2  and  C2_3 
ROOT
ATOM      1  C2  UNL d   1      -1.451   0.340   2.517  0.00  0.00    -0.081 A 
ATOM      2  C3  UNL d   1      -1.218   1.688   2.818  0.00  0.00     0.006 A 
ATOM      3  C4  UNL d   1       0.084   2.193   2.845  0.00  0.00     0.002 A 
ATOM      4  C5  UNL d   1       1.174   1.361   2.564  0.00  0.00    -0.080 A 
ATOM      5  C6  UNL d   1       2.574   1.897   2.560  0.00  0.00     0.076 C 
ATOM      6  C7  UNL d   1       0.942   0.011   2.281  0.00  0.00     0.002 A 
ATOM      7  C8  UNL d   1      -0.360  -0.495   2.255  0.00  0.00     0.006 A 
ENDROOT
BRANCH   1   8
ATOM      8  C1  UNL d   1      -2.858  -0.192   2.424  0.00  0.00     0.054 C 
ATOM      9  C   UNL d   1      -3.046  -1.417   3.307  0.00  0.00     0.018 C 
ENDBRANCH   1   8
TORSDOF 1
ENDMDL
