MODEL 1
REMARK minimizedAffinity 8.48495197
REMARK minimizedRMSD -1
REMARK  1 active torsions:
REMARK  status: ('A' for Active; 'I' for Inactive)
REMARK    1  A    between atoms: C1_2  and  C2_3 
ROOT
ATOM      1  C2  UNL d   1       1.478   1.196   0.406  0.00  0.00    -0.081 A 
ATOM      2  C3  UNL d   1       0.979   1.111  -0.900  0.00  0.00     0.006 A 
ATOM      3  C4  UNL d   1      -0.268   0.532  -1.145  0.00  0.00     0.002 A 
ATOM      4  C5  UNL d   1      -1.041   0.037  -0.089  0.00  0.00    -0.080 A 
ATOM      5  C6  UNL d   1      -2.395  -0.559  -0.336  0.00  0.00     0.076 C 
ATOM      6  C7  UNL d   1      -0.536   0.106   1.213  0.00  0.00     0.002 A 
ATOM      7  C8  UNL d   1       0.712   0.684   1.459  0.00  0.00     0.006 A 
ENDROOT
BRANCH   1   8
ATOM      8  C1  UNL d   1       2.794   1.878   0.681  0.00  0.00     0.054 C 
ATOM      9  C   UNL d   1       3.687   1.874  -0.551  0.00  0.00     0.018 C 
ENDBRANCH   1   8
TORSDOF 1
ENDMDL
