MODEL 1
REMARK minimizedAffinity -1.26254451
REMARK minimizedRMSD -1
REMARK  0 active torsions:
REMARK  status: ('A' for Active; 'I' for Inactive)
ROOT
ATOM      1  C   UNL d   1       0.347  -0.181  -0.031  0.00  0.00     0.078 C 
ATOM      2  C1  UNL d   1       1.244   0.880   0.533  0.00  0.00    -0.077 A 
ATOM      3  C2  UNL d   1       1.221   1.193   1.898  0.00  0.00    -0.001 A 
ATOM      4  C3  UNL d   1       2.055   2.190   2.408  0.00  0.00     0.003 A 
ATOM      5  C4  UNL d   1       2.916   2.883   1.560  0.00  0.00    -0.005 A 
ATOM      6  C5  UNL d   1       2.944   2.581   0.200  0.00  0.00     0.003 A 
ATOM      7  C6  UNL d   1       2.111   1.584  -0.312  0.00  0.00    -0.001 A 
ENDROOT
TORSDOF 0
ENDMDL
