MODEL 1
REMARK minimizedAffinity -2.74065852
REMARK minimizedRMSD -1
REMARK  0 active torsions:
REMARK  status: ('A' for Active; 'I' for Inactive)
ROOT
ATOM      1  C   UNL d   1      -2.911  -0.620  -0.888  0.00  0.00     0.078 C 
ATOM      2  C1  UNL d   1      -1.494  -0.408  -0.446  0.00  0.00    -0.077 A 
ATOM      3  C2  UNL d   1      -0.575   0.257  -1.267  0.00  0.00    -0.001 A 
ATOM      4  C3  UNL d   1       0.744   0.439  -0.847  0.00  0.00     0.003 A 
ATOM      5  C4  UNL d   1       1.156  -0.043   0.394  0.00  0.00    -0.005 A 
ATOM      6  C5  UNL d   1       0.248  -0.708   1.217  0.00  0.00     0.003 A 
ATOM      7  C6  UNL d   1      -1.071  -0.891   0.798  0.00  0.00    -0.001 A 
ENDROOT
TORSDOF 0
ENDMDL
