MODEL 1
REMARK minimizedAffinity -1.59306705
REMARK minimizedRMSD -1
REMARK  0 active torsions:
REMARK  status: ('A' for Active; 'I' for Inactive)
ROOT
ATOM      1  C   UNL d   1      -0.395  -2.652   2.014  0.00  0.00     0.078 C 
ATOM      2  C1  UNL d   1      -0.441  -1.768   0.804  0.00  0.00    -0.077 A 
ATOM      3  C2  UNL d   1       0.481  -0.728   0.634  0.00  0.00    -0.001 A 
ATOM      4  C3  UNL d   1       0.420   0.093  -0.493  0.00  0.00     0.003 A 
ATOM      5  C4  UNL d   1      -0.562  -0.117  -1.459  0.00  0.00    -0.005 A 
ATOM      6  C5  UNL d   1      -1.485  -1.148  -1.298  0.00  0.00     0.003 A 
ATOM      7  C6  UNL d   1      -1.426  -1.970  -0.172  0.00  0.00    -0.001 A 
ENDROOT
TORSDOF 0
ENDMDL
