MODEL 1
REMARK minimizedAffinity -2.80554962
REMARK minimizedRMSD -1
REMARK  0 active torsions:
REMARK  status: ('A' for Active; 'I' for Inactive)
ROOT
ATOM      1  C   UNL d   1      -2.864  -1.000  -0.909  0.00  0.00     0.078 C 
ATOM      2  C1  UNL d   1      -1.430  -0.674  -0.615  0.00  0.00    -0.077 A 
ATOM      3  C2  UNL d   1      -0.654   0.051  -1.528  0.00  0.00    -0.001 A 
ATOM      4  C3  UNL d   1       0.682   0.339  -1.245  0.00  0.00     0.003 A 
ATOM      5  C4  UNL d   1       1.254  -0.094  -0.051  0.00  0.00    -0.005 A 
ATOM      6  C5  UNL d   1       0.490  -0.818   0.862  0.00  0.00     0.003 A 
ATOM      7  C6  UNL d   1      -0.846  -1.107   0.582  0.00  0.00    -0.001 A 
ENDROOT
TORSDOF 0
ENDMDL
