MODEL 1
REMARK minimizedAffinity -4.06846285
REMARK minimizedRMSD -1
REMARK  0 active torsions:
REMARK  status: ('A' for Active; 'I' for Inactive)
ROOT
ATOM      1  C   UNL d   1       0.135   0.043  -0.232  0.00  0.00     0.078 C 
ATOM      2  C1  UNL d   1       1.082   1.121   0.205  0.00  0.00    -0.077 A 
ATOM      3  C2  UNL d   1       2.467   0.963   0.066  0.00  0.00    -0.001 A 
ATOM      4  C3  UNL d   1       3.338   1.970   0.486  0.00  0.00     0.003 A 
ATOM      5  C4  UNL d   1       2.834   3.141   1.048  0.00  0.00    -0.005 A 
ATOM      6  C5  UNL d   1       1.458   3.306   1.192  0.00  0.00     0.003 A 
ATOM      7  C6  UNL d   1       0.585   2.300   0.773  0.00  0.00    -0.001 A 
ENDROOT
TORSDOF 0
ENDMDL
