MODEL 1
REMARK minimizedAffinity -2.26039624
REMARK minimizedRMSD -1
REMARK  0 active torsions:
REMARK  status: ('A' for Active; 'I' for Inactive)
ROOT
ATOM      1  C   UNL d   1       0.742   0.750   1.863  0.00  0.00     0.078 C 
ATOM      2  C1  UNL d   1       0.262   0.597   0.451  0.00  0.00    -0.077 A 
ATOM      3  C2  UNL d   1      -0.948   1.166   0.035  0.00  0.00    -0.001 A 
ATOM      4  C3  UNL d   1      -1.388   1.008  -1.280  0.00  0.00     0.003 A 
ATOM      5  C4  UNL d   1      -0.624   0.279  -2.190  0.00  0.00    -0.005 A 
ATOM      6  C5  UNL d   1       0.580  -0.292  -1.785  0.00  0.00     0.003 A 
ATOM      7  C6  UNL d   1       1.021  -0.135  -0.471  0.00  0.00    -0.001 A 
ENDROOT
TORSDOF 0
ENDMDL
