MODEL 1
REMARK minimizedAffinity -1.72251904
REMARK minimizedRMSD -1
REMARK  0 active torsions:
REMARK  status: ('A' for Active; 'I' for Inactive)
ROOT
ATOM      1  C   UNL d   1       1.654   0.324   0.249  0.00  0.00     0.078 C 
ATOM      2  C1  UNL d   1       0.292   0.305  -0.379  0.00  0.00    -0.077 A 
ATOM      3  C2  UNL d   1      -0.829   0.773   0.316  0.00  0.00    -0.001 A 
ATOM      4  C3  UNL d   1      -2.092   0.740  -0.278  0.00  0.00     0.003 A 
ATOM      5  C4  UNL d   1      -2.246   0.238  -1.569  0.00  0.00    -0.005 A 
ATOM      6  C5  UNL d   1      -1.136  -0.232  -2.267  0.00  0.00     0.003 A 
ATOM      7  C6  UNL d   1       0.128  -0.200  -1.675  0.00  0.00    -0.001 A 
ENDROOT
TORSDOF 0
ENDMDL
