MODEL 1
REMARK minimizedAffinity -2.96429086
REMARK minimizedRMSD -1
REMARK  0 active torsions:
REMARK  status: ('A' for Active; 'I' for Inactive)
ROOT
ATOM      1  C   UNL d   1       2.984   1.907   0.425  0.00  0.00     0.078 C 
ATOM      2  C1  UNL d   1       1.804   1.078   0.013  0.00  0.00    -0.077 A 
ATOM      3  C2  UNL d   1       1.472  -0.096   0.701  0.00  0.00    -0.001 A 
ATOM      4  C3  UNL d   1       0.377  -0.863   0.300  0.00  0.00     0.003 A 
ATOM      5  C4  UNL d   1      -0.394  -0.465  -0.790  0.00  0.00    -0.005 A 
ATOM      6  C5  UNL d   1      -0.071   0.700  -1.481  0.00  0.00     0.003 A 
ATOM      7  C6  UNL d   1       1.024   1.469  -1.082  0.00  0.00    -0.001 A 
ENDROOT
TORSDOF 0
ENDMDL
