MODEL 1
REMARK minimizedAffinity -2.80029225
REMARK minimizedRMSD -1
REMARK  0 active torsions:
REMARK  status: ('A' for Active; 'I' for Inactive)
ROOT
ATOM      1  C   UNL d   1      -0.055   0.676  -2.965  0.00  0.00     0.078 C 
ATOM      2  C1  UNL d   1      -0.189  -0.046  -1.657  0.00  0.00    -0.077 A 
ATOM      3  C2  UNL d   1       0.801   0.056  -0.672  0.00  0.00    -0.001 A 
ATOM      4  C3  UNL d   1       0.667  -0.629   0.537  0.00  0.00     0.003 A 
ATOM      5  C4  UNL d   1      -0.455  -1.422   0.771  0.00  0.00    -0.005 A 
ATOM      6  C5  UNL d   1      -1.444  -1.531  -0.204  0.00  0.00     0.003 A 
ATOM      7  C6  UNL d   1      -1.312  -0.846  -1.413  0.00  0.00    -0.001 A 
ENDROOT
TORSDOF 0
ENDMDL
