MODEL 1
REMARK minimizedAffinity -2.92360902
REMARK minimizedRMSD -1
REMARK  0 active torsions:
REMARK  status: ('A' for Active; 'I' for Inactive)
ROOT
ATOM      1  C   UNL d   1      -2.391  -1.140  -1.188  0.00  0.00     0.078 C 
ATOM      2  C1  UNL d   1      -1.020  -0.757  -0.718  0.00  0.00    -0.077 A 
ATOM      3  C2  UNL d   1      -0.240   0.157  -1.437  0.00  0.00    -0.001 A 
ATOM      4  C3  UNL d   1       1.039   0.496  -0.992  0.00  0.00     0.003 A 
ATOM      5  C4  UNL d   1       1.550  -0.074   0.172  0.00  0.00    -0.005 A 
ATOM      6  C5  UNL d   1       0.782  -0.986   0.893  0.00  0.00     0.003 A 
ATOM      7  C6  UNL d   1      -0.497  -1.327   0.450  0.00  0.00    -0.001 A 
ENDROOT
TORSDOF 0
ENDMDL
