MODEL 1
REMARK minimizedAffinity -2.40954709
REMARK minimizedRMSD -1
REMARK  0 active torsions:
REMARK  status: ('A' for Active; 'I' for Inactive)
ROOT
ATOM      1  C   UNL d   1       1.118  -0.321   0.310  0.00  0.00     0.078 C 
ATOM      2  C1  UNL d   1       1.701   0.989   0.749  0.00  0.00    -0.077 A 
ATOM      3  C2  UNL d   1       1.529   1.452   2.059  0.00  0.00    -0.001 A 
ATOM      4  C3  UNL d   1       2.069   2.678   2.452  0.00  0.00     0.003 A 
ATOM      5  C4  UNL d   1       2.784   3.451   1.539  0.00  0.00    -0.005 A 
ATOM      6  C5  UNL d   1       2.958   3.000   0.233  0.00  0.00     0.003 A 
ATOM      7  C6  UNL d   1       2.419   1.774  -0.161  0.00  0.00    -0.001 A 
ENDROOT
TORSDOF 0
ENDMDL
