MODEL 1
REMARK minimizedAffinity -3.05807233
REMARK minimizedRMSD -1
REMARK  0 active torsions:
REMARK  status: ('A' for Active; 'I' for Inactive)
ROOT
ATOM      1  C   UNL d   1      -2.440  -0.615  -1.404  0.00  0.00     0.078 C 
ATOM      2  C1  UNL d   1      -1.203   0.001  -0.823  0.00  0.00    -0.077 A 
ATOM      3  C2  UNL d   1      -0.752   1.256  -1.250  0.00  0.00    -0.001 A 
ATOM      4  C3  UNL d   1       0.407   1.812  -0.707  0.00  0.00     0.003 A 
ATOM      5  C4  UNL d   1       1.126   1.120   0.265  0.00  0.00    -0.005 A 
ATOM      6  C5  UNL d   1       0.687  -0.131   0.695  0.00  0.00     0.003 A 
ATOM      7  C6  UNL d   1      -0.472  -0.689   0.153  0.00  0.00    -0.001 A 
ENDROOT
TORSDOF 0
ENDMDL
