MODEL 1
REMARK minimizedAffinity -1.42641306
REMARK minimizedRMSD -1
REMARK  0 active torsions:
REMARK  status: ('A' for Active; 'I' for Inactive)
ROOT
ATOM      1  C   UNL d   1      -1.088   0.800  -1.644  0.00  0.00     0.078 C 
ATOM      2  C1  UNL d   1      -0.175   0.225  -0.603  0.00  0.00    -0.077 A 
ATOM      3  C2  UNL d   1       1.209   0.434  -0.663  0.00  0.00    -0.001 A 
ATOM      4  C3  UNL d   1       2.048  -0.116   0.308  0.00  0.00     0.003 A 
ATOM      5  C4  UNL d   1       1.514  -0.879   1.344  0.00  0.00    -0.005 A 
ATOM      6  C5  UNL d   1       0.138  -1.093   1.411  0.00  0.00     0.003 A 
ATOM      7  C6  UNL d   1      -0.702  -0.545   0.441  0.00  0.00    -0.001 A 
ENDROOT
TORSDOF 0
ENDMDL
