MODEL 1
REMARK minimizedAffinity -3.07095265
REMARK minimizedRMSD -1
REMARK  0 active torsions:
REMARK  status: ('A' for Active; 'I' for Inactive)
ROOT
ATOM      1  C   UNL d   1       0.842   2.528   2.031  0.00  0.00     0.020 A 
ATOM      2  C1  UNL d   1       1.018   2.818   0.679  0.00  0.00     0.020 A 
ATOM      3  C2  UNL d   1       0.583   1.913  -0.291  0.00  0.00     0.034 A 
ATOM      4  C3  UNL d   1      -0.031   0.714   0.089  0.00  0.00     0.017 A 
ATOM      5  C4  UNL d   1      -0.207   0.424   1.447  0.00  0.00     0.017 A 
ATOM      6  C5  UNL d   1       0.230   1.334   2.414  0.00  0.00     0.034 A 
ATOM      7 Cl   UNL d   1      -0.955  -1.035   1.994  0.00  0.00    -0.070 Cl
ATOM      8 Cl1  UNL d   1      -0.544  -0.359  -1.164  0.00  0.00    -0.070 Cl
ENDROOT
TORSDOF 0
ENDMDL
