MODEL 1
REMARK minimizedAffinity -0.393199295
REMARK minimizedRMSD -1
REMARK  0 active torsions:
REMARK  status: ('A' for Active; 'I' for Inactive)
ROOT
ATOM      1  C   UNL d   1       0.542  -0.228  -1.448  0.00  0.00     0.020 A 
ATOM      2  C1  UNL d   1      -0.073  -1.447  -1.166  0.00  0.00     0.020 A 
ATOM      3  C2  UNL d   1      -0.581  -1.693   0.111  0.00  0.00     0.034 A 
ATOM      4  C3  UNL d   1      -0.476  -0.719   1.111  0.00  0.00     0.017 A 
ATOM      5  C4  UNL d   1       0.141   0.504   0.826  0.00  0.00     0.017 A 
ATOM      6  C5  UNL d   1       0.649   0.746  -0.454  0.00  0.00     0.034 A 
ATOM      7 Cl   UNL d   1       0.309   1.755   2.008  0.00  0.00    -0.070 Cl
ATOM      8 Cl1  UNL d   1      -1.127  -1.092   2.667  0.00  0.00    -0.070 Cl
ENDROOT
TORSDOF 0
ENDMDL
