MODEL 1
REMARK minimizedAffinity -1.18932271
REMARK minimizedRMSD -1
REMARK  0 active torsions:
REMARK  status: ('A' for Active; 'I' for Inactive)
ROOT
ATOM      1  C   UNL d   1       0.813   2.853   1.347  0.00  0.00     0.020 A 
ATOM      2  C1  UNL d   1       1.374   2.587   0.098  0.00  0.00     0.020 A 
ATOM      3  C2  UNL d   1       1.169   1.347  -0.510  0.00  0.00     0.034 A 
ATOM      4  C3  UNL d   1       0.401   0.367   0.130  0.00  0.00     0.017 A 
ATOM      5  C4  UNL d   1      -0.162   0.635   1.383  0.00  0.00     0.017 A 
ATOM      6  C5  UNL d   1       0.046   1.878   1.988  0.00  0.00     0.034 A 
ATOM      7 Cl   UNL d   1      -1.121  -0.524   2.235  0.00  0.00    -0.070 Cl
ATOM      8 Cl1  UNL d   1       0.188  -1.144  -0.681  0.00  0.00    -0.070 Cl
ENDROOT
TORSDOF 0
ENDMDL
