MODEL 1
REMARK minimizedAffinity -2.54013777
REMARK minimizedRMSD -1
REMARK  0 active torsions:
REMARK  status: ('A' for Active; 'I' for Inactive)
ROOT
ATOM      1  C   UNL d   1       0.765   2.441   1.406  0.00  0.00     0.020 A 
ATOM      2  C1  UNL d   1       1.160   2.202   0.090  0.00  0.00     0.020 A 
ATOM      3  C2  UNL d   1       0.660   1.095  -0.598  0.00  0.00     0.034 A 
ATOM      4  C3  UNL d   1      -0.236   0.222   0.028  0.00  0.00     0.017 A 
ATOM      5  C4  UNL d   1      -0.632   0.462   1.349  0.00  0.00     0.017 A 
ATOM      6  C5  UNL d   1      -0.129   1.572   2.034  0.00  0.00     0.034 A 
ATOM      7 Cl   UNL d   1      -1.735  -0.570   2.189  0.00  0.00    -0.070 Cl
ATOM      8 Cl1  UNL d   1      -0.814  -1.128  -0.883  0.00  0.00    -0.070 Cl
ENDROOT
TORSDOF 0
ENDMDL
