MODEL 1
REMARK minimizedAffinity -2.69514275
REMARK minimizedRMSD -1
REMARK  0 active torsions:
REMARK  status: ('A' for Active; 'I' for Inactive)
ROOT
ATOM      1  C   UNL d   1      -1.116   0.993   1.461  0.00  0.00     0.020 A 
ATOM      2  C1  UNL d   1      -1.099   0.165   0.340  0.00  0.00     0.020 A 
ATOM      3  C2  UNL d   1       0.108  -0.112  -0.306  0.00  0.00     0.034 A 
ATOM      4  C3  UNL d   1       1.303   0.440   0.170  0.00  0.00     0.017 A 
ATOM      5  C4  UNL d   1       1.285   1.271   1.296  0.00  0.00     0.017 A 
ATOM      6  C5  UNL d   1       0.074   1.545   1.938  0.00  0.00     0.034 A 
ATOM      7 Cl   UNL d   1       2.719   1.989   1.941  0.00  0.00    -0.070 Cl
ATOM      8 Cl1  UNL d   1       2.759   0.056  -0.677  0.00  0.00    -0.070 Cl
ENDROOT
TORSDOF 0
ENDMDL
