MODEL 1
REMARK minimizedAffinity -1.71563256
REMARK minimizedRMSD -1
REMARK  0 active torsions:
REMARK  status: ('A' for Active; 'I' for Inactive)
ROOT
ATOM      1  C   UNL d   1      -2.725  -2.094  -4.218  0.00  0.00     0.020 A 
ATOM      2  C1  UNL d   1      -1.427  -1.587  -4.171  0.00  0.00     0.020 A 
ATOM      3  C2  UNL d   1      -0.653  -1.756  -3.021  0.00  0.00     0.034 A 
ATOM      4  C3  UNL d   1      -1.176  -2.434  -1.914  0.00  0.00     0.017 A 
ATOM      5  C4  UNL d   1      -2.479  -2.943  -1.962  0.00  0.00     0.017 A 
ATOM      6  C5  UNL d   1      -3.250  -2.770  -3.116  0.00  0.00     0.034 A 
ATOM      7 Cl   UNL d   1      -3.192  -3.790  -0.635  0.00  0.00    -0.070 Cl
ATOM      8 Cl1  UNL d   1      -0.162  -2.607  -0.526  0.00  0.00    -0.070 Cl
ENDROOT
TORSDOF 0
ENDMDL
