MODEL 1
REMARK minimizedAffinity -3.10936022
REMARK minimizedRMSD -1
REMARK  0 active torsions:
REMARK  status: ('A' for Active; 'I' for Inactive)
ROOT
ATOM      1  C   UNL d   1       1.130   2.583   1.636  0.00  0.00     0.020 A 
ATOM      2  C1  UNL d   1       1.233   2.410   0.256  0.00  0.00     0.020 A 
ATOM      3  C2  UNL d   1       0.742   1.247  -0.341  0.00  0.00     0.034 A 
ATOM      4  C3  UNL d   1       0.146   0.251   0.442  0.00  0.00     0.017 A 
ATOM      5  C4  UNL d   1       0.043   0.426   1.827  0.00  0.00     0.017 A 
ATOM      6  C5  UNL d   1       0.536   1.592   2.420  0.00  0.00     0.034 A 
ATOM      7 Cl   UNL d   1      -0.679  -0.758   2.859  0.00  0.00    -0.070 Cl
ATOM      8 Cl1  UNL d   1      -0.439  -1.161  -0.362  0.00  0.00    -0.070 Cl
ENDROOT
TORSDOF 0
ENDMDL
