MODEL 1
REMARK minimizedAffinity -1.98289907
REMARK minimizedRMSD -1
REMARK  0 active torsions:
REMARK  status: ('A' for Active; 'I' for Inactive)
ROOT
ATOM      1  C   UNL d   1      -1.446  -0.601   0.603  0.00  0.00     0.020 A 
ATOM      2  C1  UNL d   1      -0.867  -1.089  -0.567  0.00  0.00     0.020 A 
ATOM      3  C2  UNL d   1       0.444  -0.739  -0.896  0.00  0.00     0.034 A 
ATOM      4  C3  UNL d   1       1.180   0.103  -0.054  0.00  0.00     0.017 A 
ATOM      5  C4  UNL d   1       0.598   0.593   1.120  0.00  0.00     0.017 A 
ATOM      6  C5  UNL d   1      -0.716   0.239   1.445  0.00  0.00     0.034 A 
ATOM      7 Cl   UNL d   1       1.443   1.636   2.209  0.00  0.00    -0.070 Cl
ATOM      8 Cl1  UNL d   1       2.796   0.495  -0.523  0.00  0.00    -0.070 Cl
ENDROOT
TORSDOF 0
ENDMDL
