MODEL 1
REMARK minimizedAffinity -1.99110889
REMARK minimizedRMSD -1
REMARK  0 active torsions:
REMARK  status: ('A' for Active; 'I' for Inactive)
ROOT
ATOM      1  C   UNL d   1      -1.491  -0.354   0.496  0.00  0.00     0.020 A 
ATOM      2  C1  UNL d   1      -0.853  -1.029  -0.544  0.00  0.00     0.020 A 
ATOM      3  C2  UNL d   1       0.512  -0.835  -0.769  0.00  0.00     0.034 A 
ATOM      4  C3  UNL d   1       1.243   0.036   0.047  0.00  0.00     0.017 A 
ATOM      5  C4  UNL d   1       0.602   0.713   1.091  0.00  0.00     0.017 A 
ATOM      6  C5  UNL d   1      -0.765   0.515   1.311  0.00  0.00     0.034 A 
ATOM      7 Cl   UNL d   1       1.437   1.803   2.140  0.00  0.00    -0.070 Cl
ATOM      8 Cl1  UNL d   1       2.927   0.227  -0.288  0.00  0.00    -0.070 Cl
ENDROOT
TORSDOF 0
ENDMDL
