MODEL 1
REMARK minimizedAffinity 3.85734749
REMARK minimizedRMSD -1
REMARK  0 active torsions:
REMARK  status: ('A' for Active; 'I' for Inactive)
ROOT
ATOM      1  C   UNL d   1      -1.086  -0.902   0.638  0.00  0.00     0.020 A 
ATOM      2  C1  UNL d   1       0.177  -0.519   0.190  0.00  0.00     0.020 A 
ATOM      3  C2  UNL d   1       0.417  -0.370  -1.178  0.00  0.00     0.034 A 
ATOM      4  C3  UNL d   1      -0.608  -0.605  -2.102  0.00  0.00     0.017 A 
ATOM      5  C4  UNL d   1      -1.875  -0.990  -1.651  0.00  0.00     0.017 A 
ATOM      6  C5  UNL d   1      -2.110  -1.138  -0.280  0.00  0.00     0.034 A 
ATOM      7 Cl   UNL d   1      -3.189  -1.298  -2.730  0.00  0.00    -0.070 Cl
ATOM      8 Cl1  UNL d   1      -0.240  -0.402  -3.778  0.00  0.00    -0.070 Cl
ENDROOT
TORSDOF 0
ENDMDL
