MODEL 1
REMARK minimizedAffinity -2.36641765
REMARK minimizedRMSD -1
REMARK  0 active torsions:
REMARK  status: ('A' for Active; 'I' for Inactive)
ROOT
ATOM      1  C   UNL d   1       1.388   0.341  -0.990  0.00  0.00     0.020 A 
ATOM      2  C1  UNL d   1       0.470  -0.705  -1.064  0.00  0.00     0.020 A 
ATOM      3  C2  UNL d   1      -0.452  -0.900  -0.032  0.00  0.00     0.034 A 
ATOM      4  C3  UNL d   1      -0.457  -0.047   1.077  0.00  0.00     0.017 A 
ATOM      5  C4  UNL d   1       0.466   1.004   1.150  0.00  0.00     0.017 A 
ATOM      6  C5  UNL d   1       1.386   1.194   0.114  0.00  0.00     0.034 A 
ATOM      7 Cl   UNL d   1       0.520   2.098   2.487  0.00  0.00    -0.070 Cl
ATOM      8 Cl1  UNL d   1      -1.624  -0.346   2.315  0.00  0.00    -0.070 Cl
ENDROOT
TORSDOF 0
ENDMDL
