MODEL 1
REMARK minimizedAffinity -0.216027275
REMARK minimizedRMSD -1
REMARK  0 active torsions:
REMARK  status: ('A' for Active; 'I' for Inactive)
ROOT
ATOM      1  C   UNL d   1      -0.464  -1.489  -0.791  0.00  0.00     0.020 A 
ATOM      2  C1  UNL d   1      -0.231  -0.768  -1.962  0.00  0.00     0.020 A 
ATOM      3  C2  UNL d   1      -1.197  -0.741  -2.969  0.00  0.00     0.034 A 
ATOM      4  C3  UNL d   1      -2.401  -1.437  -2.809  0.00  0.00     0.017 A 
ATOM      5  C4  UNL d   1      -2.634  -2.160  -1.633  0.00  0.00     0.017 A 
ATOM      6  C5  UNL d   1      -1.663  -2.183  -0.627  0.00  0.00     0.034 A 
ATOM      7 Cl   UNL d   1      -4.095  -3.043  -1.363  0.00  0.00    -0.070 Cl
ATOM      8 Cl1  UNL d   1      -3.551  -1.360  -4.096  0.00  0.00    -0.070 Cl
ENDROOT
TORSDOF 0
ENDMDL
