MODEL 1
REMARK minimizedAffinity -4.0922637
REMARK minimizedRMSD -1
REMARK  0 active torsions:
REMARK  status: ('A' for Active; 'I' for Inactive)
ROOT
ATOM      1  C   UNL d   1      -1.692   0.158   1.019  0.00  0.00     0.020 A 
ATOM      2  C1  UNL d   1      -1.212  -0.817   0.145  0.00  0.00     0.020 A 
ATOM      3  C2  UNL d   1       0.113  -0.773  -0.291  0.00  0.00     0.034 A 
ATOM      4  C3  UNL d   1       0.964   0.249   0.146  0.00  0.00     0.017 A 
ATOM      5  C4  UNL d   1       0.482   1.227   1.023  0.00  0.00     0.017 A 
ATOM      6  C5  UNL d   1      -0.847   1.178   1.457  0.00  0.00     0.034 A 
ATOM      7 Cl   UNL d   1       1.472   2.519   1.606  0.00  0.00    -0.070 Cl
ATOM      8 Cl1  UNL d   1       2.592   0.242  -0.433  0.00  0.00    -0.070 Cl
ENDROOT
TORSDOF 0
ENDMDL
