MODEL 1
REMARK minimizedAffinity -2.14443588
REMARK minimizedRMSD -1
REMARK  0 active torsions:
REMARK  status: ('A' for Active; 'I' for Inactive)
ROOT
ATOM      1  C   UNL d   1      -1.322  -0.740   0.263  0.00  0.00     0.020 A 
ATOM      2  C1  UNL d   1      -0.614  -0.896  -0.927  0.00  0.00     0.020 A 
ATOM      3  C2  UNL d   1       0.610  -0.246  -1.102  0.00  0.00     0.034 A 
ATOM      4  C3  UNL d   1       1.128   0.564  -0.085  0.00  0.00     0.017 A 
ATOM      5  C4  UNL d   1       0.416   0.721   1.109  0.00  0.00     0.017 A 
ATOM      6  C5  UNL d   1      -0.808   0.067   1.279  0.00  0.00     0.034 A 
ATOM      7 Cl   UNL d   1       0.991   1.704   2.409  0.00  0.00    -0.070 Cl
ATOM      8 Cl1  UNL d   1       2.647   1.338  -0.370  0.00  0.00    -0.070 Cl
ENDROOT
TORSDOF 0
ENDMDL
