MODEL 1
REMARK minimizedAffinity -3.60299587
REMARK minimizedRMSD -1
REMARK  0 active torsions:
REMARK  status: ('A' for Active; 'I' for Inactive)
ROOT
ATOM      1  C   UNL d   1      -0.858  -1.454  -1.221  0.00  0.00     0.020 A 
ATOM      2  C1  UNL d   1      -0.903  -1.009  -2.541  0.00  0.00     0.020 A 
ATOM      3  C2  UNL d   1      -1.857  -1.527  -3.420  0.00  0.00     0.034 A 
ATOM      4  C3  UNL d   1      -2.769  -2.493  -2.980  0.00  0.00     0.017 A 
ATOM      5  C4  UNL d   1      -2.722  -2.939  -1.654  0.00  0.00     0.017 A 
ATOM      6  C5  UNL d   1      -1.766  -2.416  -0.778  0.00  0.00     0.034 A 
ATOM      7 Cl   UNL d   1      -3.815  -4.128  -1.037  0.00  0.00    -0.070 Cl
ATOM      8 Cl1  UNL d   1      -3.921  -3.089  -4.120  0.00  0.00    -0.070 Cl
ENDROOT
TORSDOF 0
ENDMDL
