MODEL 1
REMARK minimizedAffinity -5.32949591
REMARK minimizedRMSD -1
REMARK  0 active torsions:
REMARK  status: ('A' for Active; 'I' for Inactive)
ROOT
ATOM      1  C   UNL d   1      -0.976   1.105   1.536  0.00  0.00     0.020 A 
ATOM      2  C1  UNL d   1      -0.108   2.158   1.822  0.00  0.00     0.020 A 
ATOM      3  C2  UNL d   1       1.207   2.126   1.353  0.00  0.00     0.034 A 
ATOM      4  C3  UNL d   1       1.657   1.038   0.595  0.00  0.00     0.017 A 
ATOM      5  C4  UNL d   1       0.785  -0.018   0.309  0.00  0.00     0.017 A 
ATOM      6  C5  UNL d   1      -0.531   0.019   0.782  0.00  0.00     0.034 A 
ATOM      7 Cl   UNL d   1       1.268  -1.394  -0.619  0.00  0.00    -0.070 Cl
ATOM      8 Cl1  UNL d   1       3.296   1.065   0.047  0.00  0.00    -0.070 Cl
ENDROOT
TORSDOF 0
ENDMDL
