MODEL 1
REMARK minimizedAffinity -3.83525443
REMARK minimizedRMSD -1
REMARK  0 active torsions:
REMARK  status: ('A' for Active; 'I' for Inactive)
ROOT
ATOM      1  C   UNL d   1       2.250   0.469   0.358  0.00  0.00     0.020 A 
ATOM      2  C1  UNL d   1       1.837   1.388   1.322  0.00  0.00     0.020 A 
ATOM      3  C2  UNL d   1       0.484   1.488   1.656  0.00  0.00     0.034 A 
ATOM      4  C3  UNL d   1      -0.459   0.668   1.026  0.00  0.00     0.017 A 
ATOM      5  C4  UNL d   1      -0.043  -0.254   0.059  0.00  0.00     0.017 A 
ATOM      6  C5  UNL d   1       1.313  -0.350  -0.272  0.00  0.00     0.034 A 
ATOM      7 Cl   UNL d   1      -1.148  -1.299  -0.762  0.00  0.00    -0.070 Cl
ATOM      8 Cl1  UNL d   1      -2.114   0.846   1.489  0.00  0.00    -0.070 Cl
ENDROOT
TORSDOF 0
ENDMDL
