MODEL 1
REMARK minimizedAffinity 11.6843719
REMARK minimizedRMSD -1
REMARK  0 active torsions:
REMARK  status: ('A' for Active; 'I' for Inactive)
ROOT
ATOM      1  C1  DEN d   1       3.742  -2.631  -2.287  0.00  0.00     0.130 A 
ATOM      2  C2  DEN d   1       4.909  -2.875  -1.444  0.00  0.00    -0.031 A 
ATOM      3  C3  DEN d   1       6.000  -3.371  -2.307  0.00  0.00     0.027 A 
ATOM      4  C4  DEN d   1       5.996  -3.779  -4.854  0.00  0.00     0.027 A 
ATOM      5  C5  DEN d   1       5.231  -3.727  -5.998  0.00  0.00    -0.003 A 
ATOM      6  C6  DEN d   1       3.917  -3.341  -5.980  0.00  0.00     0.001 A 
ATOM      7  C7  DEN d   1       3.340  -2.949  -4.801  0.00  0.00     0.017 A 
ATOM      8  C8  DEN d   1       4.103  -3.006  -3.642  0.00  0.00    -0.094 A 
ATOM      9  C9  DEN d   1       5.434  -3.387  -3.683  0.00  0.00    -0.072 A 
ENDROOT
TORSDOF 0
ENDMDL
