MODEL 1
REMARK minimizedAffinity 13.3061686
REMARK minimizedRMSD -1
REMARK  0 active torsions:
REMARK  status: ('A' for Active; 'I' for Inactive)
ROOT
ATOM      1  C1  DEN d   1      -1.454  -2.722  -1.532  0.00  0.00     0.130 A 
ATOM      2  C2  DEN d   1      -2.719  -2.398  -0.879  0.00  0.00    -0.031 A 
ATOM      3  C3  DEN d   1      -2.532  -1.147  -0.116  0.00  0.00     0.027 A 
ATOM      4  C4  DEN d   1      -0.418   0.312   0.113  0.00  0.00     0.027 A 
ATOM      5  C5  DEN d   1       0.906   0.436  -0.249  0.00  0.00    -0.003 A 
ATOM      6  C6  DEN d   1       1.539  -0.494  -1.030  0.00  0.00     0.001 A 
ATOM      7  C7  DEN d   1       0.837  -1.567  -1.512  0.00  0.00     0.017 A 
ATOM      8  C8  DEN d   1      -0.495  -1.703  -1.145  0.00  0.00    -0.094 A 
ATOM      9  C9  DEN d   1      -1.121  -0.745  -0.365  0.00  0.00    -0.072 A 
ENDROOT
TORSDOF 0
ENDMDL
