MODEL 1
REMARK minimizedAffinity 5.93476629
REMARK minimizedRMSD -1
REMARK  0 active torsions:
REMARK  status: ('A' for Active; 'I' for Inactive)
ROOT
ATOM      1  C1  DEN d   1      -1.096  -3.114  -4.376  0.00  0.00     0.130 A 
ATOM      2  C2  DEN d   1      -2.029  -4.176  -4.742  0.00  0.00    -0.031 A 
ATOM      3  C3  DEN d   1      -2.967  -4.368  -3.617  0.00  0.00     0.027 A 
ATOM      4  C4  DEN d   1      -3.067  -3.127  -1.359  0.00  0.00     0.027 A 
ATOM      5  C5  DEN d   1      -2.475  -2.153  -0.586  0.00  0.00    -0.003 A 
ATOM      6  C6  DEN d   1      -1.370  -1.460  -1.005  0.00  0.00     0.001 A 
ATOM      7  C7  DEN d   1      -0.849  -1.700  -2.249  0.00  0.00     0.017 A 
ATOM      8  C8  DEN d   1      -1.436  -2.686  -3.031  0.00  0.00    -0.094 A 
ATOM      9  C9  DEN d   1      -2.560  -3.367  -2.594  0.00  0.00    -0.072 A 
ENDROOT
TORSDOF 0
ENDMDL
