MODEL 1
REMARK minimizedAffinity 1.98487222
REMARK minimizedRMSD -1
REMARK  0 active torsions:
REMARK  status: ('A' for Active; 'I' for Inactive)
ROOT
ATOM      1  C1  DEN d   1      -2.999  -1.998   4.747  0.00  0.00     0.130 A 
ATOM      2  C2  DEN d   1      -3.748  -1.985   6.000  0.00  0.00    -0.031 A 
ATOM      3  C3  DEN d   1      -4.617  -0.791   6.000  0.00  0.00     0.027 A 
ATOM      4  C4  DEN d   1      -4.875   1.028   4.189  0.00  0.00     0.027 A 
ATOM      5  C5  DEN d   1      -4.438   1.451   2.953  0.00  0.00    -0.003 A 
ATOM      6  C6  DEN d   1      -3.474   0.779   2.250  0.00  0.00     0.001 A 
ATOM      7  C7  DEN d   1      -2.947  -0.379   2.757  0.00  0.00     0.017 A 
ATOM      8  C8  DEN d   1      -3.377  -0.809   4.005  0.00  0.00    -0.094 A 
ATOM      9  C9  DEN d   1      -4.362  -0.122   4.696  0.00  0.00    -0.072 A 
ENDROOT
TORSDOF 0
ENDMDL
