MODEL 1
REMARK minimizedAffinity 10.548667
REMARK minimizedRMSD -1
REMARK  0 active torsions:
REMARK  status: ('A' for Active; 'I' for Inactive)
ROOT
ATOM      1  C1  DEN d   1      -2.275   0.896  -0.019  0.00  0.00     0.130 A 
ATOM      2  C2  DEN d   1      -1.117   0.008  -0.066  0.00  0.00    -0.031 A 
ATOM      3  C3  DEN d   1      -1.082  -0.763   1.193  0.00  0.00     0.027 A 
ATOM      4  C4  DEN d   1      -2.702  -0.671   3.197  0.00  0.00     0.027 A 
ATOM      5  C5  DEN d   1      -3.830  -0.062   3.702  0.00  0.00    -0.003 A 
ATOM      6  C6  DEN d   1      -4.493   0.925   3.022  0.00  0.00     0.001 A 
ATOM      7  C7  DEN d   1      -4.061   1.301   1.778  0.00  0.00     0.017 A 
ATOM      8  C8  DEN d   1      -2.920   0.697   1.266  0.00  0.00    -0.094 A 
ATOM      9  C9  DEN d   1      -2.271  -0.308   1.963  0.00  0.00    -0.072 A 
ENDROOT
TORSDOF 0
ENDMDL
