MODEL 1
REMARK minimizedAffinity 11.065196
REMARK minimizedRMSD -1
REMARK  0 active torsions:
REMARK  status: ('A' for Active; 'I' for Inactive)
ROOT
ATOM      1  C1  DEN d   1       3.634  -2.263  -4.203  0.00  0.00     0.130 A 
ATOM      2  C2  DEN d   1       4.851  -2.218  -5.009  0.00  0.00    -0.031 A 
ATOM      3  C3  DEN d   1       5.995  -2.521  -4.126  0.00  0.00     0.027 A 
ATOM      4  C4  DEN d   1       5.999  -3.060  -1.603  0.00  0.00     0.027 A 
ATOM      5  C5  DEN d   1       5.208  -3.204  -0.485  0.00  0.00    -0.003 A 
ATOM      6  C6  DEN d   1       3.852  -3.013  -0.520  0.00  0.00     0.001 A 
ATOM      7  C7  DEN d   1       3.240  -2.711  -1.708  0.00  0.00     0.017 A 
ATOM      8  C8  DEN d   1       4.032  -2.557  -2.838  0.00  0.00    -0.094 A 
ATOM      9  C9  DEN d   1       5.399  -2.766  -2.784  0.00  0.00    -0.072 A 
ENDROOT
TORSDOF 0
ENDMDL
