MODEL 1
REMARK minimizedAffinity 13.2648354
REMARK minimizedRMSD -1
REMARK  0 active torsions:
REMARK  status: ('A' for Active; 'I' for Inactive)
ROOT
ATOM      1  C1  DEN d   1       3.152   2.508  -0.737  0.00  0.00     0.130 A 
ATOM      2  C2  DEN d   1       4.128   3.592  -0.816  0.00  0.00    -0.031 A 
ATOM      3  C3  DEN d   1       3.746   4.624   0.168  0.00  0.00     0.027 A 
ATOM      4  C4  DEN d   1       1.750   4.647   1.802  0.00  0.00     0.027 A 
ATOM      5  C5  DEN d   1       0.640   3.952   2.229  0.00  0.00    -0.003 A 
ATOM      6  C6  DEN d   1       0.274   2.752   1.678  0.00  0.00     0.001 A 
ATOM      7  C7  DEN d   1       1.050   2.190   0.699  0.00  0.00     0.017 A 
ATOM      8  C8  DEN d   1       2.166   2.888   0.259  0.00  0.00    -0.094 A 
ATOM      9  C9  DEN d   1       2.527   4.094   0.837  0.00  0.00    -0.072 A 
ENDROOT
TORSDOF 0
ENDMDL
