MODEL 1
REMARK minimizedAffinity 8.64775085
REMARK minimizedRMSD -1
REMARK  0 active torsions:
REMARK  status: ('A' for Active; 'I' for Inactive)
ROOT
ATOM      1  C1  DEN d   1      -2.809  -3.480  -1.942  0.00  0.00     0.130 A 
ATOM      2  C2  DEN d   1      -2.185  -2.189  -1.663  0.00  0.00    -0.031 A 
ATOM      3  C3  DEN d   1      -1.497  -1.740  -2.890  0.00  0.00     0.027 A 
ATOM      4  C4  DEN d   1      -1.343  -2.909  -5.185  0.00  0.00     0.027 A 
ATOM      5  C5  DEN d   1      -1.704  -4.029  -5.900  0.00  0.00    -0.003 A 
ATOM      6  C6  DEN d   1      -2.424  -5.052  -5.342  0.00  0.00     0.001 A 
ATOM      7  C7  DEN d   1      -2.845  -4.955  -4.041  0.00  0.00     0.017 A 
ATOM      8  C8  DEN d   1      -2.478  -3.832  -3.311  0.00  0.00    -0.094 A 
ATOM      9  C9  DEN d   1      -1.761  -2.803  -3.898  0.00  0.00    -0.072 A 
ENDROOT
TORSDOF 0
ENDMDL
