MODEL 1
REMARK minimizedAffinity 8.71046257
REMARK minimizedRMSD -1
REMARK  0 active torsions:
REMARK  status: ('A' for Active; 'I' for Inactive)
ROOT
ATOM      1  C1  DEN d   1      -4.545  -2.627  -0.107  0.00  0.00     0.130 A 
ATOM      2  C2  DEN d   1      -4.726  -3.479  -1.279  0.00  0.00    -0.031 A 
ATOM      3  C3  DEN d   1      -3.465  -3.470  -2.049  0.00  0.00     0.027 A 
ATOM      4  C4  DEN d   1      -1.262  -2.229  -1.539  0.00  0.00     0.027 A 
ATOM      5  C5  DEN d   1      -0.633  -1.374  -0.662  0.00  0.00    -0.003 A 
ATOM      6  C6  DEN d   1      -1.269  -0.854   0.434  0.00  0.00     0.001 A 
ATOM      7  C7  DEN d   1      -2.560  -1.220   0.707  0.00  0.00     0.017 A 
ATOM      8  C8  DEN d   1      -3.204  -2.076  -0.177  0.00  0.00    -0.094 A 
ATOM      9  C9  DEN d   1      -2.540  -2.601  -1.273  0.00  0.00    -0.072 A 
ENDROOT
TORSDOF 0
ENDMDL
