MODEL 1
REMARK minimizedAffinity 3.70771146
REMARK minimizedRMSD -1
REMARK  0 active torsions:
REMARK  status: ('A' for Active; 'I' for Inactive)
ROOT
ATOM      1  C1  DEN d   1       0.429  -0.389  -1.806  0.00  0.00     0.130 A 
ATOM      2  C2  DEN d   1      -0.510  -0.460  -0.690  0.00  0.00    -0.031 A 
ATOM      3  C3  DEN d   1       0.076  -1.335   0.345  0.00  0.00     0.027 A 
ATOM      4  C4  DEN d   1       2.337  -2.577   0.329  0.00  0.00     0.027 A 
ATOM      5  C5  DEN d   1       3.473  -2.832  -0.407  0.00  0.00    -0.003 A 
ATOM      6  C6  DEN d   1       3.657  -2.321  -1.665  0.00  0.00     0.001 A 
ATOM      7  C7  DEN d   1       2.710  -1.492  -2.207  0.00  0.00     0.017 A 
ATOM      8  C8  DEN d   1       1.559  -1.238  -1.474  0.00  0.00    -0.094 A 
ATOM      9  C9  DEN d   1       1.396  -1.753  -0.199  0.00  0.00    -0.072 A 
ENDROOT
TORSDOF 0
ENDMDL
