MODEL 1
REMARK minimizedAffinity 19.0783634
REMARK minimizedRMSD -1
REMARK  0 active torsions:
REMARK  status: ('A' for Active; 'I' for Inactive)
ROOT
ATOM      1  C1  DEN d   1       0.564  -1.229  -3.070  0.00  0.00     0.130 A 
ATOM      2  C2  DEN d   1       1.649  -0.259  -2.947  0.00  0.00    -0.031 A 
ATOM      3  C3  DEN d   1       1.622   0.284  -1.574  0.00  0.00     0.027 A 
ATOM      4  C4  DEN d   1       0.017  -0.283   0.364  0.00  0.00     0.027 A 
ATOM      5  C5  DEN d   1      -1.073  -1.039   0.734  0.00  0.00    -0.003 A 
ATOM      6  C6  DEN d   1      -1.710  -1.879  -0.140  0.00  0.00     0.001 A 
ATOM      7  C7  DEN d   1      -1.234  -2.018  -1.417  0.00  0.00     0.017 A 
ATOM      8  C8  DEN d   1      -0.139  -1.253  -1.800  0.00  0.00    -0.094 A 
ATOM      9  C9  DEN d   1       0.498  -0.419  -0.898  0.00  0.00    -0.072 A 
ENDROOT
TORSDOF 0
ENDMDL
