MODEL 1
REMARK minimizedAffinity 6.01481962
REMARK minimizedRMSD -1
REMARK  0 active torsions:
REMARK  status: ('A' for Active; 'I' for Inactive)
ROOT
ATOM      1  C1  DEN d   1      -2.691  -3.426  -1.466  0.00  0.00     0.130 A 
ATOM      2  C2  DEN d   1      -2.290  -3.597  -2.859  0.00  0.00    -0.031 A 
ATOM      3  C3  DEN d   1      -1.293  -2.556  -3.179  0.00  0.00     0.027 A 
ATOM      4  C4  DEN d   1      -0.332  -0.708  -1.658  0.00  0.00     0.027 A 
ATOM      5  C5  DEN d   1      -0.377  -0.156  -0.397  0.00  0.00    -0.003 A 
ATOM      6  C6  DEN d   1      -1.214  -0.630   0.578  0.00  0.00     0.001 A 
ATOM      7  C7  DEN d   1      -2.009  -1.716   0.322  0.00  0.00     0.017 A 
ATOM      8  C8  DEN d   1      -1.975  -2.273  -0.950  0.00  0.00    -0.094 A 
ATOM      9  C9  DEN d   1      -1.112  -1.788  -1.918  0.00  0.00    -0.072 A 
ENDROOT
TORSDOF 0
ENDMDL
