MODEL 1
REMARK minimizedAffinity 9.21759415
REMARK minimizedRMSD -1
REMARK  0 active torsions:
REMARK  status: ('A' for Active; 'I' for Inactive)
ROOT
ATOM      1  C1  DEN d   1      -2.541  -2.319  -0.841  0.00  0.00     0.130 A 
ATOM      2  C2  DEN d   1      -1.950  -2.978  -2.002  0.00  0.00    -0.031 A 
ATOM      3  C3  DEN d   1      -0.620  -2.381  -2.239  0.00  0.00     0.027 A 
ATOM      4  C4  DEN d   1       0.577  -0.513  -0.923  0.00  0.00     0.027 A 
ATOM      5  C5  DEN d   1       0.467   0.362   0.134  0.00  0.00    -0.003 A 
ATOM      6  C6  DEN d   1      -0.657   0.429   0.914  0.00  0.00     0.001 A 
ATOM      7  C7  DEN d   1      -1.700  -0.427   0.675  0.00  0.00     0.017 A 
ATOM      8  C8  DEN d   1      -1.600  -1.308  -0.394  0.00  0.00    -0.094 A 
ATOM      9  C9  DEN d   1      -0.450  -1.368  -1.163  0.00  0.00    -0.072 A 
ENDROOT
TORSDOF 0
ENDMDL
