MODEL 1
REMARK minimizedAffinity 1.21240401
REMARK minimizedRMSD -1
REMARK  0 active torsions:
REMARK  status: ('A' for Active; 'I' for Inactive)
ROOT
ATOM      1  C1  DEN d   1       5.998  -3.732  -1.747  0.00  0.00     0.130 A 
ATOM      2  C2  DEN d   1       4.965  -3.419  -0.764  0.00  0.00    -0.031 A 
ATOM      3  C3  DEN d   1       3.739  -3.041  -1.494  0.00  0.00     0.027 A 
ATOM      4  C4  DEN d   1       3.338  -2.918  -4.039  0.00  0.00     0.027 A 
ATOM      5  C5  DEN d   1       3.921  -3.082  -5.276  0.00  0.00    -0.003 A 
ATOM      6  C6  DEN d   1       5.236  -3.438  -5.423  0.00  0.00     0.001 A 
ATOM      7  C7  DEN d   1       5.999  -3.686  -4.313  0.00  0.00     0.017 A 
ATOM      8  C8  DEN d   1       5.421  -3.516  -3.062  0.00  0.00    -0.094 A 
ATOM      9  C9  DEN d   1       4.087  -3.167  -2.935  0.00  0.00    -0.072 A 
ENDROOT
TORSDOF 0
ENDMDL
