MODEL 1
REMARK minimizedAffinity 0.927451432
REMARK minimizedRMSD -1
REMARK  0 active torsions:
REMARK  status: ('A' for Active; 'I' for Inactive)
ROOT
ATOM      1  C1  DEN d   1       1.375   3.636   1.368  0.00  0.00     0.130 A 
ATOM      2  C2  DEN d   1       2.790   3.803   1.050  0.00  0.00    -0.031 A 
ATOM      3  C3  DEN d   1       3.171   2.747   0.091  0.00  0.00     0.027 A 
ATOM      4  C4  DEN d   1       1.712   0.882  -0.932  0.00  0.00     0.027 A 
ATOM      5  C5  DEN d   1       0.451   0.328  -0.955  0.00  0.00    -0.003 A 
ATOM      6  C6  DEN d   1      -0.573   0.813  -0.186  0.00  0.00     0.001 A 
ATOM      7  C7  DEN d   1      -0.367   1.912   0.605  0.00  0.00     0.017 A 
ATOM      8  C8  DEN d   1       0.904   2.471   0.639  0.00  0.00    -0.094 A 
ATOM      9  C9  DEN d   1       1.924   1.974  -0.154  0.00  0.00    -0.072 A 
ENDROOT
TORSDOF 0
ENDMDL
