MODEL 1
REMARK minimizedAffinity 7.38085842
REMARK minimizedRMSD -1
REMARK  0 active torsions:
REMARK  status: ('A' for Active; 'I' for Inactive)
ROOT
ATOM      1  C1  BNZ d   1       2.631  -0.543   1.969  0.00  0.00     0.000 A 
ATOM      2  C2  BNZ d   1       2.119   0.028   3.103  0.00  0.00     0.000 A 
ATOM      3  C3  BNZ d   1       2.085  -0.664   4.281  0.00  0.00     0.000 A 
ATOM      4  C4  BNZ d   1       2.526  -1.938   4.314  0.00  0.00     0.000 A 
ATOM      5  C5  BNZ d   1       3.037  -2.531   3.177  0.00  0.00     0.000 A 
ATOM      6  C6  BNZ d   1       3.105  -1.818   2.002  0.00  0.00     0.000 A 
ENDROOT
TORSDOF 0
ENDMDL
