MODEL 1
REMARK minimizedAffinity -0.0229045488
REMARK minimizedRMSD -1
REMARK  0 active torsions:
REMARK  status: ('A' for Active; 'I' for Inactive)
ROOT
ATOM      1  C1  BNZ d   1       3.695   0.735   0.678  0.00  0.00     0.000 A 
ATOM      2  C2  BNZ d   1       3.729  -0.383   1.467  0.00  0.00     0.000 A 
ATOM      3  C3  BNZ d   1       2.786  -0.585   2.436  0.00  0.00     0.000 A 
ATOM      4  C4  BNZ d   1       1.835   0.349   2.640  0.00  0.00     0.000 A 
ATOM      5  C5  BNZ d   1       1.793   1.486   1.859  0.00  0.00     0.000 A 
ATOM      6  C6  BNZ d   1       2.721   1.668   0.859  0.00  0.00     0.000 A 
ENDROOT
TORSDOF 0
ENDMDL
