MODEL 1
REMARK minimizedAffinity 2.02969193
REMARK minimizedRMSD -1
REMARK  0 active torsions:
REMARK  status: ('A' for Active; 'I' for Inactive)
ROOT
ATOM      1  C1  BNZ d   1       2.844  -5.730  -3.097  0.00  0.00     0.000 A 
ATOM      2  C2  BNZ d   1       2.247  -5.728  -4.329  0.00  0.00     0.000 A 
ATOM      3  C3  BNZ d   1       2.988  -5.883  -5.467  0.00  0.00     0.000 A 
ATOM      4  C4  BNZ d   1       4.329  -5.999  -5.374  0.00  0.00     0.000 A 
ATOM      5  C5  BNZ d   1       4.947  -5.994  -4.140  0.00  0.00     0.000 A 
ATOM      6  C6  BNZ d   1       4.193  -5.876  -2.994  0.00  0.00     0.000 A 
ENDROOT
TORSDOF 0
ENDMDL
