MODEL 1
REMARK minimizedAffinity 4.86023855
REMARK minimizedRMSD -1
REMARK  0 active torsions:
REMARK  status: ('A' for Active; 'I' for Inactive)
ROOT
ATOM      1  C1  BNZ d   1       3.149  -2.315   2.025  0.00  0.00     0.000 A 
ATOM      2  C2  BNZ d   1       2.627  -1.119   1.610  0.00  0.00     0.000 A 
ATOM      3  C3  BNZ d   1       1.876  -0.351   2.457  0.00  0.00     0.000 A 
ATOM      4  C4  BNZ d   1       1.615  -0.799   3.702  0.00  0.00     0.000 A 
ATOM      5  C5  BNZ d   1       2.127  -2.007   4.132  0.00  0.00     0.000 A 
ATOM      6  C6  BNZ d   1       2.914  -2.759   3.290  0.00  0.00     0.000 A 
ENDROOT
TORSDOF 0
ENDMDL
