MODEL 1
REMARK minimizedAffinity -0.230909929
REMARK minimizedRMSD -1
REMARK  0 active torsions:
REMARK  status: ('A' for Active; 'I' for Inactive)
ROOT
ATOM      1  C1  BNZ d   1       3.436  -3.992   5.056  0.00  0.00     0.000 A 
ATOM      2  C2  BNZ d   1       3.003  -4.888   5.997  0.00  0.00     0.000 A 
ATOM      3  C3  BNZ d   1       1.710  -5.332   5.999  0.00  0.00     0.000 A 
ATOM      4  C4  BNZ d   1       0.843  -4.851   5.086  0.00  0.00     0.000 A 
ATOM      5  C5  BNZ d   1       1.261  -3.940   4.136  0.00  0.00     0.000 A 
ATOM      6  C6  BNZ d   1       2.573  -3.525   4.113  0.00  0.00     0.000 A 
ENDROOT
TORSDOF 0
ENDMDL
