MODEL 1
REMARK minimizedAffinity 1.94551158
REMARK minimizedRMSD -1
REMARK  0 active torsions:
REMARK  status: ('A' for Active; 'I' for Inactive)
ROOT
ATOM      1  C1  BNZ d   1       1.475   4.130   0.891  0.00  0.00     0.000 A 
ATOM      2  C2  BNZ d   1       1.589   5.227   0.079  0.00  0.00     0.000 A 
ATOM      3  C3  BNZ d   1       2.383   5.194  -1.034  0.00  0.00     0.000 A 
ATOM      4  C4  BNZ d   1       3.092   4.081  -1.310  0.00  0.00     0.000 A 
ATOM      5  C5  BNZ d   1       2.994   2.970  -0.496  0.00  0.00     0.000 A 
ATOM      6  C6  BNZ d   1       2.164   2.993   0.601  0.00  0.00     0.000 A 
ENDROOT
TORSDOF 0
ENDMDL
