MODEL 1
REMARK minimizedAffinity 1.39282858
REMARK minimizedRMSD -1
REMARK  0 active torsions:
REMARK  status: ('A' for Active; 'I' for Inactive)
ROOT
ATOM      1  C1  BNZ d   1       3.666  -2.170   4.914  0.00  0.00     0.000 A 
ATOM      2  C2  BNZ d   1       2.916  -2.319   3.778  0.00  0.00     0.000 A 
ATOM      3  C3  BNZ d   1       2.251  -1.256   3.233  0.00  0.00     0.000 A 
ATOM      4  C4  BNZ d   1       2.305  -0.056   3.846  0.00  0.00     0.000 A 
ATOM      5  C5  BNZ d   1       3.049   0.109   4.997  0.00  0.00     0.000 A 
ATOM      6  C6  BNZ d   1       3.749  -0.955   5.521  0.00  0.00     0.000 A 
ENDROOT
TORSDOF 0
ENDMDL
