MODEL 1
REMARK minimizedAffinity 0.533350766
REMARK minimizedRMSD -1
REMARK  0 active torsions:
REMARK  status: ('A' for Active; 'I' for Inactive)
ROOT
ATOM      1  C1  BNZ d   1       2.139   0.648   3.843  0.00  0.00     0.000 A 
ATOM      2  C2  BNZ d   1       2.031  -0.034   2.660  0.00  0.00     0.000 A 
ATOM      3  C3  BNZ d   1       2.387  -1.351   2.576  0.00  0.00     0.000 A 
ATOM      4  C4  BNZ d   1       2.887  -1.973   3.663  0.00  0.00     0.000 A 
ATOM      5  C5  BNZ d   1       3.011  -1.296   4.861  0.00  0.00     0.000 A 
ATOM      6  C6  BNZ d   1       2.615   0.018   4.951  0.00  0.00     0.000 A 
ENDROOT
TORSDOF 0
ENDMDL
