MODEL 1
REMARK minimizedAffinity -2.53553295
REMARK minimizedRMSD -1
REMARK  0 active torsions:
REMARK  status: ('A' for Active; 'I' for Inactive)
ROOT
ATOM      1  C   UNL d   1      -0.999   1.583   2.822  0.00  0.00     0.078 C 
ATOM      2  C1  UNL d   1      -0.740   0.877   1.524  0.00  0.00    -0.077 A 
ATOM      3  C2  UNL d   1      -1.792   0.337   0.774  0.00  0.00    -0.001 A 
ATOM      4  C3  UNL d   1      -1.535  -0.326  -0.427  0.00  0.00     0.003 A 
ATOM      5  C4  UNL d   1      -0.227  -0.456  -0.888  0.00  0.00    -0.005 A 
ATOM      6  C5  UNL d   1       0.827   0.076  -0.148  0.00  0.00     0.003 A 
ATOM      7  C6  UNL d   1       0.572   0.739   1.054  0.00  0.00    -0.001 A 
ENDROOT
TORSDOF 0
ENDMDL
