MODEL 1
REMARK minimizedAffinity -2.1446867
REMARK minimizedRMSD -1
REMARK  0 active torsions:
REMARK  status: ('A' for Active; 'I' for Inactive)
ROOT
ATOM      1  C   UNL d   1       0.417  -0.798  -1.762  0.00  0.00     0.078 C 
ATOM      2  C1  UNL d   1      -0.590  -0.233  -0.805  0.00  0.00    -0.077 A 
ATOM      3  C2  UNL d   1      -0.234   0.085   0.512  0.00  0.00    -0.001 A 
ATOM      4  C3  UNL d   1      -1.184   0.602   1.394  0.00  0.00     0.003 A 
ATOM      5  C4  UNL d   1      -2.496   0.803   0.970  0.00  0.00    -0.005 A 
ATOM      6  C5  UNL d   1      -2.860   0.488  -0.337  0.00  0.00     0.003 A 
ATOM      7  C6  UNL d   1      -1.911  -0.028  -1.221  0.00  0.00    -0.001 A 
ENDROOT
TORSDOF 0
ENDMDL
