MODEL 1
REMARK minimizedAffinity -4.36928606
REMARK minimizedRMSD -1
REMARK  0 active torsions:
REMARK  status: ('A' for Active; 'I' for Inactive)
ROOT
ATOM      1  C   UNL d   1       0.399  -0.627  -1.052  0.00  0.00     0.078 C 
ATOM      2  C1  UNL d   1      -0.071   0.003   0.225  0.00  0.00    -0.077 A 
ATOM      3  C2  UNL d   1       0.821   0.265   1.272  0.00  0.00    -0.001 A 
ATOM      4  C3  UNL d   1       0.368   0.843   2.458  0.00  0.00     0.003 A 
ATOM      5  C4  UNL d   1      -0.980   1.162   2.611  0.00  0.00    -0.005 A 
ATOM      6  C5  UNL d   1      -1.876   0.902   1.576  0.00  0.00     0.003 A 
ATOM      7  C6  UNL d   1      -1.424   0.325   0.388  0.00  0.00    -0.001 A 
ENDROOT
TORSDOF 0
ENDMDL
