MODEL 1
REMARK minimizedAffinity -2.39131117
REMARK minimizedRMSD -1
REMARK  0 active torsions:
REMARK  status: ('A' for Active; 'I' for Inactive)
ROOT
ATOM      1  C   UNL d   1      -1.430  -1.277  -0.164  0.00  0.00     0.078 C 
ATOM      2  C1  UNL d   1      -0.862  -0.108   0.584  0.00  0.00    -0.077 A 
ATOM      3  C2  UNL d   1       0.374   0.445   0.226  0.00  0.00    -0.001 A 
ATOM      4  C3  UNL d   1       0.895   1.527   0.937  0.00  0.00     0.003 A 
ATOM      5  C4  UNL d   1       0.188   2.064   2.011  0.00  0.00    -0.005 A 
ATOM      6  C5  UNL d   1      -1.041   1.519   2.376  0.00  0.00     0.003 A 
ATOM      7  C6  UNL d   1      -1.564   0.437   1.666  0.00  0.00    -0.001 A 
ENDROOT
TORSDOF 0
ENDMDL
