MODEL 1
REMARK minimizedAffinity -3.00754261
REMARK minimizedRMSD -1
REMARK  0 active torsions:
REMARK  status: ('A' for Active; 'I' for Inactive)
ROOT
ATOM      1  C   UNL d   1      -0.750   1.697   2.536  0.00  0.00     0.078 C 
ATOM      2  C1  UNL d   1      -0.482   0.875   1.311  0.00  0.00    -0.077 A 
ATOM      3  C2  UNL d   1      -1.517   0.529   0.433  0.00  0.00    -0.001 A 
ATOM      4  C3  UNL d   1      -1.254  -0.245  -0.698  0.00  0.00     0.003 A 
ATOM      5  C4  UNL d   1       0.043  -0.681  -0.962  0.00  0.00    -0.005 A 
ATOM      6  C5  UNL d   1       1.079  -0.343  -0.093  0.00  0.00     0.003 A 
ATOM      7  C6  UNL d   1       0.818   0.430   1.039  0.00  0.00    -0.001 A 
ENDROOT
TORSDOF 0
ENDMDL
