MODEL 1
REMARK minimizedAffinity -5.16274214
REMARK minimizedRMSD -1
REMARK  0 active torsions:
REMARK  status: ('A' for Active; 'I' for Inactive)
ROOT
ATOM      1  C   UNL d   1       0.453  -0.707  -1.159  0.00  0.00     0.078 C 
ATOM      2  C1  UNL d   1      -0.070   0.038   0.033  0.00  0.00    -0.077 A 
ATOM      3  C2  UNL d   1      -1.413  -0.068   0.417  0.00  0.00    -0.001 A 
ATOM      4  C3  UNL d   1      -1.888   0.638   1.523  0.00  0.00     0.003 A 
ATOM      5  C4  UNL d   1      -1.029   1.457   2.253  0.00  0.00    -0.005 A 
ATOM      6  C5  UNL d   1       0.308   1.570   1.877  0.00  0.00     0.003 A 
ATOM      7  C6  UNL d   1       0.786   0.864   0.771  0.00  0.00    -0.001 A 
ENDROOT
TORSDOF 0
ENDMDL
