MODEL 1
REMARK minimizedAffinity -5.58352947
REMARK minimizedRMSD -1
REMARK  0 active torsions:
REMARK  status: ('A' for Active; 'I' for Inactive)
ROOT
ATOM      1  C   UNL d   1       0.761  -0.739  -1.155  0.00  0.00     0.078 C 
ATOM      2  C1  UNL d   1       0.190  -0.013   0.026  0.00  0.00    -0.077 A 
ATOM      3  C2  UNL d   1      -1.177   0.282   0.100  0.00  0.00    -0.001 A 
ATOM      4  C3  UNL d   1      -1.693   0.967   1.201  0.00  0.00     0.003 A 
ATOM      5  C4  UNL d   1      -0.849   1.364   2.236  0.00  0.00    -0.005 A 
ATOM      6  C5  UNL d   1       0.513   1.078   2.170  0.00  0.00     0.003 A 
ATOM      7  C6  UNL d   1       1.031   0.393   1.070  0.00  0.00    -0.001 A 
ENDROOT
TORSDOF 0
ENDMDL
