MODEL 1
REMARK minimizedAffinity -5.18496656
REMARK minimizedRMSD -1
REMARK  0 active torsions:
REMARK  status: ('A' for Active; 'I' for Inactive)
ROOT
ATOM      1  C   UNL d   1      -1.056   1.516   2.702  0.00  0.00     0.078 C 
ATOM      2  C1  UNL d   1      -0.773   0.782   1.425  0.00  0.00    -0.077 A 
ATOM      3  C2  UNL d   1       0.541   0.517   1.021  0.00  0.00    -0.001 A 
ATOM      4  C3  UNL d   1       0.789  -0.158  -0.175  0.00  0.00     0.003 A 
ATOM      5  C4  UNL d   1      -0.271  -0.574  -0.977  0.00  0.00    -0.005 A 
ATOM      6  C5  UNL d   1      -1.583  -0.314  -0.585  0.00  0.00     0.003 A 
ATOM      7  C6  UNL d   1      -1.833   0.362   0.611  0.00  0.00    -0.001 A 
ENDROOT
TORSDOF 0
ENDMDL
