MODEL 1
REMARK minimizedAffinity -3.71229339
REMARK minimizedRMSD -1
REMARK  0 active torsions:
REMARK  status: ('A' for Active; 'I' for Inactive)
ROOT
ATOM      1  C   UNL d   1      -1.117   0.066   1.133  0.00  0.00     0.172 C 
ATOM      2  N   UNL d   1       0.158  -0.442   1.583  0.00  0.00    -0.070 N 
ATOM      3  C1  UNL d   1       1.291  -0.543   0.820  0.00  0.00    -0.004 A 
ATOM      4  C2  UNL d   1       2.287  -1.072   1.613  0.00  0.00    -0.047 A 
ATOM      5  C3  UNL d   1       1.733  -1.296   2.896  0.00  0.00    -0.047 A 
ATOM      6  C4  UNL d   1       0.414  -0.898   2.849  0.00  0.00    -0.004 A 
ENDROOT
TORSDOF 0
ENDMDL
