MODEL 1
REMARK minimizedAffinity -3.91790891
REMARK minimizedRMSD -1
REMARK  0 active torsions:
REMARK  status: ('A' for Active; 'I' for Inactive)
ROOT
ATOM      1  C   UNL d   1      -0.170   0.206  -0.767  0.00  0.00     0.172 C 
ATOM      2  N   UNL d   1       0.220  -0.230   0.554  0.00  0.00    -0.070 N 
ATOM      3  C1  UNL d   1       1.505  -0.326   1.016  0.00  0.00    -0.004 A 
ATOM      4  C2  UNL d   1       1.452  -0.777   2.317  0.00  0.00    -0.047 A 
ATOM      5  C3  UNL d   1       0.088  -0.960   2.648  0.00  0.00    -0.047 A 
ATOM      6  C4  UNL d   1      -0.653  -0.614   1.538  0.00  0.00    -0.004 A 
ENDROOT
TORSDOF 0
ENDMDL
