MODEL 1
REMARK minimizedAffinity -3.93852067
REMARK minimizedRMSD -1
REMARK  0 active torsions:
REMARK  status: ('A' for Active; 'I' for Inactive)
ROOT
ATOM      1  C   UNL d   1       0.715   0.370  -0.527  0.00  0.00     0.172 C 
ATOM      2  N   UNL d   1       1.244  -0.430   0.553  0.00  0.00    -0.070 N 
ATOM      3  C1  UNL d   1       0.925  -0.294   1.877  0.00  0.00    -0.004 A 
ATOM      4  C2  UNL d   1       1.637  -1.240   2.582  0.00  0.00    -0.047 A 
ATOM      5  C3  UNL d   1       2.412  -1.969   1.649  0.00  0.00    -0.047 A 
ATOM      6  C4  UNL d   1       2.150  -1.447   0.400  0.00  0.00    -0.004 A 
ENDROOT
TORSDOF 0
ENDMDL
