MODEL 1
REMARK minimizedAffinity -3.79488754
REMARK minimizedRMSD -1
REMARK  0 active torsions:
REMARK  status: ('A' for Active; 'I' for Inactive)
ROOT
ATOM      1  C   UNL d   1       1.764  -1.468   2.637  0.00  0.00     0.172 C 
ATOM      2  N   UNL d   1       0.745  -0.921   1.772  0.00  0.00    -0.070 N 
ATOM      3  C1  UNL d   1       0.911  -0.587   0.454  0.00  0.00    -0.004 A 
ATOM      4  C2  UNL d   1      -0.292  -0.102  -0.013  0.00  0.00    -0.047 A 
ATOM      5  C3  UNL d   1      -1.212  -0.144   1.062  0.00  0.00    -0.047 A 
ATOM      6  C4  UNL d   1      -0.544  -0.655   2.155  0.00  0.00    -0.004 A 
ENDROOT
TORSDOF 0
ENDMDL
