MODEL 1
REMARK minimizedAffinity -3.15521312
REMARK minimizedRMSD -1
REMARK  0 active torsions:
REMARK  status: ('A' for Active; 'I' for Inactive)
ROOT
ATOM      1  C   UNL d   1       1.476  -2.645   2.385  0.00  0.00     0.172 C 
ATOM      2  N   UNL d   1       0.604  -1.693   1.738  0.00  0.00    -0.070 N 
ATOM      3  C1  UNL d   1       0.517  -1.480   0.388  0.00  0.00    -0.004 A 
ATOM      4  C2  UNL d   1      -0.425  -0.496   0.176  0.00  0.00    -0.047 A 
ATOM      5  C3  UNL d   1      -0.920  -0.104   1.442  0.00  0.00    -0.047 A 
ATOM      6  C4  UNL d   1      -0.266  -0.861   2.391  0.00  0.00    -0.004 A 
ENDROOT
TORSDOF 0
ENDMDL
