MODEL 1
REMARK minimizedAffinity -3.66652465
REMARK minimizedRMSD -1
REMARK  0 active torsions:
REMARK  status: ('A' for Active; 'I' for Inactive)
ROOT
ATOM      1  C   UNL d   1       0.560  -1.107   2.705  0.00  0.00     0.172 C 
ATOM      2  N   UNL d   1       0.266  -0.735   1.341  0.00  0.00    -0.070 N 
ATOM      3  C1  UNL d   1      -0.969  -0.398   0.853  0.00  0.00    -0.004 A 
ATOM      4  C2  UNL d   1      -0.829  -0.109  -0.487  0.00  0.00    -0.047 A 
ATOM      5  C3  UNL d   1       0.537  -0.279  -0.817  0.00  0.00    -0.047 A 
ATOM      6  C4  UNL d   1       1.192  -0.667   0.333  0.00  0.00    -0.004 A 
ENDROOT
TORSDOF 0
ENDMDL
