MODEL 1
REMARK minimizedAffinity -3.9664278
REMARK minimizedRMSD -1
REMARK  0 active torsions:
REMARK  status: ('A' for Active; 'I' for Inactive)
ROOT
ATOM      1  C   UNL d   1       0.028  -0.357  -0.871  0.00  0.00     0.172 C 
ATOM      2  N   UNL d   1       0.838  -0.716   0.269  0.00  0.00    -0.070 N 
ATOM      3  C1  UNL d   1       2.124  -1.184   0.219  0.00  0.00    -0.004 A 
ATOM      4  C2  UNL d   1       2.542  -1.408   1.513  0.00  0.00    -0.047 A 
ATOM      5  C3  UNL d   1       1.470  -1.065   2.370  0.00  0.00    -0.047 A 
ATOM      6  C4  UNL d   1       0.428  -0.639   1.574  0.00  0.00    -0.004 A 
ENDROOT
TORSDOF 0
ENDMDL
