MODEL 1
REMARK minimizedAffinity -2.77306151
REMARK minimizedRMSD -1
REMARK  0 active torsions:
REMARK  status: ('A' for Active; 'I' for Inactive)
ROOT
ATOM      1  C   UNL d   1       0.031   0.225  -0.901  0.00  0.00     0.172 C 
ATOM      2  N   UNL d   1       0.448  -0.408   0.328  0.00  0.00    -0.070 N 
ATOM      3  C1  UNL d   1       1.528  -1.237   0.473  0.00  0.00    -0.004 A 
ATOM      4  C2  UNL d   1       1.585  -1.630   1.793  0.00  0.00    -0.047 A 
ATOM      5  C3  UNL d   1       0.500  -1.016   2.464  0.00  0.00    -0.047 A 
ATOM      6  C4  UNL d   1      -0.187  -0.266   1.534  0.00  0.00    -0.004 A 
ENDROOT
TORSDOF 0
ENDMDL
