MODEL 1
REMARK minimizedAffinity -3.97505045
REMARK minimizedRMSD -1
REMARK  0 active torsions:
REMARK  status: ('A' for Active; 'I' for Inactive)
ROOT
ATOM      1  C   UNL d   1      -0.061   0.434  -0.134  0.00  0.00     0.172 C 
ATOM      2  N   UNL d   1       0.766  -0.425   0.681  0.00  0.00    -0.070 N 
ATOM      3  C1  UNL d   1       0.718  -0.518   2.047  0.00  0.00    -0.004 A 
ATOM      4  C2  UNL d   1       1.661  -1.443   2.440  0.00  0.00    -0.047 A 
ATOM      5  C3  UNL d   1       2.298  -1.922   1.271  0.00  0.00    -0.047 A 
ATOM      6  C4  UNL d   1       1.725  -1.275   0.196  0.00  0.00    -0.004 A 
ENDROOT
TORSDOF 0
ENDMDL
