MODEL 1
REMARK minimizedAffinity 2.96437812
REMARK minimizedRMSD -1
REMARK  2 active torsions:
REMARK  status: ('A' for Active; 'I' for Inactive)
REMARK    1  A    between atoms: C2'_3  and  C1'_4 
REMARK    2  A    between atoms: C1'_4  and  C1_5 
ROOT
ATOM      1  C1  I4B d   1      -1.862   2.983  -4.304  0.00  0.00    -0.075 A 
ATOM      2  C2  I4B d   1      -1.311   3.855  -5.210  0.00  0.00     0.003 A 
ATOM      3  C3  I4B d   1      -0.075   3.552  -5.830  0.00  0.00     0.002 A 
ATOM      4  C4  I4B d   1       0.596   2.399  -5.480  0.00  0.00    -0.004 A 
ATOM      5  C5  I4B d   1       0.026   1.505  -4.579  0.00  0.00     0.002 A 
ATOM      6  C6  I4B d   1      -1.217   1.792  -3.996  0.00  0.00     0.003 A 
ENDROOT
BRANCH   1   7
ATOM      7  C1' I4B d   1      -3.152   3.350  -3.642  0.00  0.00     0.060 C 
BRANCH   7   8
ATOM      8  C2' I4B d   1      -3.705   2.107  -2.976  0.00  0.00    -0.013 C 
ATOM      9  C4' I4B d   1      -4.400   2.444  -1.683  0.00  0.00     0.013 C 
ATOM     10  C3' I4B d   1      -4.645   1.444  -3.939  0.00  0.00     0.013 C 
ENDBRANCH   7   8
ENDBRANCH   1   7
TORSDOF 2
ENDMDL
