MODEL 1
REMARK minimizedAffinity 8.57063293
REMARK minimizedRMSD -1
REMARK  2 active torsions:
REMARK  status: ('A' for Active; 'I' for Inactive)
REMARK    1  A    between atoms: C2'_3  and  C1'_4 
REMARK    2  A    between atoms: C1'_4  and  C1_5 
ROOT
ATOM      1  C1  I4B d   1      -2.737   2.808  -2.723  0.00  0.00    -0.075 A 
ATOM      2  C2  I4B d   1      -1.876   3.376  -1.816  0.00  0.00     0.003 A 
ATOM      3  C3  I4B d   1      -2.178   3.347  -0.433  0.00  0.00     0.002 A 
ATOM      4  C4  I4B d   1      -3.366   2.789  -0.008  0.00  0.00    -0.004 A 
ATOM      5  C5  I4B d   1      -4.226   2.194  -0.926  0.00  0.00     0.002 A 
ATOM      6  C6  I4B d   1      -3.904   2.192  -2.291  0.00  0.00     0.003 A 
ENDROOT
BRANCH   1   7
ATOM      7  C1' I4B d   1      -2.403   2.886  -4.179  0.00  0.00     0.060 C 
BRANCH   7   8
ATOM      8  C2' I4B d   1      -1.097   3.642  -4.319  0.00  0.00    -0.013 C 
ATOM      9  C4' I4B d   1      -0.306   3.150  -5.502  0.00  0.00     0.013 C 
ATOM     10  C3' I4B d   1      -1.419   5.101  -4.452  0.00  0.00     0.013 C 
ENDBRANCH   7   8
ENDBRANCH   1   7
TORSDOF 2
ENDMDL
