MODEL 1
REMARK minimizedAffinity 14.6519165
REMARK minimizedRMSD -1
REMARK  2 active torsions:
REMARK  status: ('A' for Active; 'I' for Inactive)
REMARK    1  A    between atoms: C2'_3  and  C1'_4 
REMARK    2  A    between atoms: C1'_4  and  C1_5 
ROOT
ATOM      1  C1  I4B d   1       3.621  -3.702   0.231  0.00  0.00    -0.075 A 
ATOM      2  C2  I4B d   1       3.869  -3.875  -1.107  0.00  0.00     0.003 A 
ATOM      3  C3  I4B d   1       5.063  -4.505  -1.535  0.00  0.00     0.002 A 
ATOM      4  C4  I4B d   1       5.997  -4.899  -0.599  0.00  0.00    -0.004 A 
ATOM      5  C5  I4B d   1       5.733  -4.743   0.759  0.00  0.00     0.002 A 
ATOM      6  C6  I4B d   1       4.532  -4.152   1.178  0.00  0.00     0.003 A 
ENDROOT
BRANCH   1   7
ATOM      7  C1' I4B d   1       2.366  -3.002   0.647  0.00  0.00     0.060 C 
BRANCH   7   8
ATOM      8  C2' I4B d   1       1.279  -3.365  -0.344  0.00  0.00    -0.013 C 
ATOM      9  C4' I4B d   1      -0.026  -3.643   0.355  0.00  0.00     0.013 C 
ATOM     10  C3' I4B d   1       1.142  -2.232  -1.316  0.00  0.00     0.013 C 
ENDBRANCH   7   8
ENDBRANCH   1   7
TORSDOF 2
ENDMDL
