MODEL 1
REMARK minimizedAffinity 5.87901211
REMARK minimizedRMSD -1
REMARK  3 active torsions:
REMARK  status: ('A' for Active; 'I' for Inactive)
REMARK    1  A    between atoms: C3'_2  and  C2'_3 
REMARK    2  A    between atoms: C2'_3  and  C1'_4 
REMARK    3  A    between atoms: C1'_4  and  C1_5 
ROOT
ATOM      1  C1  N4B d   1      -2.901   4.184  -3.613  0.00  0.00    -0.075 A 
ATOM      2  C2  N4B d   1      -4.045   4.242  -2.787  0.00  0.00     0.002 A 
ATOM      3  C3  N4B d   1      -5.169   4.904  -3.216  0.00  0.00     0.002 A 
ATOM      4  C4  N4B d   1      -5.167   5.529  -4.454  0.00  0.00    -0.004 A 
ATOM      5  C5  N4B d   1      -4.067   5.446  -5.257  0.00  0.00     0.002 A 
ATOM      6  C6  N4B d   1      -2.931   4.781  -4.840  0.00  0.00     0.002 A 
ENDROOT
BRANCH   1   7
ATOM      7  C1' N4B d   1      -1.620   3.545  -3.151  0.00  0.00     0.057 C 
BRANCH   7   8
ATOM      8  C2' N4B d   1      -1.882   2.773  -1.861  0.00  0.00     0.009 C 
BRANCH   8   9
ATOM      9  C3' N4B d   1      -0.688   1.927  -1.453  0.00  0.00     0.004 C 
ATOM     10  C4' N4B d   1      -0.241   0.992  -2.537  0.00  0.00     0.003 C 
ENDBRANCH   8   9
ENDBRANCH   7   8
ENDBRANCH   1   7
TORSDOF 3
ENDMDL
