MODEL 1
REMARK minimizedAffinity 3.0471096
REMARK minimizedRMSD -1
REMARK  3 active torsions:
REMARK  status: ('A' for Active; 'I' for Inactive)
REMARK    1  A    between atoms: C3'_2  and  C2'_3 
REMARK    2  A    between atoms: C2'_3  and  C1'_4 
REMARK    3  A    between atoms: C1'_4  and  C1_5 
ROOT
ATOM      1  C1  N4B d   1       4.946  -3.426  -0.596  0.00  0.00    -0.075 A 
ATOM      2  C2  N4B d   1       3.624  -2.962  -0.416  0.00  0.00     0.002 A 
ATOM      3  C3  N4B d   1       3.399  -1.734   0.156  0.00  0.00     0.002 A 
ATOM      4  C4  N4B d   1       4.475  -0.963   0.570  0.00  0.00    -0.004 A 
ATOM      5  C5  N4B d   1       5.749  -1.407   0.369  0.00  0.00     0.002 A 
ATOM      6  C6  N4B d   1       5.990  -2.638  -0.208  0.00  0.00     0.002 A 
ENDROOT
BRANCH   1   7
ATOM      7  C1' N4B d   1       5.239  -4.798  -1.138  0.00  0.00     0.057 C 
BRANCH   7   8
ATOM      8  C2' N4B d   1       4.922  -4.826  -2.630  0.00  0.00     0.009 C 
BRANCH   8   9
ATOM      9  C3' N4B d   1       4.031  -6.000  -3.000  0.00  0.00     0.004 C 
ATOM     10  C4' N4B d   1       2.727  -5.996  -2.259  0.00  0.00     0.003 C 
ENDBRANCH   8   9
ENDBRANCH   7   8
ENDBRANCH   1   7
TORSDOF 3
ENDMDL
