MODEL 1
REMARK minimizedAffinity 6.94283867
REMARK minimizedRMSD -1
REMARK  3 active torsions:
REMARK  status: ('A' for Active; 'I' for Inactive)
REMARK    1  A    between atoms: C3'_2  and  C2'_3 
REMARK    2  A    between atoms: C2'_3  and  C1'_4 
REMARK    3  A    between atoms: C1'_4  and  C1_5 
ROOT
ATOM      1  C1  N4B d   1      -1.632   0.867  -1.060  0.00  0.00    -0.075 A 
ATOM      2  C2  N4B d   1      -2.735  -0.015  -1.032  0.00  0.00     0.002 A 
ATOM      3  C3  N4B d   1      -2.750  -1.120  -1.847  0.00  0.00     0.002 A 
ATOM      4  C4  N4B d   1      -1.687  -1.354  -2.707  0.00  0.00    -0.004 A 
ATOM      5  C5  N4B d   1      -0.614  -0.511  -2.709  0.00  0.00     0.002 A 
ATOM      6  C6  N4B d   1      -0.584   0.602  -1.893  0.00  0.00     0.002 A 
ENDROOT
BRANCH   1   7
ATOM      7  C1' N4B d   1      -1.608   2.135  -0.250  0.00  0.00     0.057 C 
BRANCH   7   8
ATOM      8  C2' N4B d   1      -2.158   1.849   1.144  0.00  0.00     0.009 C 
BRANCH   8   9
ATOM      9  C3' N4B d   1      -1.549   2.762   2.194  0.00  0.00     0.004 C 
ATOM     10  C4' N4B d   1      -0.062   2.603   2.309  0.00  0.00     0.003 C 
ENDBRANCH   8   9
ENDBRANCH   7   8
ENDBRANCH   1   7
TORSDOF 3
ENDMDL
