MODEL 1
REMARK minimizedAffinity 7.1665206
REMARK minimizedRMSD -1
REMARK  1 active torsions:
REMARK  status: ('A' for Active; 'I' for Inactive)
REMARK    1  A    between atoms: C1_2  and  C2_3 
ROOT
ATOM      1  C2  UNL d   1       1.152   2.262  -1.041  0.00  0.00    -0.073 A 
ATOM      2  C3  UNL d   1       1.203   2.474   0.342  0.00  0.00    -0.002 A 
ATOM      3  C4  UNL d   1       1.267   1.391   1.219  0.00  0.00     0.004 A 
ATOM      4  C5  UNL d   1       1.287   0.087   0.724  0.00  0.00    -0.004 A 
ATOM      5  C6  UNL d   1       1.248  -0.145  -0.654  0.00  0.00    -0.075 A 
ATOM      6  C7  UNL d   1       1.267  -1.541  -1.202  0.00  0.00     0.076 C 
ATOM      7  C8  UNL d   1       1.182   0.948  -1.529  0.00  0.00     0.001 A 
ENDROOT
BRANCH   1   8
ATOM      8  C1  UNL d   1       1.090   3.429  -1.992  0.00  0.00     0.053 C 
ATOM      9  C   UNL d   1       1.485   4.734  -1.321  0.00  0.00     0.018 C 
ENDBRANCH   1   8
TORSDOF 1
ENDMDL
