MODEL 1
REMARK minimizedAffinity 0.393075198
REMARK minimizedRMSD -1
REMARK  1 active torsions:
REMARK  status: ('A' for Active; 'I' for Inactive)
REMARK    1  A    between atoms: C1_2  and  C2_3 
ROOT
ATOM      1  C2  UNL d   1       1.299  -0.109  -1.633  0.00  0.00    -0.073 A 
ATOM      2  C3  UNL d   1       1.210  -0.360  -0.260  0.00  0.00    -0.002 A 
ATOM      3  C4  UNL d   1       1.061   0.696   0.641  0.00  0.00     0.004 A 
ATOM      4  C5  UNL d   1       0.993   2.010   0.179  0.00  0.00    -0.004 A 
ATOM      5  C6  UNL d   1       1.069   2.280  -1.192  0.00  0.00    -0.075 A 
ATOM      6  C7  UNL d   1       1.001   3.688  -1.705  0.00  0.00     0.076 C 
ATOM      7  C8  UNL d   1       1.222   1.215  -2.090  0.00  0.00     0.001 A 
ENDROOT
BRANCH   1   8
ATOM      8  C1  UNL d   1       1.454  -1.245  -2.611  0.00  0.00     0.053 C 
ATOM      9  C   UNL d   1       1.745  -0.751  -4.019  0.00  0.00     0.018 C 
ENDBRANCH   1   8
TORSDOF 1
ENDMDL
