MODEL 1
REMARK minimizedAffinity -0.458255142
REMARK minimizedRMSD -1
REMARK  1 active torsions:
REMARK  status: ('A' for Active; 'I' for Inactive)
REMARK    1  A    between atoms: C1_2  and  C2_3 
ROOT
ATOM      1  C2  UNL d   1       1.010   1.668  -0.004  0.00  0.00    -0.073 A 
ATOM      2  C3  UNL d   1       0.645   1.087  -1.224  0.00  0.00    -0.002 A 
ATOM      3  C4  UNL d   1       0.649   1.845  -2.395  0.00  0.00     0.004 A 
ATOM      4  C5  UNL d   1       1.024   3.188  -2.361  0.00  0.00    -0.004 A 
ATOM      5  C6  UNL d   1       1.404   3.783  -1.154  0.00  0.00    -0.075 A 
ATOM      6  C7  UNL d   1       1.809   5.227  -1.100  0.00  0.00     0.076 C 
ATOM      7  C8  UNL d   1       1.395   3.016   0.018  0.00  0.00     0.001 A 
ENDROOT
BRANCH   1   8
ATOM      8  C1  UNL d   1       1.013   0.852   1.262  0.00  0.00     0.053 C 
ATOM      9  C   UNL d   1       1.377  -0.602   1.003  0.00  0.00     0.018 C 
ENDBRANCH   1   8
TORSDOF 1
ENDMDL
