MODEL 1
REMARK minimizedAffinity -4.3921361
REMARK minimizedRMSD -1
REMARK  1 active torsions:
REMARK  status: ('A' for Active; 'I' for Inactive)
REMARK    1  A    between atoms: C1_2  and  C2_3 
ROOT
ATOM      1  C2  UNL d   1       0.921   2.526  -0.949  0.00  0.00    -0.073 A 
ATOM      2  C3  UNL d   1       0.625   2.440   0.416  0.00  0.00    -0.002 A 
ATOM      3  C4  UNL d   1       0.582   1.199   1.051  0.00  0.00     0.004 A 
ATOM      4  C5  UNL d   1       0.841   0.033   0.331  0.00  0.00    -0.004 A 
ATOM      5  C6  UNL d   1       1.151   0.099  -1.031  0.00  0.00    -0.075 A 
ATOM      6  C7  UNL d   1       1.430  -1.146  -1.820  0.00  0.00     0.076 C 
ATOM      7  C8  UNL d   1       1.190   1.349  -1.662  0.00  0.00     0.001 A 
ENDROOT
BRANCH   1   8
ATOM      8  C1  UNL d   1       0.975   3.866  -1.637  0.00  0.00     0.053 C 
ATOM      9  C   UNL d   1       1.372   4.982  -0.684  0.00  0.00     0.018 C 
ENDBRANCH   1   8
TORSDOF 1
ENDMDL
