MODEL 1
REMARK minimizedAffinity 6.24876881
REMARK minimizedRMSD -1
REMARK  1 active torsions:
REMARK  status: ('A' for Active; 'I' for Inactive)
REMARK    1  A    between atoms: C1_2  and  C2_3 
ROOT
ATOM      1  C2  UNL d   1       0.815   3.280  -1.068  0.00  0.00    -0.073 A 
ATOM      2  C3  UNL d   1       0.205   3.248  -2.327  0.00  0.00    -0.002 A 
ATOM      3  C4  UNL d   1       0.134   2.054  -3.046  0.00  0.00     0.004 A 
ATOM      4  C5  UNL d   1       0.667   0.881  -2.512  0.00  0.00    -0.004 A 
ATOM      5  C6  UNL d   1       1.270   0.890  -1.251  0.00  0.00    -0.075 A 
ATOM      6  C7  UNL d   1       1.850  -0.363  -0.663  0.00  0.00     0.076 C 
ATOM      7  C8  UNL d   1       1.339   2.094  -0.536  0.00  0.00     0.001 A 
ENDROOT
BRANCH   1   8
ATOM      8  C1  UNL d   1       0.888   4.566  -0.286  0.00  0.00     0.053 C 
ATOM      9  C   UNL d   1       1.439   5.711  -1.120  0.00  0.00     0.018 C 
ENDBRANCH   1   8
TORSDOF 1
ENDMDL
