MODEL 1
REMARK minimizedAffinity -3.07595181
REMARK minimizedRMSD -1
REMARK  1 active torsions:
REMARK  status: ('A' for Active; 'I' for Inactive)
REMARK    1  A    between atoms: C1_2  and  C2_3 
ROOT
ATOM      1  C2  UNL d   1       0.912   1.871  -0.323  0.00  0.00    -0.073 A 
ATOM      2  C3  UNL d   1       1.042   3.009  -1.126  0.00  0.00    -0.002 A 
ATOM      3  C4  UNL d   1       1.171   2.885  -2.510  0.00  0.00     0.004 A 
ATOM      4  C5  UNL d   1       1.165   1.624  -3.105  0.00  0.00    -0.004 A 
ATOM      5  C6  UNL d   1       1.025   0.474  -2.321  0.00  0.00    -0.075 A 
ATOM      6  C7  UNL d   1       1.019  -0.890  -2.946  0.00  0.00     0.076 C 
ATOM      7  C8  UNL d   1       0.898   0.607  -0.932  0.00  0.00     0.001 A 
ENDROOT
BRANCH   1   8
ATOM      8  C1  UNL d   1       0.766   2.000   1.171  0.00  0.00     0.053 C 
ATOM      9  C   UNL d   1       1.757   1.123   1.919  0.00  0.00     0.018 C 
ENDBRANCH   1   8
TORSDOF 1
ENDMDL
