MODEL 1
REMARK minimizedAffinity 1.29696953
REMARK minimizedRMSD -1
REMARK  1 active torsions:
REMARK  status: ('A' for Active; 'I' for Inactive)
REMARK    1  A    between atoms: C1_2  and  C2_3 
ROOT
ATOM      1  C2  UNL d   1       1.284   1.375   0.931  0.00  0.00    -0.073 A 
ATOM      2  C3  UNL d   1       1.431   0.020   0.612  0.00  0.00    -0.002 A 
ATOM      3  C4  UNL d   1       1.322  -0.408  -0.712  0.00  0.00     0.004 A 
ATOM      4  C5  UNL d   1       1.072   0.513  -1.729  0.00  0.00    -0.004 A 
ATOM      5  C6  UNL d   1       0.934   1.872  -1.432  0.00  0.00    -0.075 A 
ATOM      6  C7  UNL d   1       0.662   2.875  -2.515  0.00  0.00     0.076 C 
ATOM      7  C8  UNL d   1       1.042   2.294  -0.100  0.00  0.00     0.001 A 
ENDROOT
BRANCH   1   8
ATOM      8  C1  UNL d   1       1.407   1.843   2.358  0.00  0.00     0.053 C 
ATOM      9  C   UNL d   1       1.797   0.713   3.297  0.00  0.00     0.018 C 
ENDBRANCH   1   8
TORSDOF 1
ENDMDL
