MODEL 1
REMARK minimizedAffinity -3.04046726
REMARK minimizedRMSD -1
REMARK  1 active torsions:
REMARK  status: ('A' for Active; 'I' for Inactive)
REMARK    1  A    between atoms: C1_2  and  C2_3 
ROOT
ATOM      1  C2  UNL d   1       1.134   0.659  -1.978  0.00  0.00    -0.073 A 
ATOM      2  C3  UNL d   1       1.861  -0.361  -1.355  0.00  0.00    -0.002 A 
ATOM      3  C4  UNL d   1       2.206  -0.259  -0.007  0.00  0.00     0.004 A 
ATOM      4  C5  UNL d   1       1.822   0.860   0.733  0.00  0.00    -0.004 A 
ATOM      5  C6  UNL d   1       1.085   1.885   0.131  0.00  0.00    -0.075 A 
ATOM      6  C7  UNL d   1       0.666   3.095   0.912  0.00  0.00     0.076 C 
ATOM      7  C8  UNL d   1       0.744   1.775  -1.224  0.00  0.00     0.001 A 
ENDROOT
BRANCH   1   8
ATOM      8  C1  UNL d   1       0.753   0.550  -3.432  0.00  0.00     0.053 C 
ATOM      9  C   UNL d   1       1.414  -0.643  -4.106  0.00  0.00     0.018 C 
ENDBRANCH   1   8
TORSDOF 1
ENDMDL
