MODEL 1
REMARK minimizedAffinity 1.22061408
REMARK minimizedRMSD -1
REMARK  1 active torsions:
REMARK  status: ('A' for Active; 'I' for Inactive)
REMARK    1  A    between atoms: C1_2  and  C2_3 
ROOT
ATOM      1  C2  UNL d   1       1.180   0.476  -0.284  0.00  0.00    -0.073 A 
ATOM      2  C3  UNL d   1       1.429   0.908  -1.591  0.00  0.00    -0.002 A 
ATOM      3  C4  UNL d   1       1.508   2.270  -1.880  0.00  0.00     0.004 A 
ATOM      4  C5  UNL d   1       1.348   3.214  -0.865  0.00  0.00    -0.004 A 
ATOM      5  C6  UNL d   1       1.111   2.801   0.450  0.00  0.00    -0.075 A 
ATOM      6  C7  UNL d   1       0.934   3.804   1.553  0.00  0.00     0.076 C 
ATOM      7  C8  UNL d   1       1.030   1.431   0.732  0.00  0.00     0.001 A 
ENDROOT
BRANCH   1   8
ATOM      8  C1  UNL d   1       1.100  -0.995   0.034  0.00  0.00     0.053 C 
ATOM      9  C   UNL d   1       0.455  -1.787  -1.092  0.00  0.00     0.018 C 
ENDBRANCH   1   8
TORSDOF 1
ENDMDL
