MODEL 1
REMARK minimizedAffinity -3.97958231
REMARK minimizedRMSD -1
REMARK  1 active torsions:
REMARK  status: ('A' for Active; 'I' for Inactive)
REMARK    1  A    between atoms: C1_2  and  C2_3 
ROOT
ATOM      1  C2  UNL d   1       0.673   2.003  -1.192  0.00  0.00    -0.073 A 
ATOM      2  C3  UNL d   1       1.123   0.847  -1.839  0.00  0.00    -0.002 A 
ATOM      3  C4  UNL d   1       1.358  -0.321  -1.112  0.00  0.00     0.004 A 
ATOM      4  C5  UNL d   1       1.139  -0.347   0.265  0.00  0.00    -0.004 A 
ATOM      5  C6  UNL d   1       0.678   0.796   0.928  0.00  0.00    -0.075 A 
ATOM      6  C7  UNL d   1       0.440   0.785   2.409  0.00  0.00     0.076 C 
ATOM      7  C8  UNL d   1       0.447   1.965   0.191  0.00  0.00     0.001 A 
ENDROOT
BRANCH   1   8
ATOM      8  C1  UNL d   1       0.413   3.265  -1.974  0.00  0.00     0.053 C 
ATOM      9  C   UNL d   1       0.872   4.505  -1.224  0.00  0.00     0.018 C 
ENDBRANCH   1   8
TORSDOF 1
ENDMDL
