MODEL 1
REMARK minimizedAffinity -2.33372879
REMARK minimizedRMSD -1
REMARK  1 active torsions:
REMARK  status: ('A' for Active; 'I' for Inactive)
REMARK    1  A    between atoms: C1_2  and  C2_3 
ROOT
ATOM      1  C2  UNL d   1       0.933  -0.188  -1.023  0.00  0.00    -0.073 A 
ATOM      2  C3  UNL d   1       1.921  -0.481  -0.076  0.00  0.00    -0.002 A 
ATOM      3  C4  UNL d   1       2.116  -1.793   0.357  0.00  0.00     0.004 A 
ATOM      4  C5  UNL d   1       1.331  -2.825  -0.157  0.00  0.00    -0.004 A 
ATOM      5  C6  UNL d   1       0.347  -2.554  -1.113  0.00  0.00    -0.075 A 
ATOM      6  C7  UNL d   1      -0.507  -3.653  -1.674  0.00  0.00     0.076 C 
ATOM      7  C8  UNL d   1       0.156  -1.233  -1.541  0.00  0.00     0.001 A 
ENDROOT
BRANCH   1   8
ATOM      8  C1  UNL d   1       0.724   1.227  -1.498  0.00  0.00     0.053 C 
ATOM      9  C   UNL d   1       1.040   2.245  -0.414  0.00  0.00     0.018 C 
ENDBRANCH   1   8
TORSDOF 1
ENDMDL
