MODEL 1
REMARK minimizedAffinity -2.02200627
REMARK minimizedRMSD -1
REMARK  0 active torsions:
REMARK  status: ('A' for Active; 'I' for Inactive)
ROOT
ATOM      1  C   UNL d   1      -3.200  -1.778  -3.666  0.00  0.00     0.023 A 
ATOM      2  C1  UNL d   1      -2.343  -0.682  -3.764  0.00  0.00     0.003 A 
ATOM      3  C2  UNL d   1      -1.448  -0.399  -2.730  0.00  0.00     0.048 A 
ATOM      4  C3  UNL d   1      -1.415  -1.217  -1.601  0.00  0.00     0.023 A 
ATOM      5  C4  UNL d   1      -2.270  -2.316  -1.499  0.00  0.00     0.048 A 
ATOM      6  C5  UNL d   1      -3.164  -2.594  -2.535  0.00  0.00     0.003 A 
ATOM      7  I   UNL d   1      -0.084  -0.799  -0.061  0.00  0.00    -0.146 I 
ENDROOT
TORSDOF 0
ENDMDL
