MODEL 1
REMARK minimizedAffinity -4.023314
REMARK minimizedRMSD -1
REMARK  0 active torsions:
REMARK  status: ('A' for Active; 'I' for Inactive)
ROOT
ATOM      1  C   UNL d   1       2.599   1.759   1.518  0.00  0.00     0.023 A 
ATOM      2  C1  UNL d   1       1.259   1.817   1.899  0.00  0.00     0.003 A 
ATOM      3  C2  UNL d   1       0.307   1.043   1.233  0.00  0.00     0.048 A 
ATOM      4  C3  UNL d   1       0.704   0.211   0.186  0.00  0.00     0.023 A 
ATOM      5  C4  UNL d   1       2.044   0.148  -0.198  0.00  0.00     0.048 A 
ATOM      6  C5  UNL d   1       2.991   0.925   0.471  0.00  0.00     0.003 A 
ATOM      7  I   UNL d   1      -0.711  -0.943  -0.807  0.00  0.00    -0.146 I 
ENDROOT
TORSDOF 0
ENDMDL
