MODEL 1
REMARK minimizedAffinity -4.99139738
REMARK minimizedRMSD -1
REMARK  0 active torsions:
REMARK  status: ('A' for Active; 'I' for Inactive)
ROOT
ATOM      1  C   UNL d   1       2.616   2.806   0.972  0.00  0.00     0.023 A 
ATOM      2  C1  UNL d   1       1.271   2.722   1.330  0.00  0.00     0.003 A 
ATOM      3  C2  UNL d   1       0.487   1.666   0.860  0.00  0.00     0.048 A 
ATOM      4  C3  UNL d   1       1.055   0.697   0.034  0.00  0.00     0.023 A 
ATOM      5  C4  UNL d   1       2.402   0.776  -0.326  0.00  0.00     0.048 A 
ATOM      6  C5  UNL d   1       3.181   1.834   0.145  0.00  0.00     0.003 A 
ATOM      7  I   UNL d   1      -0.109  -0.876  -0.667  0.00  0.00    -0.146 I 
ENDROOT
TORSDOF 0
ENDMDL
