MODEL 1
REMARK minimizedAffinity -2.6411128
REMARK minimizedRMSD -1
REMARK  0 active torsions:
REMARK  status: ('A' for Active; 'I' for Inactive)
ROOT
ATOM      1  C   UNL d   1       0.980   1.823   1.660  0.00  0.00     0.023 A 
ATOM      2  C1  UNL d   1       1.847   1.007   0.934  0.00  0.00     0.003 A 
ATOM      3  C2  UNL d   1       1.336   0.058   0.046  0.00  0.00     0.048 A 
ATOM      4  C3  UNL d   1      -0.044  -0.069  -0.111  0.00  0.00     0.023 A 
ATOM      5  C4  UNL d   1      -0.916   0.746   0.613  0.00  0.00     0.048 A 
ATOM      6  C5  UNL d   1      -0.400   1.693   1.500  0.00  0.00     0.003 A 
ATOM      7  I   UNL d   1      -0.808  -1.480  -1.432  0.00  0.00    -0.146 I 
ENDROOT
TORSDOF 0
ENDMDL
