MODEL 1
REMARK minimizedAffinity -4.0027132
REMARK minimizedRMSD -1
REMARK  0 active torsions:
REMARK  status: ('A' for Active; 'I' for Inactive)
ROOT
ATOM      1  C   UNL d   1       2.604   2.588   0.996  0.00  0.00     0.023 A 
ATOM      2  C1  UNL d   1       3.126   1.403   0.477  0.00  0.00     0.003 A 
ATOM      3  C2  UNL d   1       2.268   0.380   0.069  0.00  0.00     0.048 A 
ATOM      4  C3  UNL d   1       0.888   0.549   0.182  0.00  0.00     0.023 A 
ATOM      5  C4  UNL d   1       0.361   1.734   0.700  0.00  0.00     0.048 A 
ATOM      6  C5  UNL d   1       1.224   2.753   1.107  0.00  0.00     0.003 A 
ATOM      7  I   UNL d   1      -0.392  -0.971  -0.425  0.00  0.00    -0.146 I 
ENDROOT
TORSDOF 0
ENDMDL
