MODEL 1
REMARK minimizedAffinity -3.08930254
REMARK minimizedRMSD -1
REMARK  0 active torsions:
REMARK  status: ('A' for Active; 'I' for Inactive)
ROOT
ATOM      1  C   UNL d   1       2.430   2.740   1.755  0.00  0.00     0.023 A 
ATOM      2  C1  UNL d   1       1.052   2.739   1.970  0.00  0.00     0.003 A 
ATOM      3  C2  UNL d   1       0.236   1.845   1.274  0.00  0.00     0.048 A 
ATOM      4  C3  UNL d   1       0.805   0.952   0.366  0.00  0.00     0.023 A 
ATOM      5  C4  UNL d   1       2.184   0.949   0.149  0.00  0.00     0.048 A 
ATOM      6  C5  UNL d   1       2.996   1.846   0.846  0.00  0.00     0.003 A 
ATOM      7  I   UNL d   1      -0.407  -0.380  -0.670  0.00  0.00    -0.146 I 
ENDROOT
TORSDOF 0
ENDMDL
