MODEL 1
REMARK minimizedAffinity -4.53244495
REMARK minimizedRMSD -1
REMARK  0 active torsions:
REMARK  status: ('A' for Active; 'I' for Inactive)
ROOT
ATOM      1  C   UNL d   1       2.658   2.063   1.017  0.00  0.00     0.023 A 
ATOM      2  C1  UNL d   1       1.305   2.259   1.296  0.00  0.00     0.003 A 
ATOM      3  C2  UNL d   1       0.352   1.371   0.794  0.00  0.00     0.048 A 
ATOM      4  C3  UNL d   1       0.758   0.288   0.015  0.00  0.00     0.023 A 
ATOM      5  C4  UNL d   1       2.110   0.087  -0.265  0.00  0.00     0.048 A 
ATOM      6  C5  UNL d   1       3.060   0.978   0.238  0.00  0.00     0.003 A 
ATOM      7  I   UNL d   1      -0.660  -1.035  -0.733  0.00  0.00    -0.146 I 
ENDROOT
TORSDOF 0
ENDMDL
