MODEL 1
REMARK minimizedAffinity -0.734084308
REMARK minimizedRMSD -1
REMARK  0 active torsions:
REMARK  status: ('A' for Active; 'I' for Inactive)
ROOT
ATOM      1  C   UNL d   1       0.373   0.359   0.753  0.00  0.00     0.023 A 
ATOM      2  C1  UNL d   1      -0.795   1.014   0.362  0.00  0.00     0.003 A 
ATOM      3  C2  UNL d   1      -1.559   0.513  -0.694  0.00  0.00     0.048 A 
ATOM      4  C3  UNL d   1      -1.150  -0.644  -1.354  0.00  0.00     0.023 A 
ATOM      5  C4  UNL d   1       0.018  -1.304  -0.967  0.00  0.00     0.048 A 
ATOM      6  C5  UNL d   1       0.779  -0.799   0.089  0.00  0.00     0.003 A 
ATOM      7  I   UNL d   1      -2.285  -1.392  -2.926  0.00  0.00    -0.146 I 
ENDROOT
TORSDOF 0
ENDMDL
