MODEL 1
REMARK minimizedAffinity 2.66940045
REMARK minimizedRMSD -1
REMARK  0 active torsions:
REMARK  status: ('A' for Active; 'I' for Inactive)
ROOT
ATOM      1  C   UNL d   1      -3.440  -1.730  -2.906  0.00  0.00     0.023 A 
ATOM      2  C1  UNL d   1      -3.348  -2.463  -1.723  0.00  0.00     0.003 A 
ATOM      3  C2  UNL d   1      -2.556  -1.997  -0.671  0.00  0.00     0.048 A 
ATOM      4  C3  UNL d   1      -1.859  -0.797  -0.810  0.00  0.00     0.023 A 
ATOM      5  C4  UNL d   1      -1.949  -0.060  -1.992  0.00  0.00     0.048 A 
ATOM      6  C5  UNL d   1      -2.742  -0.530  -3.040  0.00  0.00     0.003 A 
ATOM      7  I   UNL d   1      -0.679  -0.102   0.754  0.00  0.00    -0.146 I 
ENDROOT
TORSDOF 0
ENDMDL
