MODEL 1
REMARK minimizedAffinity 3.69683647
REMARK minimizedRMSD -1
REMARK  0 active torsions:
REMARK  status: ('A' for Active; 'I' for Inactive)
ROOT
ATOM      1  C   UNL d   1       0.639   0.288   1.474  0.00  0.00     0.023 A 
ATOM      2  C1  UNL d   1      -0.713   0.463   1.769  0.00  0.00     0.003 A 
ATOM      3  C2  UNL d   1      -1.688   0.015   0.876  0.00  0.00     0.048 A 
ATOM      4  C3  UNL d   1      -1.304  -0.607  -0.312  0.00  0.00     0.023 A 
ATOM      5  C4  UNL d   1       0.047  -0.786  -0.611  0.00  0.00     0.048 A 
ATOM      6  C5  UNL d   1       1.019  -0.336   0.285  0.00  0.00     0.003 A 
ATOM      7  I   UNL d   1      -2.754  -1.275  -1.643  0.00  0.00    -0.146 I 
ENDROOT
TORSDOF 0
ENDMDL
