MODEL 1
REMARK minimizedAffinity -5.48934126
REMARK minimizedRMSD -1
REMARK  0 active torsions:
REMARK  status: ('A' for Active; 'I' for Inactive)
ROOT
ATOM      1  C   UNL d   1       2.012   2.529   0.924  0.00  0.00     0.023 A 
ATOM      2  C1  UNL d   1       2.562   1.675  -0.031  0.00  0.00     0.003 A 
ATOM      3  C2  UNL d   1       1.843   0.563  -0.473  0.00  0.00     0.048 A 
ATOM      4  C3  UNL d   1       0.572   0.312   0.043  0.00  0.00     0.023 A 
ATOM      5  C4  UNL d   1       0.016   1.164   0.998  0.00  0.00     0.048 A 
ATOM      6  C5  UNL d   1       0.740   2.274   1.438  0.00  0.00     0.003 A 
ATOM      7  I   UNL d   1      -0.501  -1.343  -0.614  0.00  0.00    -0.146 I 
ENDROOT
TORSDOF 0
ENDMDL
