MODEL 1
REMARK minimizedAffinity -1.32910085
REMARK minimizedRMSD -1
REMARK  0 active torsions:
REMARK  status: ('A' for Active; 'I' for Inactive)
ROOT
ATOM      1  C   UNL d   1       1.201   0.737   1.782  0.00  0.00     0.023 A 
ATOM      2  C1  UNL d   1      -0.151   1.051   1.642  0.00  0.00     0.003 A 
ATOM      3  C2  UNL d   1      -0.843   0.670   0.491  0.00  0.00     0.048 A 
ATOM      4  C3  UNL d   1      -0.177  -0.027  -0.517  0.00  0.00     0.023 A 
ATOM      5  C4  UNL d   1       1.176  -0.344  -0.381  0.00  0.00     0.048 A 
ATOM      6  C5  UNL d   1       1.863   0.040   0.771  0.00  0.00     0.003 A 
ATOM      7  I   UNL d   1      -1.204  -0.596  -2.232  0.00  0.00    -0.146 I 
ENDROOT
TORSDOF 0
ENDMDL
