MODEL 1
REMARK minimizedAffinity -0.744458437
REMARK minimizedRMSD -1
REMARK  0 active torsions:
REMARK  status: ('A' for Active; 'I' for Inactive)
ROOT
ATOM      1  C   UNL d   1       2.650   2.037   1.846  0.00  0.00     0.023 A 
ATOM      2  C1  UNL d   1       3.103   1.211   0.818  0.00  0.00     0.003 A 
ATOM      3  C2  UNL d   1       2.198   0.420   0.106  0.00  0.00     0.048 A 
ATOM      4  C3  UNL d   1       0.842   0.461   0.428  0.00  0.00     0.023 A 
ATOM      5  C4  UNL d   1       0.384   1.286   1.456  0.00  0.00     0.048 A 
ATOM      6  C5  UNL d   1       1.292   2.074   2.165  0.00  0.00     0.003 A 
ATOM      7  I   UNL d   1      -0.506  -0.716  -0.630  0.00  0.00    -0.146 I 
ENDROOT
TORSDOF 0
ENDMDL
