MODEL 1
REMARK minimizedAffinity -3.52502823
REMARK minimizedRMSD -1
REMARK  0 active torsions:
REMARK  status: ('A' for Active; 'I' for Inactive)
ROOT
ATOM      1  C   UNL d   1       2.024   1.924   0.943  0.00  0.00     0.023 A 
ATOM      2  C1  UNL d   1       2.380   0.896   0.070  0.00  0.00     0.003 A 
ATOM      3  C2  UNL d   1       1.392   0.110  -0.526  0.00  0.00     0.048 A 
ATOM      4  C3  UNL d   1       0.049   0.359  -0.246  0.00  0.00     0.023 A 
ATOM      5  C4  UNL d   1      -0.312   1.388   0.626  0.00  0.00     0.048 A 
ATOM      6  C5  UNL d   1       0.680   2.170   1.220  0.00  0.00     0.003 A 
ATOM      7  I   UNL d   1      -1.425  -0.809  -1.131  0.00  0.00    -0.146 I 
ENDROOT
TORSDOF 0
ENDMDL
