MODEL 1
REMARK minimizedAffinity 13.0435762
REMARK minimizedRMSD -1
REMARK  0 active torsions:
REMARK  status: ('A' for Active; 'I' for Inactive)
ROOT
ATOM      1  C2' OXE d   1      -1.115  -0.074   4.733  0.00  0.00     0.078 C 
ATOM      2  C1' OXE d   1       0.036  -1.728   2.778  0.00  0.00     0.078 C 
ATOM      3  C1  OXE d   1      -1.113  -0.843   2.364  0.00  0.00    -0.078 A 
ATOM      4  C2  OXE d   1      -1.700  -0.072   3.337  0.00  0.00    -0.078 A 
ATOM      5  C3  OXE d   1      -2.729   0.803   2.997  0.00  0.00     0.003 A 
ATOM      6  C4  OXE d   1      -3.271   0.791   1.706  0.00  0.00    -0.002 A 
ATOM      7  C5  OXE d   1      -2.713  -0.016   0.709  0.00  0.00    -0.002 A 
ATOM      8  C6  OXE d   1      -1.609  -0.806   1.010  0.00  0.00     0.003 A 
ENDROOT
TORSDOF 0
ENDMDL
