MODEL 1
REMARK minimizedAffinity 16.3167381
REMARK minimizedRMSD -1
REMARK  0 active torsions:
REMARK  status: ('A' for Active; 'I' for Inactive)
ROOT
ATOM      1  C2' OXE d   1      -1.859   0.313   3.950  0.00  0.00     0.078 C 
ATOM      2  C1' OXE d   1      -2.282  -1.459   1.815  0.00  0.00     0.078 C 
ATOM      3  C1  OXE d   1      -0.981  -1.565   2.570  0.00  0.00    -0.078 A 
ATOM      4  C2  OXE d   1      -0.762  -0.663   3.583  0.00  0.00    -0.078 A 
ATOM      5  C3  OXE d   1       0.398  -0.752   4.347  0.00  0.00     0.003 A 
ATOM      6  C4  OXE d   1       1.411  -1.652   3.995  0.00  0.00    -0.002 A 
ATOM      7  C5  OXE d   1       1.226  -2.553   2.941  0.00  0.00    -0.002 A 
ATOM      8  C6  OXE d   1       0.021  -2.551   2.247  0.00  0.00     0.003 A 
ENDROOT
TORSDOF 0
ENDMDL
