MODEL 1
REMARK minimizedAffinity 6.4530983
REMARK minimizedRMSD -1
REMARK  0 active torsions:
REMARK  status: ('A' for Active; 'I' for Inactive)
ROOT
ATOM      1  C2' OXE d   1       3.516   4.991   2.258  0.00  0.00     0.078 C 
ATOM      2  C1' OXE d   1       5.000   2.658   1.776  0.00  0.00     0.078 C 
ATOM      3  C1  OXE d   1       5.122   3.787   0.783  0.00  0.00    -0.078 A 
ATOM      4  C2  OXE d   1       4.356   4.907   1.002  0.00  0.00    -0.078 A 
ATOM      5  C3  OXE d   1       4.471   5.999   0.147  0.00  0.00     0.003 A 
ATOM      6  C4  OXE d   1       5.243   5.909  -1.018  0.00  0.00    -0.002 A 
ATOM      7  C5  OXE d   1       6.000   4.762  -1.281  0.00  0.00    -0.002 A 
ATOM      8  C6  OXE d   1       5.983   3.711  -0.371  0.00  0.00     0.003 A 
ENDROOT
TORSDOF 0
ENDMDL
