MODEL 1
REMARK minimizedAffinity 21.714529
REMARK minimizedRMSD -1
REMARK  0 active torsions:
REMARK  status: ('A' for Active; 'I' for Inactive)
ROOT
ATOM      1  C2' OXE d   1      -0.024  -5.995  -5.998  0.00  0.00     0.078 C 
ATOM      2  C1' OXE d   1       2.170  -5.994  -4.247  0.00  0.00     0.078 C 
ATOM      3  C1  OXE d   1       0.867  -5.425  -3.743  0.00  0.00    -0.078 A 
ATOM      4  C2  OXE d   1      -0.188  -5.386  -4.622  0.00  0.00    -0.078 A 
ATOM      5  C3  OXE d   1      -1.428  -4.922  -4.191  0.00  0.00     0.003 A 
ATOM      6  C4  OXE d   1      -1.568  -4.352  -2.920  0.00  0.00    -0.002 A 
ATOM      7  C5  OXE d   1      -0.495  -4.344  -2.023  0.00  0.00    -0.002 A 
ATOM      8  C6  OXE d   1       0.715  -4.914  -2.403  0.00  0.00     0.003 A 
ENDROOT
TORSDOF 0
ENDMDL
