MODEL 1
REMARK minimizedAffinity 12.3053207
REMARK minimizedRMSD -1
REMARK  0 active torsions:
REMARK  status: ('A' for Active; 'I' for Inactive)
ROOT
ATOM      1  C2' OXE d   1      -4.313   0.336   1.492  0.00  0.00     0.078 C 
ATOM      2  C1' OXE d   1      -1.643  -0.211   2.166  0.00  0.00     0.078 C 
ATOM      3  C1  OXE d   1      -2.452   0.630   3.122  0.00  0.00    -0.078 A 
ATOM      4  C2  OXE d   1      -3.743   0.932   2.761  0.00  0.00    -0.078 A 
ATOM      5  C3  OXE d   1      -4.550   1.658   3.633  0.00  0.00     0.003 A 
ATOM      6  C4  OXE d   1      -4.012   2.214   4.800  0.00  0.00    -0.002 A 
ATOM      7  C5  OXE d   1      -2.688   1.952   5.166  0.00  0.00    -0.002 A 
ATOM      8  C6  OXE d   1      -1.908   1.129   4.361  0.00  0.00     0.003 A 
ENDROOT
TORSDOF 0
ENDMDL
