MODEL 1
REMARK minimizedAffinity 7.01660776
REMARK minimizedRMSD -1
REMARK  0 active torsions:
REMARK  status: ('A' for Active; 'I' for Inactive)
ROOT
ATOM      1  C2' OXE d   1       1.189  -2.260   3.170  0.00  0.00     0.078 C 
ATOM      2  C1' OXE d   1      -1.049  -1.844   1.526  0.00  0.00     0.078 C 
ATOM      3  C1  OXE d   1      -0.903  -0.974   2.749  0.00  0.00    -0.078 A 
ATOM      4  C2  OXE d   1       0.170  -1.215   3.573  0.00  0.00    -0.078 A 
ATOM      5  C3  OXE d   1       0.382  -0.406   4.685  0.00  0.00     0.003 A 
ATOM      6  C4  OXE d   1      -0.570   0.552   5.056  0.00  0.00    -0.002 A 
ATOM      7  C5  OXE d   1      -1.691   0.787   4.253  0.00  0.00    -0.002 A 
ATOM      8  C6  OXE d   1      -1.850   0.064   3.076  0.00  0.00     0.003 A 
ENDROOT
TORSDOF 0
ENDMDL
