MODEL 1
REMARK minimizedAffinity 10.181962
REMARK minimizedRMSD -1
REMARK  0 active torsions:
REMARK  status: ('A' for Active; 'I' for Inactive)
ROOT
ATOM      1  C2' OXE d   1      -2.171  -1.493   1.368  0.00  0.00     0.078 C 
ATOM      2  C1' OXE d   1      -4.907  -0.888   1.188  0.00  0.00     0.078 C 
ATOM      3  C1  OXE d   1      -4.093  -0.162   2.230  0.00  0.00    -0.078 A 
ATOM      4  C2  OXE d   1      -2.765  -0.498   2.342  0.00  0.00    -0.078 A 
ATOM      5  C3  OXE d   1      -1.957   0.180   3.250  0.00  0.00     0.003 A 
ATOM      6  C4  OXE d   1      -2.516   1.091   4.154  0.00  0.00    -0.002 A 
ATOM      7  C5  OXE d   1      -3.874   1.419   4.083  0.00  0.00    -0.002 A 
ATOM      8  C6  OXE d   1      -4.666   0.834   3.101  0.00  0.00     0.003 A 
ENDROOT
TORSDOF 0
ENDMDL
