MODEL 1
REMARK minimizedAffinity 4.3912034
REMARK minimizedRMSD -1
REMARK  0 active torsions:
REMARK  status: ('A' for Active; 'I' for Inactive)
ROOT
ATOM      1  C2' OXE d   1       2.031  -3.474   0.214  0.00  0.00     0.078 C 
ATOM      2  C1' OXE d   1       3.986  -1.595  -0.515  0.00  0.00     0.078 C 
ATOM      3  C1  OXE d   1       4.374  -3.053  -0.522  0.00  0.00    -0.078 A 
ATOM      4  C2  OXE d   1       3.425  -3.961  -0.119  0.00  0.00    -0.078 A 
ATOM      5  C3  OXE d   1       3.713  -5.323  -0.159  0.00  0.00     0.003 A 
ATOM      6  C4  OXE d   1       5.007  -5.765  -0.458  0.00  0.00    -0.002 A 
ATOM      7  C5  OXE d   1       6.000  -4.853  -0.833  0.00  0.00    -0.002 A 
ATOM      8  C6  OXE d   1       5.688  -3.500  -0.911  0.00  0.00     0.003 A 
ENDROOT
TORSDOF 0
ENDMDL
