MODEL 1
REMARK minimizedAffinity 19.9407482
REMARK minimizedRMSD -1
REMARK  0 active torsions:
REMARK  status: ('A' for Active; 'I' for Inactive)
ROOT
ATOM      1  C2' OXE d   1       4.120  -2.412  -1.742  0.00  0.00     0.078 C 
ATOM      2  C1' OXE d   1       2.369  -4.605  -1.811  0.00  0.00     0.078 C 
ATOM      3  C1  OXE d   1       3.626  -4.734  -0.987  0.00  0.00    -0.078 A 
ATOM      4  C2  OXE d   1       4.499  -3.673  -0.997  0.00  0.00    -0.078 A 
ATOM      5  C3  OXE d   1       5.647  -3.718  -0.211  0.00  0.00     0.003 A 
ATOM      6  C4  OXE d   1       5.996  -4.892   0.468  0.00  0.00    -0.002 A 
ATOM      7  C5  OXE d   1       5.140  -5.998   0.459  0.00  0.00    -0.002 A 
ATOM      8  C6  OXE d   1       3.933  -5.920  -0.228  0.00  0.00     0.003 A 
ENDROOT
TORSDOF 0
ENDMDL
