MODEL 1
REMARK minimizedAffinity 11.7046175
REMARK minimizedRMSD -1
REMARK  0 active torsions:
REMARK  status: ('A' for Active; 'I' for Inactive)
ROOT
ATOM      1  C2' OXE d   1       0.035  -3.145   1.985  0.00  0.00     0.078 C 
ATOM      2  C1' OXE d   1      -1.964  -1.629   0.726  0.00  0.00     0.078 C 
ATOM      3  C1  OXE d   1      -1.344  -1.071   1.983  0.00  0.00    -0.078 A 
ATOM      4  C2  OXE d   1      -0.400  -1.841   2.618  0.00  0.00    -0.078 A 
ATOM      5  C3  OXE d   1       0.243  -1.349   3.750  0.00  0.00     0.003 A 
ATOM      6  C4  OXE d   1      -0.172  -0.146   4.335  0.00  0.00    -0.002 A 
ATOM      7  C5  OXE d   1      -1.160   0.635   3.726  0.00  0.00    -0.002 A 
ATOM      8  C6  OXE d   1      -1.725   0.209   2.529  0.00  0.00     0.003 A 
ENDROOT
TORSDOF 0
ENDMDL
