MODEL 1
REMARK minimizedAffinity 5.69519806
REMARK minimizedRMSD -1
REMARK  0 active torsions:
REMARK  status: ('A' for Active; 'I' for Inactive)
ROOT
ATOM      1  C2' OXE d   1      -2.084  -1.150   1.518  0.00  0.00     0.078 C 
ATOM      2  C1' OXE d   1      -4.734  -0.249   1.307  0.00  0.00     0.078 C 
ATOM      3  C1  OXE d   1      -3.908   0.258   2.462  0.00  0.00    -0.078 A 
ATOM      4  C2  OXE d   1      -2.627  -0.224   2.584  0.00  0.00    -0.078 A 
ATOM      5  C3  OXE d   1      -1.805   0.253   3.601  0.00  0.00     0.003 A 
ATOM      6  C4  OXE d   1      -2.318   1.101   4.589  0.00  0.00    -0.002 A 
ATOM      7  C5  OXE d   1      -3.633   1.574   4.506  0.00  0.00    -0.002 A 
ATOM      8  C6  OXE d   1      -4.426   1.196   3.428  0.00  0.00     0.003 A 
ENDROOT
TORSDOF 0
ENDMDL
