MODEL 1
REMARK minimizedAffinity 11.2631044
REMARK minimizedRMSD -1
REMARK  0 active torsions:
REMARK  status: ('A' for Active; 'I' for Inactive)
ROOT
ATOM      1  C2' OXE d   1      -2.401  -1.761   1.064  0.00  0.00     0.078 C 
ATOM      2  C1' OXE d   1      -4.898  -0.506   1.330  0.00  0.00     0.078 C 
ATOM      3  C1  OXE d   1      -3.816  -0.136   2.314  0.00  0.00    -0.078 A 
ATOM      4  C2  OXE d   1      -2.612  -0.790   2.205  0.00  0.00    -0.078 A 
ATOM      5  C3  OXE d   1      -1.562  -0.447   3.052  0.00  0.00     0.003 A 
ATOM      6  C4  OXE d   1      -1.768   0.445   4.111  0.00  0.00    -0.002 A 
ATOM      7  C5  OXE d   1      -2.999   1.092   4.265  0.00  0.00    -0.002 A 
ATOM      8  C6  OXE d   1      -4.018   0.845   3.351  0.00  0.00     0.003 A 
ENDROOT
TORSDOF 0
ENDMDL
