MODEL 1
REMARK minimizedAffinity -0.880837917
REMARK minimizedRMSD -1
REMARK  0 active torsions:
REMARK  status: ('A' for Active; 'I' for Inactive)
ROOT
ATOM      1  C2' OXE d   1      -2.312   0.297   3.114  0.00  0.00     0.078 C 
ATOM      2  C1' OXE d   1      -4.771   0.105   1.774  0.00  0.00     0.078 C 
ATOM      3  C1  OXE d   1      -4.784   0.593   3.202  0.00  0.00    -0.078 A 
ATOM      4  C2  OXE d   1      -3.581   0.639   3.864  0.00  0.00    -0.078 A 
ATOM      5  C3  OXE d   1      -3.529   1.134   5.164  0.00  0.00     0.003 A 
ATOM      6  C4  OXE d   1      -4.709   1.439   5.855  0.00  0.00    -0.002 A 
ATOM      7  C5  OXE d   1      -5.948   1.360   5.211  0.00  0.00    -0.002 A 
ATOM      8  C6  OXE d   1      -5.999   0.981   3.874  0.00  0.00     0.003 A 
ENDROOT
TORSDOF 0
ENDMDL
