MODEL 1
REMARK minimizedAffinity 10.027339
REMARK minimizedRMSD -1
REMARK  0 active torsions:
REMARK  status: ('A' for Active; 'I' for Inactive)
ROOT
ATOM      1  C2' OXE d   1       1.150   5.381  -2.250  0.00  0.00     0.078 C 
ATOM      2  C1' OXE d   1       2.146   3.318  -3.871  0.00  0.00     0.078 C 
ATOM      3  C1  OXE d   1       1.942   3.024  -2.406  0.00  0.00    -0.078 A 
ATOM      4  C2  OXE d   1       1.498   4.054  -1.611  0.00  0.00    -0.078 A 
ATOM      5  C3  OXE d   1       1.241   3.822  -0.263  0.00  0.00     0.003 A 
ATOM      6  C4  OXE d   1       1.575   2.595   0.322  0.00  0.00    -0.002 A 
ATOM      7  C5  OXE d   1       2.066   1.545  -0.462  0.00  0.00    -0.002 A 
ATOM      8  C6  OXE d   1       2.214   1.730  -1.832  0.00  0.00     0.003 A 
ENDROOT
TORSDOF 0
ENDMDL
