MODEL 1
REMARK minimizedAffinity 17.5894165
REMARK minimizedRMSD -1
REMARK  0 active torsions:
REMARK  status: ('A' for Active; 'I' for Inactive)
ROOT
ATOM      1  C2' OXE d   1       0.469   2.578  -2.895  0.00  0.00     0.078 C 
ATOM      2  C1' OXE d   1       3.250   2.313  -3.169  0.00  0.00     0.078 C 
ATOM      3  C1  OXE d   1       2.614   1.787  -1.906  0.00  0.00    -0.078 A 
ATOM      4  C2  OXE d   1       1.260   1.963  -1.760  0.00  0.00    -0.078 A 
ATOM      5  C3  OXE d   1       0.615   1.449  -0.639  0.00  0.00     0.003 A 
ATOM      6  C4  OXE d   1       1.355   0.890   0.411  0.00  0.00    -0.002 A 
ATOM      7  C5  OXE d   1       2.741   0.737   0.299  0.00  0.00    -0.002 A 
ATOM      8  C6  OXE d   1       3.379   1.141  -0.868  0.00  0.00     0.003 A 
ENDROOT
TORSDOF 0
ENDMDL
