MODEL 1
REMARK minimizedAffinity 8.28731251
REMARK minimizedRMSD -1
REMARK  0 active torsions:
REMARK  status: ('A' for Active; 'I' for Inactive)
ROOT
ATOM      1  C2' OXE d   1       3.617   1.404  -1.080  0.00  0.00     0.078 C 
ATOM      2  C1' OXE d   1       2.049   1.899   1.195  0.00  0.00     0.078 C 
ATOM      3  C1  OXE d   1       3.422   2.520   1.139  0.00  0.00    -0.078 A 
ATOM      4  C2  OXE d   1       4.201   2.234   0.043  0.00  0.00    -0.078 A 
ATOM      5  C3  OXE d   1       5.454   2.826  -0.085  0.00  0.00     0.003 A 
ATOM      6  C4  OXE d   1       5.990   3.584   0.963  0.00  0.00    -0.002 A 
ATOM      7  C5  OXE d   1       5.229   3.855   2.105  0.00  0.00    -0.002 A 
ATOM      8  C6  OXE d   1       3.930   3.367   2.190  0.00  0.00     0.003 A 
ENDROOT
TORSDOF 0
ENDMDL
