MODEL 1
REMARK minimizedAffinity 9.34867764
REMARK minimizedRMSD -1
REMARK  0 active torsions:
REMARK  status: ('A' for Active; 'I' for Inactive)
ROOT
ATOM      1  C2' OXE d   1      -1.117   4.347  -4.039  0.00  0.00     0.078 C 
ATOM      2  C1' OXE d   1       0.367   5.777  -2.132  0.00  0.00     0.078 C 
ATOM      3  C1  OXE d   1       0.511   4.276  -2.154  0.00  0.00    -0.078 A 
ATOM      4  C2  OXE d   1      -0.254   3.581  -3.059  0.00  0.00    -0.078 A 
ATOM      5  C3  OXE d   1      -0.118   2.199  -3.159  0.00  0.00     0.003 A 
ATOM      6  C4  OXE d   1       0.674   1.497  -2.243  0.00  0.00    -0.002 A 
ATOM      7  C5  OXE d   1       1.431   2.183  -1.287  0.00  0.00    -0.002 A 
ATOM      8  C6  OXE d   1       1.394   3.572  -1.257  0.00  0.00     0.003 A 
ENDROOT
TORSDOF 0
ENDMDL
