MODEL 1
REMARK minimizedAffinity 11.7506418
REMARK minimizedRMSD -1
REMARK  0 active torsions:
REMARK  status: ('A' for Active; 'I' for Inactive)
ROOT
ATOM      1  C2' OXE d   1       4.316   0.314  -0.745  0.00  0.00     0.078 C 
ATOM      2  C1' OXE d   1       2.206   1.348   0.791  0.00  0.00     0.078 C 
ATOM      3  C1  OXE d   1       3.520   2.088   0.811  0.00  0.00    -0.078 A 
ATOM      4  C2  OXE d   1       4.561   1.549   0.094  0.00  0.00    -0.078 A 
ATOM      5  C3  OXE d   1       5.778   2.221   0.034  0.00  0.00     0.003 A 
ATOM      6  C4  OXE d   1       6.000   3.358   0.821  0.00  0.00    -0.002 A 
ATOM      7  C5  OXE d   1       4.966   3.901   1.590  0.00  0.00    -0.002 A 
ATOM      8  C6  OXE d   1       3.710   3.304   1.563  0.00  0.00     0.003 A 
ENDROOT
TORSDOF 0
ENDMDL
