MODEL 1
REMARK minimizedAffinity 14.7290316
REMARK minimizedRMSD -1
REMARK  0 active torsions:
REMARK  status: ('A' for Active; 'I' for Inactive)
ROOT
ATOM      1  C2' OXE d   1       1.055   3.926  -4.785  0.00  0.00     0.078 C 
ATOM      2  C1' OXE d   1       0.231   5.893  -2.960  0.00  0.00     0.078 C 
ATOM      3  C1  OXE d   1      -0.760   5.442  -4.004  0.00  0.00    -0.078 A 
ATOM      4  C2  OXE d   1      -0.333   4.513  -4.922  0.00  0.00    -0.078 A 
ATOM      5  C3  OXE d   1      -1.224   4.023  -5.872  0.00  0.00     0.003 A 
ATOM      6  C4  OXE d   1      -2.503   4.578  -5.998  0.00  0.00    -0.002 A 
ATOM      7  C5  OXE d   1      -2.945   5.554  -5.098  0.00  0.00    -0.002 A 
ATOM      8  C6  OXE d   1      -2.102   5.966  -4.071  0.00  0.00     0.003 A 
ENDROOT
TORSDOF 0
ENDMDL
