MODEL 1
REMARK minimizedAffinity 1.86117542
REMARK minimizedRMSD -1
REMARK  0 active torsions:
REMARK  status: ('A' for Active; 'I' for Inactive)
ROOT
ATOM      1  C1  DEN d   1      -1.076  -1.003  -1.095  0.00  0.00     0.130 A 
ATOM      2  C2  DEN d   1      -1.915  -1.910  -0.315  0.00  0.00    -0.031 A 
ATOM      3  C3  DEN d   1      -1.035  -2.695   0.574  0.00  0.00     0.027 A 
ATOM      4  C4  DEN d   1       1.530  -2.593   0.820  0.00  0.00     0.027 A 
ATOM      5  C5  DEN d   1       2.679  -1.987   0.361  0.00  0.00    -0.003 A 
ATOM      6  C6  DEN d   1       2.660  -1.043  -0.632  0.00  0.00     0.001 A 
ATOM      7  C7  DEN d   1       1.463  -0.644  -1.166  0.00  0.00     0.017 A 
ATOM      8  C8  DEN d   1       0.301  -1.256  -0.713  0.00  0.00    -0.094 A 
ATOM      9  C9  DEN d   1       0.341  -2.199   0.299  0.00  0.00    -0.072 A 
ENDROOT
TORSDOF 0
ENDMDL
