MODEL 1
REMARK minimizedAffinity 7.71920156
REMARK minimizedRMSD -1
REMARK  0 active torsions:
REMARK  status: ('A' for Active; 'I' for Inactive)
ROOT
ATOM      1  C1  DEN d   1       1.016  -1.827  -1.069  0.00  0.00     0.130 A 
ATOM      2  C2  DEN d   1       1.379  -0.692  -0.226  0.00  0.00    -0.031 A 
ATOM      3  C3  DEN d   1       1.175   0.543  -1.010  0.00  0.00     0.027 A 
ATOM      4  C4  DEN d   1       0.331   0.805  -3.433  0.00  0.00     0.027 A 
ATOM      5  C5  DEN d   1      -0.092   0.126  -4.554  0.00  0.00    -0.003 A 
ATOM      6  C6  DEN d   1      -0.142  -1.242  -4.603  0.00  0.00     0.001 A 
ATOM      7  C7  DEN d   1       0.193  -1.974  -3.495  0.00  0.00     0.017 A 
ATOM      8  C8  DEN d   1       0.628  -1.296  -2.363  0.00  0.00    -0.094 A 
ATOM      9  C9  DEN d   1       0.660   0.087  -2.329  0.00  0.00    -0.072 A 
ENDROOT
TORSDOF 0
ENDMDL
