MODEL 1
REMARK minimizedAffinity -2.48790574
REMARK minimizedRMSD -1
REMARK  0 active torsions:
REMARK  status: ('A' for Active; 'I' for Inactive)
ROOT
ATOM      1  C1  DEN d   1      -2.627  -1.736   3.670  0.00  0.00     0.130 A 
ATOM      2  C2  DEN d   1      -1.702  -0.806   4.313  0.00  0.00    -0.031 A 
ATOM      3  C3  DEN d   1      -2.362   0.513   4.389  0.00  0.00     0.027 A 
ATOM      4  C4  DEN d   1      -4.714   1.201   3.584  0.00  0.00     0.027 A 
ATOM      5  C5  DEN d   1      -5.862   0.758   2.965  0.00  0.00    -0.003 A 
ATOM      6  C6  DEN d   1      -5.999  -0.527   2.512  0.00  0.00     0.001 A 
ATOM      7  C7  DEN d   1      -4.986  -1.428   2.710  0.00  0.00     0.017 A 
ATOM      8  C8  DEN d   1      -3.822  -0.987   3.326  0.00  0.00    -0.094 A 
ATOM      9  C9  DEN d   1      -3.708   0.313   3.789  0.00  0.00    -0.072 A 
ENDROOT
TORSDOF 0
ENDMDL
