MODEL 1
REMARK minimizedAffinity -0.280561775
REMARK minimizedRMSD -1
REMARK  0 active torsions:
REMARK  status: ('A' for Active; 'I' for Inactive)
ROOT
ATOM      1  C1  DEN d   1       1.807  -3.808   0.890  0.00  0.00     0.130 A 
ATOM      2  C2  DEN d   1       0.655  -4.594   1.326  0.00  0.00    -0.031 A 
ATOM      3  C3  DEN d   1      -0.566  -3.928   0.831  0.00  0.00     0.027 A 
ATOM      4  C4  DEN d   1      -0.785  -1.770  -0.565  0.00  0.00     0.027 A 
ATOM      5  C5  DEN d   1      -0.087  -0.745  -1.165  0.00  0.00    -0.003 A 
ATOM      6  C6  DEN d   1       1.278  -0.652  -1.094  0.00  0.00     0.001 A 
ATOM      7  C7  DEN d   1       1.992  -1.625  -0.446  0.00  0.00     0.017 A 
ATOM      8  C8  DEN d   1       1.294  -2.657   0.168  0.00  0.00    -0.094 A 
ATOM      9  C9  DEN d   1      -0.085  -2.740   0.075  0.00  0.00    -0.072 A 
ENDROOT
TORSDOF 0
ENDMDL
