MODEL 1
REMARK minimizedAffinity 7.1033206
REMARK minimizedRMSD -1
REMARK  0 active torsions:
REMARK  status: ('A' for Active; 'I' for Inactive)
ROOT
ATOM      1  C1  DEN d   1       0.851  -0.116  -0.261  0.00  0.00     0.130 A 
ATOM      2  C2  DEN d   1       1.136  -1.531  -0.485  0.00  0.00    -0.031 A 
ATOM      3  C3  DEN d   1       1.369  -1.727  -1.930  0.00  0.00     0.027 A 
ATOM      4  C4  DEN d   1       1.321   0.015  -3.831  0.00  0.00     0.027 A 
ATOM      5  C5  DEN d   1       1.113   1.343  -4.132  0.00  0.00    -0.003 A 
ATOM      6  C6  DEN d   1       0.772   2.264  -3.177  0.00  0.00     0.001 A 
ATOM      7  C7  DEN d   1       0.674   1.877  -1.866  0.00  0.00     0.017 A 
ATOM      8  C8  DEN d   1       0.875   0.538  -1.556  0.00  0.00    -0.094 A 
ATOM      9  C9  DEN d   1       1.231  -0.374  -2.534  0.00  0.00    -0.072 A 
ENDROOT
TORSDOF 0
ENDMDL
