MODEL 1
REMARK minimizedAffinity 8.98467922
REMARK minimizedRMSD -1
REMARK  0 active torsions:
REMARK  status: ('A' for Active; 'I' for Inactive)
ROOT
ATOM      1  C1  DEN d   1       2.296   1.541  -3.438  0.00  0.00     0.130 A 
ATOM      2  C2  DEN d   1       1.413   2.009  -4.503  0.00  0.00    -0.031 A 
ATOM      3  C3  DEN d   1       2.240   2.278  -5.697  0.00  0.00     0.027 A 
ATOM      4  C4  DEN d   1       4.787   2.011  -6.000  0.00  0.00     0.027 A 
ATOM      5  C5  DEN d   1       5.961   1.654  -5.373  0.00  0.00    -0.003 A 
ATOM      6  C6  DEN d   1       6.000   1.270  -4.059  0.00  0.00     0.001 A 
ATOM      7  C7  DEN d   1       4.836   1.191  -3.341  0.00  0.00     0.017 A 
ATOM      8  C8  DEN d   1       3.650   1.556  -3.963  0.00  0.00    -0.094 A 
ATOM      9  C9  DEN d   1       3.630   1.929  -5.296  0.00  0.00    -0.072 A 
ENDROOT
TORSDOF 0
ENDMDL
