MODEL 1
REMARK minimizedAffinity 14.1020279
REMARK minimizedRMSD -1
REMARK  0 active torsions:
REMARK  status: ('A' for Active; 'I' for Inactive)
ROOT
ATOM      1  C1  DEN d   1       2.442   0.723  -5.931  0.00  0.00     0.130 A 
ATOM      2  C2  DEN d   1       1.654   1.953  -5.931  0.00  0.00    -0.031 A 
ATOM      3  C3  DEN d   1       2.492   3.031  -5.370  0.00  0.00     0.027 A 
ATOM      4  C4  DEN d   1       4.920   2.919  -4.509  0.00  0.00     0.027 A 
ATOM      5  C5  DEN d   1       5.998   2.088  -4.296  0.00  0.00    -0.003 A 
ATOM      6  C6  DEN d   1       5.955   0.749  -4.579  0.00  0.00     0.001 A 
ATOM      7  C7  DEN d   1       4.826   0.208  -5.134  0.00  0.00     0.017 A 
ATOM      8  C8  DEN d   1       3.732   1.038  -5.344  0.00  0.00    -0.094 A 
ATOM      9  C9  DEN d   1       3.799   2.392  -5.063  0.00  0.00    -0.072 A 
ENDROOT
TORSDOF 0
ENDMDL
