MODEL 1
REMARK minimizedAffinity 11.6329403
REMARK minimizedRMSD -1
REMARK  0 active torsions:
REMARK  status: ('A' for Active; 'I' for Inactive)
ROOT
ATOM      1  C1  DEN d   1       0.202  -0.128  -0.173  0.00  0.00     0.130 A 
ATOM      2  C2  DEN d   1       0.679  -1.508  -0.196  0.00  0.00    -0.031 A 
ATOM      3  C3  DEN d   1       1.361  -1.734  -1.486  0.00  0.00     0.027 A 
ATOM      4  C4  DEN d   1       1.727  -0.089  -3.438  0.00  0.00     0.027 A 
ATOM      5  C5  DEN d   1       1.491   1.192  -3.886  0.00  0.00    -0.003 A 
ATOM      6  C6  DEN d   1       0.786   2.105  -3.148  0.00  0.00     0.001 A 
ATOM      7  C7  DEN d   1       0.329   1.764  -1.902  0.00  0.00     0.017 A 
ATOM      8  C8  DEN d   1       0.557   0.472  -1.447  0.00  0.00    -0.094 A 
ATOM      9  C9  DEN d   1       1.282  -0.433  -2.203  0.00  0.00    -0.072 A 
ENDROOT
TORSDOF 0
ENDMDL
