MODEL 1
REMARK minimizedAffinity 14.6817226
REMARK minimizedRMSD -1
REMARK  0 active torsions:
REMARK  status: ('A' for Active; 'I' for Inactive)
ROOT
ATOM      1  C1  DEN d   1       0.915  -2.044  -3.079  0.00  0.00     0.130 A 
ATOM      2  C2  DEN d   1       0.494  -2.798  -1.902  0.00  0.00    -0.031 A 
ATOM      3  C3  DEN d   1       0.259  -1.839  -0.804  0.00  0.00     0.027 A 
ATOM      4  C4  DEN d   1       0.499   0.729  -0.815  0.00  0.00     0.027 A 
ATOM      5  C5  DEN d   1       0.841   1.822  -1.581  0.00  0.00    -0.003 A 
ATOM      6  C6  DEN d   1       1.260   1.700  -2.879  0.00  0.00     0.001 A 
ATOM      7  C7  DEN d   1       1.306   0.463  -3.465  0.00  0.00     0.017 A 
ATOM      8  C8  DEN d   1       0.970  -0.644  -2.697  0.00  0.00    -0.094 A 
ATOM      9  C9  DEN d   1       0.536  -0.499  -1.390  0.00  0.00    -0.072 A 
ENDROOT
TORSDOF 0
ENDMDL
