MODEL 1
REMARK minimizedAffinity 2.25030613
REMARK minimizedRMSD -1
REMARK  0 active torsions:
REMARK  status: ('A' for Active; 'I' for Inactive)
ROOT
ATOM      1  C1  DEN d   1       1.161   0.013  -4.034  0.00  0.00     0.130 A 
ATOM      2  C2  DEN d   1       1.642  -1.300  -4.457  0.00  0.00    -0.031 A 
ATOM      3  C3  DEN d   1       1.655  -2.184  -3.274  0.00  0.00     0.027 A 
ATOM      4  C4  DEN d   1       0.976  -1.651  -0.843  0.00  0.00     0.027 A 
ATOM      5  C5  DEN d   1       0.515  -0.667   0.004  0.00  0.00    -0.003 A 
ATOM      6  C6  DEN d   1       0.271   0.610  -0.425  0.00  0.00     0.001 A 
ATOM      7  C7  DEN d   1       0.445   0.927  -1.747  0.00  0.00     0.017 A 
ATOM      8  C8  DEN d   1       0.917  -0.057  -2.605  0.00  0.00    -0.094 A 
ATOM      9  C9  DEN d   1       1.145  -1.346  -2.155  0.00  0.00    -0.072 A 
ENDROOT
TORSDOF 0
ENDMDL
