MODEL 1
REMARK minimizedAffinity 4.07370806
REMARK minimizedRMSD -1
REMARK  0 active torsions:
REMARK  status: ('A' for Active; 'I' for Inactive)
ROOT
ATOM      1  C1  DEN d   1       1.468  -1.385  -3.917  0.00  0.00     0.130 A 
ATOM      2  C2  DEN d   1       1.487  -2.662  -3.210  0.00  0.00    -0.031 A 
ATOM      3  C3  DEN d   1       1.235  -2.396  -1.780  0.00  0.00     0.027 A 
ATOM      4  C4  DEN d   1       0.815  -0.143  -0.598  0.00  0.00     0.027 A 
ATOM      5  C5  DEN d   1       0.715   1.219  -0.780  0.00  0.00    -0.003 A 
ATOM      6  C6  DEN d   1       0.892   1.807  -2.005  0.00  0.00     0.001 A 
ATOM      7  C7  DEN d   1       1.133   1.026  -3.104  0.00  0.00     0.017 A 
ATOM      8  C8  DEN d   1       1.242  -0.347  -2.927  0.00  0.00    -0.094 A 
ATOM      9  C9  DEN d   1       1.048  -0.924  -1.683  0.00  0.00    -0.072 A 
ENDROOT
TORSDOF 0
ENDMDL
