MODEL 1
REMARK minimizedAffinity 1.7094872
REMARK minimizedRMSD -1
REMARK  0 active torsions:
REMARK  status: ('A' for Active; 'I' for Inactive)
ROOT
ATOM      1  C1  DEN d   1       0.354   0.278  -0.011  0.00  0.00     0.130 A 
ATOM      2  C2  DEN d   1       0.123  -1.068   0.505  0.00  0.00    -0.031 A 
ATOM      3  C3  DEN d   1       0.423  -2.029  -0.576  0.00  0.00     0.027 A 
ATOM      4  C4  DEN d   1       1.223  -1.565  -2.984  0.00  0.00     0.027 A 
ATOM      5  C5  DEN d   1       1.549  -0.578  -3.888  0.00  0.00    -0.003 A 
ATOM      6  C6  DEN d   1       1.468   0.754  -3.576  0.00  0.00     0.001 A 
ATOM      7  C7  DEN d   1       1.093   1.134  -2.314  0.00  0.00     0.017 A 
ATOM      8  C8  DEN d   1       0.756   0.145  -1.400  0.00  0.00    -0.094 A 
ATOM      9  C9  DEN d   1       0.857  -1.196  -1.730  0.00  0.00    -0.072 A 
ENDROOT
TORSDOF 0
ENDMDL
