MODEL 1
REMARK minimizedAffinity 2.14455032
REMARK minimizedRMSD -1
REMARK  0 active torsions:
REMARK  status: ('A' for Active; 'I' for Inactive)
ROOT
ATOM      1  C1  DEN d   1       0.776   0.345  -0.807  0.00  0.00     0.130 A 
ATOM      2  C2  DEN d   1       0.680   1.695  -1.357  0.00  0.00    -0.031 A 
ATOM      3  C3  DEN d   1       0.835   1.602  -2.823  0.00  0.00     0.027 A 
ATOM      4  C4  DEN d   1       1.206  -0.490  -4.286  0.00  0.00     0.027 A 
ATOM      5  C5  DEN d   1       1.368  -1.857  -4.269  0.00  0.00    -0.003 A 
ATOM      6  C6  DEN d   1       1.377  -2.577  -3.104  0.00  0.00     0.001 A 
ATOM      7  C7  DEN d   1       1.177  -1.937  -1.909  0.00  0.00     0.017 A 
ATOM      8  C8  DEN d   1       1.021  -0.557  -1.918  0.00  0.00    -0.094 A 
ATOM      9  C9  DEN d   1       1.002   0.151  -3.107  0.00  0.00    -0.072 A 
ENDROOT
TORSDOF 0
ENDMDL
