MODEL 1
REMARK minimizedAffinity 5.81126881
REMARK minimizedRMSD -1
REMARK  0 active torsions:
REMARK  status: ('A' for Active; 'I' for Inactive)
ROOT
ATOM      1  C1  DEN d   1       0.054  -0.497  -0.922  0.00  0.00     0.130 A 
ATOM      2  C2  DEN d   1       0.328   0.931  -1.060  0.00  0.00    -0.031 A 
ATOM      3  C3  DEN d   1       1.052   1.135  -2.331  0.00  0.00     0.027 A 
ATOM      4  C4  DEN d   1       1.766  -0.610  -4.091  0.00  0.00     0.027 A 
ATOM      5  C5  DEN d   1       1.765  -1.951  -4.407  0.00  0.00    -0.003 A 
ATOM      6  C6  DEN d   1       1.228  -2.897  -3.575  0.00  0.00     0.001 A 
ATOM      7  C7  DEN d   1       0.629  -2.510  -2.405  0.00  0.00     0.017 A 
ATOM      8  C8  DEN d   1       0.633  -1.161  -2.076  0.00  0.00    -0.094 A 
ATOM      9  C9  DEN d   1       1.170  -0.219  -2.936  0.00  0.00    -0.072 A 
ENDROOT
TORSDOF 0
ENDMDL
