MODEL 1
REMARK minimizedAffinity -2.58546042
REMARK minimizedRMSD -1
REMARK  1 active torsions:
REMARK  status: ('A' for Active; 'I' for Inactive)
REMARK    1  A    between atoms: N_2  and  C1_3 
ROOT
ATOM      1  C1  UNL d   1       1.564  -0.779   0.434  0.00  0.00     0.143 A 
ATOM      2  C2  UNL d   1       0.831  -1.836   0.984  0.00  0.00    -0.057 A 
ATOM      3  C3  UNL d   1      -0.552  -1.939   0.788  0.00  0.00     0.033 A 
ATOM      4  C4  UNL d   1      -1.232  -0.968   0.060  0.00  0.00    -0.042 A 
ATOM      5  C5  UNL d   1      -0.527   0.104  -0.475  0.00  0.00     0.033 A 
ATOM      6  C6  UNL d   1       0.855   0.198  -0.281  0.00  0.00    -0.057 A 
ENDROOT
BRANCH   1   7
ATOM      7  N   UNL d   1       2.924  -0.568   0.675  0.00  0.00    -0.732 N 
ATOM      8  C   UNL d   1       3.356   0.405   1.656  0.00  0.00     0.284 C 
ATOM      9  H3  UNL d   1       3.456  -1.435   0.688  0.00  0.00     0.395 HD
ENDBRANCH   1   7
TORSDOF 1
ENDMDL
