MODEL 1
REMARK minimizedAffinity -2.7483809
REMARK minimizedRMSD -1
REMARK  1 active torsions:
REMARK  status: ('A' for Active; 'I' for Inactive)
REMARK    1  A    between atoms: N_2  and  C1_3 
ROOT
ATOM      1  C1  UNL d   1       1.451   0.264   0.398  0.00  0.00     0.143 A 
ATOM      2  C2  UNL d   1       0.861  -1.003   0.463  0.00  0.00    -0.057 A 
ATOM      3  C3  UNL d   1      -0.530  -1.155   0.506  0.00  0.00     0.033 A 
ATOM      4  C4  UNL d   1      -1.358  -0.037   0.515  0.00  0.00    -0.042 A 
ATOM      5  C5  UNL d   1      -0.793   1.232   0.476  0.00  0.00     0.033 A 
ATOM      6  C6  UNL d   1       0.597   1.378   0.426  0.00  0.00    -0.057 A 
ENDROOT
BRANCH   1   7
ATOM      7  N   UNL d   1       2.830   0.484   0.452  0.00  0.00    -0.732 N 
ATOM      8  C   UNL d   1       3.710  -0.498   1.046  0.00  0.00     0.284 C 
ATOM      9  H3  UNL d   1       3.190   0.903  -0.403  0.00  0.00     0.395 HD
ENDBRANCH   1   7
TORSDOF 1
ENDMDL
