MODEL 1
REMARK minimizedAffinity -1.89278245
REMARK minimizedRMSD -1
REMARK  0 active torsions:
REMARK  status: ('A' for Active; 'I' for Inactive)
ROOT
ATOM      1  C   UNL d   1      -0.603  -0.237  -0.011  0.00  0.00     0.023 A 
ATOM      2  C1  UNL d   1      -0.838   0.876  -0.819  0.00  0.00     0.003 A 
ATOM      3  C2  UNL d   1      -0.160   2.072  -0.576  0.00  0.00     0.048 A 
ATOM      4  C3  UNL d   1       0.753   2.149   0.475  0.00  0.00     0.023 A 
ATOM      5  C4  UNL d   1       0.993   1.037   1.285  0.00  0.00     0.048 A 
ATOM      6  C5  UNL d   1       0.311  -0.156   1.039  0.00  0.00     0.003 A 
ATOM      7  I   UNL d   1       1.764   3.928   0.838  0.00  0.00    -0.146 I 
ENDROOT
TORSDOF 0
ENDMDL
