MODEL 1
REMARK minimizedAffinity -2.91214252
REMARK minimizedRMSD -1
REMARK  0 active torsions:
REMARK  status: ('A' for Active; 'I' for Inactive)
ROOT
ATOM      1  C   UNL d   1      -0.754  -1.374  -0.053  0.00  0.00     0.023 A 
ATOM      2  C1  UNL d   1      -0.386  -0.848   1.186  0.00  0.00     0.003 A 
ATOM      3  C2  UNL d   1       0.200   0.417   1.263  0.00  0.00     0.048 A 
ATOM      4  C3  UNL d   1       0.414   1.151   0.097  0.00  0.00     0.023 A 
ATOM      5  C4  UNL d   1       0.048   0.630  -1.144  0.00  0.00     0.048 A 
ATOM      6  C5  UNL d   1      -0.537  -0.636  -1.216  0.00  0.00     0.003 A 
ATOM      7  I   UNL d   1       1.286   3.035   0.209  0.00  0.00    -0.146 I 
ENDROOT
TORSDOF 0
ENDMDL
