MODEL 1
REMARK minimizedAffinity -3.32269239
REMARK minimizedRMSD -1
REMARK  0 active torsions:
REMARK  status: ('A' for Active; 'I' for Inactive)
ROOT
ATOM      1  C   UNL d   1      -0.510  -3.212  -1.875  0.00  0.00     0.023 A 
ATOM      2  C1  UNL d   1       0.008  -2.206  -2.692  0.00  0.00     0.003 A 
ATOM      3  C2  UNL d   1       0.153  -0.908  -2.198  0.00  0.00     0.048 A 
ATOM      4  C3  UNL d   1      -0.220  -0.623  -0.885  0.00  0.00     0.023 A 
ATOM      5  C4  UNL d   1      -0.737  -1.626  -0.063  0.00  0.00     0.048 A 
ATOM      6  C5  UNL d   1      -0.881  -2.922  -0.562  0.00  0.00     0.003 A 
ATOM      7  I   UNL d   1      -0.005   1.308  -0.147  0.00  0.00    -0.146 I 
ENDROOT
TORSDOF 0
ENDMDL
