MODEL 1
REMARK minimizedAffinity -0.440823197
REMARK minimizedRMSD -1
REMARK  0 active torsions:
REMARK  status: ('A' for Active; 'I' for Inactive)
ROOT
ATOM      1  C   UNL d   1      -0.447  -1.723   0.325  0.00  0.00     0.023 A 
ATOM      2  C1  UNL d   1       0.571  -1.410  -0.576  0.00  0.00     0.003 A 
ATOM      3  C2  UNL d   1       1.061  -0.105  -0.652  0.00  0.00     0.048 A 
ATOM      4  C3  UNL d   1       0.530   0.883   0.177  0.00  0.00     0.023 A 
ATOM      5  C4  UNL d   1      -0.488   0.574   1.081  0.00  0.00     0.048 A 
ATOM      6  C5  UNL d   1      -0.976  -0.732   1.153  0.00  0.00     0.003 A 
ATOM      7  I   UNL d   1       1.258   2.826   0.066  0.00  0.00    -0.146 I 
ENDROOT
TORSDOF 0
ENDMDL
