MODEL 1
REMARK minimizedAffinity -3.24880981
REMARK minimizedRMSD -1
REMARK  0 active torsions:
REMARK  status: ('A' for Active; 'I' for Inactive)
ROOT
ATOM      1  C   UNL d   1      -0.594  -2.777   0.974  0.00  0.00     0.023 A 
ATOM      2  C1  UNL d   1       0.600  -2.422   0.346  0.00  0.00     0.003 A 
ATOM      3  C2  UNL d   1       0.878  -1.080   0.081  0.00  0.00     0.048 A 
ATOM      4  C3  UNL d   1      -0.041  -0.098   0.447  0.00  0.00     0.023 A 
ATOM      5  C4  UNL d   1      -1.236  -0.448   1.076  0.00  0.00     0.048 A 
ATOM      6  C5  UNL d   1      -1.511  -1.791   1.339  0.00  0.00     0.003 A 
ATOM      7  I   UNL d   1       0.372   1.901   0.052  0.00  0.00    -0.146 I 
ENDROOT
TORSDOF 0
ENDMDL
