MODEL 1
REMARK minimizedAffinity -3.52406168
REMARK minimizedRMSD -1
REMARK  0 active torsions:
REMARK  status: ('A' for Active; 'I' for Inactive)
ROOT
ATOM      1  C   UNL d   1       0.978  -1.911  -1.519  0.00  0.00     0.023 A 
ATOM      2  C1  UNL d   1       0.962  -2.275  -0.173  0.00  0.00     0.003 A 
ATOM      3  C2  UNL d   1       0.253  -1.506   0.752  0.00  0.00     0.048 A 
ATOM      4  C3  UNL d   1      -0.440  -0.375   0.323  0.00  0.00     0.023 A 
ATOM      5  C4  UNL d   1      -0.427  -0.006  -1.024  0.00  0.00     0.048 A 
ATOM      6  C5  UNL d   1       0.284  -0.778  -1.944  0.00  0.00     0.003 A 
ATOM      7  I   UNL d   1      -1.497   0.772   1.697  0.00  0.00    -0.146 I 
ENDROOT
TORSDOF 0
ENDMDL
