MODEL 1
REMARK minimizedAffinity -4.67479229
REMARK minimizedRMSD -1
REMARK  0 active torsions:
REMARK  status: ('A' for Active; 'I' for Inactive)
ROOT
ATOM      1  C   UNL d   1       0.040  -3.627  -0.655  0.00  0.00     0.023 A 
ATOM      2  C1  UNL d   1       0.020  -3.014   0.598  0.00  0.00     0.003 A 
ATOM      3  C2  UNL d   1       0.012  -1.621   0.695  0.00  0.00     0.048 A 
ATOM      4  C3  UNL d   1       0.022  -0.847  -0.465  0.00  0.00     0.023 A 
ATOM      5  C4  UNL d   1       0.042  -1.457  -1.721  0.00  0.00     0.048 A 
ATOM      6  C5  UNL d   1       0.051  -2.850  -1.813  0.00  0.00     0.003 A 
ATOM      7  I   UNL d   1       0.009   1.226  -0.324  0.00  0.00    -0.146 I 
ENDROOT
TORSDOF 0
ENDMDL
