MODEL 1
REMARK minimizedAffinity -4.31366825
REMARK minimizedRMSD -1
REMARK  0 active torsions:
REMARK  status: ('A' for Active; 'I' for Inactive)
ROOT
ATOM      1  C   UNL d   1      -0.417  -3.721  -0.345  0.00  0.00     0.023 A 
ATOM      2  C1  UNL d   1      -0.632  -3.092   0.881  0.00  0.00     0.003 A 
ATOM      3  C2  UNL d   1      -0.444  -1.713   1.002  0.00  0.00     0.048 A 
ATOM      4  C3  UNL d   1      -0.042  -0.970  -0.107  0.00  0.00     0.023 A 
ATOM      5  C4  UNL d   1       0.173  -1.595  -1.337  0.00  0.00     0.048 A 
ATOM      6  C5  UNL d   1      -0.015  -2.974  -1.453  0.00  0.00     0.003 A 
ATOM      7  I   UNL d   1       0.237   1.082   0.070  0.00  0.00    -0.146 I 
ENDROOT
TORSDOF 0
ENDMDL
