MODEL 1
REMARK minimizedAffinity -3.70020604
REMARK minimizedRMSD -1
REMARK  0 active torsions:
REMARK  status: ('A' for Active; 'I' for Inactive)
ROOT
ATOM      1  C   UNL d   1      -0.044  -3.547  -0.542  0.00  0.00     0.023 A 
ATOM      2  C1  UNL d   1      -0.115  -2.792   0.629  0.00  0.00     0.003 A 
ATOM      3  C2  UNL d   1      -0.014  -1.401   0.572  0.00  0.00     0.048 A 
ATOM      4  C3  UNL d   1       0.157  -0.770  -0.660  0.00  0.00     0.023 A 
ATOM      5  C4  UNL d   1       0.228  -1.521  -1.835  0.00  0.00     0.048 A 
ATOM      6  C5  UNL d   1       0.127  -2.912  -1.772  0.00  0.00     0.003 A 
ATOM      7  I   UNL d   1       0.306   1.301  -0.747  0.00  0.00    -0.146 I 
ENDROOT
TORSDOF 0
ENDMDL
