MODEL 1
REMARK minimizedAffinity -3.1943419
REMARK minimizedRMSD -1
REMARK  0 active torsions:
REMARK  status: ('A' for Active; 'I' for Inactive)
ROOT
ATOM      1  C   UNL d   1      -0.791  -2.351   0.304  0.00  0.00     0.023 A 
ATOM      2  C1  UNL d   1      -0.979  -1.522   1.410  0.00  0.00     0.003 A 
ATOM      3  C2  UNL d   1      -0.588  -0.183   1.356  0.00  0.00     0.048 A 
ATOM      4  C3  UNL d   1      -0.010   0.322   0.191  0.00  0.00     0.023 A 
ATOM      5  C4  UNL d   1       0.180  -0.503  -0.918  0.00  0.00     0.048 A 
ATOM      6  C5  UNL d   1      -0.212  -1.842  -0.859  0.00  0.00     0.003 A 
ATOM      7  I   UNL d   1       0.572   2.316   0.108  0.00  0.00    -0.146 I 
ENDROOT
TORSDOF 0
ENDMDL
