MODEL 1
REMARK minimizedAffinity -1.99046397
REMARK minimizedRMSD -1
REMARK  0 active torsions:
REMARK  status: ('A' for Active; 'I' for Inactive)
ROOT
ATOM      1  C   UNL d   1       1.884   4.637   1.115  0.00  0.00     0.023 A 
ATOM      2  C1  UNL d   1       2.509   3.429   0.807  0.00  0.00     0.003 A 
ATOM      3  C2  UNL d   1       1.750   2.337   0.382  0.00  0.00     0.048 A 
ATOM      4  C3  UNL d   1       0.366   2.460   0.265  0.00  0.00     0.023 A 
ATOM      5  C4  UNL d   1      -0.264   3.667   0.571  0.00  0.00     0.048 A 
ATOM      6  C5  UNL d   1       0.499   4.756   0.997  0.00  0.00     0.003 A 
ATOM      7  I   UNL d   1      -0.766   0.836  -0.369  0.00  0.00    -0.146 I 
ENDROOT
TORSDOF 0
ENDMDL
