MODEL 1
REMARK minimizedAffinity -2.96316743
REMARK minimizedRMSD -1
REMARK  0 active torsions:
REMARK  status: ('A' for Active; 'I' for Inactive)
ROOT
ATOM      1  C   UNL d   1       1.714   4.382   0.131  0.00  0.00     0.023 A 
ATOM      2  C1  UNL d   1       2.040   3.416  -0.821  0.00  0.00     0.003 A 
ATOM      3  C2  UNL d   1       1.445   2.154  -0.769  0.00  0.00     0.048 A 
ATOM      4  C3  UNL d   1       0.523   1.865   0.236  0.00  0.00     0.023 A 
ATOM      5  C4  UNL d   1       0.192   2.829   1.190  0.00  0.00     0.048 A 
ATOM      6  C5  UNL d   1       0.791   4.089   1.135  0.00  0.00     0.003 A 
ATOM      7  I   UNL d   1      -0.366  -0.012   0.315  0.00  0.00    -0.146 I 
ENDROOT
TORSDOF 0
ENDMDL
