MODEL 1
REMARK minimizedAffinity -3.46526432
REMARK minimizedRMSD -1
REMARK  0 active torsions:
REMARK  status: ('A' for Active; 'I' for Inactive)
ROOT
ATOM      1  C   UNL d   1      -0.356  -0.753   0.473  0.00  0.00     0.023 A 
ATOM      2  C1  UNL d   1      -0.468   0.073  -0.645  0.00  0.00     0.003 A 
ATOM      3  C2  UNL d   1       0.151   1.324  -0.656  0.00  0.00     0.048 A 
ATOM      4  C3  UNL d   1       0.882   1.743   0.455  0.00  0.00     0.023 A 
ATOM      5  C4  UNL d   1       0.998   0.920   1.576  0.00  0.00     0.048 A 
ATOM      6  C5  UNL d   1       0.376  -0.330   1.583  0.00  0.00     0.003 A 
ATOM      7  I   UNL d   1       1.806   3.606   0.441  0.00  0.00    -0.146 I 
ENDROOT
TORSDOF 0
ENDMDL
