MODEL 1
REMARK minimizedAffinity -2.87146711
REMARK minimizedRMSD -1
REMARK  1 active torsions:
REMARK  status: ('A' for Active; 'I' for Inactive)
REMARK    1  A    between atoms: C1_2  and  C2_3 
ROOT
ATOM      1  C2  UNL d   1      -0.232   0.351  -0.134  0.00  0.00    -0.073 A 
ATOM      2  C3  UNL d   1       1.103   0.689   0.111  0.00  0.00    -0.002 A 
ATOM      3  C4  UNL d   1       1.606   0.681   1.412  0.00  0.00     0.004 A 
ATOM      4  C5  UNL d   1       0.782   0.329   2.481  0.00  0.00    -0.004 A 
ATOM      5  C6  UNL d   1      -0.553  -0.024   2.256  0.00  0.00    -0.075 A 
ATOM      6  C7  UNL d   1      -1.453  -0.403   3.395  0.00  0.00     0.076 C 
ATOM      7  C8  UNL d   1      -1.051  -0.011   0.946  0.00  0.00     0.001 A 
ENDROOT
BRANCH   1   8
ATOM      8  C1  UNL d   1      -0.778   0.352  -1.538  0.00  0.00     0.053 C 
ATOM      9  C   UNL d   1       0.170  -0.322  -2.518  0.00  0.00     0.018 C 
ENDBRANCH   1   8
TORSDOF 1
ENDMDL
