MODEL 1
REMARK minimizedAffinity -3.44089866
REMARK minimizedRMSD -1
REMARK  1 active torsions:
REMARK  status: ('A' for Active; 'I' for Inactive)
REMARK    1  A    between atoms: C1_2  and  C2_3 
ROOT
ATOM      1  C2  UNL d   1      -0.313   0.276   1.845  0.00  0.00    -0.073 A 
ATOM      2  C3  UNL d   1       0.869   0.051   1.130  0.00  0.00    -0.002 A 
ATOM      3  C4  UNL d   1       0.884   0.164  -0.260  0.00  0.00     0.004 A 
ATOM      4  C5  UNL d   1      -0.278   0.510  -0.949  0.00  0.00    -0.004 A 
ATOM      5  C6  UNL d   1      -1.467   0.750  -0.251  0.00  0.00    -0.075 A 
ATOM      6  C7  UNL d   1      -2.726   1.121  -0.977  0.00  0.00     0.076 C 
ATOM      7  C8  UNL d   1      -1.474   0.632   1.145  0.00  0.00     0.001 A 
ENDROOT
BRANCH   1   8
ATOM      8  C1  UNL d   1      -0.332   0.161   3.348  0.00  0.00     0.053 C 
ATOM      9  C   UNL d   1      -1.448  -0.750   3.835  0.00  0.00     0.018 C 
ENDBRANCH   1   8
TORSDOF 1
ENDMDL
