MODEL 1
REMARK minimizedAffinity -3.04993224
REMARK minimizedRMSD -1
REMARK  1 active torsions:
REMARK  status: ('A' for Active; 'I' for Inactive)
REMARK    1  A    between atoms: C1_2  and  C2_3 
ROOT
ATOM      1  C2  UNL d   1      -1.320   0.052   1.056  0.00  0.00    -0.073 A 
ATOM      2  C3  UNL d   1      -1.819  -0.085   2.357  0.00  0.00    -0.002 A 
ATOM      3  C4  UNL d   1      -0.946  -0.140   3.444  0.00  0.00     0.004 A 
ATOM      4  C5  UNL d   1       0.432  -0.050   3.244  0.00  0.00    -0.004 A 
ATOM      5  C6  UNL d   1       0.949   0.099   1.953  0.00  0.00    -0.075 A 
ATOM      6  C7  UNL d   1       2.428   0.195   1.720  0.00  0.00     0.076 C 
ATOM      7  C8  UNL d   1       0.066   0.150   0.866  0.00  0.00     0.001 A 
ENDROOT
BRANCH   1   8
ATOM      8  C1  UNL d   1      -2.259   0.118  -0.120  0.00  0.00     0.053 C 
ATOM      9  C   UNL d   1      -1.610   0.767  -1.332  0.00  0.00     0.018 C 
ENDBRANCH   1   8
TORSDOF 1
ENDMDL
