MODEL 1
REMARK minimizedAffinity -3.36677051
REMARK minimizedRMSD -1
REMARK  1 active torsions:
REMARK  status: ('A' for Active; 'I' for Inactive)
REMARK    1  A    between atoms: C1_2  and  C2_3 
ROOT
ATOM      1  C2  UNL d   1       0.296   0.126  -0.088  0.00  0.00    -0.073 A 
ATOM      2  C3  UNL d   1       1.414   0.802   0.414  0.00  0.00    -0.002 A 
ATOM      3  C4  UNL d   1       1.644   0.862   1.789  0.00  0.00     0.004 A 
ATOM      4  C5  UNL d   1       0.763   0.241   2.675  0.00  0.00    -0.004 A 
ATOM      5  C6  UNL d   1      -0.353  -0.449   2.193  0.00  0.00    -0.075 A 
ATOM      6  C7  UNL d   1      -1.311  -1.120   3.133  0.00  0.00     0.076 C 
ATOM      7  C8  UNL d   1      -0.578  -0.503   0.810  0.00  0.00     0.001 A 
ENDROOT
BRANCH   1   8
ATOM      8  C1  UNL d   1       0.048   0.053  -1.572  0.00  0.00     0.053 C 
ATOM      9  C   UNL d   1       0.932  -0.983  -2.248  0.00  0.00     0.018 C 
ENDBRANCH   1   8
TORSDOF 1
ENDMDL
