MODEL 1
REMARK minimizedAffinity -3.68898535
REMARK minimizedRMSD -1
REMARK  1 active torsions:
REMARK  status: ('A' for Active; 'I' for Inactive)
REMARK    1  A    between atoms: C1_2  and  C2_3 
ROOT
ATOM      1  C2  UNL d   1      -0.306  -0.331   1.237  0.00  0.00    -0.073 A 
ATOM      2  C3  UNL d   1       0.969   0.227   1.383  0.00  0.00    -0.002 A 
ATOM      3  C4  UNL d   1       1.670   0.687   0.268  0.00  0.00     0.004 A 
ATOM      4  C5  UNL d   1       1.101   0.602  -1.003  0.00  0.00    -0.004 A 
ATOM      5  C6  UNL d   1      -0.177   0.058  -1.168  0.00  0.00    -0.075 A 
ATOM      6  C7  UNL d   1      -0.802  -0.044  -2.529  0.00  0.00     0.076 C 
ATOM      7  C8  UNL d   1      -0.873  -0.405  -0.043  0.00  0.00     0.001 A 
ENDROOT
BRANCH   1   8
ATOM      8  C1  UNL d   1      -1.069  -0.824   2.439  0.00  0.00     0.053 C 
ATOM      9  C   UNL d   1      -0.562  -0.201   3.730  0.00  0.00     0.018 C 
ENDBRANCH   1   8
TORSDOF 1
ENDMDL
