MODEL 1
REMARK minimizedAffinity -5.29021502
REMARK minimizedRMSD -1
REMARK  1 active torsions:
REMARK  status: ('A' for Active; 'I' for Inactive)
REMARK    1  A    between atoms: C1_2  and  C2_3 
ROOT
ATOM      1  C2  UNL d   1      -0.140   0.207   0.033  0.00  0.00    -0.073 A 
ATOM      2  C3  UNL d   1       1.094   0.662   0.509  0.00  0.00    -0.002 A 
ATOM      3  C4  UNL d   1       1.431   0.507   1.855  0.00  0.00     0.004 A 
ATOM      4  C5  UNL d   1       0.542  -0.109   2.735  0.00  0.00    -0.004 A 
ATOM      5  C6  UNL d   1      -0.692  -0.581   2.276  0.00  0.00    -0.075 A 
ATOM      6  C7  UNL d   1      -1.661  -1.244   3.210  0.00  0.00     0.076 C 
ATOM      7  C8  UNL d   1      -1.024  -0.420   0.924  0.00  0.00     0.001 A 
ENDROOT
BRANCH   1   8
ATOM      8  C1  UNL d   1      -0.506   0.366  -1.420  0.00  0.00     0.053 C 
ATOM      9  C   UNL d   1       0.603  -0.115  -2.343  0.00  0.00     0.018 C 
ENDBRANCH   1   8
TORSDOF 1
ENDMDL
