MODEL 1
REMARK minimizedAffinity -3.43018866
REMARK minimizedRMSD -1
REMARK  1 active torsions:
REMARK  status: ('A' for Active; 'I' for Inactive)
REMARK    1  A    between atoms: C1_2  and  C2_3 
ROOT
ATOM      1  C2  UNL d   1       0.060   0.274   0.159  0.00  0.00    -0.073 A 
ATOM      2  C3  UNL d   1       1.371   0.628   0.494  0.00  0.00    -0.002 A 
ATOM      3  C4  UNL d   1       1.827   0.487   1.805  0.00  0.00     0.004 A 
ATOM      4  C5  UNL d   1       0.979  -0.016   2.792  0.00  0.00    -0.004 A 
ATOM      5  C6  UNL d   1      -0.332  -0.387   2.475  0.00  0.00    -0.075 A 
ATOM      6  C7  UNL d   1      -1.257  -0.927   3.526  0.00  0.00     0.076 C 
ATOM      7  C8  UNL d   1      -0.782  -0.239   1.156  0.00  0.00     0.001 A 
ENDROOT
BRANCH   1   8
ATOM      8  C1  UNL d   1      -0.435   0.419  -1.257  0.00  0.00     0.053 C 
ATOM      9  C   UNL d   1       0.548  -0.156  -2.265  0.00  0.00     0.018 C 
ENDBRANCH   1   8
TORSDOF 1
ENDMDL
