MODEL 1
REMARK minimizedAffinity -3.78763843
REMARK minimizedRMSD -1
REMARK  1 active torsions:
REMARK  status: ('A' for Active; 'I' for Inactive)
REMARK    1  A    between atoms: C1_2  and  C2_3 
ROOT
ATOM      1  C2  UNL d   1      -0.929  -0.388   1.873  0.00  0.00    -0.073 A 
ATOM      2  C3  UNL d   1      -2.274  -0.038   1.708  0.00  0.00    -0.002 A 
ATOM      3  C4  UNL d   1      -2.732   0.444   0.481  0.00  0.00     0.004 A 
ATOM      4  C5  UNL d   1      -1.853   0.573  -0.594  0.00  0.00    -0.004 A 
ATOM      5  C6  UNL d   1      -0.508   0.218  -0.453  0.00  0.00    -0.075 A 
ATOM      6  C7  UNL d   1       0.451   0.353  -1.599  0.00  0.00     0.076 C 
ATOM      7  C8  UNL d   1      -0.055  -0.262   0.783  0.00  0.00     0.001 A 
ENDROOT
BRANCH   1   8
ATOM      8  C1  UNL d   1      -0.432  -0.914   3.194  0.00  0.00     0.053 C 
ATOM      9  C   UNL d   1      -0.041   0.207   4.144  0.00  0.00     0.018 C 
ENDBRANCH   1   8
TORSDOF 1
ENDMDL
