MODEL 1
REMARK minimizedAffinity -4.52194071
REMARK minimizedRMSD -1
REMARK  1 active torsions:
REMARK  status: ('A' for Active; 'I' for Inactive)
REMARK    1  A    between atoms: C1_2  and  C2_3 
ROOT
ATOM      1  C2  UNL d   1      -0.031  -0.409   1.023  0.00  0.00    -0.073 A 
ATOM      2  C3  UNL d   1      -1.349   0.041   0.883  0.00  0.00    -0.002 A 
ATOM      3  C4  UNL d   1      -1.815   0.482  -0.356  0.00  0.00     0.004 A 
ATOM      4  C5  UNL d   1      -0.972   0.471  -1.468  0.00  0.00    -0.004 A 
ATOM      5  C6  UNL d   1       0.344   0.014  -1.350  0.00  0.00    -0.075 A 
ATOM      6  C7  UNL d   1       1.264  -0.003  -2.536  0.00  0.00     0.076 C 
ATOM      7  C8  UNL d   1       0.806  -0.425  -0.102  0.00  0.00     0.001 A 
ENDROOT
BRANCH   1   8
ATOM      8  C1  UNL d   1       0.475  -0.893   2.358  0.00  0.00     0.053 C 
ATOM      9  C   UNL d   1      -0.533  -0.653   3.470  0.00  0.00     0.018 C 
ENDBRANCH   1   8
TORSDOF 1
ENDMDL
