MODEL 1
REMARK minimizedAffinity -1.60306716
REMARK minimizedRMSD -1
REMARK  1 active torsions:
REMARK  status: ('A' for Active; 'I' for Inactive)
REMARK    1  A    between atoms: C1_2  and  C2_3 
ROOT
ATOM      1  C2  UNL d   1      -0.834  -1.079   0.722  0.00  0.00    -0.073 A 
ATOM      2  C3  UNL d   1      -1.327  -0.567  -0.484  0.00  0.00    -0.002 A 
ATOM      3  C4  UNL d   1      -0.594   0.380  -1.200  0.00  0.00     0.004 A 
ATOM      4  C5  UNL d   1       0.641   0.819  -0.722  0.00  0.00    -0.004 A 
ATOM      5  C6  UNL d   1       1.156   0.311   0.474  0.00  0.00    -0.075 A 
ATOM      6  C7  UNL d   1       2.482   0.774   1.002  0.00  0.00     0.076 C 
ATOM      7  C8  UNL d   1       0.412  -0.638   1.189  0.00  0.00     0.001 A 
ENDROOT
BRANCH   1   8
ATOM      8  C1  UNL d   1      -1.619  -2.106   1.495  0.00  0.00     0.053 C 
ATOM      9  C   UNL d   1      -0.715  -3.120   2.178  0.00  0.00     0.018 C 
ENDBRANCH   1   8
TORSDOF 1
ENDMDL
