MODEL 1
REMARK minimizedAffinity -5.17806292
REMARK minimizedRMSD -1
REMARK  0 active torsions:
REMARK  status: ('A' for Active; 'I' for Inactive)
ROOT
ATOM      1  C   UNL d   1      -0.624   1.404  -2.476  0.00  0.00     0.020 A 
ATOM      2  C1  UNL d   1      -0.762   0.017  -2.536  0.00  0.00     0.020 A 
ATOM      3  C2  UNL d   1      -1.057  -0.706  -1.378  0.00  0.00     0.034 A 
ATOM      4  C3  UNL d   1      -1.216  -0.043  -0.156  0.00  0.00     0.017 A 
ATOM      5  C4  UNL d   1      -1.077   1.349  -0.097  0.00  0.00     0.017 A 
ATOM      6  C5  UNL d   1      -0.781   2.068  -1.259  0.00  0.00     0.034 A 
ATOM      7 Cl   UNL d   1      -1.258   2.236   1.375  0.00  0.00    -0.070 Cl
ATOM      8 Cl1  UNL d   1      -1.580  -1.000   1.236  0.00  0.00    -0.070 Cl
ENDROOT
TORSDOF 0
ENDMDL
