MODEL 1
REMARK minimizedAffinity -5.62693071
REMARK minimizedRMSD -1
REMARK  0 active torsions:
REMARK  status: ('A' for Active; 'I' for Inactive)
ROOT
ATOM      1  C   UNL d   1      -1.205   2.795   2.295  0.00  0.00     0.020 A 
ATOM      2  C1  UNL d   1      -0.625   1.647   2.833  0.00  0.00     0.020 A 
ATOM      3  C2  UNL d   1      -0.009   0.716   1.994  0.00  0.00     0.034 A 
ATOM      4  C3  UNL d   1       0.030   0.933   0.612  0.00  0.00     0.017 A 
ATOM      5  C4  UNL d   1      -0.551   2.086   0.072  0.00  0.00     0.017 A 
ATOM      6  C5  UNL d   1      -1.167   3.014   0.917  0.00  0.00     0.034 A 
ATOM      7 Cl   UNL d   1      -0.543   2.422  -1.623  0.00  0.00    -0.070 Cl
ATOM      8 Cl1  UNL d   1       0.810  -0.259  -0.366  0.00  0.00    -0.070 Cl
ENDROOT
TORSDOF 0
ENDMDL
