MODEL 1
REMARK minimizedAffinity -5.22530365
REMARK minimizedRMSD -1
REMARK  0 active torsions:
REMARK  status: ('A' for Active; 'I' for Inactive)
ROOT
ATOM      1  C   UNL d   1       0.692   0.616   2.887  0.00  0.00     0.020 A 
ATOM      2  C1  UNL d   1      -0.075   1.763   2.687  0.00  0.00     0.020 A 
ATOM      3  C2  UNL d   1      -0.653   2.007   1.440  0.00  0.00     0.034 A 
ATOM      4  C3  UNL d   1      -0.465   1.104   0.388  0.00  0.00     0.017 A 
ATOM      5  C4  UNL d   1       0.305  -0.047   0.589  0.00  0.00     0.017 A 
ATOM      6  C5  UNL d   1       0.881  -0.287   1.840  0.00  0.00     0.034 A 
ATOM      7 Cl   UNL d   1       0.581  -1.208  -0.661  0.00  0.00    -0.070 Cl
ATOM      8 Cl1  UNL d   1      -1.210   1.469  -1.128  0.00  0.00    -0.070 Cl
ENDROOT
TORSDOF 0
ENDMDL
