MODEL 1
REMARK minimizedAffinity -3.42723656
REMARK minimizedRMSD -1
REMARK  0 active torsions:
REMARK  status: ('A' for Active; 'I' for Inactive)
ROOT
ATOM      1  C   UNL d   1      -1.115   3.802   0.382  0.00  0.00     0.020 A 
ATOM      2  C1  UNL d   1      -0.900   2.982   1.489  0.00  0.00     0.020 A 
ATOM      3  C2  UNL d   1      -0.401   1.689   1.314  0.00  0.00     0.034 A 
ATOM      4  C3  UNL d   1      -0.115   1.214   0.029  0.00  0.00     0.017 A 
ATOM      5  C4  UNL d   1      -0.330   2.038  -1.082  0.00  0.00     0.017 A 
ATOM      6  C5  UNL d   1      -0.830   3.331  -0.900  0.00  0.00     0.034 A 
ATOM      7 Cl   UNL d   1      -0.001   1.521  -2.698  0.00  0.00    -0.070 Cl
ATOM      8 Cl1  UNL d   1       0.500  -0.395  -0.114  0.00  0.00    -0.070 Cl
ENDROOT
TORSDOF 0
ENDMDL
