MODEL 1
REMARK minimizedAffinity -4.47827387
REMARK minimizedRMSD -1
REMARK  0 active torsions:
REMARK  status: ('A' for Active; 'I' for Inactive)
ROOT
ATOM      1  C   UNL d   1      -1.146   2.829  -0.053  0.00  0.00     0.020 A 
ATOM      2  C1  UNL d   1      -0.872   3.257   1.246  0.00  0.00     0.020 A 
ATOM      3  C2  UNL d   1      -0.340   2.362   2.177  0.00  0.00     0.034 A 
ATOM      4  C3  UNL d   1      -0.082   1.036   1.812  0.00  0.00     0.017 A 
ATOM      5  C4  UNL d   1      -0.357   0.608   0.508  0.00  0.00     0.017 A 
ATOM      6  C5  UNL d   1      -0.889   1.508  -0.421  0.00  0.00     0.034 A 
ATOM      7 Cl   UNL d   1      -0.064  -1.012  -0.017  0.00  0.00    -0.070 Cl
ATOM      8 Cl1  UNL d   1       0.576  -0.015   3.015  0.00  0.00    -0.070 Cl
ENDROOT
TORSDOF 0
ENDMDL
