MODEL 1
REMARK minimizedAffinity -4.80861282
REMARK minimizedRMSD -1
REMARK  0 active torsions:
REMARK  status: ('A' for Active; 'I' for Inactive)
ROOT
ATOM      1  C   UNL d   1      -0.301   0.072  -1.263  0.00  0.00     0.020 A 
ATOM      2  C1  UNL d   1       0.738  -0.670  -0.703  0.00  0.00     0.020 A 
ATOM      3  C2  UNL d   1       1.075  -0.495   0.641  0.00  0.00     0.034 A 
ATOM      4  C3  UNL d   1       0.372   0.423   1.430  0.00  0.00     0.017 A 
ATOM      5  C4  UNL d   1      -0.671   1.167   0.867  0.00  0.00     0.017 A 
ATOM      6  C5  UNL d   1      -1.004   0.988  -0.480  0.00  0.00     0.034 A 
ATOM      7 Cl   UNL d   1      -1.585   2.318   1.776  0.00  0.00    -0.070 Cl
ATOM      8 Cl1  UNL d   1       0.842   0.587   3.084  0.00  0.00    -0.070 Cl
ENDROOT
TORSDOF 0
ENDMDL
