MODEL 1
REMARK minimizedAffinity -1.7400738
REMARK minimizedRMSD -1
REMARK  0 active torsions:
REMARK  status: ('A' for Active; 'I' for Inactive)
ROOT
ATOM      1  C   UNL d   1       0.040  -0.687  -0.545  0.00  0.00     0.020 A 
ATOM      2  C1  UNL d   1      -0.740   0.461  -0.412  0.00  0.00     0.020 A 
ATOM      3  C2  UNL d   1      -0.573   1.294   0.697  0.00  0.00     0.034 A 
ATOM      4  C3  UNL d   1       0.376   0.979   1.677  0.00  0.00     0.017 A 
ATOM      5  C4  UNL d   1       1.157  -0.174   1.542  0.00  0.00     0.017 A 
ATOM      6  C5  UNL d   1       0.986  -1.004   0.430  0.00  0.00     0.034 A 
ATOM      7 Cl   UNL d   1       2.348  -0.629   2.710  0.00  0.00    -0.070 Cl
ATOM      8 Cl1  UNL d   1       0.529   2.053   3.021  0.00  0.00    -0.070 Cl
ENDROOT
TORSDOF 0
ENDMDL
