MODEL 1
REMARK minimizedAffinity 6.94468975
REMARK minimizedRMSD -1
REMARK  1 active torsions:
REMARK  status: ('A' for Active; 'I' for Inactive)
REMARK    1  A    between atoms: C1_2  and  C2_3 
ROOT
ATOM      1  C2  UNL d   1      -5.073  -5.014   1.860  0.00  0.00    -0.076 A 
ATOM      2  C3  UNL d   1      -4.176  -5.991   1.392  0.00  0.00     0.004 A 
ATOM      3  C4  UNL d   1      -3.319  -5.725   0.326  0.00  0.00    -0.003 A 
ATOM      4  C5  UNL d   1      -3.343  -4.478  -0.289  0.00  0.00     0.000 A 
ATOM      5  C6  UNL d   1      -4.213  -3.492   0.174  0.00  0.00     0.000 A 
ATOM      6  C7  UNL d   1      -5.073  -3.738   1.258  0.00  0.00    -0.073 A 
ATOM      7  C8  UNL d   1      -5.995  -2.640   1.712  0.00  0.00     0.078 C 
ENDROOT
BRANCH   1   8
ATOM      8  C1  UNL d   1      -5.998  -5.369   3.002  0.00  0.00     0.053 C 
ATOM      9  C   UNL d   1      -5.263  -6.000   4.174  0.00  0.00     0.018 C 
ENDBRANCH   1   8
TORSDOF 1
ENDMDL
