MODEL 1
REMARK minimizedAffinity 18.4957962
REMARK minimizedRMSD -1
REMARK  1 active torsions:
REMARK  status: ('A' for Active; 'I' for Inactive)
REMARK    1  A    between atoms: C1_2  and  C2_3 
ROOT
ATOM      1  C2  UNL d   1      -1.698  -2.428   0.764  0.00  0.00    -0.076 A 
ATOM      2  C3  UNL d   1      -2.818  -3.172   0.354  0.00  0.00     0.004 A 
ATOM      3  C4  UNL d   1      -4.105  -2.648   0.461  0.00  0.00    -0.003 A 
ATOM      4  C5  UNL d   1      -4.293  -1.372   0.979  0.00  0.00     0.000 A 
ATOM      5  C6  UNL d   1      -3.192  -0.613   1.374  0.00  0.00     0.000 A 
ATOM      6  C7  UNL d   1      -1.886  -1.120   1.258  0.00  0.00    -0.073 A 
ATOM      7  C8  UNL d   1      -0.736  -0.260   1.705  0.00  0.00     0.078 C 
ENDROOT
BRANCH   1   8
ATOM      8  C1  UNL d   1      -0.328  -3.059   0.649  0.00  0.00     0.053 C 
ATOM      9  C   UNL d   1       0.101  -3.756   1.931  0.00  0.00     0.018 C 
ENDBRANCH   1   8
TORSDOF 1
ENDMDL
