MODEL 1
REMARK minimizedAffinity 19.6547623
REMARK minimizedRMSD -1
REMARK  1 active torsions:
REMARK  status: ('A' for Active; 'I' for Inactive)
REMARK    1  A    between atoms: C1_2  and  C2_3 
ROOT
ATOM      1  C2  UNL d   1      -4.054  -1.094   3.386  0.00  0.00    -0.076 A 
ATOM      2  C3  UNL d   1      -3.310  -1.277   4.564  0.00  0.00     0.004 A 
ATOM      3  C4  UNL d   1      -3.673  -2.246   5.498  0.00  0.00    -0.003 A 
ATOM      4  C5  UNL d   1      -4.785  -3.048   5.269  0.00  0.00     0.000 A 
ATOM      5  C6  UNL d   1      -5.525  -2.892   4.097  0.00  0.00     0.000 A 
ATOM      6  C7  UNL d   1      -5.163  -1.931   3.137  0.00  0.00    -0.073 A 
ATOM      7  C8  UNL d   1      -6.000  -1.802   1.894  0.00  0.00     0.078 C 
ENDROOT
BRANCH   1   8
ATOM      8  C1  UNL d   1      -3.629  -0.009   2.422  0.00  0.00     0.053 C 
ATOM      9  C   UNL d   1      -2.125   0.018   2.202  0.00  0.00     0.018 C 
ENDBRANCH   1   8
TORSDOF 1
ENDMDL
