MODEL 1
REMARK minimizedAffinity 11.9398632
REMARK minimizedRMSD -1
REMARK  1 active torsions:
REMARK  status: ('A' for Active; 'I' for Inactive)
REMARK    1  A    between atoms: C1_2  and  C2_3 
ROOT
ATOM      1  C2  UNL d   1       0.365  -1.261  -4.877  0.00  0.00    -0.076 A 
ATOM      2  C3  UNL d   1       0.622  -2.589  -5.260  0.00  0.00     0.004 A 
ATOM      3  C4  UNL d   1      -0.379  -3.383  -5.816  0.00  0.00    -0.003 A 
ATOM      4  C5  UNL d   1      -1.655  -2.861  -6.000  0.00  0.00     0.000 A 
ATOM      5  C6  UNL d   1      -1.924  -1.540  -5.642  0.00  0.00     0.000 A 
ATOM      6  C7  UNL d   1      -0.921  -0.722  -5.094  0.00  0.00    -0.073 A 
ATOM      7  C8  UNL d   1      -1.268   0.693  -4.721  0.00  0.00     0.078 C 
ENDROOT
BRANCH   1   8
ATOM      8  C1  UNL d   1       1.483  -0.457  -4.253  0.00  0.00     0.053 C 
ATOM      9  C   UNL d   1       1.356  -0.358  -2.740  0.00  0.00     0.018 C 
ENDBRANCH   1   8
TORSDOF 1
ENDMDL
