MODEL 1
REMARK minimizedAffinity 14.7195997
REMARK minimizedRMSD -1
REMARK  1 active torsions:
REMARK  status: ('A' for Active; 'I' for Inactive)
REMARK    1  A    between atoms: C1_2  and  C2_3 
ROOT
ATOM      1  C2  UNL d   1      -3.617  -2.380  -5.365  0.00  0.00    -0.076 A 
ATOM      2  C3  UNL d   1      -4.965  -2.036  -5.165  0.00  0.00     0.004 A 
ATOM      3  C4  UNL d   1      -5.983  -2.963  -5.387  0.00  0.00    -0.003 A 
ATOM      4  C5  UNL d   1      -5.668  -4.249  -5.812  0.00  0.00     0.000 A 
ATOM      5  C6  UNL d   1      -4.335  -4.612  -5.999  0.00  0.00     0.000 A 
ATOM      6  C7  UNL d   1      -3.296  -3.695  -5.764  0.00  0.00    -0.073 A 
ATOM      7  C8  UNL d   1      -1.877  -4.139  -5.987  0.00  0.00     0.078 C 
ENDROOT
BRANCH   1   8
ATOM      8  C1  UNL d   1      -2.559  -1.325  -5.135  0.00  0.00     0.053 C 
ATOM      9  C   UNL d   1      -1.148  -1.883  -5.238  0.00  0.00     0.018 C 
ENDBRANCH   1   8
TORSDOF 1
ENDMDL
