MODEL 1
REMARK minimizedAffinity 15.6428719
REMARK minimizedRMSD -1
REMARK  1 active torsions:
REMARK  status: ('A' for Active; 'I' for Inactive)
REMARK    1  A    between atoms: C1_2  and  C2_3 
ROOT
ATOM      1  C2  UNL d   1       3.861   3.488  -5.365  0.00  0.00    -0.076 A 
ATOM      2  C3  UNL d   1       2.604   3.983  -5.754  0.00  0.00     0.004 A 
ATOM      3  C4  UNL d   1       2.110   5.177  -5.232  0.00  0.00    -0.003 A 
ATOM      4  C5  UNL d   1       2.865   5.896  -4.312  0.00  0.00     0.000 A 
ATOM      5  C6  UNL d   1       4.122   5.429  -3.928  0.00  0.00     0.000 A 
ATOM      6  C7  UNL d   1       4.642   4.235  -4.457  0.00  0.00    -0.073 A 
ATOM      7  C8  UNL d   1       6.000   3.775  -4.004  0.00  0.00     0.078 C 
ENDROOT
BRANCH   1   8
ATOM      8  C1  UNL d   1       4.333   2.174  -5.945  0.00  0.00     0.053 C 
ATOM      9  C   UNL d   1       3.406   1.018  -5.599  0.00  0.00     0.018 C 
ENDBRANCH   1   8
TORSDOF 1
ENDMDL
