MODEL 1
REMARK minimizedAffinity 15.8683653
REMARK minimizedRMSD -1
REMARK  1 active torsions:
REMARK  status: ('A' for Active; 'I' for Inactive)
REMARK    1  A    between atoms: C1_2  and  C2_3 
ROOT
ATOM      1  C2  UNL d   1      -1.918  -0.266   3.203  0.00  0.00    -0.076 A 
ATOM      2  C3  UNL d   1      -3.026   0.502   2.805  0.00  0.00     0.004 A 
ATOM      3  C4  UNL d   1      -2.975   1.296   1.661  0.00  0.00    -0.003 A 
ATOM      4  C5  UNL d   1      -1.816   1.334   0.894  0.00  0.00     0.000 A 
ATOM      5  C6  UNL d   1      -0.713   0.565   1.264  0.00  0.00     0.000 A 
ATOM      6  C7  UNL d   1      -0.753  -0.253   2.406  0.00  0.00    -0.073 A 
ATOM      7  C8  UNL d   1       0.467  -1.058   2.761  0.00  0.00     0.078 C 
ENDROOT
BRANCH   1   8
ATOM      8  C1  UNL d   1      -2.022  -1.086   4.468  0.00  0.00     0.053 C 
ATOM      9  C   UNL d   1      -3.250  -0.732   5.293  0.00  0.00     0.018 C 
ENDBRANCH   1   8
TORSDOF 1
ENDMDL
