MODEL 1
REMARK minimizedAffinity 12.1766062
REMARK minimizedRMSD -1
REMARK  1 active torsions:
REMARK  status: ('A' for Active; 'I' for Inactive)
REMARK    1  A    between atoms: C1_2  and  C2_3 
ROOT
ATOM      1  C2  UNL d   1      -2.608   1.303   1.545  0.00  0.00    -0.076 A 
ATOM      2  C3  UNL d   1      -3.634   0.347   1.455  0.00  0.00     0.004 A 
ATOM      3  C4  UNL d   1      -3.345  -1.016   1.436  0.00  0.00    -0.003 A 
ATOM      4  C5  UNL d   1      -2.024  -1.446   1.507  0.00  0.00     0.000 A 
ATOM      5  C6  UNL d   1      -0.995  -0.511   1.614  0.00  0.00     0.000 A 
ATOM      6  C7  UNL d   1      -1.270   0.867   1.651  0.00  0.00    -0.073 A 
ATOM      7  C8  UNL d   1      -0.121   1.830   1.762  0.00  0.00     0.078 C 
ENDROOT
BRANCH   1   8
ATOM      8  C1  UNL d   1      -2.981   2.769   1.534  0.00  0.00     0.053 C 
ATOM      9  C   UNL d   1      -4.342   3.028   2.160  0.00  0.00     0.018 C 
ENDBRANCH   1   8
TORSDOF 1
ENDMDL
