MODEL 1
REMARK minimizedAffinity 17.6812725
REMARK minimizedRMSD -1
REMARK  1 active torsions:
REMARK  status: ('A' for Active; 'I' for Inactive)
REMARK    1  A    between atoms: C1_2  and  C2_3 
ROOT
ATOM      1  C2  UNL d   1      -2.446  -1.143   1.311  0.00  0.00    -0.076 A 
ATOM      2  C3  UNL d   1      -1.241  -0.438   1.142  0.00  0.00     0.004 A 
ATOM      3  C4  UNL d   1      -1.051   0.810   1.734  0.00  0.00    -0.003 A 
ATOM      4  C5  UNL d   1      -2.062   1.372   2.505  0.00  0.00     0.000 A 
ATOM      5  C6  UNL d   1      -3.256   0.679   2.698  0.00  0.00     0.000 A 
ATOM      6  C7  UNL d   1      -3.458  -0.587   2.122  0.00  0.00    -0.073 A 
ATOM      7  C8  UNL d   1      -4.768  -1.287   2.358  0.00  0.00     0.078 C 
ENDROOT
BRANCH   1   8
ATOM      8  C1  UNL d   1      -2.605  -2.479   0.622  0.00  0.00     0.053 C 
ATOM      9  C   UNL d   1      -1.289  -3.230   0.495  0.00  0.00     0.018 C 
ENDBRANCH   1   8
TORSDOF 1
ENDMDL
