MODEL 1
REMARK minimizedAffinity 10.1231718
REMARK minimizedRMSD -1
REMARK  1 active torsions:
REMARK  status: ('A' for Active; 'I' for Inactive)
REMARK    1  A    between atoms: C1_2  and  C2_3 
ROOT
ATOM      1  C2  UNL d   1       3.271   1.732  -4.807  0.00  0.00    -0.076 A 
ATOM      2  C3  UNL d   1       3.300   0.983  -5.996  0.00  0.00     0.004 A 
ATOM      3  C4  UNL d   1       2.975  -0.372  -5.999  0.00  0.00    -0.003 A 
ATOM      4  C5  UNL d   1       2.616  -1.001  -4.812  0.00  0.00     0.000 A 
ATOM      5  C6  UNL d   1       2.566  -0.270  -3.625  0.00  0.00     0.000 A 
ATOM      6  C7  UNL d   1       2.874   1.101  -3.609  0.00  0.00    -0.073 A 
ATOM      7  C8  UNL d   1       2.809   1.840  -2.300  0.00  0.00     0.078 C 
ENDROOT
BRANCH   1   8
ATOM      8  C1  UNL d   1       3.660   3.192  -4.861  0.00  0.00     0.053 C 
ATOM      9  C   UNL d   1       5.107   3.395  -5.282  0.00  0.00     0.018 C 
ENDBRANCH   1   8
TORSDOF 1
ENDMDL
