MODEL 1
REMARK minimizedAffinity 8.21890354
REMARK minimizedRMSD -1
REMARK  1 active torsions:
REMARK  status: ('A' for Active; 'I' for Inactive)
REMARK    1  A    between atoms: C1_2  and  C2_3 
ROOT
ATOM      1  C2  UNL d   1      -0.810   0.094   2.744  0.00  0.00    -0.076 A 
ATOM      2  C3  UNL d   1      -0.493   0.749   1.541  0.00  0.00     0.004 A 
ATOM      3  C4  UNL d   1      -1.478   1.390   0.792  0.00  0.00    -0.003 A 
ATOM      4  C5  UNL d   1      -2.797   1.387   1.234  0.00  0.00     0.000 A 
ATOM      5  C6  UNL d   1      -3.126   0.758   2.434  0.00  0.00     0.000 A 
ATOM      6  C7  UNL d   1      -2.142   0.121   3.209  0.00  0.00    -0.073 A 
ATOM      7  C8  UNL d   1      -2.554  -0.548   4.492  0.00  0.00     0.078 C 
ENDROOT
BRANCH   1   8
ATOM      8  C1  UNL d   1       0.296  -0.608   3.499  0.00  0.00     0.053 C 
ATOM      9  C   UNL d   1       1.657   0.028   3.263  0.00  0.00     0.018 C 
ENDBRANCH   1   8
TORSDOF 1
ENDMDL
