MODEL 1
REMARK minimizedAffinity 7.0684042
REMARK minimizedRMSD -1
REMARK  1 active torsions:
REMARK  status: ('A' for Active; 'I' for Inactive)
REMARK    1  A    between atoms: C1_2  and  C2_3 
ROOT
ATOM      1  C2  UNL d   1       2.863   2.579  -3.396  0.00  0.00    -0.076 A 
ATOM      2  C3  UNL d   1       3.577   2.889  -4.567  0.00  0.00     0.004 A 
ATOM      3  C4  UNL d   1       3.649   4.199  -5.038  0.00  0.00    -0.003 A 
ATOM      4  C5  UNL d   1       3.009   5.221  -4.344  0.00  0.00     0.000 A 
ATOM      5  C6  UNL d   1       2.311   4.934  -3.171  0.00  0.00     0.000 A 
ATOM      6  C7  UNL d   1       2.243   3.622  -2.674  0.00  0.00    -0.073 A 
ATOM      7  C8  UNL d   1       1.472   3.369  -1.408  0.00  0.00     0.078 C 
ENDROOT
BRANCH   1   8
ATOM      8  C1  UNL d   1       2.797   1.137  -2.948  0.00  0.00     0.053 C 
ATOM      9  C   UNL d   1       1.851   0.305  -3.800  0.00  0.00     0.018 C 
ENDBRANCH   1   8
TORSDOF 1
ENDMDL
