MODEL 1
REMARK minimizedAffinity 5.40043545
REMARK minimizedRMSD -1
REMARK  1 active torsions:
REMARK  status: ('A' for Active; 'I' for Inactive)
REMARK    1  A    between atoms: C1_2  and  C2_3 
ROOT
ATOM      1  C2  UNL d   1       3.720   1.737  -4.966  0.00  0.00    -0.076 A 
ATOM      2  C3  UNL d   1       4.369   1.033  -5.995  0.00  0.00     0.004 A 
ATOM      3  C4  UNL d   1       4.407  -0.361  -5.997  0.00  0.00    -0.003 A 
ATOM      4  C5  UNL d   1       3.796  -1.072  -4.970  0.00  0.00     0.000 A 
ATOM      5  C6  UNL d   1       3.132  -0.390  -3.951  0.00  0.00     0.000 A 
ATOM      6  C7  UNL d   1       3.070   1.014  -3.943  0.00  0.00    -0.073 A 
ATOM      7  C8  UNL d   1       2.346   1.698  -2.816  0.00  0.00     0.078 C 
ENDROOT
BRANCH   1   8
ATOM      8  C1  UNL d   1       3.734   3.249  -5.003  0.00  0.00     0.053 C 
ATOM      9  C   UNL d   1       5.129   3.813  -5.225  0.00  0.00     0.018 C 
ENDBRANCH   1   8
TORSDOF 1
ENDMDL
