MODEL 1
REMARK minimizedAffinity -3.36126995
REMARK minimizedRMSD -1
REMARK  1 active torsions:
REMARK  status: ('A' for Active; 'I' for Inactive)
REMARK    1  A    between atoms: C3_4  and  O_7 
ROOT
ATOM      1  C   UNL d   1       2.284  -0.146  -1.913  0.00  0.00    -0.033 A 
ATOM      2  C1  UNL d   1       1.667   1.071  -1.619  0.00  0.00     0.039 A 
ATOM      3  C2  UNL d   1       0.594   1.115  -0.728  0.00  0.00    -0.080 A 
ATOM      4  C3  UNL d   1       0.149  -0.064  -0.136  0.00  0.00     0.150 A 
ATOM      5  C4  UNL d   1       0.761  -1.280  -0.421  0.00  0.00    -0.007 A 
ATOM      6  C5  UNL d   1       1.832  -1.322  -1.312  0.00  0.00     0.039 A 
ENDROOT
BRANCH   4   7
ATOM      7  O   UNL d   1      -0.898  -0.072   0.737  0.00  0.00    -0.526 OA
ATOM      8  H5  UNL d   1      -1.240   0.834   0.816  0.00  0.00     0.418 HD
ENDBRANCH   4   7
TORSDOF 1
ENDMDL
