MODEL 1
REMARK minimizedAffinity -2.5544703
REMARK minimizedRMSD -1
REMARK  1 active torsions:
REMARK  status: ('A' for Active; 'I' for Inactive)
REMARK    1  A    between atoms: C3_4  and  O_7 
ROOT
ATOM      1  C   UNL d   1      -0.550   0.439   1.130  0.00  0.00    -0.033 A 
ATOM      2  C1  UNL d   1       0.144   1.645   1.021  0.00  0.00     0.039 A 
ATOM      3  C2  UNL d   1       0.928   1.903  -0.105  0.00  0.00    -0.080 A 
ATOM      4  C3  UNL d   1       1.008   0.947  -1.114  0.00  0.00     0.150 A 
ATOM      5  C4  UNL d   1       0.317  -0.256  -1.014  0.00  0.00    -0.007 A 
ATOM      6  C5  UNL d   1      -0.465  -0.511   0.112  0.00  0.00     0.039 A 
ENDROOT
BRANCH   4   7
ATOM      7  O   UNL d   1       1.764   1.151  -2.230  0.00  0.00    -0.526 OA
ATOM      8  H5  UNL d   1       2.207   2.012  -2.148  0.00  0.00     0.418 HD
ENDBRANCH   4   7
TORSDOF 1
ENDMDL
