MODEL 1
REMARK minimizedAffinity -5.07558584
REMARK minimizedRMSD -1
REMARK  1 active torsions:
REMARK  status: ('A' for Active; 'I' for Inactive)
REMARK    1  A    between atoms: C3_4  and  O_7 
ROOT
ATOM      1  C   UNL d   1       2.162  -0.492  -2.462  0.00  0.00    -0.033 A 
ATOM      2  C1  UNL d   1       1.908   0.750  -1.876  0.00  0.00     0.039 A 
ATOM      3  C2  UNL d   1       1.009   0.851  -0.812  0.00  0.00    -0.080 A 
ATOM      4  C3  UNL d   1       0.374  -0.296  -0.343  0.00  0.00     0.150 A 
ATOM      5  C4  UNL d   1       0.626  -1.536  -0.919  0.00  0.00    -0.007 A 
ATOM      6  C5  UNL d   1       1.522  -1.635  -1.982  0.00  0.00     0.039 A 
ENDROOT
BRANCH   4   7
ATOM      7  O   UNL d   1      -0.514  -0.246   0.690  0.00  0.00    -0.526 OA
ATOM      8  H5  UNL d   1      -0.610   0.680   0.969  0.00  0.00     0.418 HD
ENDBRANCH   4   7
TORSDOF 1
ENDMDL
