MODEL 1
REMARK minimizedAffinity -2.20594645
REMARK minimizedRMSD -1
REMARK  1 active torsions:
REMARK  status: ('A' for Active; 'I' for Inactive)
REMARK    1  A    between atoms: C3_4  and  O_7 
ROOT
ATOM      1  C   UNL d   1       1.115   1.074  -0.290  0.00  0.00    -0.033 A 
ATOM      2  C1  UNL d   1       1.141   0.410   0.938  0.00  0.00     0.039 A 
ATOM      3  C2  UNL d   1      -0.040  -0.091   1.489  0.00  0.00    -0.080 A 
ATOM      4  C3  UNL d   1      -1.239   0.078   0.802  0.00  0.00     0.150 A 
ATOM      5  C4  UNL d   1      -1.272   0.735  -0.424  0.00  0.00    -0.007 A 
ATOM      6  C5  UNL d   1      -0.092   1.235  -0.972  0.00  0.00     0.039 A 
ENDROOT
BRANCH   4   7
ATOM      7  O   UNL d   1      -2.418  -0.390   1.301  0.00  0.00    -0.526 OA
ATOM      8  H5  UNL d   1      -2.246  -0.796   2.167  0.00  0.00     0.418 HD
ENDBRANCH   4   7
TORSDOF 1
ENDMDL
