MODEL 1
REMARK minimizedAffinity -3.15652537
REMARK minimizedRMSD -1
REMARK  1 active torsions:
REMARK  status: ('A' for Active; 'I' for Inactive)
REMARK    1  A    between atoms: C3_4  and  O_7 
ROOT
ATOM      1  C   UNL d   1       2.326   0.000  -1.375  0.00  0.00    -0.033 A 
ATOM      2  C1  UNL d   1       1.706   1.219  -1.093  0.00  0.00     0.039 A 
ATOM      3  C2  UNL d   1       0.569   1.256  -0.282  0.00  0.00    -0.080 A 
ATOM      4  C3  UNL d   1       0.064   0.068   0.240  0.00  0.00     0.150 A 
ATOM      5  C4  UNL d   1       0.679  -1.149  -0.034  0.00  0.00    -0.007 A 
ATOM      6  C5  UNL d   1       1.813  -1.184  -0.844  0.00  0.00     0.039 A 
ENDROOT
BRANCH   4   7
ATOM      7  O   UNL d   1      -1.045   0.053   1.032  0.00  0.00    -0.526 OA
ATOM      8  H5  UNL d   1      -1.379   0.962   1.111  0.00  0.00     0.418 HD
ENDBRANCH   4   7
TORSDOF 1
ENDMDL
