MODEL 1
REMARK minimizedAffinity -2.77583528
REMARK minimizedRMSD -1
REMARK  1 active torsions:
REMARK  status: ('A' for Active; 'I' for Inactive)
REMARK    1  A    between atoms: C3_4  and  O_7 
ROOT
ATOM      1  C   UNL d   1       0.325   1.944  -0.718  0.00  0.00    -0.033 A 
ATOM      2  C1  UNL d   1       0.675   0.689  -0.218  0.00  0.00     0.039 A 
ATOM      3  C2  UNL d   1      -0.299  -0.132   0.356  0.00  0.00    -0.080 A 
ATOM      4  C3  UNL d   1      -1.616   0.314   0.422  0.00  0.00     0.150 A 
ATOM      5  C4  UNL d   1      -1.972   1.562  -0.079  0.00  0.00    -0.007 A 
ATOM      6  C5  UNL d   1      -0.998   2.380  -0.650  0.00  0.00     0.039 A 
ENDROOT
BRANCH   4   7
ATOM      7  O   UNL d   1      -2.600  -0.449   0.977  0.00  0.00    -0.526 OA
ATOM      8  H5  UNL d   1      -2.202  -1.273   1.306  0.00  0.00     0.418 HD
ENDBRANCH   4   7
TORSDOF 1
ENDMDL
