MODEL 1
REMARK minimizedAffinity -3.54714322
REMARK minimizedRMSD -1
REMARK  1 active torsions:
REMARK  status: ('A' for Active; 'I' for Inactive)
REMARK    1  A    between atoms: C3_4  and  O_7 
ROOT
ATOM      1  C   UNL d   1       0.727   1.591  -0.804  0.00  0.00    -0.033 A 
ATOM      2  C1  UNL d   1       1.761   1.307  -1.698  0.00  0.00     0.039 A 
ATOM      3  C2  UNL d   1       2.140  -0.016  -1.932  0.00  0.00    -0.080 A 
ATOM      4  C3  UNL d   1       1.477  -1.044  -1.267  0.00  0.00     0.150 A 
ATOM      5  C4  UNL d   1       0.444  -0.769  -0.378  0.00  0.00    -0.007 A 
ATOM      6  C5  UNL d   1       0.067   0.553  -0.145  0.00  0.00     0.039 A 
ENDROOT
BRANCH   4   7
ATOM      7  O   UNL d   1       1.815  -2.351  -1.460  0.00  0.00    -0.526 OA
ATOM      8  H5  UNL d   1       2.563  -2.388  -2.078  0.00  0.00     0.418 HD
ENDBRANCH   4   7
TORSDOF 1
ENDMDL
