MODEL 1
REMARK minimizedAffinity -3.40283465
REMARK minimizedRMSD -1
REMARK  1 active torsions:
REMARK  status: ('A' for Active; 'I' for Inactive)
REMARK    1  A    between atoms: C3_4  and  O_7 
ROOT
ATOM      1  C   UNL d   1       2.084   0.387  -1.810  0.00  0.00    -0.033 A 
ATOM      2  C1  UNL d   1       1.042   0.400  -0.880  0.00  0.00     0.039 A 
ATOM      3  C2  UNL d   1       0.606  -0.793  -0.301  0.00  0.00    -0.080 A 
ATOM      4  C3  UNL d   1       1.221  -1.990  -0.658  0.00  0.00     0.150 A 
ATOM      5  C4  UNL d   1       2.262  -2.010  -1.580  0.00  0.00    -0.007 A 
ATOM      6  C5  UNL d   1       2.695  -0.818  -2.158  0.00  0.00     0.039 A 
ENDROOT
BRANCH   4   7
ATOM      7  O   UNL d   1       0.827  -3.181  -0.123  0.00  0.00    -0.526 OA
ATOM      8  H5  UNL d   1       0.079  -3.016   0.476  0.00  0.00     0.418 HD
ENDBRANCH   4   7
TORSDOF 1
ENDMDL
