MODEL 1
REMARK minimizedAffinity -1.97329891
REMARK minimizedRMSD -1
REMARK  1 active torsions:
REMARK  status: ('A' for Active; 'I' for Inactive)
REMARK    1  A    between atoms: C3_4  and  O_7 
ROOT
ATOM      1  C   UNL d   1      -3.848   1.023   1.895  0.00  0.00    -0.033 A 
ATOM      2  C1  UNL d   1      -3.580   0.914   0.529  0.00  0.00     0.039 A 
ATOM      3  C2  UNL d   1      -2.275   0.685   0.088  0.00  0.00    -0.080 A 
ATOM      4  C3  UNL d   1      -1.249   0.565   1.022  0.00  0.00     0.150 A 
ATOM      5  C4  UNL d   1      -1.510   0.668   2.384  0.00  0.00    -0.007 A 
ATOM      6  C5  UNL d   1      -2.813   0.898   2.823  0.00  0.00     0.039 A 
ENDROOT
BRANCH   4   7
ATOM      7  O   UNL d   1       0.040   0.345   0.639  0.00  0.00    -0.526 OA
ATOM      8  H5  UNL d   1       0.074   0.325  -0.332  0.00  0.00     0.418 HD
ENDBRANCH   4   7
TORSDOF 1
ENDMDL
