MODEL 1
REMARK minimizedAffinity -2.01417613
REMARK minimizedRMSD -1
REMARK  1 active torsions:
REMARK  status: ('A' for Active; 'I' for Inactive)
REMARK    1  A    between atoms: C3_4  and  O_7 
ROOT
ATOM      1  C   UNL d   1       0.485   0.332  -0.306  0.00  0.00    -0.033 A 
ATOM      2  C1  UNL d   1       0.124  -0.665   0.602  0.00  0.00     0.039 A 
ATOM      3  C2  UNL d   1      -1.087  -0.578   1.292  0.00  0.00    -0.080 A 
ATOM      4  C3  UNL d   1      -1.927   0.508   1.062  0.00  0.00     0.150 A 
ATOM      5  C4  UNL d   1      -1.576   1.502   0.155  0.00  0.00    -0.007 A 
ATOM      6  C5  UNL d   1      -0.366   1.414  -0.531  0.00  0.00     0.039 A 
ENDROOT
BRANCH   4   7
ATOM      7  O   UNL d   1      -3.117   0.638   1.715  0.00  0.00    -0.526 OA
ATOM      8  H5  UNL d   1      -3.214  -0.108   2.331  0.00  0.00     0.418 HD
ENDBRANCH   4   7
TORSDOF 1
ENDMDL
