MODEL 1
REMARK minimizedAffinity -2.13557816
REMARK minimizedRMSD -1
REMARK  1 active torsions:
REMARK  status: ('A' for Active; 'I' for Inactive)
REMARK    1  A    between atoms: C3_4  and  O_7 
ROOT
ATOM      1  C   UNL d   1       0.571   1.395  -0.488  0.00  0.00    -0.033 A 
ATOM      2  C1  UNL d   1       0.629   0.337   0.421  0.00  0.00     0.039 A 
ATOM      3  C2  UNL d   1      -0.534  -0.108   1.052  0.00  0.00    -0.080 A 
ATOM      4  C3  UNL d   1      -1.747   0.511   0.766  0.00  0.00     0.150 A 
ATOM      5  C4  UNL d   1      -1.813   1.564  -0.142  0.00  0.00    -0.007 A 
ATOM      6  C5  UNL d   1      -0.651   2.008  -0.770  0.00  0.00     0.039 A 
ENDROOT
BRANCH   4   7
ATOM      7  O   UNL d   1      -2.908   0.115   1.361  0.00  0.00    -0.526 OA
ATOM      8  H5  UNL d   1      -2.704  -0.602   1.985  0.00  0.00     0.418 HD
ENDBRANCH   4   7
TORSDOF 1
ENDMDL
