MODEL 1
REMARK minimizedAffinity -0.374367416
REMARK minimizedRMSD -1
REMARK  1 active torsions:
REMARK  status: ('A' for Active; 'I' for Inactive)
REMARK    1  A    between atoms: C3_4  and  O_7 
ROOT
ATOM      1  C   UNL d   1      -1.861  -0.935   2.115  0.00  0.00    -0.033 A 
ATOM      2  C1  UNL d   1      -0.687  -1.513   1.627  0.00  0.00     0.039 A 
ATOM      3  C2  UNL d   1       0.064  -0.855   0.652  0.00  0.00    -0.080 A 
ATOM      4  C3  UNL d   1      -0.367   0.380   0.174  0.00  0.00     0.150 A 
ATOM      5  C4  UNL d   1      -1.533   0.964   0.659  0.00  0.00    -0.007 A 
ATOM      6  C5  UNL d   1      -2.282   0.305   1.632  0.00  0.00     0.039 A 
ENDROOT
BRANCH   4   7
ATOM      7  O   UNL d   1       0.331   1.058  -0.781  0.00  0.00    -0.526 OA
ATOM      8  H5  UNL d   1       1.097   0.520  -1.042  0.00  0.00     0.418 HD
ENDBRANCH   4   7
TORSDOF 1
ENDMDL
