MODEL 1
REMARK minimizedAffinity -2.38124037
REMARK minimizedRMSD -1
REMARK  1 active torsions:
REMARK  status: ('A' for Active; 'I' for Inactive)
REMARK    1  A    between atoms: C3_4  and  O_7 
ROOT
ATOM      1  C   UNL d   1       2.074   0.527  -1.495  0.00  0.00    -0.033 A 
ATOM      2  C1  UNL d   1       1.155   1.575  -1.570  0.00  0.00     0.039 A 
ATOM      3  C2  UNL d   1      -0.034   1.517  -0.839  0.00  0.00    -0.080 A 
ATOM      4  C3  UNL d   1      -0.289   0.408  -0.038  0.00  0.00     0.150 A 
ATOM      5  C4  UNL d   1       0.624  -0.637   0.045  0.00  0.00    -0.007 A 
ATOM      6  C5  UNL d   1       1.810  -0.578  -0.686  0.00  0.00     0.039 A 
ENDROOT
BRANCH   4   7
ATOM      7  O   UNL d   1      -1.438   0.305   0.690  0.00  0.00    -0.526 OA
ATOM      8  H5  UNL d   1      -1.986   1.087   0.512  0.00  0.00     0.418 HD
ENDBRANCH   4   7
TORSDOF 1
ENDMDL
