MODEL 1
REMARK minimizedAffinity -4.00634289
REMARK minimizedRMSD -1
REMARK  1 active torsions:
REMARK  status: ('A' for Active; 'I' for Inactive)
REMARK    1  A    between atoms: C3_4  and  O_7 
ROOT
ATOM      1  C   UNL d   1      -1.136   0.279   0.832  0.00  0.00    -0.033 A 
ATOM      2  C1  UNL d   1      -1.566   0.738  -0.415  0.00  0.00     0.039 A 
ATOM      3  C2  UNL d   1      -0.633   1.034  -1.411  0.00  0.00    -0.080 A 
ATOM      4  C3  UNL d   1       0.723   0.866  -1.149  0.00  0.00     0.150 A 
ATOM      5  C4  UNL d   1       1.158   0.405   0.089  0.00  0.00    -0.007 A 
ATOM      6  C5  UNL d   1       0.226   0.112   1.084  0.00  0.00     0.039 A 
ENDROOT
BRANCH   4   7
ATOM      7  O   UNL d   1       1.671   1.146  -2.089  0.00  0.00    -0.526 OA
ATOM      8  H5  UNL d   1       1.225   1.481  -2.884  0.00  0.00     0.418 HD
ENDBRANCH   4   7
TORSDOF 1
ENDMDL
