MODEL 1
REMARK minimizedAffinity -2.97992349
REMARK minimizedRMSD -1
REMARK  1 active torsions:
REMARK  status: ('A' for Active; 'I' for Inactive)
REMARK    1  A    between atoms: C3_4  and  O_7 
ROOT
ATOM      1  C   UNL d   1      -1.050  -0.101   0.545  0.00  0.00    -0.033 A 
ATOM      2  C1  UNL d   1      -1.381   0.673  -0.569  0.00  0.00     0.039 A 
ATOM      3  C2  UNL d   1      -0.389   1.054  -1.476  0.00  0.00    -0.080 A 
ATOM      4  C3  UNL d   1       0.926   0.653  -1.258  0.00  0.00     0.150 A 
ATOM      5  C4  UNL d   1       1.261  -0.122  -0.153  0.00  0.00    -0.007 A 
ATOM      6  C5  UNL d   1       0.271  -0.500   0.752  0.00  0.00     0.039 A 
ENDROOT
BRANCH   4   7
ATOM      7  O   UNL d   1       1.928   1.004  -2.113  0.00  0.00    -0.526 OA
ATOM      8  H5  UNL d   1       1.553   1.562  -2.814  0.00  0.00     0.418 HD
ENDBRANCH   4   7
TORSDOF 1
ENDMDL
