MODEL 1
REMARK minimizedAffinity -1.18627083
REMARK minimizedRMSD -1
REMARK  1 active torsions:
REMARK  status: ('A' for Active; 'I' for Inactive)
REMARK    1  A    between atoms: C3_4  and  O_7 
ROOT
ATOM      1  C   UNL d   1      -3.792   0.531   2.113  0.00  0.00    -0.033 A 
ATOM      2  C1  UNL d   1      -3.310  -0.721   1.727  0.00  0.00     0.039 A 
ATOM      3  C2  UNL d   1      -1.997  -0.855   1.269  0.00  0.00    -0.080 A 
ATOM      4  C3  UNL d   1      -1.178   0.268   1.204  0.00  0.00     0.150 A 
ATOM      5  C4  UNL d   1      -1.651   1.518   1.590  0.00  0.00    -0.007 A 
ATOM      6  C5  UNL d   1      -2.961   1.651   2.046  0.00  0.00     0.039 A 
ENDROOT
BRANCH   4   7
ATOM      7  O   UNL d   1       0.108   0.187   0.760  0.00  0.00    -0.526 OA
ATOM      8  H5  UNL d   1       0.287  -0.732   0.500  0.00  0.00     0.418 HD
ENDBRANCH   4   7
TORSDOF 1
ENDMDL
