MODEL 1
REMARK minimizedAffinity -3.47088122
REMARK minimizedRMSD -1
REMARK  1 active torsions:
REMARK  status: ('A' for Active; 'I' for Inactive)
REMARK    1  A    between atoms: C3_4  and  O_7 
ROOT
ATOM      1  C   UNL d   1       0.786   1.685  -0.718  0.00  0.00    -0.033 A 
ATOM      2  C1  UNL d   1       0.968   0.698   0.252  0.00  0.00     0.039 A 
ATOM      3  C2  UNL d   1      -0.136   0.154   0.912  0.00  0.00    -0.080 A 
ATOM      4  C3  UNL d   1      -1.414   0.605   0.593  0.00  0.00     0.150 A 
ATOM      5  C4  UNL d   1      -1.602   1.585  -0.376  0.00  0.00    -0.007 A 
ATOM      6  C5  UNL d   1      -0.499   2.128  -1.033  0.00  0.00     0.039 A 
ENDROOT
BRANCH   4   7
ATOM      7  O   UNL d   1      -2.521   0.107   1.214  0.00  0.00    -0.526 OA
ATOM      8  H5  UNL d   1      -2.235  -0.542   1.879  0.00  0.00     0.418 HD
ENDBRANCH   4   7
TORSDOF 1
ENDMDL
