MODEL 1
REMARK minimizedAffinity 12.5245142
REMARK minimizedRMSD -1
REMARK  1 active torsions:
REMARK  status: ('A' for Active; 'I' for Inactive)
REMARK    1  A    between atoms: C1_2  and  C2_3 
ROOT
ATOM      1  C2  UNL d   1      -2.858   1.188  -3.708  0.00  0.00    -0.076 A 
ATOM      2  C3  UNL d   1      -3.486   0.023  -3.237  0.00  0.00     0.004 A 
ATOM      3  C4  UNL d   1      -4.475   0.087  -2.257  0.00  0.00    -0.003 A 
ATOM      4  C5  UNL d   1      -4.851   1.318  -1.731  0.00  0.00     0.000 A 
ATOM      5  C6  UNL d   1      -4.250   2.486  -2.199  0.00  0.00     0.000 A 
ATOM      6  C7  UNL d   1      -3.264   2.441  -3.199  0.00  0.00    -0.073 A 
ATOM      7  C8  UNL d   1      -2.645   3.731  -3.662  0.00  0.00     0.078 C 
ENDROOT
BRANCH   1   8
ATOM      8  C1  UNL d   1      -1.773   1.055  -4.754  0.00  0.00     0.053 C 
ATOM      9  C   UNL d   1      -0.677   0.087  -4.335  0.00  0.00     0.018 C 
ENDBRANCH   1   8
TORSDOF 1
ENDMDL
