MODEL 1
REMARK minimizedAffinity 5.57651567
REMARK minimizedRMSD -1
REMARK  1 active torsions:
REMARK  status: ('A' for Active; 'I' for Inactive)
REMARK    1  A    between atoms: C1_2  and  C2_3 
ROOT
ATOM      1  C2  UNL d   1      -1.323   3.878  -0.374  0.00  0.00    -0.076 A 
ATOM      2  C3  UNL d   1      -1.638   5.055  -1.075  0.00  0.00     0.004 A 
ATOM      3  C4  UNL d   1      -0.636   5.849  -1.631  0.00  0.00    -0.003 A 
ATOM      4  C5  UNL d   1       0.697   5.479  -1.494  0.00  0.00     0.000 A 
ATOM      5  C6  UNL d   1       1.027   4.306  -0.816  0.00  0.00     0.000 A 
ATOM      6  C7  UNL d   1       0.028   3.485  -0.265  0.00  0.00    -0.073 A 
ATOM      7  C8  UNL d   1       0.441   2.234   0.461  0.00  0.00     0.078 C 
ENDROOT
BRANCH   1   8
ATOM      8  C1  UNL d   1      -2.450   3.071   0.230  0.00  0.00     0.053 C 
ATOM      9  C   UNL d   1      -2.736   3.459   1.673  0.00  0.00     0.018 C 
ENDBRANCH   1   8
TORSDOF 1
ENDMDL
