MODEL 1
REMARK minimizedAffinity 0.0672544092
REMARK minimizedRMSD -1
REMARK  1 active torsions:
REMARK  status: ('A' for Active; 'I' for Inactive)
REMARK    1  A    between atoms: C1_2  and  C2_3 
ROOT
ATOM      1  C2  UNL d   1      -2.937   4.722   1.125  0.00  0.00    -0.076 A 
ATOM      2  C3  UNL d   1      -3.052   3.814   2.192  0.00  0.00     0.004 A 
ATOM      3  C4  UNL d   1      -2.348   2.611   2.189  0.00  0.00    -0.003 A 
ATOM      4  C5  UNL d   1      -1.516   2.297   1.119  0.00  0.00     0.000 A 
ATOM      5  C6  UNL d   1      -1.377   3.194   0.061  0.00  0.00     0.000 A 
ATOM      6  C7  UNL d   1      -2.067   4.419   0.056  0.00  0.00    -0.073 A 
ATOM      7  C8  UNL d   1      -1.883   5.346  -1.114  0.00  0.00     0.078 C 
ENDROOT
BRANCH   1   8
ATOM      8  C1  UNL d   1      -3.746   5.999   1.170  0.00  0.00     0.053 C 
ATOM      9  C   UNL d   1      -4.923   5.909   2.129  0.00  0.00     0.018 C 
ENDBRANCH   1   8
TORSDOF 1
ENDMDL
