MODEL 1
REMARK minimizedAffinity -2.72830081
REMARK minimizedRMSD -1
REMARK  1 active torsions:
REMARK  status: ('A' for Active; 'I' for Inactive)
REMARK    1  A    between atoms: C1_2  and  C2_3 
ROOT
ATOM      1  C2  UNL d   1      -2.884   4.487   1.030  0.00  0.00    -0.076 A 
ATOM      2  C3  UNL d   1      -2.812   3.486   2.015  0.00  0.00     0.004 A 
ATOM      3  C4  UNL d   1      -1.929   2.415   1.887  0.00  0.00    -0.003 A 
ATOM      4  C5  UNL d   1      -1.102   2.328   0.772  0.00  0.00     0.000 A 
ATOM      5  C6  UNL d   1      -1.148   3.321  -0.206  0.00  0.00     0.000 A 
ATOM      6  C7  UNL d   1      -2.021   4.416  -0.084  0.00  0.00    -0.073 A 
ATOM      7  C8  UNL d   1      -2.032   5.454  -1.172  0.00  0.00     0.078 C 
ENDROOT
BRANCH   1   8
ATOM      8  C1  UNL d   1      -3.880   5.610   1.210  0.00  0.00     0.053 C 
ATOM      9  C   UNL d   1      -5.208   5.126   1.772  0.00  0.00     0.018 C 
ENDBRANCH   1   8
TORSDOF 1
ENDMDL
