MODEL 1
REMARK minimizedAffinity 19.3444252
REMARK minimizedRMSD -1
REMARK  1 active torsions:
REMARK  status: ('A' for Active; 'I' for Inactive)
REMARK    1  A    between atoms: C1_2  and  C2_3 
ROOT
ATOM      1  C2  UNL d   1      -2.838   1.208  -3.820  0.00  0.00    -0.076 A 
ATOM      2  C3  UNL d   1      -1.981   1.680  -2.810  0.00  0.00     0.004 A 
ATOM      3  C4  UNL d   1      -0.620   1.380  -2.825  0.00  0.00    -0.003 A 
ATOM      4  C5  UNL d   1      -0.094   0.602  -3.851  0.00  0.00     0.000 A 
ATOM      5  C6  UNL d   1      -0.926   0.139  -4.870  0.00  0.00     0.000 A 
ATOM      6  C7  UNL d   1      -2.297   0.447  -4.878  0.00  0.00    -0.073 A 
ATOM      7  C8  UNL d   1      -3.149  -0.083  -5.999  0.00  0.00     0.078 C 
ENDROOT
BRANCH   1   8
ATOM      8  C1  UNL d   1      -4.310   1.543  -3.736  0.00  0.00     0.053 C 
ATOM      9  C   UNL d   1      -4.997   0.861  -2.564  0.00  0.00     0.018 C 
ENDBRANCH   1   8
TORSDOF 1
ENDMDL
