MODEL 1
REMARK minimizedAffinity 7.12024927
REMARK minimizedRMSD -1
REMARK  1 active torsions:
REMARK  status: ('A' for Active; 'I' for Inactive)
REMARK    1  A    between atoms: C1_2  and  C2_3 
ROOT
ATOM      1  C2  UNL d   1      -0.439   4.128  -1.581  0.00  0.00    -0.076 A 
ATOM      2  C3  UNL d   1      -0.255   5.339  -2.271  0.00  0.00     0.004 A 
ATOM      3  C4  UNL d   1       0.972   6.000  -2.244  0.00  0.00    -0.003 A 
ATOM      4  C5  UNL d   1       2.034   5.461  -1.527  0.00  0.00     0.000 A 
ATOM      5  C6  UNL d   1       1.874   4.251  -0.851  0.00  0.00     0.000 A 
ATOM      6  C7  UNL d   1       0.649   3.564  -0.882  0.00  0.00    -0.073 A 
ATOM      7  C8  UNL d   1       0.530   2.266  -0.130  0.00  0.00     0.078 C 
ENDROOT
BRANCH   1   8
ATOM      8  C1  UNL d   1      -1.800   3.470  -1.624  0.00  0.00     0.053 C 
ATOM      9  C   UNL d   1      -2.025   2.681  -2.905  0.00  0.00     0.018 C 
ENDBRANCH   1   8
TORSDOF 1
ENDMDL
