MODEL 1
REMARK minimizedAffinity 5.91527605
REMARK minimizedRMSD -1
REMARK  0 active torsions:
REMARK  status: ('A' for Active; 'I' for Inactive)
ROOT
ATOM      1  C4' PXY d   1      -5.964   4.887   6.000  0.00  0.00     0.077 C 
ATOM      2  C1' PXY d   1      -5.990   0.746   1.966  0.00  0.00     0.077 C 
ATOM      3  C1  PXY d   1      -5.989   1.824   3.033  0.00  0.00    -0.082 A 
ATOM      4  C2  PXY d   1      -6.000   3.098   2.675  0.00  0.00     0.003 A 
ATOM      5  C3  PXY d   1      -5.966   4.085   3.626  0.00  0.00     0.003 A 
ATOM      6  C4  PXY d   1      -5.975   3.765   4.957  0.00  0.00    -0.082 A 
ATOM      7  C5  PXY d   1      -5.974   2.468   5.330  0.00  0.00     0.003 A 
ATOM      8  C6  PXY d   1      -5.967   1.481   4.349  0.00  0.00     0.003 A 
ENDROOT
TORSDOF 0
ENDMDL
