MODEL 1
REMARK minimizedAffinity 0.362619311
REMARK minimizedRMSD -1
REMARK  0 active torsions:
REMARK  status: ('A' for Active; 'I' for Inactive)
ROOT
ATOM      1  C4' PXY d   1      -5.612   0.104   1.887  0.00  0.00     0.077 C 
ATOM      2  C1' PXY d   1      -5.628   4.169   5.997  0.00  0.00     0.077 C 
ATOM      3  C1  PXY d   1      -5.632   3.110   4.912  0.00  0.00    -0.082 A 
ATOM      4  C2  PXY d   1      -5.282   1.869   5.208  0.00  0.00     0.003 A 
ATOM      5  C3  PXY d   1      -5.249   0.906   4.233  0.00  0.00     0.003 A 
ATOM      6  C4  PXY d   1      -5.631   1.204   2.952  0.00  0.00    -0.082 A 
ATOM      7  C5  PXY d   1      -6.000   2.466   2.644  0.00  0.00     0.003 A 
ATOM      8  C6  PXY d   1      -5.986   3.438   3.640  0.00  0.00     0.003 A 
ENDROOT
TORSDOF 0
ENDMDL
