MODEL 1
REMARK minimizedAffinity 5.00070381
REMARK minimizedRMSD -1
REMARK  0 active torsions:
REMARK  status: ('A' for Active; 'I' for Inactive)
ROOT
ATOM      1  C4' PXY d   1       4.322   2.809   0.531  0.00  0.00     0.077 C 
ATOM      2  C1' PXY d   1       0.373  -1.392   0.944  0.00  0.00     0.077 C 
ATOM      3  C1  PXY d   1       1.410  -0.290   0.849  0.00  0.00    -0.082 A 
ATOM      4  C2  PXY d   1       1.389   0.541  -0.181  0.00  0.00     0.003 A 
ATOM      5  C3  PXY d   1       2.339   1.523  -0.299  0.00  0.00     0.003 A 
ATOM      6  C4  PXY d   1       3.289   1.689   0.673  0.00  0.00    -0.082 A 
ATOM      7  C5  PXY d   1       3.310   0.851   1.732  0.00  0.00     0.003 A 
ATOM      8  C6  PXY d   1       2.362  -0.165   1.812  0.00  0.00     0.003 A 
ENDROOT
TORSDOF 0
ENDMDL
