MODEL 1
REMARK minimizedAffinity 2.95816374
REMARK minimizedRMSD -1
REMARK  0 active torsions:
REMARK  status: ('A' for Active; 'I' for Inactive)
ROOT
ATOM      1  C4' PXY d   1      -2.965  -0.235  -0.202  0.00  0.00     0.077 C 
ATOM      2  C1' PXY d   1       0.512   1.926   3.880  0.00  0.00     0.077 C 
ATOM      3  C1  PXY d   1      -0.410   1.363   2.817  0.00  0.00    -0.082 A 
ATOM      4  C2  PXY d   1       0.012   0.380   2.038  0.00  0.00     0.003 A 
ATOM      5  C3  PXY d   1      -0.797  -0.118   1.050  0.00  0.00     0.003 A 
ATOM      6  C4  PXY d   1      -2.071   0.357   0.892  0.00  0.00    -0.082 A 
ATOM      7  C5  PXY d   1      -2.514   1.353   1.689  0.00  0.00     0.003 A 
ATOM      8  C6  PXY d   1      -1.662   1.873   2.659  0.00  0.00     0.003 A 
ENDROOT
TORSDOF 0
ENDMDL
