MODEL 1
REMARK minimizedAffinity 8.11107922
REMARK minimizedRMSD -1
REMARK  0 active torsions:
REMARK  status: ('A' for Active; 'I' for Inactive)
ROOT
ATOM      1  C4' PXY d   1      -2.804   1.649   2.658  0.00  0.00     0.077 C 
ATOM      2  C1' PXY d   1       2.288  -0.326   0.763  0.00  0.00     0.077 C 
ATOM      3  C1  PXY d   1       0.959   0.200   1.269  0.00  0.00    -0.082 A 
ATOM      4  C2  PXY d   1      -0.139  -0.518   1.092  0.00  0.00     0.003 A 
ATOM      5  C3  PXY d   1      -1.354  -0.044   1.514  0.00  0.00     0.003 A 
ATOM      6  C4  PXY d   1      -1.439   1.154   2.172  0.00  0.00    -0.082 A 
ATOM      7  C5  PXY d   1      -0.322   1.887   2.367  0.00  0.00     0.003 A 
ATOM      8  C6  PXY d   1       0.895   1.407   1.894  0.00  0.00     0.003 A 
ENDROOT
TORSDOF 0
ENDMDL
