MODEL 1
REMARK minimizedAffinity 3.39180779
REMARK minimizedRMSD -1
REMARK  0 active torsions:
REMARK  status: ('A' for Active; 'I' for Inactive)
ROOT
ATOM      1  C4' PXY d   1      -3.921   1.414   1.966  0.00  0.00     0.077 C 
ATOM      2  C1' PXY d   1       1.489  -0.349   0.946  0.00  0.00     0.077 C 
ATOM      3  C1  PXY d   1       0.071   0.122   1.204  0.00  0.00    -0.082 A 
ATOM      4  C2  PXY d   1      -0.467  -0.047   2.401  0.00  0.00     0.003 A 
ATOM      5  C3  PXY d   1      -1.759   0.344   2.642  0.00  0.00     0.003 A 
ATOM      6  C4  PXY d   1      -2.489   0.962   1.663  0.00  0.00    -0.082 A 
ATOM      7  C5  PXY d   1      -1.944   1.148   0.443  0.00  0.00     0.003 A 
ATOM      8  C6  PXY d   1      -0.645   0.707   0.206  0.00  0.00     0.003 A 
ENDROOT
TORSDOF 0
ENDMDL
