MODEL 1
REMARK minimizedAffinity 15.8334713
REMARK minimizedRMSD -1
REMARK  0 active torsions:
REMARK  status: ('A' for Active; 'I' for Inactive)
ROOT
ATOM      1  C4' PXY d   1      -1.718   1.404   2.231  0.00  0.00     0.077 C 
ATOM      2  C1' PXY d   1       3.642  -0.623   1.470  0.00  0.00     0.077 C 
ATOM      3  C1  PXY d   1       2.233  -0.104   1.672  0.00  0.00    -0.082 A 
ATOM      4  C2  PXY d   1       1.854   1.013   1.072  0.00  0.00     0.003 A 
ATOM      5  C3  PXY d   1       0.593   1.514   1.270  0.00  0.00     0.003 A 
ATOM      6  C4  PXY d   1      -0.307   0.837   2.048  0.00  0.00    -0.082 A 
ATOM      7  C5  PXY d   1       0.068  -0.309   2.655  0.00  0.00     0.003 A 
ATOM      8  C6  PXY d   1       1.365  -0.779   2.475  0.00  0.00     0.003 A 
ENDROOT
TORSDOF 0
ENDMDL
