MODEL 1
REMARK minimizedAffinity 0.92204684
REMARK minimizedRMSD -1
REMARK  0 active torsions:
REMARK  status: ('A' for Active; 'I' for Inactive)
ROOT
ATOM      1  C4' PXY d   1      -4.700   1.842   2.178  0.00  0.00     0.077 C 
ATOM      2  C1' PXY d   1       0.494  -0.438   1.065  0.00  0.00     0.077 C 
ATOM      3  C1  PXY d   1      -0.869   0.163   1.344  0.00  0.00    -0.082 A 
ATOM      4  C2  PXY d   1      -1.183   0.527   2.577  0.00  0.00     0.003 A 
ATOM      5  C3  PXY d   1      -2.423   1.044   2.853  0.00  0.00     0.003 A 
ATOM      6  C4  PXY d   1      -3.332   1.239   1.848  0.00  0.00    -0.082 A 
ATOM      7  C5  PXY d   1      -3.015   0.880   0.586  0.00  0.00     0.003 A 
ATOM      8  C6  PXY d   1      -1.766   0.320   0.333  0.00  0.00     0.003 A 
ENDROOT
TORSDOF 0
ENDMDL
