MODEL 1
REMARK minimizedAffinity 10.0854349
REMARK minimizedRMSD -1
REMARK  0 active torsions:
REMARK  status: ('A' for Active; 'I' for Inactive)
ROOT
ATOM      1  C4' PXY d   1      -3.697   1.982   2.055  0.00  0.00     0.077 C 
ATOM      2  C1' PXY d   1      -1.244  -2.635  -0.411  0.00  0.00     0.077 C 
ATOM      3  C1  PXY d   1      -1.879  -1.426   0.246  0.00  0.00    -0.082 A 
ATOM      4  C2  PXY d   1      -3.123  -1.094  -0.058  0.00  0.00     0.003 A 
ATOM      5  C3  PXY d   1      -3.702   0.016   0.502  0.00  0.00     0.003 A 
ATOM      6  C4  PXY d   1      -3.018   0.763   1.424  0.00  0.00    -0.082 A 
ATOM      7  C5  PXY d   1      -1.752   0.425   1.748  0.00  0.00     0.003 A 
ATOM      8  C6  PXY d   1      -1.169  -0.681   1.137  0.00  0.00     0.003 A 
ENDROOT
TORSDOF 0
ENDMDL
