MODEL 1
REMARK minimizedAffinity 4.33360243
REMARK minimizedRMSD -1
REMARK  0 active torsions:
REMARK  status: ('A' for Active; 'I' for Inactive)
ROOT
ATOM      1  C4' PXY d   1      -4.078   1.959   1.778  0.00  0.00     0.077 C 
ATOM      2  C1' PXY d   1      -1.171  -2.571  -0.328  0.00  0.00     0.077 C 
ATOM      3  C1  PXY d   1      -1.922  -1.378   0.228  0.00  0.00    -0.082 A 
ATOM      4  C2  PXY d   1      -3.205  -1.496   0.530  0.00  0.00     0.003 A 
ATOM      5  C3  PXY d   1      -3.907  -0.418   1.004  0.00  0.00     0.003 A 
ATOM      6  C4  PXY d   1      -3.277   0.778   1.222  0.00  0.00    -0.082 A 
ATOM      7  C5  PXY d   1      -1.966   0.903   0.927  0.00  0.00     0.003 A 
ATOM      8  C6  PXY d   1      -1.281  -0.191   0.407  0.00  0.00     0.003 A 
ENDROOT
TORSDOF 0
ENDMDL
