MODEL 1
REMARK minimizedAffinity 0.482745528
REMARK minimizedRMSD -1
REMARK  0 active torsions:
REMARK  status: ('A' for Active; 'I' for Inactive)
ROOT
ATOM      1  C4' PXY d   1       0.406   2.720   3.748  0.00  0.00     0.077 C 
ATOM      2  C1' PXY d   1      -2.828  -0.554   0.248  0.00  0.00     0.077 C 
ATOM      3  C1  PXY d   1      -1.990   0.313   1.168  0.00  0.00    -0.082 A 
ATOM      4  C2  PXY d   1      -0.673   0.318   1.041  0.00  0.00     0.003 A 
ATOM      5  C3  PXY d   1       0.102   1.071   1.885  0.00  0.00     0.003 A 
ATOM      6  C4  PXY d   1      -0.481   1.868   2.835  0.00  0.00    -0.082 A 
ATOM      7  C5  PXY d   1      -1.824   1.875   2.964  0.00  0.00     0.003 A 
ATOM      8  C6  PXY d   1      -2.591   1.072   2.124  0.00  0.00     0.003 A 
ENDROOT
TORSDOF 0
ENDMDL
