MODEL 1
REMARK minimizedAffinity 3.53257155
REMARK minimizedRMSD -1
REMARK  0 active torsions:
REMARK  status: ('A' for Active; 'I' for Inactive)
ROOT
ATOM      1  C4' PXY d   1       1.604   0.191   0.613  0.00  0.00     0.077 C 
ATOM      2  C1' PXY d   1      -3.815   1.577   2.070  0.00  0.00     0.077 C 
ATOM      3  C1  PXY d   1      -2.389   1.223   1.696  0.00  0.00    -0.082 A 
ATOM      4  C2  PXY d   1      -2.149   0.594   0.556  0.00  0.00     0.003 A 
ATOM      5  C3  PXY d   1      -0.869   0.238   0.217  0.00  0.00     0.003 A 
ATOM      6  C4  PXY d   1       0.182   0.576   1.027  0.00  0.00    -0.082 A 
ATOM      7  C5  PXY d   1      -0.054   1.227   2.186  0.00  0.00     0.003 A 
ATOM      8  C6  PXY d   1      -1.365   1.543   2.532  0.00  0.00     0.003 A 
ENDROOT
TORSDOF 0
ENDMDL
