MODEL 1
REMARK minimizedAffinity 3.80603456
REMARK minimizedRMSD -1
REMARK  0 active torsions:
REMARK  status: ('A' for Active; 'I' for Inactive)
ROOT
ATOM      1  C4' PXY d   1       0.879   2.754   4.015  0.00  0.00     0.077 C 
ATOM      2  C1' PXY d   1      -2.265  -0.193   0.163  0.00  0.00     0.077 C 
ATOM      3  C1  PXY d   1      -1.449   0.589   1.173  0.00  0.00    -0.082 A 
ATOM      4  C2  PXY d   1      -0.155   0.342   1.301  0.00  0.00     0.003 A 
ATOM      5  C3  PXY d   1       0.591   1.018   2.232  0.00  0.00     0.003 A 
ATOM      6  C4  PXY d   1       0.018   1.995   3.002  0.00  0.00    -0.082 A 
ATOM      7  C5  PXY d   1      -1.298   2.260   2.869  0.00  0.00     0.003 A 
ATOM      8  C6  PXY d   1      -2.047   1.534   1.948  0.00  0.00     0.003 A 
ENDROOT
TORSDOF 0
ENDMDL
