MODEL 1
REMARK minimizedAffinity 6.37103558
REMARK minimizedRMSD -1
REMARK  0 active torsions:
REMARK  status: ('A' for Active; 'I' for Inactive)
ROOT
ATOM      1  C4' PXY d   1       1.258  -0.123   0.378  0.00  0.00     0.077 C 
ATOM      2  C1' PXY d   1      -3.044   2.222   3.445  0.00  0.00     0.077 C 
ATOM      3  C1  PXY d   1      -1.925   1.600   2.634  0.00  0.00    -0.082 A 
ATOM      4  C2  PXY d   1      -0.698   1.569   3.129  0.00  0.00     0.003 A 
ATOM      5  C3  PXY d   1       0.333   1.039   2.396  0.00  0.00     0.003 A 
ATOM      6  C4  PXY d   1       0.095   0.486   1.166  0.00  0.00    -0.082 A 
ATOM      7  C5  PXY d   1      -1.156   0.504   0.658  0.00  0.00     0.003 A 
ATOM      8  C6  PXY d   1      -2.180   1.084   1.401  0.00  0.00     0.003 A 
ENDROOT
TORSDOF 0
ENDMDL
