MODEL 1
REMARK minimizedAffinity 4.23831415
REMARK minimizedRMSD -1
REMARK  0 active torsions:
REMARK  status: ('A' for Active; 'I' for Inactive)
ROOT
ATOM      1  C4' PXY d   1       1.738   0.491  -0.142  0.00  0.00     0.077 C 
ATOM      2  C1' PXY d   1      -2.562   1.501   3.586  0.00  0.00     0.077 C 
ATOM      3  C1  PXY d   1      -1.441   1.226   2.604  0.00  0.00    -0.082 A 
ATOM      4  C2  PXY d   1      -0.226   1.689   2.851  0.00  0.00     0.003 A 
ATOM      5  C3  PXY d   1       0.792   1.476   1.958  0.00  0.00     0.003 A 
ATOM      6  C4  PXY d   1       0.578   0.737   0.826  0.00  0.00    -0.082 A 
ATOM      7  C5  PXY d   1      -0.656   0.252   0.572  0.00  0.00     0.003 A 
ATOM      8  C6  PXY d   1      -1.686   0.514   1.471  0.00  0.00     0.003 A 
ENDROOT
TORSDOF 0
ENDMDL
