MODEL 1
REMARK minimizedAffinity 0.213313043
REMARK minimizedRMSD -1
REMARK  0 active torsions:
REMARK  status: ('A' for Active; 'I' for Inactive)
ROOT
ATOM      1  C4' PXY d   1       1.525   0.141   1.103  0.00  0.00     0.077 C 
ATOM      2  C1' PXY d   1      -3.858   1.641   2.582  0.00  0.00     0.077 C 
ATOM      3  C1  PXY d   1      -2.442   1.257   2.202  0.00  0.00    -0.082 A 
ATOM      4  C2  PXY d   1      -2.224   0.587   1.082  0.00  0.00     0.003 A 
ATOM      5  C3  PXY d   1      -0.953   0.204   0.739  0.00  0.00     0.003 A 
ATOM      6  C4  PXY d   1       0.112   0.557   1.523  0.00  0.00    -0.082 A 
ATOM      7  C5  PXY d   1      -0.101   1.251   2.661  0.00  0.00     0.003 A 
ATOM      8  C6  PXY d   1      -1.403   1.594   3.013  0.00  0.00     0.003 A 
ENDROOT
TORSDOF 0
ENDMDL
