MODEL 1
REMARK minimizedAffinity 6.07921028
REMARK minimizedRMSD -1
REMARK  0 active torsions:
REMARK  status: ('A' for Active; 'I' for Inactive)
ROOT
ATOM      1  C4' PXY d   1       0.571   0.410  -0.092  0.00  0.00     0.077 C 
ATOM      2  C1' PXY d   1      -2.101   2.451   4.610  0.00  0.00     0.077 C 
ATOM      3  C1  PXY d   1      -1.411   1.908   3.374  0.00  0.00    -0.082 A 
ATOM      4  C2  PXY d   1      -0.091   1.961   3.285  0.00  0.00     0.003 A 
ATOM      5  C3  PXY d   1       0.547   1.504   2.162  0.00  0.00     0.003 A 
ATOM      6  C4  PXY d   1      -0.168   0.938   1.140  0.00  0.00    -0.082 A 
ATOM      7  C5  PXY d   1      -1.514   0.871   1.228  0.00  0.00     0.003 A 
ATOM      8  C6  PXY d   1      -2.146   1.378   2.359  0.00  0.00     0.003 A 
ENDROOT
TORSDOF 0
ENDMDL
