MODEL 1
REMARK minimizedAffinity 9.56894493
REMARK minimizedRMSD -1
REMARK  0 active torsions:
REMARK  status: ('A' for Active; 'I' for Inactive)
ROOT
ATOM      1  C4' PXY d   1       2.853  -0.449   2.015  0.00  0.00     0.077 C 
ATOM      2  C1' PXY d   1      -2.599   1.454   1.754  0.00  0.00     0.077 C 
ATOM      3  C1  PXY d   1      -1.165   0.967   1.819  0.00  0.00    -0.082 A 
ATOM      4  C2  PXY d   1      -0.908  -0.326   1.702  0.00  0.00     0.003 A 
ATOM      5  C3  PXY d   1       0.380  -0.787   1.790  0.00  0.00     0.003 A 
ATOM      6  C4  PXY d   1       1.421   0.089   1.946  0.00  0.00    -0.082 A 
ATOM      7  C5  PXY d   1       1.167   1.410   2.055  0.00  0.00     0.003 A 
ATOM      8  C6  PXY d   1      -0.151   1.854   2.004  0.00  0.00     0.003 A 
ENDROOT
TORSDOF 0
ENDMDL
