MODEL 1
REMARK minimizedAffinity 8.66380405
REMARK minimizedRMSD -1
REMARK  0 active torsions:
REMARK  status: ('A' for Active; 'I' for Inactive)
ROOT
ATOM      1  C4' PXY d   1      -2.373   0.087  -0.144  0.00  0.00     0.077 C 
ATOM      2  C1' PXY d   1       0.603   2.345   4.268  0.00  0.00     0.077 C 
ATOM      3  C1  PXY d   1      -0.167   1.750   3.105  0.00  0.00    -0.082 A 
ATOM      4  C2  PXY d   1      -1.407   2.147   2.870  0.00  0.00     0.003 A 
ATOM      5  C3  PXY d   1      -2.128   1.596   1.842  0.00  0.00     0.003 A 
ATOM      6  C4  PXY d   1      -1.555   0.668   1.014  0.00  0.00    -0.082 A 
ATOM      7  C5  PXY d   1      -0.287   0.265   1.241  0.00  0.00     0.003 A 
ATOM      8  C6  PXY d   1       0.414   0.806   2.315  0.00  0.00     0.003 A 
ENDROOT
TORSDOF 0
ENDMDL
