MODEL 1
REMARK minimizedAffinity 3.97459626
REMARK minimizedRMSD -1
REMARK  0 active torsions:
REMARK  status: ('A' for Active; 'I' for Inactive)
ROOT
ATOM      1  C4' PXY d   1       1.120   2.636   3.952  0.00  0.00     0.077 C 
ATOM      2  C1' PXY d   1      -1.822  -0.353  -0.026  0.00  0.00     0.077 C 
ATOM      3  C1  PXY d   1      -1.061   0.439   1.019  0.00  0.00    -0.082 A 
ATOM      4  C2  PXY d   1       0.262   0.422   1.016  0.00  0.00     0.003 A 
ATOM      5  C3  PXY d   1       0.966   1.107   1.973  0.00  0.00     0.003 A 
ATOM      6  C4  PXY d   1       0.310   1.859   2.910  0.00  0.00    -0.082 A 
ATOM      7  C5  PXY d   1      -1.039   1.889   2.913  0.00  0.00     0.003 A 
ATOM      8  C6  PXY d   1      -1.736   1.155   1.958  0.00  0.00     0.003 A 
ENDROOT
TORSDOF 0
ENDMDL
