MODEL 1
REMARK minimizedAffinity -1.15387475
REMARK minimizedRMSD -1
REMARK  0 active torsions:
REMARK  status: ('A' for Active; 'I' for Inactive)
ROOT
ATOM      1  C   UNL d   1       3.759  -3.611  -5.516  0.00  0.00     0.172 C 
ATOM      2  N   UNL d   1       4.426  -2.959  -4.413  0.00  0.00    -0.070 N 
ATOM      3  C1  UNL d   1       5.757  -3.063  -4.111  0.00  0.00    -0.004 A 
ATOM      4  C2  UNL d   1       5.997  -2.295  -2.993  0.00  0.00    -0.047 A 
ATOM      5  C3  UNL d   1       4.768  -1.709  -2.609  0.00  0.00    -0.047 A 
ATOM      6  C4  UNL d   1       3.811  -2.137  -3.505  0.00  0.00    -0.004 A 
ENDROOT
TORSDOF 0
ENDMDL
