MODEL 1
REMARK minimizedAffinity -1.31671333
REMARK minimizedRMSD -1
REMARK  0 active torsions:
REMARK  status: ('A' for Active; 'I' for Inactive)
ROOT
ATOM      1  C   UNL d   1       2.915   5.502   0.374  0.00  0.00     0.172 C 
ATOM      2  N   UNL d   1       1.963   4.469   0.707  0.00  0.00    -0.070 N 
ATOM      3  C1  UNL d   1       2.008   3.671   1.819  0.00  0.00    -0.004 A 
ATOM      4  C2  UNL d   1       0.926   2.818   1.770  0.00  0.00    -0.047 A 
ATOM      5  C3  UNL d   1       0.207   3.114   0.588  0.00  0.00    -0.047 A 
ATOM      6  C4  UNL d   1       0.870   4.139  -0.051  0.00  0.00    -0.004 A 
ENDROOT
TORSDOF 0
ENDMDL
