MODEL 1
REMARK minimizedAffinity 4.37767029
REMARK minimizedRMSD -1
REMARK  0 active torsions:
REMARK  status: ('A' for Active; 'I' for Inactive)
ROOT
ATOM      1  C   UNL d   1      -1.132   4.842  -2.499  0.00  0.00     0.172 C 
ATOM      2  N   UNL d   1      -0.269   3.895  -1.831  0.00  0.00    -0.070 N 
ATOM      3  C1  UNL d   1       1.100   3.908  -1.853  0.00  0.00    -0.004 A 
ATOM      4  C2  UNL d   1       1.544   2.845  -1.097  0.00  0.00    -0.047 A 
ATOM      5  C3  UNL d   1       0.403   2.169  -0.604  0.00  0.00    -0.047 A 
ATOM      6  C4  UNL d   1      -0.706   2.840  -1.074  0.00  0.00    -0.004 A 
ENDROOT
TORSDOF 0
ENDMDL
