MODEL 1
REMARK minimizedAffinity -2.3661828
REMARK minimizedRMSD -1
REMARK  0 active torsions:
REMARK  status: ('A' for Active; 'I' for Inactive)
ROOT
ATOM      1  C   UNL d   1       3.128  -1.570  -1.542  0.00  0.00     0.172 C 
ATOM      2  N   UNL d   1       4.146  -2.186  -2.361  0.00  0.00    -0.070 N 
ATOM      3  C1  UNL d   1       4.533  -1.764  -3.605  0.00  0.00    -0.004 A 
ATOM      4  C2  UNL d   1       5.524  -2.612  -4.049  0.00  0.00    -0.047 A 
ATOM      5  C3  UNL d   1       5.739  -3.578  -3.037  0.00  0.00    -0.047 A 
ATOM      6  C4  UNL d   1       4.873  -3.291  -2.004  0.00  0.00    -0.004 A 
ENDROOT
TORSDOF 0
ENDMDL
