MODEL 1
REMARK minimizedAffinity -1.40789652
REMARK minimizedRMSD -1
REMARK  0 active torsions:
REMARK  status: ('A' for Active; 'I' for Inactive)
ROOT
ATOM      1  C   UNL d   1      -2.341  -4.858  -6.000  0.00  0.00     0.172 C 
ATOM      2  N   UNL d   1      -1.544  -4.868  -4.796  0.00  0.00    -0.070 N 
ATOM      3  C1  UNL d   1      -1.103  -3.761  -4.121  0.00  0.00    -0.004 A 
ATOM      4  C2  UNL d   1      -0.379  -4.192  -3.031  0.00  0.00    -0.047 A 
ATOM      5  C3  UNL d   1      -0.384  -5.607  -3.052  0.00  0.00    -0.047 A 
ATOM      6  C4  UNL d   1      -1.112  -5.999  -4.155  0.00  0.00    -0.004 A 
ENDROOT
TORSDOF 0
ENDMDL
