MODEL 1
REMARK minimizedAffinity 1.31338811
REMARK minimizedRMSD -1
REMARK  0 active torsions:
REMARK  status: ('A' for Active; 'I' for Inactive)
ROOT
ATOM      1  C   UNL d   1       5.999  -4.945  -3.090  0.00  0.00     0.172 C 
ATOM      2  N   UNL d   1       5.376  -3.645  -3.010  0.00  0.00    -0.070 N 
ATOM      3  C1  UNL d   1       6.000  -2.483  -2.643  0.00  0.00    -0.004 A 
ATOM      4  C2  UNL d   1       5.067  -1.469  -2.693  0.00  0.00    -0.047 A 
ATOM      5  C3  UNL d   1       3.840  -2.043  -3.105  0.00  0.00    -0.047 A 
ATOM      6  C4  UNL d   1       4.060  -3.391  -3.294  0.00  0.00    -0.004 A 
ENDROOT
TORSDOF 0
ENDMDL
