MODEL 1
REMARK minimizedAffinity 0.885842144
REMARK minimizedRMSD -1
REMARK  0 active torsions:
REMARK  status: ('A' for Active; 'I' for Inactive)
ROOT
ATOM      1  C   UNL d   1       3.294  -5.370  -2.893  0.00  0.00     0.172 C 
ATOM      2  N   UNL d   1       3.959  -4.509  -1.942  0.00  0.00    -0.070 N 
ATOM      3  C1  UNL d   1       5.012  -4.865  -1.144  0.00  0.00    -0.004 A 
ATOM      4  C2  UNL d   1       5.356  -3.768  -0.384  0.00  0.00    -0.047 A 
ATOM      5  C3  UNL d   1       4.477  -2.716  -0.738  0.00  0.00    -0.047 A 
ATOM      6  C4  UNL d   1       3.623  -3.203  -1.704  0.00  0.00    -0.004 A 
ENDROOT
TORSDOF 0
ENDMDL
