MODEL 1
REMARK minimizedAffinity -1.16412973
REMARK minimizedRMSD -1
REMARK  0 active torsions:
REMARK  status: ('A' for Active; 'I' for Inactive)
ROOT
ATOM      1  C   UNL d   1      -1.318   1.850  -1.114  0.00  0.00     0.172 C 
ATOM      2  N   UNL d   1      -2.552   1.831  -1.863  0.00  0.00    -0.070 N 
ATOM      3  C1  UNL d   1      -3.205   0.708  -2.297  0.00  0.00    -0.004 A 
ATOM      4  C2  UNL d   1      -4.338   1.112  -2.970  0.00  0.00    -0.047 A 
ATOM      5  C3  UNL d   1      -4.366   2.527  -2.940  0.00  0.00    -0.047 A 
ATOM      6  C4  UNL d   1      -3.249   2.945  -2.249  0.00  0.00    -0.004 A 
ENDROOT
TORSDOF 0
ENDMDL
