MODEL 1
REMARK minimizedAffinity 1.97179163
REMARK minimizedRMSD -1
REMARK  0 active torsions:
REMARK  status: ('A' for Active; 'I' for Inactive)
ROOT
ATOM      1  C   UNL d   1       3.753  -2.103  -0.988  0.00  0.00     0.172 C 
ATOM      2  N   UNL d   1       4.070  -3.436  -1.443  0.00  0.00    -0.070 N 
ATOM      3  C1  UNL d   1       4.818  -4.357  -0.759  0.00  0.00    -0.004 A 
ATOM      4  C2  UNL d   1       4.887  -5.499  -1.527  0.00  0.00    -0.047 A 
ATOM      5  C3  UNL d   1       4.157  -5.256  -2.714  0.00  0.00    -0.047 A 
ATOM      6  C4  UNL d   1       3.662  -3.971  -2.636  0.00  0.00    -0.004 A 
ENDROOT
TORSDOF 0
ENDMDL
