MODEL 1
REMARK minimizedAffinity 4.16251564
REMARK minimizedRMSD -1
REMARK  0 active torsions:
REMARK  status: ('A' for Active; 'I' for Inactive)
ROOT
ATOM      1  C   UNL d   1       0.741  -2.570   5.995  0.00  0.00     0.172 C 
ATOM      2  N   UNL d   1       2.020  -2.806   5.368  0.00  0.00    -0.070 N 
ATOM      3  C1  UNL d   1       3.148  -3.258   6.000  0.00  0.00    -0.004 A 
ATOM      4  C2  UNL d   1       4.151  -3.350   5.059  0.00  0.00    -0.047 A 
ATOM      5  C3  UNL d   1       3.607  -2.938   3.819  0.00  0.00    -0.047 A 
ATOM      6  C4  UNL d   1       2.287  -2.606   4.039  0.00  0.00    -0.004 A 
ENDROOT
TORSDOF 0
ENDMDL
