MODEL 1
REMARK minimizedAffinity 1.73050749
REMARK minimizedRMSD -1
REMARK  0 active torsions:
REMARK  status: ('A' for Active; 'I' for Inactive)
ROOT
ATOM      1  C   UNL d   1       2.223  -3.906   0.598  0.00  0.00     0.172 C 
ATOM      2  N   UNL d   1       2.761  -4.350  -0.666  0.00  0.00    -0.070 N 
ATOM      3  C1  UNL d   1       3.957  -3.959  -1.206  0.00  0.00    -0.004 A 
ATOM      4  C2  UNL d   1       4.106  -4.605  -2.415  0.00  0.00    -0.047 A 
ATOM      5  C3  UNL d   1       2.959  -5.412  -2.608  0.00  0.00    -0.047 A 
ATOM      6  C4  UNL d   1       2.143  -5.235  -1.510  0.00  0.00    -0.004 A 
ENDROOT
TORSDOF 0
ENDMDL
