MODEL 1
REMARK minimizedAffinity -0.874293029
REMARK minimizedRMSD -1
REMARK  0 active torsions:
REMARK  status: ('A' for Active; 'I' for Inactive)
ROOT
ATOM      1  C   UNL d   1       0.491   3.618  -0.261  0.00  0.00     0.023 A 
ATOM      2  C1  UNL d   1      -0.374   2.656   0.262  0.00  0.00     0.003 A 
ATOM      3  C2  UNL d   1      -1.397   2.131  -0.530  0.00  0.00     0.048 A 
ATOM      4  C3  UNL d   1      -1.549   2.571  -1.844  0.00  0.00     0.023 A 
ATOM      5  C4  UNL d   1      -0.686   3.533  -2.372  0.00  0.00     0.048 A 
ATOM      6  C5  UNL d   1       0.335   4.056  -1.576  0.00  0.00     0.003 A 
ATOM      7  I   UNL d   1      -3.071   1.790  -3.025  0.00  0.00    -0.146 I 
ENDROOT
TORSDOF 0
ENDMDL
