MODEL 1
REMARK minimizedAffinity 5.38249731
REMARK minimizedRMSD -1
REMARK  0 active torsions:
REMARK  status: ('A' for Active; 'I' for Inactive)
ROOT
ATOM      1  C   UNL d   1      -0.835   1.834   3.494  0.00  0.00     0.023 A 
ATOM      2  C1  UNL d   1       0.397   2.348   3.091  0.00  0.00     0.003 A 
ATOM      3  C2  UNL d   1       0.612   2.679   1.751  0.00  0.00     0.048 A 
ATOM      4  C3  UNL d   1      -0.410   2.495   0.821  0.00  0.00     0.023 A 
ATOM      5  C4  UNL d   1      -1.645   1.981   1.220  0.00  0.00     0.048 A 
ATOM      6  C5  UNL d   1      -1.855   1.651   2.560  0.00  0.00     0.003 A 
ATOM      7  I   UNL d   1      -0.093   2.987  -1.173  0.00  0.00    -0.146 I 
ENDROOT
TORSDOF 0
ENDMDL
