MODEL 1
REMARK minimizedAffinity 3.27985263
REMARK minimizedRMSD -1
REMARK  0 active torsions:
REMARK  status: ('A' for Active; 'I' for Inactive)
ROOT
ATOM      1  C   UNL d   1       0.326   3.929   0.200  0.00  0.00     0.023 A 
ATOM      2  C1  UNL d   1       0.063   5.298   0.157  0.00  0.00     0.003 A 
ATOM      3  C2  UNL d   1      -1.237   5.767   0.356  0.00  0.00     0.048 A 
ATOM      4  C3  UNL d   1      -2.269   4.861   0.600  0.00  0.00     0.023 A 
ATOM      5  C4  UNL d   1      -2.010   3.491   0.646  0.00  0.00     0.048 A 
ATOM      6  C5  UNL d   1      -0.709   3.026   0.445  0.00  0.00     0.003 A 
ATOM      7  I   UNL d   1      -4.205   5.557   0.898  0.00  0.00    -0.146 I 
ENDROOT
TORSDOF 0
ENDMDL
