MODEL 1
REMARK minimizedAffinity 13.1266079
REMARK minimizedRMSD -1
REMARK  0 active torsions:
REMARK  status: ('A' for Active; 'I' for Inactive)
ROOT
ATOM      1  C   UNL d   1       0.751   2.985   1.170  0.00  0.00     0.023 A 
ATOM      2  C1  UNL d   1       1.308   3.898   0.274  0.00  0.00     0.003 A 
ATOM      3  C2  UNL d   1       0.760   4.050  -1.001  0.00  0.00     0.048 A 
ATOM      4  C3  UNL d   1      -0.345   3.286  -1.374  0.00  0.00     0.023 A 
ATOM      5  C4  UNL d   1      -0.906   2.371  -0.481  0.00  0.00     0.048 A 
ATOM      6  C5  UNL d   1      -0.354   2.222   0.793  0.00  0.00     0.003 A 
ATOM      7  I   UNL d   1      -1.162   3.510  -3.272  0.00  0.00    -0.146 I 
ENDROOT
TORSDOF 0
ENDMDL
