MODEL 1
REMARK minimizedAffinity -0.852840304
REMARK minimizedRMSD -1
REMARK  0 active torsions:
REMARK  status: ('A' for Active; 'I' for Inactive)
ROOT
ATOM      1  C   UNL d   1       0.362   3.707  -1.161  0.00  0.00     0.023 A 
ATOM      2  C1  UNL d   1       1.113   3.918  -0.004  0.00  0.00     0.003 A 
ATOM      3  C2  UNL d   1       0.715   3.341   1.203  0.00  0.00     0.048 A 
ATOM      4  C3  UNL d   1      -0.435   2.553   1.247  0.00  0.00     0.023 A 
ATOM      5  C4  UNL d   1      -1.189   2.338   0.092  0.00  0.00     0.048 A 
ATOM      6  C5  UNL d   1      -0.787   2.919  -1.113  0.00  0.00     0.003 A 
ATOM      7  I   UNL d   1      -1.030   1.692   3.043  0.00  0.00    -0.146 I 
ENDROOT
TORSDOF 0
ENDMDL
