MODEL 1
REMARK minimizedAffinity 1.14806557
REMARK minimizedRMSD -1
REMARK  0 active torsions:
REMARK  status: ('A' for Active; 'I' for Inactive)
ROOT
ATOM      1  C   UNL d   1      -0.446   1.670   3.502  0.00  0.00     0.023 A 
ATOM      2  C1  UNL d   1       0.033   2.945   3.200  0.00  0.00     0.003 A 
ATOM      3  C2  UNL d   1       0.237   3.319   1.870  0.00  0.00     0.048 A 
ATOM      4  C3  UNL d   1      -0.042   2.414   0.847  0.00  0.00     0.023 A 
ATOM      5  C4  UNL d   1      -0.523   1.137   1.144  0.00  0.00     0.048 A 
ATOM      6  C5  UNL d   1      -0.724   0.768   2.475  0.00  0.00     0.003 A 
ATOM      7  I   UNL d   1       0.261   2.968  -1.133  0.00  0.00    -0.146 I 
ENDROOT
TORSDOF 0
ENDMDL
