MODEL 1
REMARK minimizedAffinity -0.656472266
REMARK minimizedRMSD -1
REMARK  0 active torsions:
REMARK  status: ('A' for Active; 'I' for Inactive)
ROOT
ATOM      1  C   UNL d   1      -1.061   1.515   2.916  0.00  0.00     0.023 A 
ATOM      2  C1  UNL d   1      -1.450   1.045   1.662  0.00  0.00     0.003 A 
ATOM      3  C2  UNL d   1      -1.033   1.709   0.506  0.00  0.00     0.048 A 
ATOM      4  C3  UNL d   1      -0.227   2.842   0.613  0.00  0.00     0.023 A 
ATOM      5  C4  UNL d   1       0.165   3.315   1.866  0.00  0.00     0.048 A 
ATOM      6  C5  UNL d   1      -0.255   2.648   3.019  0.00  0.00     0.003 A 
ATOM      7  I   UNL d   1       0.395   3.832  -1.105  0.00  0.00    -0.146 I 
ENDROOT
TORSDOF 0
ENDMDL
