MODEL 1
REMARK minimizedAffinity 4.35586071
REMARK minimizedRMSD -1
REMARK  0 active torsions:
REMARK  status: ('A' for Active; 'I' for Inactive)
ROOT
ATOM      1  C   UNL d   1      -0.992  -3.758   3.646  0.00  0.00     0.023 A 
ATOM      2  C1  UNL d   1      -0.027  -3.101   2.882  0.00  0.00     0.003 A 
ATOM      3  C2  UNL d   1      -0.130  -1.727   2.657  0.00  0.00     0.048 A 
ATOM      4  C3  UNL d   1      -1.199  -1.015   3.199  0.00  0.00     0.023 A 
ATOM      5  C4  UNL d   1      -2.167  -1.668   3.965  0.00  0.00     0.048 A 
ATOM      6  C5  UNL d   1      -2.061  -3.043   4.187  0.00  0.00     0.003 A 
ATOM      7  I   UNL d   1      -1.354   1.030   2.865  0.00  0.00    -0.146 I 
ENDROOT
TORSDOF 0
ENDMDL
