MODEL 1
REMARK minimizedAffinity -0.386418849
REMARK minimizedRMSD -1
REMARK  0 active torsions:
REMARK  status: ('A' for Active; 'I' for Inactive)
ROOT
ATOM      1  C   UNL d   1       0.796   4.077  -0.057  0.00  0.00     0.023 A 
ATOM      2  C1  UNL d   1      -0.054   3.155  -0.668  0.00  0.00     0.003 A 
ATOM      3  C2  UNL d   1      -0.844   2.308   0.112  0.00  0.00     0.048 A 
ATOM      4  C3  UNL d   1      -0.780   2.390   1.503  0.00  0.00     0.023 A 
ATOM      5  C4  UNL d   1       0.068   3.311   2.118  0.00  0.00     0.048 A 
ATOM      6  C5  UNL d   1       0.857   4.155   1.334  0.00  0.00     0.003 A 
ATOM      7  I   UNL d   1      -1.956   1.131   2.666  0.00  0.00    -0.146 I 
ENDROOT
TORSDOF 0
ENDMDL
