MODEL 1
REMARK minimizedAffinity 1.69055533
REMARK minimizedRMSD -1
REMARK  0 active torsions:
REMARK  status: ('A' for Active; 'I' for Inactive)
ROOT
ATOM      1  C   UNL d   1      -0.733   3.014   0.890  0.00  0.00     0.023 A 
ATOM      2  C1  UNL d   1      -1.868   3.107   1.695  0.00  0.00     0.003 A 
ATOM      3  C2  UNL d   1      -2.295   2.002   2.433  0.00  0.00     0.048 A 
ATOM      4  C3  UNL d   1      -1.582   0.806   2.363  0.00  0.00     0.023 A 
ATOM      5  C4  UNL d   1      -0.444   0.708   1.560  0.00  0.00     0.048 A 
ATOM      6  C5  UNL d   1      -0.022   1.815   0.822  0.00  0.00     0.003 A 
ATOM      7  I   UNL d   1      -2.216  -0.841   3.461  0.00  0.00    -0.146 I 
ENDROOT
TORSDOF 0
ENDMDL
