MODEL 1
REMARK minimizedAffinity 14.7546415
REMARK minimizedRMSD -1
REMARK  0 active torsions:
REMARK  status: ('A' for Active; 'I' for Inactive)
ROOT
ATOM      1  C   UNL d   1       0.329   3.885  -1.156  0.00  0.00     0.023 A 
ATOM      2  C1  UNL d   1      -0.334   4.985  -1.700  0.00  0.00     0.003 A 
ATOM      3  C2  UNL d   1      -1.395   5.574  -1.009  0.00  0.00     0.048 A 
ATOM      4  C3  UNL d   1      -1.788   5.058   0.225  0.00  0.00     0.023 A 
ATOM      5  C4  UNL d   1      -1.127   3.958   0.774  0.00  0.00     0.048 A 
ATOM      6  C5  UNL d   1      -0.067   3.372   0.080  0.00  0.00     0.003 A 
ATOM      7  I   UNL d   1      -3.367   5.933   1.255  0.00  0.00    -0.146 I 
ENDROOT
TORSDOF 0
ENDMDL
