MODEL 1
REMARK minimizedAffinity 4.94950867
REMARK minimizedRMSD -1
REMARK  0 active torsions:
REMARK  status: ('A' for Active; 'I' for Inactive)
ROOT
ATOM      1  C   UNL d   1      -0.936   1.826   1.582  0.00  0.00     0.023 A 
ATOM      2  C1  UNL d   1      -2.238   1.457   1.923  0.00  0.00     0.003 A 
ATOM      3  C2  UNL d   1      -2.467   0.279   2.636  0.00  0.00     0.048 A 
ATOM      4  C3  UNL d   1      -1.390  -0.525   3.007  0.00  0.00     0.023 A 
ATOM      5  C4  UNL d   1      -0.086  -0.160   2.669  0.00  0.00     0.048 A 
ATOM      6  C5  UNL d   1       0.138   1.018   1.955  0.00  0.00     0.003 A 
ATOM      7  I   UNL d   1      -1.729  -2.280   4.069  0.00  0.00    -0.146 I 
ENDROOT
TORSDOF 0
ENDMDL
