MODEL 1
REMARK minimizedAffinity -0.378448337
REMARK minimizedRMSD -1
REMARK  0 active torsions:
REMARK  status: ('A' for Active; 'I' for Inactive)
ROOT
ATOM      1  C   UNL d   1       0.153   3.966  -1.284  0.00  0.00     0.023 A 
ATOM      2  C1  UNL d   1      -0.358   2.672  -1.384  0.00  0.00     0.003 A 
ATOM      3  C2  UNL d   1      -0.646   1.943  -0.229  0.00  0.00     0.048 A 
ATOM      4  C3  UNL d   1      -0.423   2.514   1.024  0.00  0.00     0.023 A 
ATOM      5  C4  UNL d   1       0.088   3.809   1.129  0.00  0.00     0.048 A 
ATOM      6  C5  UNL d   1       0.376   4.534  -0.029  0.00  0.00     0.003 A 
ATOM      7  I   UNL d   1      -0.852   1.430   2.744  0.00  0.00    -0.146 I 
ENDROOT
TORSDOF 0
ENDMDL
