MODEL 1
REMARK minimizedAffinity -4.3833499
REMARK minimizedRMSD -1
REMARK  0 active torsions:
REMARK  status: ('A' for Active; 'I' for Inactive)
ROOT
ATOM      1  C   UNL d   1      -0.450   1.637   3.136  0.00  0.00     0.023 A 
ATOM      2  C1  UNL d   1      -1.227   1.615   1.978  0.00  0.00     0.003 A 
ATOM      3  C2  UNL d   1      -0.981   2.531   0.954  0.00  0.00     0.048 A 
ATOM      4  C3  UNL d   1       0.045   3.466   1.093  0.00  0.00     0.023 A 
ATOM      5  C4  UNL d   1       0.826   3.491   2.250  0.00  0.00     0.048 A 
ATOM      6  C5  UNL d   1       0.575   2.573   3.272  0.00  0.00     0.003 A 
ATOM      7  I   UNL d   1       0.413   4.830  -0.431  0.00  0.00    -0.146 I 
ENDROOT
TORSDOF 0
ENDMDL
