MODEL 1
REMARK minimizedAffinity 14.9564009
REMARK minimizedRMSD -1
REMARK  2 active torsions:
REMARK  status: ('A' for Active; 'I' for Inactive)
REMARK    1  A    between atoms: C2'_3  and  C1'_4 
REMARK    2  A    between atoms: C1'_4  and  C1_5 
ROOT
ATOM      1  C1  I4B d   1      -3.570   1.918   3.710  0.00  0.00    -0.075 A 
ATOM      2  C2  I4B d   1      -3.034   1.907   4.974  0.00  0.00     0.003 A 
ATOM      3  C3  I4B d   1      -3.611   2.695   5.999  0.00  0.00     0.002 A 
ATOM      4  C4  I4B d   1      -4.684   3.512   5.707  0.00  0.00    -0.004 A 
ATOM      5  C5  I4B d   1      -5.240   3.505   4.430  0.00  0.00     0.002 A 
ATOM      6  C6  I4B d   1      -4.687   2.694   3.429  0.00  0.00     0.003 A 
ENDROOT
BRANCH   1   7
ATOM      7  C1' I4B d   1      -2.915   1.100   2.643  0.00  0.00     0.060 C 
BRANCH   7   8
ATOM      8  C2' I4B d   1      -1.635   1.801   2.236  0.00  0.00    -0.013 C 
ATOM      9  C4' I4B d   1      -1.783   3.297   2.318  0.00  0.00     0.013 C 
ATOM     10  C3' I4B d   1      -0.536   1.315   3.133  0.00  0.00     0.013 C 
ENDBRANCH   7   8
ENDBRANCH   1   7
TORSDOF 2
ENDMDL
