MODEL 1
REMARK minimizedAffinity -2.58572555
REMARK minimizedRMSD -1
REMARK  2 active torsions:
REMARK  status: ('A' for Active; 'I' for Inactive)
REMARK    1  A    between atoms: C2'_3  and  C1'_4 
REMARK    2  A    between atoms: C1'_4  and  C1_5 
ROOT
ATOM      1  C1  I4B d   1       3.529  -4.101  -1.160  0.00  0.00    -0.075 A 
ATOM      2  C2  I4B d   1       2.402  -3.327  -1.286  0.00  0.00     0.003 A 
ATOM      3  C3  I4B d   1       1.958  -2.917  -2.566  0.00  0.00     0.002 A 
ATOM      4  C4  I4B d   1       2.694  -3.260  -3.682  0.00  0.00    -0.004 A 
ATOM      5  C5  I4B d   1       3.823  -4.064  -3.555  0.00  0.00     0.002 A 
ATOM      6  C6  I4B d   1       4.236  -4.498  -2.287  0.00  0.00     0.003 A 
ENDROOT
BRANCH   1   7
ATOM      7  C1' I4B d   1       3.988  -4.488   0.211  0.00  0.00     0.060 C 
BRANCH   7   8
ATOM      8  C2' I4B d   1       5.502  -4.437   0.227  0.00  0.00    -0.013 C 
ATOM      9  C4' I4B d   1       5.997  -3.117   0.756  0.00  0.00     0.013 C 
ATOM     10  C3' I4B d   1       5.994  -5.577   1.069  0.00  0.00     0.013 C 
ENDBRANCH   7   8
ENDBRANCH   1   7
TORSDOF 2
ENDMDL
