MODEL 1
REMARK minimizedAffinity 5.81820202
REMARK minimizedRMSD -1
REMARK  2 active torsions:
REMARK  status: ('A' for Active; 'I' for Inactive)
REMARK    1  A    between atoms: C2'_3  and  C1'_4 
REMARK    2  A    between atoms: C1'_4  and  C1_5 
ROOT
ATOM      1  C1  I4B d   1       2.085  -1.152  -1.547  0.00  0.00    -0.075 A 
ATOM      2  C2  I4B d   1       2.353   0.172  -1.790  0.00  0.00     0.003 A 
ATOM      3  C3  I4B d   1       3.537   0.763  -1.285  0.00  0.00     0.002 A 
ATOM      4  C4  I4B d   1       4.393   0.012  -0.506  0.00  0.00    -0.004 A 
ATOM      5  C5  I4B d   1       4.130  -1.336  -0.280  0.00  0.00     0.002 A 
ATOM      6  C6  I4B d   1       2.975  -1.926  -0.814  0.00  0.00     0.003 A 
ENDROOT
BRANCH   1   7
ATOM      7  C1' I4B d   1       0.809  -1.736  -2.068  0.00  0.00     0.060 C 
BRANCH   7   8
ATOM      8  C2' I4B d   1       0.631  -3.103  -1.440  0.00  0.00    -0.013 C 
ATOM      9  C4' I4B d   1       0.568  -3.010   0.062  0.00  0.00     0.013 C 
ATOM     10  C3' I4B d   1      -0.621  -3.710  -1.998  0.00  0.00     0.013 C 
ENDBRANCH   7   8
ENDBRANCH   1   7
TORSDOF 2
ENDMDL
