MODEL 1
REMARK minimizedAffinity 9.22923565
REMARK minimizedRMSD -1
REMARK  2 active torsions:
REMARK  status: ('A' for Active; 'I' for Inactive)
REMARK    1  A    between atoms: C2'_3  and  C1'_4 
REMARK    2  A    between atoms: C1'_4  and  C1_5 
ROOT
ATOM      1  C1  I4B d   1       0.995  -1.133  -2.005  0.00  0.00    -0.075 A 
ATOM      2  C2  I4B d   1       1.293  -0.053  -2.798  0.00  0.00     0.003 A 
ATOM      3  C3  I4B d   1       2.453   0.719  -2.544  0.00  0.00     0.002 A 
ATOM      4  C4  I4B d   1       3.253   0.408  -1.464  0.00  0.00    -0.004 A 
ATOM      5  C5  I4B d   1       2.962  -0.701  -0.675  0.00  0.00     0.002 A 
ATOM      6  C6  I4B d   1       1.833  -1.484  -0.954  0.00  0.00     0.003 A 
ENDROOT
BRANCH   1   7
ATOM      7  C1' I4B d   1      -0.255  -1.907  -2.281  0.00  0.00     0.060 C 
BRANCH   7   8
ATOM      8  C2' I4B d   1      -0.071  -3.305  -1.728  0.00  0.00    -0.013 C 
ATOM      9  C4' I4B d   1       0.134  -3.279  -0.236  0.00  0.00     0.013 C 
ATOM     10  C3' I4B d   1      -1.281  -4.111  -2.094  0.00  0.00     0.013 C 
ENDBRANCH   7   8
ENDBRANCH   1   7
TORSDOF 2
ENDMDL
