MODEL 1
REMARK minimizedAffinity -1.12616467
REMARK minimizedRMSD -1
REMARK  2 active torsions:
REMARK  status: ('A' for Active; 'I' for Inactive)
REMARK    1  A    between atoms: C2'_3  and  C1'_4 
REMARK    2  A    between atoms: C1'_4  and  C1_5 
ROOT
ATOM      1  C1  I4B d   1       1.177   2.801  -0.775  0.00  0.00    -0.075 A 
ATOM      2  C2  I4B d   1       1.869   3.065  -1.931  0.00  0.00     0.003 A 
ATOM      3  C3  I4B d   1       2.584   2.033  -2.586  0.00  0.00     0.002 A 
ATOM      4  C4  I4B d   1       2.622   0.772  -2.027  0.00  0.00    -0.004 A 
ATOM      5  C5  I4B d   1       1.901   0.500  -0.867  0.00  0.00     0.002 A 
ATOM      6  C6  I4B d   1       1.164   1.518  -0.244  0.00  0.00     0.003 A 
ENDROOT
BRANCH   1   7
ATOM      7  C1' I4B d   1       0.460   3.922  -0.092  0.00  0.00     0.060 C 
BRANCH   7   8
ATOM      8  C2' I4B d   1       0.806   5.207  -0.817  0.00  0.00    -0.013 C 
ATOM      9  C4' I4B d   1      -0.433   5.996  -1.148  0.00  0.00     0.013 C 
ATOM     10  C3' I4B d   1       1.733   5.997   0.058  0.00  0.00     0.013 C 
ENDBRANCH   7   8
ENDBRANCH   1   7
TORSDOF 2
ENDMDL
