MODEL 1
REMARK minimizedAffinity 2.77468753
REMARK minimizedRMSD -1
REMARK  2 active torsions:
REMARK  status: ('A' for Active; 'I' for Inactive)
REMARK    1  A    between atoms: C2'_3  and  C1'_4 
REMARK    2  A    between atoms: C1'_4  and  C1_5 
ROOT
ATOM      1  C1  I4B d   1       0.757   3.326  -0.425  0.00  0.00    -0.075 A 
ATOM      2  C2  I4B d   1      -0.575   3.649  -0.356  0.00  0.00     0.003 A 
ATOM      3  C3  I4B d   1      -0.979   5.006  -0.324  0.00  0.00     0.002 A 
ATOM      4  C4  I4B d   1      -0.021   5.999  -0.312  0.00  0.00    -0.004 A 
ATOM      5  C5  I4B d   1       1.328   5.670  -0.405  0.00  0.00     0.002 A 
ATOM      6  C6  I4B d   1       1.719   4.325  -0.475  0.00  0.00     0.003 A 
ENDROOT
BRANCH   1   7
ATOM      7  C1' I4B d   1       1.149   1.882  -0.424  0.00  0.00     0.060 C 
BRANCH   7   8
ATOM      8  C2' I4B d   1       1.892   1.599  -1.714  0.00  0.00    -0.013 C 
ATOM      9  C4' I4B d   1       2.189   0.130  -1.861  0.00  0.00     0.013 C 
ATOM     10  C3' I4B d   1       1.051   2.098  -2.851  0.00  0.00     0.013 C 
ENDBRANCH   7   8
ENDBRANCH   1   7
TORSDOF 2
ENDMDL
