MODEL 1
REMARK minimizedAffinity 11.1874619
REMARK minimizedRMSD -1
REMARK  2 active torsions:
REMARK  status: ('A' for Active; 'I' for Inactive)
REMARK    1  A    between atoms: C2'_3  and  C1'_4 
REMARK    2  A    between atoms: C1'_4  and  C1_5 
ROOT
ATOM      1  C1  I4B d   1       2.402   2.459  -2.250  0.00  0.00    -0.075 A 
ATOM      2  C2  I4B d   1       1.589   1.933  -3.222  0.00  0.00     0.003 A 
ATOM      3  C3  I4B d   1       1.387   0.534  -3.303  0.00  0.00     0.002 A 
ATOM      4  C4  I4B d   1       2.053  -0.300  -2.428  0.00  0.00    -0.004 A 
ATOM      5  C5  I4B d   1       2.859   0.237  -1.428  0.00  0.00     0.002 A 
ATOM      6  C6  I4B d   1       3.025   1.626  -1.330  0.00  0.00     0.003 A 
ENDROOT
BRANCH   1   7
ATOM      7  C1' I4B d   1       2.619   3.939  -2.214  0.00  0.00     0.060 C 
BRANCH   7   8
ATOM      8  C2' I4B d   1       1.568   4.543  -1.306  0.00  0.00    -0.013 C 
ATOM      9  C4' I4B d   1       1.526   3.838   0.024  0.00  0.00     0.013 C 
ATOM     10  C3' I4B d   1       1.885   5.999  -1.136  0.00  0.00     0.013 C 
ENDBRANCH   7   8
ENDBRANCH   1   7
TORSDOF 2
ENDMDL
