MODEL 1
REMARK minimizedAffinity -0.201546401
REMARK minimizedRMSD -1
REMARK  2 active torsions:
REMARK  status: ('A' for Active; 'I' for Inactive)
REMARK    1  A    between atoms: C2'_3  and  C1'_4 
REMARK    2  A    between atoms: C1'_4  and  C1_5 
ROOT
ATOM      1  C1  I4B d   1       1.871   3.595  -1.418  0.00  0.00    -0.075 A 
ATOM      2  C2  I4B d   1       0.902   3.485  -0.452  0.00  0.00     0.003 A 
ATOM      3  C3  I4B d   1       0.293   4.646   0.082  0.00  0.00     0.002 A 
ATOM      4  C4  I4B d   1       0.716   5.891  -0.339  0.00  0.00    -0.004 A 
ATOM      5  C5  I4B d   1       1.682   6.000  -1.334  0.00  0.00     0.002 A 
ATOM      6  C6  I4B d   1       2.255   4.845  -1.887  0.00  0.00     0.003 A 
ENDROOT
BRANCH   1   7
ATOM      7  C1' I4B d   1       2.517   2.350  -1.937  0.00  0.00     0.060 C 
BRANCH   7   8
ATOM      8  C2' I4B d   1       2.074   1.195  -1.061  0.00  0.00    -0.013 C 
ATOM      9  C4' I4B d   1       2.092  -0.104  -1.822  0.00  0.00     0.013 C 
ATOM     10  C3' I4B d   1       2.987   1.139   0.127  0.00  0.00     0.013 C 
ENDBRANCH   7   8
ENDBRANCH   1   7
TORSDOF 2
ENDMDL
