MODEL 1
REMARK minimizedAffinity 4.16432238
REMARK minimizedRMSD -1
REMARK  2 active torsions:
REMARK  status: ('A' for Active; 'I' for Inactive)
REMARK    1  A    between atoms: C2'_3  and  C1'_4 
REMARK    2  A    between atoms: C1'_4  and  C1_5 
ROOT
ATOM      1  C1  I4B d   1      -4.128   3.266  -5.904  0.00  0.00    -0.075 A 
ATOM      2  C2  I4B d   1      -3.108   4.182  -5.832  0.00  0.00     0.003 A 
ATOM      3  C3  I4B d   1      -3.395   5.568  -5.823  0.00  0.00     0.002 A 
ATOM      4  C4  I4B d   1      -4.703   5.993  -5.937  0.00  0.00    -0.004 A 
ATOM      5  C5  I4B d   1      -5.737   5.063  -5.987  0.00  0.00     0.002 A 
ATOM      6  C6  I4B d   1      -5.449   3.690  -5.958  0.00  0.00     0.003 A 
ENDROOT
BRANCH   1   7
ATOM      7  C1' I4B d   1      -3.788   1.810  -5.945  0.00  0.00     0.060 C 
BRANCH   7   8
ATOM      8  C2' I4B d   1      -2.473   1.617  -5.216  0.00  0.00    -0.013 C 
ATOM      9  C4' I4B d   1      -1.468   2.664  -5.618  0.00  0.00     0.013 C 
ATOM     10  C3' I4B d   1      -2.749   1.669  -3.743  0.00  0.00     0.013 C 
ENDBRANCH   7   8
ENDBRANCH   1   7
TORSDOF 2
ENDMDL
