MODEL 1
REMARK minimizedAffinity 10.9192667
REMARK minimizedRMSD -1
REMARK  2 active torsions:
REMARK  status: ('A' for Active; 'I' for Inactive)
REMARK    1  A    between atoms: C2'_3  and  C1'_4 
REMARK    2  A    between atoms: C1'_4  and  C1_5 
ROOT
ATOM      1  C1  I4B d   1      -3.612  -3.429   2.773  0.00  0.00    -0.075 A 
ATOM      2  C2  I4B d   1      -3.539  -2.141   3.243  0.00  0.00     0.003 A 
ATOM      3  C3  I4B d   1      -4.713  -1.360   3.366  0.00  0.00     0.002 A 
ATOM      4  C4  I4B d   1      -5.924  -1.884   2.963  0.00  0.00    -0.004 A 
ATOM      5  C5  I4B d   1      -6.000  -3.197   2.508  0.00  0.00     0.002 A 
ATOM      6  C6  I4B d   1      -4.839  -3.979   2.424  0.00  0.00     0.003 A 
ENDROOT
BRANCH   1   7
ATOM      7  C1' I4B d   1      -2.348  -4.215   2.624  0.00  0.00     0.060 C 
BRANCH   7   8
ATOM      8  C2' I4B d   1      -2.633  -5.388   1.709  0.00  0.00    -0.013 C 
ATOM      9  C4' I4B d   1      -3.977  -6.000   2.009  0.00  0.00     0.013 C 
ATOM     10  C3' I4B d   1      -2.564  -4.899   0.293  0.00  0.00     0.013 C 
ENDBRANCH   7   8
ENDBRANCH   1   7
TORSDOF 2
ENDMDL
