MODEL 1
REMARK minimizedAffinity 9.53364849
REMARK minimizedRMSD -1
REMARK  2 active torsions:
REMARK  status: ('A' for Active; 'I' for Inactive)
REMARK    1  A    between atoms: C2'_3  and  C1'_4 
REMARK    2  A    between atoms: C1'_4  and  C1_5 
ROOT
ATOM      1  C1  I4B d   1      -1.353  -4.473  -0.768  0.00  0.00    -0.075 A 
ATOM      2  C2  I4B d   1      -2.486  -4.636  -0.010  0.00  0.00     0.003 A 
ATOM      3  C3  I4B d   1      -2.449  -4.399   1.386  0.00  0.00     0.002 A 
ATOM      4  C4  I4B d   1      -1.256  -4.053   1.986  0.00  0.00    -0.004 A 
ATOM      5  C5  I4B d   1      -0.114  -3.866   1.212  0.00  0.00     0.002 A 
ATOM      6  C6  I4B d   1      -0.165  -4.065  -0.175  0.00  0.00     0.003 A 
ENDROOT
BRANCH   1   7
ATOM      7  C1' I4B d   1      -1.419  -4.763  -2.234  0.00  0.00     0.060 C 
BRANCH   7   8
ATOM      8  C2' I4B d   1      -1.887  -3.505  -2.938  0.00  0.00    -0.013 C 
ATOM      9  C4' I4B d   1      -0.779  -2.489  -3.030  0.00  0.00     0.013 C 
ATOM     10  C3' I4B d   1      -2.380  -3.894  -4.300  0.00  0.00     0.013 C 
ENDBRANCH   7   8
ENDBRANCH   1   7
TORSDOF 2
ENDMDL
