MODEL 1
REMARK minimizedAffinity 15.1044912
REMARK minimizedRMSD -1
REMARK  2 active torsions:
REMARK  status: ('A' for Active; 'I' for Inactive)
REMARK    1  A    between atoms: C2'_3  and  C1'_4 
REMARK    2  A    between atoms: C1'_4  and  C1_5 
ROOT
ATOM      1  C1  I4B d   1      -0.857  -3.451   1.579  0.00  0.00    -0.075 A 
ATOM      2  C2  I4B d   1      -0.186  -2.777   2.569  0.00  0.00     0.003 A 
ATOM      3  C3  I4B d   1      -0.808  -2.542   3.819  0.00  0.00     0.002 A 
ATOM      4  C4  I4B d   1      -2.111  -2.950   4.017  0.00  0.00    -0.004 A 
ATOM      5  C5  I4B d   1      -2.782  -3.653   3.020  0.00  0.00     0.002 A 
ATOM      6  C6  I4B d   1      -2.147  -3.916   1.798  0.00  0.00     0.003 A 
ENDROOT
BRANCH   1   7
ATOM      7  C1' I4B d   1      -0.182  -3.654   0.260  0.00  0.00     0.060 C 
BRANCH   7   8
ATOM      8  C2' I4B d   1      -1.231  -4.101  -0.738  0.00  0.00    -0.013 C 
ATOM      9  C4' I4B d   1      -1.504  -3.029  -1.760  0.00  0.00     0.013 C 
ATOM     10  C3' I4B d   1      -0.743  -5.360  -1.391  0.00  0.00     0.013 C 
ENDBRANCH   7   8
ENDBRANCH   1   7
TORSDOF 2
ENDMDL
