MODEL 1
REMARK minimizedAffinity 9.22535038
REMARK minimizedRMSD -1
REMARK  2 active torsions:
REMARK  status: ('A' for Active; 'I' for Inactive)
REMARK    1  A    between atoms: C2'_3  and  C1'_4 
REMARK    2  A    between atoms: C1'_4  and  C1_5 
ROOT
ATOM      1  C1  I4B d   1       1.660   3.367  -1.505  0.00  0.00    -0.075 A 
ATOM      2  C2  I4B d   1       1.967   4.564  -2.103  0.00  0.00     0.003 A 
ATOM      3  C3  I4B d   1       2.002   5.755  -1.338  0.00  0.00     0.002 A 
ATOM      4  C4  I4B d   1       1.678   5.711   0.003  0.00  0.00    -0.004 A 
ATOM      5  C5  I4B d   1       1.390   4.493   0.612  0.00  0.00     0.002 A 
ATOM      6  C6  I4B d   1       1.393   3.311  -0.144  0.00  0.00     0.003 A 
ENDROOT
BRANCH   1   7
ATOM      7  C1' I4B d   1       1.599   2.134  -2.350  0.00  0.00     0.060 C 
BRANCH   7   8
ATOM      8  C2' I4B d   1       1.622   0.933  -1.426  0.00  0.00    -0.013 C 
ATOM      9  C4' I4B d   1       1.495  -0.353  -2.199  0.00  0.00     0.013 C 
ATOM     10  C3' I4B d   1       2.903   0.973  -0.648  0.00  0.00     0.013 C 
ENDBRANCH   7   8
ENDBRANCH   1   7
TORSDOF 2
ENDMDL
