MODEL 1
REMARK minimizedAffinity 0.151739076
REMARK minimizedRMSD -1
REMARK  1 active torsions:
REMARK  status: ('A' for Active; 'I' for Inactive)
REMARK    1  A    between atoms: N_2  and  C1_3 
ROOT
ATOM      1  C1  UNL d   1      -0.424  -0.828  -1.530  0.00  0.00     0.143 A 
ATOM      2  C2  UNL d   1       0.803  -0.167  -1.642  0.00  0.00    -0.057 A 
ATOM      3  C3  UNL d   1       1.729  -0.515  -2.633  0.00  0.00     0.033 A 
ATOM      4  C4  UNL d   1       1.453  -1.554  -3.516  0.00  0.00    -0.042 A 
ATOM      5  C5  UNL d   1       0.250  -2.242  -3.408  0.00  0.00     0.033 A 
ATOM      6  C6  UNL d   1      -0.673  -1.886  -2.420  0.00  0.00    -0.057 A 
ENDROOT
BRANCH   1   7
ATOM      7  N   UNL d   1      -1.344  -0.595  -0.505  0.00  0.00    -0.732 N 
ATOM      8  C   UNL d   1      -2.126   0.623  -0.479  0.00  0.00     0.284 C 
ATOM      9  H3  UNL d   1      -1.867  -1.430  -0.255  0.00  0.00     0.395 HD
ENDBRANCH   1   7
TORSDOF 1
ENDMDL
