MODEL 1
REMARK minimizedAffinity -3.38199234
REMARK minimizedRMSD -1
REMARK  1 active torsions:
REMARK  status: ('A' for Active; 'I' for Inactive)
REMARK    1  A    between atoms: N_2  and  C1_3 
ROOT
ATOM      1  C1  UNL d   1       0.475   0.762   1.598  0.00  0.00     0.143 A 
ATOM      2  C2  UNL d   1      -0.128   0.781   2.860  0.00  0.00    -0.057 A 
ATOM      3  C3  UNL d   1      -1.521   0.789   2.999  0.00  0.00     0.033 A 
ATOM      4  C4  UNL d   1      -2.338   0.807   1.874  0.00  0.00    -0.042 A 
ATOM      5  C5  UNL d   1      -1.761   0.813   0.609  0.00  0.00     0.033 A 
ATOM      6  C6  UNL d   1      -0.369   0.799   0.477  0.00  0.00    -0.057 A 
ENDROOT
BRANCH   1   7
ATOM      7  N   UNL d   1       1.854   0.853   1.393  0.00  0.00    -0.732 N 
ATOM      8  C   UNL d   1       2.426   2.003   0.726  0.00  0.00     0.284 C 
ATOM      9  H3  UNL d   1       2.388   0.530   2.197  0.00  0.00     0.395 HD
ENDBRANCH   1   7
TORSDOF 1
ENDMDL
