MODEL 1
REMARK minimizedAffinity -3.66552949
REMARK minimizedRMSD -1
REMARK  1 active torsions:
REMARK  status: ('A' for Active; 'I' for Inactive)
REMARK    1  A    between atoms: N_2  and  C1_3 
ROOT
ATOM      1  C1  UNL d   1      -0.213   0.020  -1.232  0.00  0.00     0.143 A 
ATOM      2  C2  UNL d   1      -1.587   0.274  -1.170  0.00  0.00    -0.057 A 
ATOM      3  C3  UNL d   1      -2.312   0.063   0.009  0.00  0.00     0.033 A 
ATOM      4  C4  UNL d   1      -1.678  -0.435   1.142  0.00  0.00    -0.042 A 
ATOM      5  C5  UNL d   1      -0.318  -0.718   1.096  0.00  0.00     0.033 A 
ATOM      6  C6  UNL d   1       0.402  -0.498  -0.082  0.00  0.00    -0.057 A 
ENDROOT
BRANCH   1   7
ATOM      7  N   UNL d   1       0.544   0.116  -2.403  0.00  0.00    -0.732 N 
ATOM      8  C   UNL d   1       0.703  -1.028  -3.274  0.00  0.00     0.284 C 
ATOM      9  H3  UNL d   1       0.390   0.994  -2.894  0.00  0.00     0.395 HD
ENDBRANCH   1   7
TORSDOF 1
ENDMDL
