MODEL 1
REMARK minimizedAffinity -4.69390821
REMARK minimizedRMSD -1
REMARK  1 active torsions:
REMARK  status: ('A' for Active; 'I' for Inactive)
REMARK    1  A    between atoms: N_2  and  C1_3 
ROOT
ATOM      1  C1  UNL d   1      -0.050   0.191   0.398  0.00  0.00     0.143 A 
ATOM      2  C2  UNL d   1       1.032   0.240   1.285  0.00  0.00    -0.057 A 
ATOM      3  C3  UNL d   1       0.898  -0.172   2.616  0.00  0.00     0.033 A 
ATOM      4  C4  UNL d   1      -0.332  -0.613   3.094  0.00  0.00    -0.042 A 
ATOM      5  C5  UNL d   1      -1.426  -0.646   2.237  0.00  0.00     0.033 A 
ATOM      6  C6  UNL d   1      -1.285  -0.241   0.907  0.00  0.00    -0.057 A 
ENDROOT
BRANCH   1   7
ATOM      7  N   UNL d   1      -0.005   0.678  -0.910  0.00  0.00    -0.732 N 
ATOM      8  C   UNL d   1       0.523  -0.137  -1.983  0.00  0.00     0.284 C 
ATOM      9  H3  UNL d   1      -0.842   1.201  -1.159  0.00  0.00     0.395 HD
ENDBRANCH   1   7
TORSDOF 1
ENDMDL
