MODEL 1
REMARK minimizedAffinity -4.07316303
REMARK minimizedRMSD -1
REMARK  1 active torsions:
REMARK  status: ('A' for Active; 'I' for Inactive)
REMARK    1  A    between atoms: N_2  and  C1_3 
ROOT
ATOM      1  C1  UNL d   1       0.893  -0.714  -0.099  0.00  0.00     0.143 A 
ATOM      2  C2  UNL d   1      -0.403  -0.206   0.041  0.00  0.00    -0.057 A 
ATOM      3  C3  UNL d   1      -0.847   0.327   1.257  0.00  0.00     0.033 A 
ATOM      4  C4  UNL d   1      -0.009   0.335   2.367  0.00  0.00    -0.042 A 
ATOM      5  C5  UNL d   1       1.275  -0.188   2.259  0.00  0.00     0.033 A 
ATOM      6  C6  UNL d   1       1.715  -0.713   1.040  0.00  0.00    -0.057 A 
ENDROOT
BRANCH   1   7
ATOM      7  N   UNL d   1       1.361  -1.346  -1.253  0.00  0.00    -0.732 N 
ATOM      8  C   UNL d   1       0.810  -1.015  -2.550  0.00  0.00     0.284 C 
ATOM      9  H3  UNL d   1       2.371  -1.465  -1.249  0.00  0.00     0.395 HD
ENDBRANCH   1   7
TORSDOF 1
ENDMDL
