MODEL 1
REMARK minimizedAffinity -1.24662995
REMARK minimizedRMSD -1
REMARK  1 active torsions:
REMARK  status: ('A' for Active; 'I' for Inactive)
REMARK    1  A    between atoms: N_2  and  C1_3 
ROOT
ATOM      1  C1  UNL d   1       0.173  -0.136  -1.860  0.00  0.00     0.143 A 
ATOM      2  C2  UNL d   1       0.456  -0.620  -0.579  0.00  0.00    -0.057 A 
ATOM      3  C3  UNL d   1      -0.295  -0.218   0.532  0.00  0.00     0.033 A 
ATOM      4  C4  UNL d   1      -1.328   0.702   0.384  0.00  0.00    -0.042 A 
ATOM      5  C5  UNL d   1      -1.611   1.216  -0.876  0.00  0.00     0.033 A 
ATOM      6  C6  UNL d   1      -0.861   0.805  -1.982  0.00  0.00    -0.057 A 
ENDROOT
BRANCH   1   7
ATOM      7  N   UNL d   1       0.946  -0.422  -2.988  0.00  0.00    -0.732 N 
ATOM      8  C   UNL d   1       0.785  -1.675  -3.694  0.00  0.00     0.284 C 
ATOM      9  H3  UNL d   1       1.061   0.386  -3.596  0.00  0.00     0.395 HD
ENDBRANCH   1   7
TORSDOF 1
ENDMDL
