MODEL 1
REMARK minimizedAffinity -1.58014095
REMARK minimizedRMSD -1
REMARK  1 active torsions:
REMARK  status: ('A' for Active; 'I' for Inactive)
REMARK    1  A    between atoms: N_2  and  C1_3 
ROOT
ATOM      1  C1  UNL d   1      -0.703   0.407   1.431  0.00  0.00     0.143 A 
ATOM      2  C2  UNL d   1      -1.218  -0.852   1.759  0.00  0.00    -0.057 A 
ATOM      3  C3  UNL d   1      -1.739  -1.115   3.032  0.00  0.00     0.033 A 
ATOM      4  C4  UNL d   1      -1.727  -0.127   4.012  0.00  0.00    -0.042 A 
ATOM      5  C5  UNL d   1      -1.197   1.123   3.716  0.00  0.00     0.033 A 
ATOM      6  C6  UNL d   1      -0.684   1.381   2.441  0.00  0.00    -0.057 A 
ENDROOT
BRANCH   1   7
ATOM      7  N   UNL d   1      -0.081   0.700   0.215  0.00  0.00    -0.732 N 
ATOM      8  C   UNL d   1      -0.854   0.789  -1.005  0.00  0.00     0.284 C 
ATOM      9  H3  UNL d   1       0.634   1.418   0.308  0.00  0.00     0.395 HD
ENDBRANCH   1   7
TORSDOF 1
ENDMDL
