MODEL 1
REMARK minimizedAffinity -4.36808014
REMARK minimizedRMSD -1
REMARK  1 active torsions:
REMARK  status: ('A' for Active; 'I' for Inactive)
REMARK    1  A    between atoms: N_2  and  C1_3 
ROOT
ATOM      1  C1  UNL d   1      -0.160   0.480   0.490  0.00  0.00     0.143 A 
ATOM      2  C2  UNL d   1       1.037   1.161   0.247  0.00  0.00    -0.057 A 
ATOM      3  C3  UNL d   1       1.850   1.599   1.300  0.00  0.00     0.033 A 
ATOM      4  C4  UNL d   1       1.463   1.388   2.619  0.00  0.00    -0.042 A 
ATOM      5  C5  UNL d   1       0.265   0.734   2.884  0.00  0.00     0.033 A 
ATOM      6  C6  UNL d   1      -0.539   0.293   1.828  0.00  0.00    -0.057 A 
ENDROOT
BRANCH   1   7
ATOM      7  N   UNL d   1      -1.059   0.106  -0.512  0.00  0.00    -0.732 N 
ATOM      8  C   UNL d   1      -2.420   0.597  -0.501  0.00  0.00     0.284 C 
ATOM      9  H3  UNL d   1      -0.629   0.092  -1.434  0.00  0.00     0.395 HD
ENDBRANCH   1   7
TORSDOF 1
ENDMDL
