MODEL 1
REMARK minimizedAffinity -5.12919903
REMARK minimizedRMSD -1
REMARK  1 active torsions:
REMARK  status: ('A' for Active; 'I' for Inactive)
REMARK    1  A    between atoms: N_2  and  C1_3 
ROOT
ATOM      1  C1  UNL d   1      -0.942  -0.511   0.674  0.00  0.00     0.143 A 
ATOM      2  C2  UNL d   1      -0.339  -0.541   1.936  0.00  0.00    -0.057 A 
ATOM      3  C3  UNL d   1      -1.057  -0.214   3.092  0.00  0.00     0.033 A 
ATOM      4  C4  UNL d   1      -2.388   0.179   3.003  0.00  0.00    -0.042 A 
ATOM      5  C5  UNL d   1      -3.002   0.241   1.757  0.00  0.00     0.033 A 
ATOM      6  C6  UNL d   1      -2.281  -0.094   0.607  0.00  0.00    -0.057 A 
ENDROOT
BRANCH   1   7
ATOM      7  N   UNL d   1      -0.255  -0.730  -0.522  0.00  0.00    -0.732 N 
ATOM      8  C   UNL d   1      -0.000   0.362  -1.437  0.00  0.00     0.284 C 
ATOM      9  H3  UNL d   1       0.529  -1.368  -0.409  0.00  0.00     0.395 HD
ENDBRANCH   1   7
TORSDOF 1
ENDMDL
