MODEL 1
REMARK minimizedAffinity 6.78425884
REMARK minimizedRMSD -1
REMARK  1 active torsions:
REMARK  status: ('A' for Active; 'I' for Inactive)
REMARK    1  A    between atoms: N_2  and  C1_3 
ROOT
ATOM      1  C1  UNL d   1      -0.780   3.377   3.022  0.00  0.00     0.143 A 
ATOM      2  C2  UNL d   1       0.182   2.984   2.085  0.00  0.00    -0.057 A 
ATOM      3  C3  UNL d   1       0.000   3.215   0.717  0.00  0.00     0.033 A 
ATOM      4  C4  UNL d   1      -1.165   3.820   0.256  0.00  0.00    -0.042 A 
ATOM      5  C5  UNL d   1      -2.146   4.197   1.167  0.00  0.00     0.033 A 
ATOM      6  C6  UNL d   1      -1.955   3.969   2.533  0.00  0.00    -0.057 A 
ENDROOT
BRANCH   1   7
ATOM      7  N   UNL d   1      -0.702   3.087   4.386  0.00  0.00    -0.732 N 
ATOM      8  C   UNL d   1       0.410   2.326   4.915  0.00  0.00     0.284 C 
ATOM      9  H3  UNL d   1      -0.981   3.874   4.967  0.00  0.00     0.395 HD
ENDBRANCH   1   7
TORSDOF 1
ENDMDL
