MODEL 1
REMARK minimizedAffinity 4.19865179
REMARK minimizedRMSD -1
REMARK  1 active torsions:
REMARK  status: ('A' for Active; 'I' for Inactive)
REMARK    1  A    between atoms: N_2  and  C1_3 
ROOT
ATOM      1  C1  UNL d   1       4.151   3.809   4.734  0.00  0.00     0.143 A 
ATOM      2  C2  UNL d   1       4.348   4.662   3.642  0.00  0.00    -0.057 A 
ATOM      3  C3  UNL d   1       5.244   5.736   3.712  0.00  0.00     0.033 A 
ATOM      4  C4  UNL d   1       5.940   5.993   4.889  0.00  0.00    -0.042 A 
ATOM      5  C5  UNL d   1       5.742   5.173   5.994  0.00  0.00     0.033 A 
ATOM      6  C6  UNL d   1       4.851   4.099   5.916  0.00  0.00    -0.057 A 
ENDROOT
BRANCH   1   7
ATOM      7  N   UNL d   1       3.202   2.785   4.759  0.00  0.00    -0.732 N 
ATOM      8  C   UNL d   1       2.894   2.095   5.994  0.00  0.00     0.284 C 
ATOM      9  H3  UNL d   1       2.388   2.995   4.186  0.00  0.00     0.395 HD
ENDBRANCH   1   7
TORSDOF 1
ENDMDL
