MODEL 1
REMARK minimizedAffinity -0.408302784
REMARK minimizedRMSD -1
REMARK  1 active torsions:
REMARK  status: ('A' for Active; 'I' for Inactive)
REMARK    1  A    between atoms: N_2  and  C1_3 
ROOT
ATOM      1  C1  UNL d   1       3.738   5.374   5.061  0.00  0.00     0.143 A 
ATOM      2  C2  UNL d   1       2.608   5.973   4.494  0.00  0.00    -0.057 A 
ATOM      3  C3  UNL d   1       1.879   5.336   3.483  0.00  0.00     0.033 A 
ATOM      4  C4  UNL d   1       2.286   4.097   2.999  0.00  0.00    -0.042 A 
ATOM      5  C5  UNL d   1       3.421   3.494   3.530  0.00  0.00     0.033 A 
ATOM      6  C6  UNL d   1       4.141   4.133   4.544  0.00  0.00    -0.057 A 
ENDROOT
BRANCH   1   7
ATOM      7  N   UNL d   1       4.562   6.000   6.000  0.00  0.00    -0.732 N 
ATOM      8  C   UNL d   1       6.000   5.997   5.837  0.00  0.00     0.284 C 
ATOM      9  H3  UNL d   1       4.182   6.888   6.320  0.00  0.00     0.395 HD
ENDBRANCH   1   7
TORSDOF 1
ENDMDL
