MODEL 1
REMARK minimizedAffinity 4.62034988
REMARK minimizedRMSD -1
REMARK  1 active torsions:
REMARK  status: ('A' for Active; 'I' for Inactive)
REMARK    1  A    between atoms: N_2  and  C1_3 
ROOT
ATOM      1  C1  UNL d   1       5.072   1.933  -1.834  0.00  0.00     0.143 A 
ATOM      2  C2  UNL d   1       5.060   1.970  -0.435  0.00  0.00    -0.057 A 
ATOM      3  C3  UNL d   1       4.090   1.281   0.302  0.00  0.00     0.033 A 
ATOM      4  C4  UNL d   1       3.092   0.564  -0.351  0.00  0.00    -0.042 A 
ATOM      5  C5  UNL d   1       3.069   0.533  -1.740  0.00  0.00     0.033 A 
ATOM      6  C6  UNL d   1       4.046   1.218  -2.470  0.00  0.00    -0.057 A 
ENDROOT
BRANCH   1   7
ATOM      7  N   UNL d   1       5.951   2.677  -2.624  0.00  0.00    -0.732 N 
ATOM      8  C   UNL d   1       5.862   4.121  -2.668  0.00  0.00     0.284 C 
ATOM      9  H3  UNL d   1       6.903   2.321  -2.587  0.00  0.00     0.395 HD
ENDBRANCH   1   7
TORSDOF 1
ENDMDL
