MODEL 1
REMARK minimizedAffinity 3.00485301
REMARK minimizedRMSD -1
REMARK  1 active torsions:
REMARK  status: ('A' for Active; 'I' for Inactive)
REMARK    1  A    between atoms: N_2  and  C1_3 
ROOT
ATOM      1  C1  UNL d   1       4.939   1.820  -2.053  0.00  0.00     0.143 A 
ATOM      2  C2  UNL d   1       3.926   1.069  -2.660  0.00  0.00    -0.057 A 
ATOM      3  C3  UNL d   1       3.006   0.340  -1.896  0.00  0.00     0.033 A 
ATOM      4  C4  UNL d   1       3.101   0.327  -0.508  0.00  0.00    -0.042 A 
ATOM      5  C5  UNL d   1       4.115   1.046   0.115  0.00  0.00     0.033 A 
ATOM      6  C6  UNL d   1       5.026   1.777  -0.653  0.00  0.00    -0.057 A 
ENDROOT
BRANCH   1   7
ATOM      7  N   UNL d   1       5.943   2.485  -2.761  0.00  0.00    -0.732 N 
ATOM      8  C   UNL d   1       5.792   3.879  -3.120  0.00  0.00     0.284 C 
ATOM      9  H3  UNL d   1       6.875   2.238  -2.436  0.00  0.00     0.395 HD
ENDBRANCH   1   7
TORSDOF 1
ENDMDL
