MODEL 1
REMARK minimizedAffinity 2.45067167
REMARK minimizedRMSD -1
REMARK  1 active torsions:
REMARK  status: ('A' for Active; 'I' for Inactive)
REMARK    1  A    between atoms: N_2  and  C1_3 
ROOT
ATOM      1  C1  UNL d   1       5.173   1.763  -2.221  0.00  0.00     0.143 A 
ATOM      2  C2  UNL d   1       5.485   1.730  -0.858  0.00  0.00    -0.057 A 
ATOM      3  C3  UNL d   1       4.757   0.932   0.034  0.00  0.00     0.033 A 
ATOM      4  C4  UNL d   1       3.683   0.174  -0.419  0.00  0.00    -0.042 A 
ATOM      5  C5  UNL d   1       3.339   0.212  -1.766  0.00  0.00     0.033 A 
ATOM      6  C6  UNL d   1       4.074   1.004  -2.653  0.00  0.00    -0.057 A 
ENDROOT
BRANCH   1   7
ATOM      7  N   UNL d   1       5.796   2.610  -3.141  0.00  0.00    -0.732 N 
ATOM      8  C   UNL d   1       5.422   4.006  -3.228  0.00  0.00     0.284 C 
ATOM      9  H3  UNL d   1       6.797   2.443  -3.207  0.00  0.00     0.395 HD
ENDBRANCH   1   7
TORSDOF 1
ENDMDL
