MODEL 1
REMARK minimizedAffinity 7.68299246
REMARK minimizedRMSD -1
REMARK  0 active torsions:
REMARK  status: ('A' for Active; 'I' for Inactive)
ROOT
ATOM      1  C   UNL d   1       0.654   6.000  -1.853  0.00  0.00     0.172 C 
ATOM      2  N   UNL d   1       0.683   5.410  -0.536  0.00  0.00    -0.070 N 
ATOM      3  C1  UNL d   1       1.207   4.184  -0.222  0.00  0.00    -0.004 A 
ATOM      4  C2  UNL d   1       1.042   3.989   1.133  0.00  0.00    -0.047 A 
ATOM      5  C3  UNL d   1       0.396   5.137   1.650  0.00  0.00    -0.047 A 
ATOM      6  C4  UNL d   1       0.186   6.000   0.596  0.00  0.00    -0.004 A 
ENDROOT
TORSDOF 0
ENDMDL
