MODEL 1
REMARK minimizedAffinity 7.26626444
REMARK minimizedRMSD -1
REMARK  0 active torsions:
REMARK  status: ('A' for Active; 'I' for Inactive)
ROOT
ATOM      1  C   UNL d   1       3.067  -4.274  -0.350  0.00  0.00     0.172 C 
ATOM      2  N   UNL d   1       2.486  -3.069  -0.895  0.00  0.00    -0.070 N 
ATOM      3  C1  UNL d   1       1.757  -2.987  -2.051  0.00  0.00    -0.004 A 
ATOM      4  C2  UNL d   1       1.383  -1.672  -2.222  0.00  0.00    -0.047 A 
ATOM      5  C3  UNL d   1       1.905  -0.938  -1.131  0.00  0.00    -0.047 A 
ATOM      6  C4  UNL d   1       2.583  -1.828  -0.325  0.00  0.00    -0.004 A 
ENDROOT
TORSDOF 0
ENDMDL
