MODEL 1
REMARK minimizedAffinity 7.79474258
REMARK minimizedRMSD -1
REMARK  0 active torsions:
REMARK  status: ('A' for Active; 'I' for Inactive)
ROOT
ATOM      1  C   UNL d   1      -1.963  -3.810  -3.981  0.00  0.00     0.172 C 
ATOM      2  N   UNL d   1      -3.099  -3.460  -4.802  0.00  0.00    -0.070 N 
ATOM      3  C1  UNL d   1      -4.058  -4.329  -5.250  0.00  0.00    -0.004 A 
ATOM      4  C2  UNL d   1      -4.964  -3.608  -5.997  0.00  0.00    -0.047 A 
ATOM      5  C3  UNL d   1      -4.534  -2.260  -6.000  0.00  0.00    -0.047 A 
ATOM      6  C4  UNL d   1      -3.377  -2.197  -5.252  0.00  0.00    -0.004 A 
ENDROOT
TORSDOF 0
ENDMDL
