MODEL 1
REMARK minimizedAffinity 0.566859603
REMARK minimizedRMSD -1
REMARK  0 active torsions:
REMARK  status: ('A' for Active; 'I' for Inactive)
ROOT
ATOM      1  C   UNL d   1      -5.268  -1.479  -5.994  0.00  0.00     0.172 C 
ATOM      2  N   UNL d   1      -4.255  -2.379  -5.495  0.00  0.00    -0.070 N 
ATOM      3  C1  UNL d   1      -3.405  -2.124  -4.452  0.00  0.00    -0.004 A 
ATOM      4  C2  UNL d   1      -2.595  -3.227  -4.288  0.00  0.00    -0.047 A 
ATOM      5  C3  UNL d   1      -2.972  -4.178  -5.267  0.00  0.00    -0.047 A 
ATOM      6  C4  UNL d   1      -4.002  -3.627  -6.000  0.00  0.00    -0.004 A 
ENDROOT
TORSDOF 0
ENDMDL
