MODEL 1
REMARK minimizedAffinity 12.3601294
REMARK minimizedRMSD -1
REMARK  0 active torsions:
REMARK  status: ('A' for Active; 'I' for Inactive)
ROOT
ATOM      1  C   UNL d   1       3.368  -6.000  -0.162  0.00  0.00     0.172 C 
ATOM      2  N   UNL d   1       3.289  -4.562  -0.053  0.00  0.00    -0.070 N 
ATOM      3  C1  UNL d   1       2.160  -3.809  -0.230  0.00  0.00    -0.004 A 
ATOM      4  C2  UNL d   1       2.500  -2.487  -0.040  0.00  0.00    -0.047 A 
ATOM      5  C3  UNL d   1       3.882  -2.444   0.259  0.00  0.00    -0.047 A 
ATOM      6  C4  UNL d   1       4.346  -3.743   0.245  0.00  0.00    -0.004 A 
ENDROOT
TORSDOF 0
ENDMDL
