MODEL 1
REMARK minimizedAffinity 5.463974
REMARK minimizedRMSD -1
REMARK  0 active torsions:
REMARK  status: ('A' for Active; 'I' for Inactive)
ROOT
ATOM      1  C   UNL d   1       2.738  -3.222  -0.317  0.00  0.00     0.172 C 
ATOM      2  N   UNL d   1       2.386  -1.940  -0.882  0.00  0.00    -0.070 N 
ATOM      3  C1  UNL d   1       1.707  -1.744  -2.055  0.00  0.00    -0.004 A 
ATOM      4  C2  UNL d   1       1.571  -0.386  -2.242  0.00  0.00    -0.047 A 
ATOM      5  C3  UNL d   1       2.190   0.257  -1.144  0.00  0.00    -0.047 A 
ATOM      6  C4  UNL d   1       2.687  -0.729  -0.318  0.00  0.00    -0.004 A 
ENDROOT
TORSDOF 0
ENDMDL
