MODEL 1
REMARK minimizedAffinity 4.73238277
REMARK minimizedRMSD -1
REMARK  0 active torsions:
REMARK  status: ('A' for Active; 'I' for Inactive)
ROOT
ATOM      1  C   UNL d   1       2.859  -3.399  -0.304  0.00  0.00     0.172 C 
ATOM      2  N   UNL d   1       2.074  -3.060  -1.467  0.00  0.00    -0.070 N 
ATOM      3  C1  UNL d   1       1.930  -1.805  -1.996  0.00  0.00    -0.004 A 
ATOM      4  C2  UNL d   1       1.107  -1.902  -3.097  0.00  0.00    -0.047 A 
ATOM      5  C3  UNL d   1       0.743  -3.263  -3.235  0.00  0.00    -0.047 A 
ATOM      6  C4  UNL d   1       1.355  -3.957  -2.213  0.00  0.00    -0.004 A 
ENDROOT
TORSDOF 0
ENDMDL
