MODEL 1
REMARK minimizedAffinity -0.98639518
REMARK minimizedRMSD -1
REMARK  0 active torsions:
REMARK  status: ('A' for Active; 'I' for Inactive)
ROOT
ATOM      1  C   UNL d   1       3.632  -3.068  -0.289  0.00  0.00     0.172 C 
ATOM      2  N   UNL d   1       2.987  -1.962  -0.958  0.00  0.00    -0.070 N 
ATOM      3  C1  UNL d   1       2.309  -2.034  -2.145  0.00  0.00    -0.004 A 
ATOM      4  C2  UNL d   1       1.845  -0.771  -2.443  0.00  0.00    -0.047 A 
ATOM      5  C3  UNL d   1       2.260   0.090  -1.398  0.00  0.00    -0.047 A 
ATOM      6  C4  UNL d   1       2.965  -0.674  -0.493  0.00  0.00    -0.004 A 
ENDROOT
TORSDOF 0
ENDMDL
