MODEL 1
REMARK minimizedAffinity 3.96037316
REMARK minimizedRMSD -1
REMARK  0 active torsions:
REMARK  status: ('A' for Active; 'I' for Inactive)
ROOT
ATOM      1  C   UNL d   1      -3.552   5.890  -6.000  0.00  0.00     0.172 C 
ATOM      2  N   UNL d   1      -2.855   4.774  -5.405  0.00  0.00    -0.070 N 
ATOM      3  C1  UNL d   1      -2.638   3.560  -6.000  0.00  0.00    -0.004 A 
ATOM      4  C2  UNL d   1      -1.941   2.772  -5.109  0.00  0.00    -0.047 A 
ATOM      5  C3  UNL d   1      -1.732   3.540  -3.939  0.00  0.00    -0.047 A 
ATOM      6  C4  UNL d   1      -2.308   4.775  -4.149  0.00  0.00    -0.004 A 
ENDROOT
TORSDOF 0
ENDMDL
