MODEL 1
REMARK minimizedAffinity 9.84924984
REMARK minimizedRMSD -1
REMARK  0 active torsions:
REMARK  status: ('A' for Active; 'I' for Inactive)
ROOT
ATOM      1  C   UNL d   1      -3.504  -1.418   3.141  0.00  0.00     0.172 C 
ATOM      2  N   UNL d   1      -3.047  -0.077   2.859  0.00  0.00    -0.070 N 
ATOM      3  C1  UNL d   1      -3.672   1.077   3.248  0.00  0.00    -0.004 A 
ATOM      4  C2  UNL d   1      -2.924   2.139   2.786  0.00  0.00    -0.047 A 
ATOM      5  C3  UNL d   1      -1.812   1.603   2.094  0.00  0.00    -0.047 A 
ATOM      6  C4  UNL d   1      -1.913   0.229   2.155  0.00  0.00    -0.004 A 
ENDROOT
TORSDOF 0
ENDMDL
