MODEL 1
REMARK minimizedAffinity 0.209509134
REMARK minimizedRMSD -1
REMARK  0 active torsions:
REMARK  status: ('A' for Active; 'I' for Inactive)
ROOT
ATOM      1  C   UNL d   1      -5.998  -1.439  -5.969  0.00  0.00     0.172 C 
ATOM      2  N   UNL d   1      -4.992  -2.474  -5.979  0.00  0.00    -0.070 N 
ATOM      3  C1  UNL d   1      -5.233  -3.822  -5.994  0.00  0.00    -0.004 A 
ATOM      4  C2  UNL d   1      -4.015  -4.468  -6.000  0.00  0.00    -0.047 A 
ATOM      5  C3  UNL d   1      -3.008  -3.475  -5.987  0.00  0.00    -0.047 A 
ATOM      6  C4  UNL d   1      -3.640  -2.249  -5.974  0.00  0.00    -0.004 A 
ENDROOT
TORSDOF 0
ENDMDL
