MODEL 1
REMARK minimizedAffinity 5.78479671
REMARK minimizedRMSD -1
REMARK  0 active torsions:
REMARK  status: ('A' for Active; 'I' for Inactive)
ROOT
ATOM      1  C   UNL d   1       1.104  -5.997  -2.046  0.00  0.00     0.172 C 
ATOM      2  N   UNL d   1       1.547  -5.778  -0.689  0.00  0.00    -0.070 N 
ATOM      3  C1  UNL d   1       2.813  -6.000  -0.217  0.00  0.00    -0.004 A 
ATOM      4  C2  UNL d   1       2.829  -5.671   1.121  0.00  0.00    -0.047 A 
ATOM      5  C3  UNL d   1       1.527  -5.237   1.466  0.00  0.00    -0.047 A 
ATOM      6  C4  UNL d   1       0.753  -5.314   0.326  0.00  0.00    -0.004 A 
ENDROOT
TORSDOF 0
ENDMDL
