MODEL 1
REMARK minimizedAffinity 8.50510883
REMARK minimizedRMSD -1
REMARK  0 active torsions:
REMARK  status: ('A' for Active; 'I' for Inactive)
ROOT
ATOM      1  C   UNL d   1       1.984   2.852  -2.064  0.00  0.00     0.172 C 
ATOM      2  N   UNL d   1       1.594   3.947  -1.208  0.00  0.00    -0.070 N 
ATOM      3  C1  UNL d   1       1.383   3.868   0.143  0.00  0.00    -0.004 A 
ATOM      4  C2  UNL d   1       1.028   5.123   0.589  0.00  0.00    -0.047 A 
ATOM      5  C3  UNL d   1       1.025   5.986  -0.533  0.00  0.00    -0.047 A 
ATOM      6  C4  UNL d   1       1.379   5.232  -1.632  0.00  0.00    -0.004 A 
ENDROOT
TORSDOF 0
ENDMDL
