MODEL 1
REMARK minimizedAffinity 6.51182985
REMARK minimizedRMSD -1
REMARK  0 active torsions:
REMARK  status: ('A' for Active; 'I' for Inactive)
ROOT
ATOM      1  C   UNL d   1       3.089  -3.853  -0.198  0.00  0.00     0.172 C 
ATOM      2  N   UNL d   1       2.396  -2.867  -0.993  0.00  0.00    -0.070 N 
ATOM      3  C1  UNL d   1       2.138  -1.576  -0.618  0.00  0.00    -0.004 A 
ATOM      4  C2  UNL d   1       1.462  -0.963  -1.651  0.00  0.00    -0.047 A 
ATOM      5  C3  UNL d   1       1.306  -1.920  -2.682  0.00  0.00    -0.047 A 
ATOM      6  C4  UNL d   1       1.894  -3.090  -2.249  0.00  0.00    -0.004 A 
ENDROOT
TORSDOF 0
ENDMDL
