MODEL 1
REMARK minimizedAffinity 2.42205811
REMARK minimizedRMSD -1
REMARK  0 active torsions:
REMARK  status: ('A' for Active; 'I' for Inactive)
ROOT
ATOM      1  C   UNL d   1       1.507  -5.177  -3.325  0.00  0.00     0.172 C 
ATOM      2  N   UNL d   1       2.062  -4.329  -2.296  0.00  0.00    -0.070 N 
ATOM      3  C1  UNL d   1       1.603  -3.086  -1.952  0.00  0.00    -0.004 A 
ATOM      4  C2  UNL d   1       2.397  -2.609  -0.932  0.00  0.00    -0.047 A 
ATOM      5  C3  UNL d   1       3.369  -3.600  -0.654  0.00  0.00    -0.047 A 
ATOM      6  C4  UNL d   1       3.138  -4.654  -1.513  0.00  0.00    -0.004 A 
ENDROOT
TORSDOF 0
ENDMDL
