MODEL 1
REMARK minimizedAffinity -1.26998603
REMARK minimizedRMSD -1
REMARK  0 active torsions:
REMARK  status: ('A' for Active; 'I' for Inactive)
ROOT
ATOM      1  C   UNL d   1      -5.632  -2.224  -5.998  0.00  0.00     0.172 C 
ATOM      2  N   UNL d   1      -4.596  -3.230  -5.995  0.00  0.00    -0.070 N 
ATOM      3  C1  UNL d   1      -4.798  -4.584  -5.999  0.00  0.00    -0.004 A 
ATOM      4  C2  UNL d   1      -3.563  -5.195  -5.995  0.00  0.00    -0.047 A 
ATOM      5  C3  UNL d   1      -2.585  -4.173  -5.987  0.00  0.00    -0.047 A 
ATOM      6  C4  UNL d   1      -3.252  -2.966  -5.987  0.00  0.00    -0.004 A 
ENDROOT
TORSDOF 0
ENDMDL
