MODEL 1
REMARK minimizedAffinity 6.33252811
REMARK minimizedRMSD -1
REMARK  0 active torsions:
REMARK  status: ('A' for Active; 'I' for Inactive)
ROOT
ATOM      1  C   UNL d   1       3.023   2.266   1.745  0.00  0.00     0.172 C 
ATOM      2  N   UNL d   1       3.662   2.146   0.456  0.00  0.00    -0.070 N 
ATOM      3  C1  UNL d   1       3.017   2.043  -0.748  0.00  0.00    -0.004 A 
ATOM      4  C2  UNL d   1       3.976   1.948  -1.734  0.00  0.00    -0.047 A 
ATOM      5  C3  UNL d   1       5.240   1.993  -1.100  0.00  0.00    -0.047 A 
ATOM      6  C4  UNL d   1       5.017   2.116   0.255  0.00  0.00    -0.004 A 
ENDROOT
TORSDOF 0
ENDMDL
