MODEL 1
REMARK minimizedAffinity 11.757184
REMARK minimizedRMSD -1
REMARK  0 active torsions:
REMARK  status: ('A' for Active; 'I' for Inactive)
ROOT
ATOM      1  C   UNL d   1      -3.134   0.017   2.278  0.00  0.00     0.172 C 
ATOM      2  N   UNL d   1      -4.267  -0.877   2.315  0.00  0.00    -0.070 N 
ATOM      3  C1  UNL d   1      -4.767  -1.487   3.435  0.00  0.00    -0.004 A 
ATOM      4  C2  UNL d   1      -5.845  -2.255   3.051  0.00  0.00    -0.047 A 
ATOM      5  C3  UNL d   1      -5.997  -2.103   1.653  0.00  0.00    -0.047 A 
ATOM      6  C4  UNL d   1      -5.008  -1.245   1.223  0.00  0.00    -0.004 A 
ENDROOT
TORSDOF 0
ENDMDL
