MODEL 1
REMARK minimizedAffinity 0.470767021
REMARK minimizedRMSD -1
REMARK  0 active torsions:
REMARK  status: ('A' for Active; 'I' for Inactive)
ROOT
ATOM      1  C   UNL d   1       4.180   5.324  -5.984  0.00  0.00     0.023 A 
ATOM      2  C1  UNL d   1       5.470   4.869  -5.712  0.00  0.00     0.003 A 
ATOM      3  C2  UNL d   1       5.993   4.977  -4.422  0.00  0.00     0.048 A 
ATOM      4  C3  UNL d   1       5.220   5.540  -3.407  0.00  0.00     0.023 A 
ATOM      5  C4  UNL d   1       3.928   5.996  -3.674  0.00  0.00     0.048 A 
ATOM      6  C5  UNL d   1       3.410   5.888  -4.966  0.00  0.00     0.003 A 
ATOM      7  I   UNL d   1       5.996   5.701  -1.486  0.00  0.00    -0.146 I 
ENDROOT
TORSDOF 0
ENDMDL
