MODEL 1
REMARK minimizedAffinity -2.27941489
REMARK minimizedRMSD -1
REMARK  0 active torsions:
REMARK  status: ('A' for Active; 'I' for Inactive)
ROOT
ATOM      1  C   UNL d   1       4.494   5.943  -2.958  0.00  0.00     0.023 A 
ATOM      2  C1  UNL d   1       3.854   5.637  -4.159  0.00  0.00     0.003 A 
ATOM      3  C2  UNL d   1       4.285   4.553  -4.925  0.00  0.00     0.048 A 
ATOM      4  C3  UNL d   1       5.356   3.777  -4.485  0.00  0.00     0.023 A 
ATOM      5  C4  UNL d   1       6.000   4.078  -3.283  0.00  0.00     0.048 A 
ATOM      6  C5  UNL d   1       5.566   5.165  -2.521  0.00  0.00     0.003 A 
ATOM      7  I   UNL d   1       5.999   2.162  -5.623  0.00  0.00    -0.146 I 
ENDROOT
TORSDOF 0
ENDMDL
