MODEL 1
REMARK minimizedAffinity 5.02412653
REMARK minimizedRMSD -1
REMARK  0 active torsions:
REMARK  status: ('A' for Active; 'I' for Inactive)
ROOT
ATOM      1  C   UNL d   1       3.614   5.187  -5.851  0.00  0.00     0.023 A 
ATOM      2  C1  UNL d   1       4.795   5.923  -5.751  0.00  0.00     0.003 A 
ATOM      3  C2  UNL d   1       5.471   5.998  -4.531  0.00  0.00     0.048 A 
ATOM      4  C3  UNL d   1       4.961   5.334  -3.416  0.00  0.00     0.023 A 
ATOM      5  C4  UNL d   1       3.780   4.596  -3.512  0.00  0.00     0.048 A 
ATOM      6  C5  UNL d   1       3.107   4.525  -4.733  0.00  0.00     0.003 A 
ATOM      7  I   UNL d   1       5.966   5.444  -1.600  0.00  0.00    -0.146 I 
ENDROOT
TORSDOF 0
ENDMDL
