MODEL 1
REMARK minimizedAffinity -2.10845661
REMARK minimizedRMSD -1
REMARK  0 active torsions:
REMARK  status: ('A' for Active; 'I' for Inactive)
ROOT
ATOM      1  C   UNL d   1       4.494   4.138  -5.992  0.00  0.00     0.023 A 
ATOM      2  C1  UNL d   1       5.567   3.525  -5.344  0.00  0.00     0.003 A 
ATOM      3  C2  UNL d   1       5.999   4.000  -4.104  0.00  0.00     0.048 A 
ATOM      4  C3  UNL d   1       5.353   5.087  -3.517  0.00  0.00     0.023 A 
ATOM      5  C4  UNL d   1       4.278   5.702  -4.160  0.00  0.00     0.048 A 
ATOM      6  C5  UNL d   1       3.850   5.225  -5.400  0.00  0.00     0.003 A 
ATOM      7  I   UNL d   1       5.994   5.795  -1.671  0.00  0.00    -0.146 I 
ENDROOT
TORSDOF 0
ENDMDL
