MODEL 1
REMARK minimizedAffinity 0.151896894
REMARK minimizedRMSD -1
REMARK  0 active torsions:
REMARK  status: ('A' for Active; 'I' for Inactive)
ROOT
ATOM      1  C   UNL d   1       5.265   5.006  -1.124  0.00  0.00     0.023 A 
ATOM      2  C1  UNL d   1       6.000   5.904  -1.899  0.00  0.00     0.003 A 
ATOM      3  C2  UNL d   1       5.790   5.972  -3.278  0.00  0.00     0.048 A 
ATOM      4  C3  UNL d   1       4.844   5.140  -3.876  0.00  0.00     0.023 A 
ATOM      5  C4  UNL d   1       4.106   4.241  -3.104  0.00  0.00     0.048 A 
ATOM      6  C5  UNL d   1       4.320   4.175  -1.726  0.00  0.00     0.003 A 
ATOM      7  I   UNL d   1       4.531   5.240  -5.928  0.00  0.00    -0.146 I 
ENDROOT
TORSDOF 0
ENDMDL
