MODEL 1
REMARK minimizedAffinity -2.88286185
REMARK minimizedRMSD -1
REMARK  0 active torsions:
REMARK  status: ('A' for Active; 'I' for Inactive)
ROOT
ATOM      1  C   UNL d   1       4.948   3.095  -6.000  0.00  0.00     0.023 A 
ATOM      2  C1  UNL d   1       5.719   2.630  -4.934  0.00  0.00     0.003 A 
ATOM      3  C2  UNL d   1       5.979   3.463  -3.843  0.00  0.00     0.048 A 
ATOM      4  C3  UNL d   1       5.465   4.759  -3.825  0.00  0.00     0.023 A 
ATOM      5  C4  UNL d   1       4.693   5.228  -4.889  0.00  0.00     0.048 A 
ATOM      6  C5  UNL d   1       4.436   4.392  -5.977  0.00  0.00     0.003 A 
ATOM      7  I   UNL d   1       5.851   6.000  -2.203  0.00  0.00    -0.146 I 
ENDROOT
TORSDOF 0
ENDMDL
