MODEL 1
REMARK minimizedAffinity -1.3047787
REMARK minimizedRMSD -1
REMARK  0 active torsions:
REMARK  status: ('A' for Active; 'I' for Inactive)
ROOT
ATOM      1  C   UNL d   1       4.467   6.000  -2.676  0.00  0.00     0.023 A 
ATOM      2  C1  UNL d   1       3.814   5.689  -3.869  0.00  0.00     0.003 A 
ATOM      3  C2  UNL d   1       4.252   4.616  -4.648  0.00  0.00     0.048 A 
ATOM      4  C3  UNL d   1       5.343   3.856  -4.227  0.00  0.00     0.023 A 
ATOM      5  C4  UNL d   1       5.999   4.163  -3.034  0.00  0.00     0.048 A 
ATOM      6  C5  UNL d   1       5.559   5.238  -2.259  0.00  0.00     0.003 A 
ATOM      7  I   UNL d   1       5.996   2.258  -5.384  0.00  0.00    -0.146 I 
ENDROOT
TORSDOF 0
ENDMDL
