MODEL 1
REMARK minimizedAffinity -3.0784471
REMARK minimizedRMSD -1
REMARK  0 active torsions:
REMARK  status: ('A' for Active; 'I' for Inactive)
ROOT
ATOM      1  C   UNL d   1       4.371   6.000  -2.549  0.00  0.00     0.023 A 
ATOM      2  C1  UNL d   1       3.673   5.874  -3.750  0.00  0.00     0.003 A 
ATOM      3  C2  UNL d   1       4.137   5.006  -4.741  0.00  0.00     0.048 A 
ATOM      4  C3  UNL d   1       5.298   4.265  -4.523  0.00  0.00     0.023 A 
ATOM      5  C4  UNL d   1       5.999   4.387  -3.322  0.00  0.00     0.048 A 
ATOM      6  C5  UNL d   1       5.532   5.257  -2.335  0.00  0.00     0.003 A 
ATOM      7  I   UNL d   1       5.989   2.971  -5.996  0.00  0.00    -0.146 I 
ENDROOT
TORSDOF 0
ENDMDL
