MODEL 1
REMARK minimizedAffinity 0.294401318
REMARK minimizedRMSD -1
REMARK  0 active torsions:
REMARK  status: ('A' for Active; 'I' for Inactive)
ROOT
ATOM      1  C   UNL d   1       4.367   5.476  -3.729  0.00  0.00     0.023 A 
ATOM      2  C1  UNL d   1       5.531   4.850  -3.284  0.00  0.00     0.003 A 
ATOM      3  C2  UNL d   1       6.000   3.704  -3.929  0.00  0.00     0.048 A 
ATOM      4  C3  UNL d   1       5.299   3.189  -5.019  0.00  0.00     0.023 A 
ATOM      5  C4  UNL d   1       4.134   3.813  -5.469  0.00  0.00     0.048 A 
ATOM      6  C5  UNL d   1       3.669   4.958  -4.820  0.00  0.00     0.003 A 
ATOM      7  I   UNL d   1       5.995   1.483  -5.981  0.00  0.00    -0.146 I 
ENDROOT
TORSDOF 0
ENDMDL
