MODEL 1
REMARK minimizedAffinity -4.52586889
REMARK minimizedRMSD -1
REMARK  0 active torsions:
REMARK  status: ('A' for Active; 'I' for Inactive)
ROOT
ATOM      1  C   UNL d   1       4.021   5.713  -1.657  0.00  0.00     0.023 A 
ATOM      2  C1  UNL d   1       5.309   5.208  -1.835  0.00  0.00     0.003 A 
ATOM      3  C2  UNL d   1       5.625   4.489  -2.989  0.00  0.00     0.048 A 
ATOM      4  C3  UNL d   1       4.649   4.279  -3.963  0.00  0.00     0.023 A 
ATOM      5  C4  UNL d   1       3.359   4.783  -3.790  0.00  0.00     0.048 A 
ATOM      6  C5  UNL d   1       3.047   5.501  -2.633  0.00  0.00     0.003 A 
ATOM      7  I   UNL d   1       5.118   3.209  -5.682  0.00  0.00    -0.146 I 
ENDROOT
TORSDOF 0
ENDMDL
