MODEL 1
REMARK minimizedAffinity -3.54765153
REMARK minimizedRMSD -1
REMARK  0 active torsions:
REMARK  status: ('A' for Active; 'I' for Inactive)
ROOT
ATOM      1  C   UNL d   1       4.465   5.491  -2.613  0.00  0.00     0.023 A 
ATOM      2  C1  UNL d   1       3.386   4.883  -3.256  0.00  0.00     0.003 A 
ATOM      3  C2  UNL d   1       3.611   3.903  -4.224  0.00  0.00     0.048 A 
ATOM      4  C3  UNL d   1       4.918   3.534  -4.545  0.00  0.00     0.023 A 
ATOM      5  C4  UNL d   1       6.000   4.140  -3.904  0.00  0.00     0.048 A 
ATOM      6  C5  UNL d   1       5.770   5.120  -2.937  0.00  0.00     0.003 A 
ATOM      7  I   UNL d   1       5.255   2.075  -5.985  0.00  0.00    -0.146 I 
ENDROOT
TORSDOF 0
ENDMDL
