MODEL 1
REMARK minimizedAffinity 1.9671737
REMARK minimizedRMSD -1
REMARK  0 active torsions:
REMARK  status: ('A' for Active; 'I' for Inactive)
ROOT
ATOM      1  C   UNL d   1       4.096   3.743  -4.596  0.00  0.00     0.023 A 
ATOM      2  C1  UNL d   1       3.524   4.925  -4.128  0.00  0.00     0.003 A 
ATOM      3  C2  UNL d   1       4.068   5.574  -3.017  0.00  0.00     0.048 A 
ATOM      4  C3  UNL d   1       5.186   5.036  -2.381  0.00  0.00     0.023 A 
ATOM      5  C4  UNL d   1       5.763   3.853  -2.846  0.00  0.00     0.048 A 
ATOM      6  C5  UNL d   1       5.214   3.207  -3.956  0.00  0.00     0.003 A 
ATOM      7  I   UNL d   1       5.998   6.000  -0.729  0.00  0.00    -0.146 I 
ENDROOT
TORSDOF 0
ENDMDL
