MODEL 1
REMARK minimizedAffinity 3.20254087
REMARK minimizedRMSD -1
REMARK  0 active torsions:
REMARK  status: ('A' for Active; 'I' for Inactive)
ROOT
ATOM      1  C   UNL d   1       4.898   4.366  -1.223  0.00  0.00     0.023 A 
ATOM      2  C1  UNL d   1       5.997   4.919  -1.881  0.00  0.00     0.003 A 
ATOM      3  C2  UNL d   1       5.933   5.179  -3.252  0.00  0.00     0.048 A 
ATOM      4  C3  UNL d   1       4.767   4.885  -3.958  0.00  0.00     0.023 A 
ATOM      5  C4  UNL d   1       3.665   4.332  -3.303  0.00  0.00     0.048 A 
ATOM      6  C5  UNL d   1       3.733   4.073  -1.933  0.00  0.00     0.003 A 
ATOM      7  I   UNL d   1       4.670   5.271  -5.998  0.00  0.00    -0.146 I 
ENDROOT
TORSDOF 0
ENDMDL
