MODEL 1
REMARK minimizedAffinity 2.01512694
REMARK minimizedRMSD -1
REMARK  0 active torsions:
REMARK  status: ('A' for Active; 'I' for Inactive)
ROOT
ATOM      1  C   UNL d   1       4.784   5.935  -1.605  0.00  0.00     0.023 A 
ATOM      2  C1  UNL d   1       5.952   5.997  -2.365  0.00  0.00     0.003 A 
ATOM      3  C2  UNL d   1       6.000   5.399  -3.626  0.00  0.00     0.048 A 
ATOM      4  C3  UNL d   1       4.875   4.740  -4.121  0.00  0.00     0.023 A 
ATOM      5  C4  UNL d   1       3.703   4.676  -3.365  0.00  0.00     0.048 A 
ATOM      6  C5  UNL d   1       3.661   5.275  -2.105  0.00  0.00     0.003 A 
ATOM      7  I   UNL d   1       4.943   3.849  -5.998  0.00  0.00    -0.146 I 
ENDROOT
TORSDOF 0
ENDMDL
