MODEL 1
REMARK minimizedAffinity 1.87553024
REMARK minimizedRMSD -1
REMARK  0 active torsions:
REMARK  status: ('A' for Active; 'I' for Inactive)
ROOT
ATOM      1  C   UNL d   1       4.950   5.999  -3.425  0.00  0.00     0.023 A 
ATOM      2  C1  UNL d   1       3.973   5.753  -4.389  0.00  0.00     0.003 A 
ATOM      3  C2  UNL d   1       4.003   4.569  -5.129  0.00  0.00     0.048 A 
ATOM      4  C3  UNL d   1       5.013   3.635  -4.898  0.00  0.00     0.023 A 
ATOM      5  C4  UNL d   1       5.992   3.877  -3.933  0.00  0.00     0.048 A 
ATOM      6  C5  UNL d   1       5.958   5.062  -3.197  0.00  0.00     0.003 A 
ATOM      7  I   UNL d   1       5.059   1.872  -5.998  0.00  0.00    -0.146 I 
ENDROOT
TORSDOF 0
ENDMDL
