MODEL 1
REMARK minimizedAffinity 0.176449358
REMARK minimizedRMSD -1
REMARK  0 active torsions:
REMARK  status: ('A' for Active; 'I' for Inactive)
ROOT
ATOM      1  C   UNL d   1       2.941   4.258  -4.889  0.00  0.00     0.023 A 
ATOM      2  C1  UNL d   1       4.128   4.878  -5.279  0.00  0.00     0.003 A 
ATOM      3  C2  UNL d   1       5.007   5.376  -4.315  0.00  0.00     0.048 A 
ATOM      4  C3  UNL d   1       4.693   5.251  -2.963  0.00  0.00     0.023 A 
ATOM      5  C4  UNL d   1       3.507   4.630  -2.567  0.00  0.00     0.048 A 
ATOM      6  C5  UNL d   1       2.631   4.134  -3.534  0.00  0.00     0.003 A 
ATOM      7  I   UNL d   1       5.999   5.992  -1.526  0.00  0.00    -0.146 I 
ENDROOT
TORSDOF 0
ENDMDL
