MODEL 1
REMARK minimizedAffinity 3.47972465
REMARK minimizedRMSD -1
REMARK  0 active torsions:
REMARK  status: ('A' for Active; 'I' for Inactive)
ROOT
ATOM      1  C   UNL d   1      -0.923   0.047   2.812  0.00  0.00     0.124 A 
ATOM      2  C1  UNL d   1      -1.631  -0.518   1.760  0.00  0.00     0.062 A 
ATOM      3  C2  UNL d   1      -1.134  -0.445   0.462  0.00  0.00     0.162 A 
ATOM      4  C3  UNL d   1       0.079   0.195   0.208  0.00  0.00    -0.034 A 
ATOM      5  C4  UNL d   1       0.785   0.761   1.270  0.00  0.00     0.162 A 
ATOM      6  C5  UNL d   1       0.284   0.686   2.566  0.00  0.00     0.062 A 
ATOM      7  F   UNL d   1       0.970   1.232   3.580  0.00  0.00    -0.097 F 
ATOM      8  F1  UNL d   1       1.955   1.384   1.061  0.00  0.00    -0.096 F 
ATOM      9  I   UNL d   1       0.825   0.306  -1.732  0.00  0.00    -0.060 I 
ATOM     10  F2  UNL d   1      -1.840  -1.000  -0.535  0.00  0.00    -0.096 F 
ATOM     11  F3  UNL d   1      -2.798  -1.135   1.995  0.00  0.00    -0.097 F 
ATOM     12  F4  UNL d   1      -1.404  -0.023   4.059  0.00  0.00    -0.092 F 
ENDROOT
TORSDOF 0
ENDMDL
