MODEL 1
REMARK minimizedAffinity -0.685755968
REMARK minimizedRMSD -1
REMARK  0 active torsions:
REMARK  status: ('A' for Active; 'I' for Inactive)
ROOT
ATOM      1  C   UNL d   1      -2.122  -0.344   0.393  0.00  0.00     0.124 A 
ATOM      2  C1  UNL d   1      -1.149   0.153  -0.463  0.00  0.00     0.062 A 
ATOM      3  C2  UNL d   1       0.132   0.419   0.013  0.00  0.00     0.162 A 
ATOM      4  C3  UNL d   1       0.447   0.188   1.352  0.00  0.00    -0.034 A 
ATOM      5  C4  UNL d   1      -0.538  -0.310   2.207  0.00  0.00     0.162 A 
ATOM      6  C5  UNL d   1      -1.816  -0.575   1.726  0.00  0.00     0.062 A 
ATOM      7  F   UNL d   1      -2.755  -1.055   2.555  0.00  0.00    -0.097 F 
ATOM      8  F1  UNL d   1      -0.268  -0.544   3.500  0.00  0.00    -0.096 F 
ATOM      9  I   UNL d   1       2.361   0.585   2.067  0.00  0.00    -0.060 I 
ATOM     10  F2  UNL d   1       1.052   0.899  -0.837  0.00  0.00    -0.096 F 
ATOM     11  F3  UNL d   1      -1.443   0.378  -1.752  0.00  0.00    -0.097 F 
ATOM     12  F4  UNL d   1      -3.354  -0.598  -0.067  0.00  0.00    -0.092 F 
ENDROOT
TORSDOF 0
ENDMDL
