MODEL 1
REMARK minimizedAffinity -2.34430981
REMARK minimizedRMSD -1
REMARK  0 active torsions:
REMARK  status: ('A' for Active; 'I' for Inactive)
ROOT
ATOM      1  C   UNL d   1      -0.819  -0.399   2.916  0.00  0.00     0.124 A 
ATOM      2  C1  UNL d   1      -1.836  -0.493   1.975  0.00  0.00     0.062 A 
ATOM      3  C2  UNL d   1      -1.591  -0.165   0.645  0.00  0.00     0.162 A 
ATOM      4  C3  UNL d   1      -0.324   0.258   0.246  0.00  0.00    -0.034 A 
ATOM      5  C4  UNL d   1       0.694   0.351   1.197  0.00  0.00     0.162 A 
ATOM      6  C5  UNL d   1       0.444   0.023   2.526  0.00  0.00     0.062 A 
ATOM      7  F   UNL d   1       1.428   0.114   3.433  0.00  0.00    -0.097 F 
ATOM      8  F1  UNL d   1       1.924   0.755   0.848  0.00  0.00    -0.096 F 
ATOM      9  I   UNL d   1       0.046   0.749  -1.743  0.00  0.00    -0.060 I 
ATOM     10  F2  UNL d   1      -2.593  -0.265  -0.242  0.00  0.00    -0.096 F 
ATOM     11  F3  UNL d   1      -3.057  -0.899   2.350  0.00  0.00    -0.097 F 
ATOM     12  F4  UNL d   1      -1.057  -0.714   4.195  0.00  0.00    -0.092 F 
ENDROOT
TORSDOF 0
ENDMDL
