MODEL 1
REMARK minimizedAffinity 4.26353979
REMARK minimizedRMSD -1
REMARK  0 active torsions:
REMARK  status: ('A' for Active; 'I' for Inactive)
ROOT
ATOM      1  C   UNL d   1       0.947  -1.386  -3.581  0.00  0.00     0.124 A 
ATOM      2  C1  UNL d   1       1.173  -0.114  -3.073  0.00  0.00     0.062 A 
ATOM      3  C2  UNL d   1       0.528   0.300  -1.912  0.00  0.00     0.162 A 
ATOM      4  C3  UNL d   1      -0.349  -0.558  -1.249  0.00  0.00    -0.034 A 
ATOM      5  C4  UNL d   1      -0.572  -1.835  -1.766  0.00  0.00     0.162 A 
ATOM      6  C5  UNL d   1       0.075  -2.245  -2.928  0.00  0.00     0.062 A 
ATOM      7  F   UNL d   1      -0.145  -3.474  -3.417  0.00  0.00    -0.097 F 
ATOM      8  F1  UNL d   1      -1.409  -2.686  -1.154  0.00  0.00    -0.096 F 
ATOM      9  I   UNL d   1      -1.315   0.058   0.489  0.00  0.00    -0.060 I 
ATOM     10  F2  UNL d   1       0.766   1.535  -1.443  0.00  0.00    -0.096 F 
ATOM     11  F3  UNL d   1       2.015   0.718  -3.704  0.00  0.00    -0.097 F 
ATOM     12  F4  UNL d   1       1.568  -1.782  -4.700  0.00  0.00    -0.092 F 
ENDROOT
TORSDOF 0
ENDMDL
