MODEL 1
REMARK minimizedAffinity 3.41391897
REMARK minimizedRMSD -1
REMARK  0 active torsions:
REMARK  status: ('A' for Active; 'I' for Inactive)
ROOT
ATOM      1  C   UNL d   1      -0.947  -0.403   2.017  0.00  0.00     0.124 A 
ATOM      2  C1  UNL d   1       0.433  -0.263   2.074  0.00  0.00     0.062 A 
ATOM      3  C2  UNL d   1       1.155   0.024   0.919  0.00  0.00     0.162 A 
ATOM      4  C3  UNL d   1       0.499   0.173  -0.303  0.00  0.00    -0.034 A 
ATOM      5  C4  UNL d   1      -0.889   0.029  -0.352  0.00  0.00     0.162 A 
ATOM      6  C5  UNL d   1      -1.606  -0.257   0.805  0.00  0.00     0.062 A 
ATOM      7  F   UNL d   1      -2.939  -0.392   0.749  0.00  0.00    -0.097 F 
ATOM      8  F1  UNL d   1      -1.552   0.166  -1.510  0.00  0.00    -0.096 F 
ATOM      9  I   UNL d   1       1.575   0.601  -2.032  0.00  0.00    -0.060 I 
ATOM     10  F2  UNL d   1       2.488   0.154   1.003  0.00  0.00    -0.096 F 
ATOM     11  F3  UNL d   1       1.073  -0.404   3.244  0.00  0.00    -0.097 F 
ATOM     12  F4  UNL d   1      -1.639  -0.679   3.130  0.00  0.00    -0.092 F 
ENDROOT
TORSDOF 0
ENDMDL
