MODEL 1
REMARK minimizedAffinity 11.5056667
REMARK minimizedRMSD -1
REMARK  0 active torsions:
REMARK  status: ('A' for Active; 'I' for Inactive)
ROOT
ATOM      1  C   UNL d   1      -1.322  -0.429   0.863  0.00  0.00     0.124 A 
ATOM      2  C1  UNL d   1      -0.596  -0.312   2.040  0.00  0.00     0.062 A 
ATOM      3  C2  UNL d   1       0.459   0.591   2.125  0.00  0.00     0.162 A 
ATOM      4  C3  UNL d   1       0.794   1.387   1.029  0.00  0.00    -0.034 A 
ATOM      5  C4  UNL d   1       0.060   1.263  -0.152  0.00  0.00     0.162 A 
ATOM      6  C5  UNL d   1      -0.994   0.358  -0.232  0.00  0.00     0.062 A 
ATOM      7  F   UNL d   1      -1.694   0.247  -1.370  0.00  0.00    -0.097 F 
ATOM      8  F1  UNL d   1       0.355   2.012  -1.225  0.00  0.00    -0.096 F 
ATOM      9  I   UNL d   1       2.372   2.739   1.151  0.00  0.00    -0.060 I 
ATOM     10  F2  UNL d   1       1.144   0.683   3.274  0.00  0.00    -0.096 F 
ATOM     11  F3  UNL d   1      -0.911  -1.073   3.099  0.00  0.00    -0.097 F 
ATOM     12  F4  UNL d   1      -2.337  -1.300   0.784  0.00  0.00    -0.092 F 
ENDROOT
TORSDOF 0
ENDMDL
