MODEL 1
REMARK minimizedAffinity -3.26268125
REMARK minimizedRMSD -1
REMARK  0 active torsions:
REMARK  status: ('A' for Active; 'I' for Inactive)
ROOT
ATOM      1  C   UNL d   1      -2.144  -0.309   2.698  0.00  0.00     0.124 A 
ATOM      2  C1  UNL d   1      -0.767  -0.486   2.706  0.00  0.00     0.062 A 
ATOM      3  C2  UNL d   1      -0.024  -0.248   1.554  0.00  0.00     0.162 A 
ATOM      4  C3  UNL d   1      -0.656   0.171   0.383  0.00  0.00    -0.034 A 
ATOM      5  C4  UNL d   1      -2.041   0.346   0.382  0.00  0.00     0.162 A 
ATOM      6  C5  UNL d   1      -2.779   0.107   1.537  0.00  0.00     0.062 A 
ATOM      7  F   UNL d   1      -4.109   0.279   1.527  0.00  0.00    -0.097 F 
ATOM      8  F1  UNL d   1      -2.680   0.748  -0.726  0.00  0.00    -0.096 F 
ATOM      9  I   UNL d   1       0.452   0.528  -1.343  0.00  0.00    -0.060 I 
ATOM     10  F2  UNL d   1       1.305  -0.428   1.590  0.00  0.00    -0.096 F 
ATOM     11  F3  UNL d   1      -0.151  -0.889   3.827  0.00  0.00    -0.097 F 
ATOM     12  F4  UNL d   1      -2.857  -0.540   3.808  0.00  0.00    -0.092 F 
ENDROOT
TORSDOF 0
ENDMDL
