MODEL 1
REMARK minimizedAffinity -3.96617937
REMARK minimizedRMSD -1
REMARK  0 active torsions:
REMARK  status: ('A' for Active; 'I' for Inactive)
ROOT
ATOM      1  C   UNL d   1      -1.932  -0.651   2.543  0.00  0.00     0.124 A 
ATOM      2  C1  UNL d   1      -0.623  -1.046   2.306  0.00  0.00     0.062 A 
ATOM      3  C2  UNL d   1       0.005  -0.704   1.111  0.00  0.00     0.162 A 
ATOM      4  C3  UNL d   1      -0.675   0.037   0.145  0.00  0.00    -0.034 A 
ATOM      5  C4  UNL d   1      -1.992   0.429   0.391  0.00  0.00     0.162 A 
ATOM      6  C5  UNL d   1      -2.616   0.086   1.586  0.00  0.00     0.062 A 
ATOM      7  F   UNL d   1      -3.881   0.468   1.814  0.00  0.00    -0.097 F 
ATOM      8  F1  UNL d   1      -2.676   1.143  -0.516  0.00  0.00    -0.096 F 
ATOM      9  I   UNL d   1       0.260   0.550  -1.642  0.00  0.00    -0.060 I 
ATOM     10  F2  UNL d   1       1.271  -1.099   0.908  0.00  0.00    -0.096 F 
ATOM     11  F3  UNL d   1       0.039  -1.759   3.228  0.00  0.00    -0.097 F 
ATOM     12  F4  UNL d   1      -2.535  -0.982   3.693  0.00  0.00    -0.092 F 
ENDROOT
TORSDOF 0
ENDMDL
