MODEL 1
REMARK minimizedAffinity 3.08986688
REMARK minimizedRMSD -1
REMARK  0 active torsions:
REMARK  status: ('A' for Active; 'I' for Inactive)
ROOT
ATOM      1  C   UNL d   1       1.398  -1.289  -2.940  0.00  0.00     0.124 A 
ATOM      2  C1  UNL d   1       0.135  -1.120  -2.390  0.00  0.00     0.062 A 
ATOM      3  C2  UNL d   1      -0.005  -0.796  -1.044  0.00  0.00     0.162 A 
ATOM      4  C3  UNL d   1       1.122  -0.638  -0.237  0.00  0.00    -0.034 A 
ATOM      5  C4  UNL d   1       2.389  -0.810  -0.797  0.00  0.00     0.162 A 
ATOM      6  C5  UNL d   1       2.524  -1.134  -2.143  0.00  0.00     0.062 A 
ATOM      7  F   UNL d   1       3.745  -1.297  -2.672  0.00  0.00    -0.097 F 
ATOM      8  F1  UNL d   1       3.494  -0.665  -0.050  0.00  0.00    -0.096 F 
ATOM      9  I   UNL d   1       0.917  -0.153   1.776  0.00  0.00    -0.060 I 
ATOM     10  F2  UNL d   1      -1.238  -0.639  -0.539  0.00  0.00    -0.096 F 
ATOM     11  F3  UNL d   1      -0.954  -1.271  -3.158  0.00  0.00    -0.097 F 
ATOM     12  F4  UNL d   1       1.530  -1.602  -4.235  0.00  0.00    -0.092 F 
ENDROOT
TORSDOF 0
ENDMDL
