MODEL 1
REMARK minimizedAffinity 11.6088381
REMARK minimizedRMSD -1
REMARK  0 active torsions:
REMARK  status: ('A' for Active; 'I' for Inactive)
ROOT
ATOM      1  C   UNL d   1       0.134  -0.858  -2.760  0.00  0.00     0.124 A 
ATOM      2  C1  UNL d   1      -0.667  -1.716  -2.020  0.00  0.00     0.062 A 
ATOM      3  C2  UNL d   1      -0.961  -1.426  -0.690  0.00  0.00     0.162 A 
ATOM      4  C3  UNL d   1      -0.455  -0.272  -0.093  0.00  0.00    -0.034 A 
ATOM      5  C4  UNL d   1       0.351   0.586  -0.844  0.00  0.00     0.162 A 
ATOM      6  C5  UNL d   1       0.642   0.292  -2.172  0.00  0.00     0.062 A 
ATOM      7  F   UNL d   1       1.416   1.122  -2.886  0.00  0.00    -0.097 F 
ATOM      8  F1  UNL d   1       0.854   1.704  -0.301  0.00  0.00    -0.096 F 
ATOM      9  I   UNL d   1      -0.892   0.164   1.894  0.00  0.00    -0.060 I 
ATOM     10  F2  UNL d   1      -1.738  -2.274   0.001  0.00  0.00    -0.096 F 
ATOM     11  F3  UNL d   1      -1.159  -2.828  -2.585  0.00  0.00    -0.097 F 
ATOM     12  F4  UNL d   1       0.416  -1.139  -4.039  0.00  0.00    -0.092 F 
ENDROOT
TORSDOF 0
ENDMDL
