MODEL 1
REMARK minimizedAffinity 10.1268244
REMARK minimizedRMSD -1
REMARK  0 active torsions:
REMARK  status: ('A' for Active; 'I' for Inactive)
ROOT
ATOM      1  C   UNL d   1       1.211  -1.455   1.779  0.00  0.00     0.124 A 
ATOM      2  C1  UNL d   1       1.132  -0.304   2.551  0.00  0.00     0.062 A 
ATOM      3  C2  UNL d   1      -0.066   0.397   2.642  0.00  0.00     0.162 A 
ATOM      4  C3  UNL d   1      -1.197  -0.050   1.959  0.00  0.00    -0.034 A 
ATOM      5  C4  UNL d   1      -1.110  -1.208   1.183  0.00  0.00     0.162 A 
ATOM      6  C5  UNL d   1       0.090  -1.906   1.096  0.00  0.00     0.062 A 
ATOM      7  F   UNL d   1       0.164  -3.017   0.349  0.00  0.00    -0.097 F 
ATOM      8  F1  UNL d   1      -2.178  -1.666   0.514  0.00  0.00    -0.096 F 
ATOM      9  I   UNL d   1      -2.991   0.996   2.092  0.00  0.00    -0.060 I 
ATOM     10  F2  UNL d   1      -0.113   1.506   3.395  0.00  0.00    -0.096 F 
ATOM     11  F3  UNL d   1       2.214   0.134   3.211  0.00  0.00    -0.097 F 
ATOM     12  F4  UNL d   1       2.366  -2.128   1.692  0.00  0.00    -0.092 F 
ENDROOT
TORSDOF 0
ENDMDL
