MODEL 1
REMARK minimizedAffinity 6.9977293
REMARK minimizedRMSD -1
REMARK  0 active torsions:
REMARK  status: ('A' for Active; 'I' for Inactive)
ROOT
ATOM      1  C   UNL d   1       0.433  -1.662   1.535  0.00  0.00     0.124 A 
ATOM      2  C1  UNL d   1       0.544  -0.503   2.290  0.00  0.00     0.062 A 
ATOM      3  C2  UNL d   1      -0.561   0.326   2.465  0.00  0.00     0.162 A 
ATOM      4  C3  UNL d   1      -1.786  -0.002   1.886  0.00  0.00    -0.034 A 
ATOM      5  C4  UNL d   1      -1.889  -1.169   1.127  0.00  0.00     0.162 A 
ATOM      6  C5  UNL d   1      -0.783  -1.994   0.954  0.00  0.00     0.062 A 
ATOM      7  F   UNL d   1      -0.892  -3.114   0.225  0.00  0.00    -0.097 F 
ATOM      8  F1  UNL d   1      -3.053  -1.515   0.555  0.00  0.00    -0.096 F 
ATOM      9  I   UNL d   1      -3.440   1.235   2.146  0.00  0.00    -0.060 I 
ATOM     10  F2  UNL d   1      -0.425   1.440   3.200  0.00  0.00    -0.096 F 
ATOM     11  F3  UNL d   1       1.718  -0.179   2.851  0.00  0.00    -0.097 F 
ATOM     12  F4  UNL d   1       1.497  -2.458   1.367  0.00  0.00    -0.092 F 
ENDROOT
TORSDOF 0
ENDMDL
