MODEL 1
REMARK minimizedAffinity 6.66057968
REMARK minimizedRMSD -1
REMARK  0 active torsions:
REMARK  status: ('A' for Active; 'I' for Inactive)
ROOT
ATOM      1  C   UNL d   1      -1.236  -0.652   2.877  0.00  0.00     0.124 A 
ATOM      2  C1  UNL d   1      -2.143  -0.122   1.969  0.00  0.00     0.062 A 
ATOM      3  C2  UNL d   1      -1.694   0.647   0.900  0.00  0.00     0.162 A 
ATOM      4  C3  UNL d   1      -0.331   0.891   0.731  0.00  0.00    -0.034 A 
ATOM      5  C4  UNL d   1       0.575   0.356   1.649  0.00  0.00     0.162 A 
ATOM      6  C5  UNL d   1       0.121  -0.412   2.716  0.00  0.00     0.062 A 
ATOM      7  F   UNL d   1       0.999  -0.923   3.592  0.00  0.00    -0.097 F 
ATOM      8  F1  UNL d   1       1.892   0.570   1.516  0.00  0.00    -0.096 F 
ATOM      9  I   UNL d   1       0.344   2.040  -0.867  0.00  0.00    -0.060 I 
ATOM     10  F2  UNL d   1      -2.593   1.146   0.038  0.00  0.00    -0.096 F 
ATOM     11  F3  UNL d   1      -3.455  -0.351   2.123  0.00  0.00    -0.097 F 
ATOM     12  F4  UNL d   1      -1.671  -1.391   3.906  0.00  0.00    -0.092 F 
ENDROOT
TORSDOF 0
ENDMDL
