MODEL 1
REMARK minimizedAffinity 6.0448246
REMARK minimizedRMSD -1
REMARK  0 active torsions:
REMARK  status: ('A' for Active; 'I' for Inactive)
ROOT
ATOM      1  C   UNL d   1       3.618   0.059   1.661  0.00  0.00     0.124 A 
ATOM      2  C1  UNL d   1       3.021  -0.844   2.530  0.00  0.00     0.062 A 
ATOM      3  C2  UNL d   1       1.642  -0.827   2.717  0.00  0.00     0.162 A 
ATOM      4  C3  UNL d   1       0.850   0.094   2.032  0.00  0.00    -0.034 A 
ATOM      5  C4  UNL d   1       1.458   1.000   1.161  0.00  0.00     0.162 A 
ATOM      6  C5  UNL d   1       2.837   0.979   0.978  0.00  0.00     0.062 A 
ATOM      7  F   UNL d   1       3.412   1.852   0.138  0.00  0.00    -0.097 F 
ATOM      8  F1  UNL d   1       0.726   1.899   0.486  0.00  0.00    -0.096 F 
ATOM      9  I   UNL d   1      -1.213   0.122   2.309  0.00  0.00    -0.060 I 
ATOM     10  F2  UNL d   1       1.091  -1.711   3.563  0.00  0.00    -0.096 F 
ATOM     11  F3  UNL d   1       3.774  -1.733   3.193  0.00  0.00    -0.097 F 
ATOM     12  F4  UNL d   1       4.946   0.042   1.484  0.00  0.00    -0.092 F 
ENDROOT
TORSDOF 0
ENDMDL
