MODEL 1
REMARK minimizedAffinity 6.91611624
REMARK minimizedRMSD -1
REMARK  0 active torsions:
REMARK  status: ('A' for Active; 'I' for Inactive)
ROOT
ATOM      1  C   UNL d   1      -0.574  -0.334   2.867  0.00  0.00     0.124 A 
ATOM      2  C1  UNL d   1      -0.635   1.014   2.542  0.00  0.00     0.062 A 
ATOM      3  C2  UNL d   1       0.504   1.681   2.101  0.00  0.00     0.162 A 
ATOM      4  C3  UNL d   1       1.715   1.000   1.980  0.00  0.00    -0.034 A 
ATOM      5  C4  UNL d   1       1.770  -0.355   2.309  0.00  0.00     0.162 A 
ATOM      6  C5  UNL d   1       0.629  -1.017   2.750  0.00  0.00     0.062 A 
ATOM      7  F   UNL d   1       0.690  -2.320   3.063  0.00  0.00    -0.097 F 
ATOM      8  F1  UNL d   1       2.919  -1.040   2.205  0.00  0.00    -0.096 F 
ATOM      9  I   UNL d   1       3.421   1.993   1.320  0.00  0.00    -0.060 I 
ATOM     10  F2  UNL d   1       0.415   2.984   1.794  0.00  0.00    -0.096 F 
ATOM     11  F3  UNL d   1      -1.796   1.677   2.655  0.00  0.00    -0.097 F 
ATOM     12  F4  UNL d   1      -1.671  -0.973   3.292  0.00  0.00    -0.092 F 
ENDROOT
TORSDOF 0
ENDMDL
