MODEL 1
REMARK minimizedAffinity -1.71039736
REMARK minimizedRMSD -1
REMARK  1 active torsions:
REMARK  status: ('A' for Active; 'I' for Inactive)
REMARK    1  A    between atoms: C1_2  and  C2_3 
ROOT
ATOM      1  C2  UNL d   1       0.122   0.177   0.555  0.00  0.00    -0.081 A 
ATOM      2  C3  UNL d   1       0.123  -1.184   0.882  0.00  0.00     0.006 A 
ATOM      3  C4  UNL d   1      -1.073  -1.907   0.910  0.00  0.00     0.002 A 
ATOM      4  C5  UNL d   1      -2.287  -1.282   0.604  0.00  0.00    -0.080 A 
ATOM      5  C6  UNL d   1      -3.573  -2.053   0.601  0.00  0.00     0.076 C 
ATOM      6  C7  UNL d   1      -2.290   0.082   0.295  0.00  0.00     0.002 A 
ATOM      7  C8  UNL d   1      -1.095   0.805   0.268  0.00  0.00     0.006 A 
ENDROOT
BRANCH   1   8
ATOM      8  C1  UNL d   1       1.416   0.944   0.461  0.00  0.00     0.054 C 
ATOM      9  C   UNL d   1       1.396   2.176   1.355  0.00  0.00     0.018 C 
ENDBRANCH   1   8
TORSDOF 1
ENDMDL
