MODEL 1
REMARK minimizedAffinity -5.35780096
REMARK minimizedRMSD -1
REMARK  1 active torsions:
REMARK  status: ('A' for Active; 'I' for Inactive)
REMARK    1  A    between atoms: C1_2  and  C2_3 
ROOT
ATOM      1  C2  UNL d   1       1.060   0.381  -0.249  0.00  0.00    -0.081 A 
ATOM      2  C3  UNL d   1       0.214   0.675  -1.325  0.00  0.00     0.006 A 
ATOM      3  C4  UNL d   1      -1.087   0.168  -1.362  0.00  0.00     0.002 A 
ATOM      4  C5  UNL d   1      -1.566  -0.634  -0.320  0.00  0.00    -0.080 A 
ATOM      5  C6  UNL d   1      -2.970  -1.160  -0.333  0.00  0.00     0.076 C 
ATOM      6  C7  UNL d   1      -0.715  -0.942   0.746  0.00  0.00     0.002 A 
ATOM      7  C8  UNL d   1       0.587  -0.436   0.783  0.00  0.00     0.006 A 
ENDROOT
BRANCH   1   8
ATOM      8  C1  UNL d   1       2.442   0.979  -0.175  0.00  0.00     0.054 C 
ATOM      9  C   UNL d   1       2.553   1.976   0.969  0.00  0.00     0.018 C 
ENDBRANCH   1   8
TORSDOF 1
ENDMDL
