MODEL 1
REMARK minimizedAffinity 2.8914957
REMARK minimizedRMSD -1
REMARK  1 active torsions:
REMARK  status: ('A' for Active; 'I' for Inactive)
REMARK    1  A    between atoms: C1_2  and  C2_3 
ROOT
ATOM      1  C2  UNL d   1      -1.345  -0.802   0.350  0.00  0.00    -0.081 A 
ATOM      2  C3  UNL d   1      -0.393  -0.926   1.369  0.00  0.00     0.006 A 
ATOM      3  C4  UNL d   1       0.845  -0.289   1.264  0.00  0.00     0.002 A 
ATOM      4  C5  UNL d   1       1.150   0.489   0.142  0.00  0.00    -0.080 A 
ATOM      5  C6  UNL d   1       2.464   1.203   0.030  0.00  0.00     0.076 C 
ATOM      6  C7  UNL d   1       0.206   0.599  -0.885  0.00  0.00     0.002 A 
ATOM      7  C8  UNL d   1      -1.032  -0.038  -0.780  0.00  0.00     0.006 A 
ENDROOT
BRANCH   1   8
ATOM      8  C1  UNL d   1      -2.706  -1.435   0.490  0.00  0.00     0.054 C 
ATOM      9  C   UNL d   1      -3.137  -2.113  -0.803  0.00  0.00     0.018 C 
ENDBRANCH   1   8
TORSDOF 1
ENDMDL
