MODEL 1
REMARK minimizedAffinity -5.14925623
REMARK minimizedRMSD -1
REMARK  1 active torsions:
REMARK  status: ('A' for Active; 'I' for Inactive)
REMARK    1  A    between atoms: C1_2  and  C2_3 
ROOT
ATOM      1  C2  UNL d   1       0.293  -0.315  -0.280  0.00  0.00    -0.081 A 
ATOM      2  C3  UNL d   1      -0.564  -0.006  -1.344  0.00  0.00     0.006 A 
ATOM      3  C4  UNL d   1      -1.931  -0.277  -1.254  0.00  0.00     0.002 A 
ATOM      4  C5  UNL d   1      -2.465  -0.854  -0.097  0.00  0.00    -0.080 A 
ATOM      5  C6  UNL d   1      -3.936  -1.123   0.025  0.00  0.00     0.076 C 
ATOM      6  C7  UNL d   1      -1.607  -1.180   0.959  0.00  0.00     0.002 A 
ATOM      7  C8  UNL d   1      -0.240  -0.909   0.869  0.00  0.00     0.006 A 
ENDROOT
BRANCH   1   8
ATOM      8  C1  UNL d   1       1.757   0.035  -0.349  0.00  0.00     0.054 C 
ATOM      9  C   UNL d   1       2.058   1.312   0.424  0.00  0.00     0.018 C 
ENDBRANCH   1   8
TORSDOF 1
ENDMDL
