MODEL 1
REMARK minimizedAffinity -3.63368344
REMARK minimizedRMSD -1
REMARK  1 active torsions:
REMARK  status: ('A' for Active; 'I' for Inactive)
REMARK    1  A    between atoms: C1_2  and  C2_3 
ROOT
ATOM      1  C2  UNL d   1       1.048   0.186   0.012  0.00  0.00    -0.081 A 
ATOM      2  C3  UNL d   1       0.304   0.562  -1.113  0.00  0.00     0.006 A 
ATOM      3  C4  UNL d   1      -1.010   0.116  -1.274  0.00  0.00     0.002 A 
ATOM      4  C5  UNL d   1      -1.604  -0.706  -0.311  0.00  0.00    -0.080 A 
ATOM      5  C6  UNL d   1      -3.023  -1.167  -0.457  0.00  0.00     0.076 C 
ATOM      6  C7  UNL d   1      -0.855  -1.096   0.805  0.00  0.00     0.002 A 
ATOM      7  C8  UNL d   1       0.459  -0.651   0.966  0.00  0.00     0.006 A 
ENDROOT
BRANCH   1   8
ATOM      8  C1  UNL d   1       2.443   0.718   0.221  0.00  0.00     0.054 C 
ATOM      9  C   UNL d   1       2.420   2.086   0.889  0.00  0.00     0.018 C 
ENDBRANCH   1   8
TORSDOF 1
ENDMDL
