MODEL 1
REMARK minimizedAffinity -4.28392506
REMARK minimizedRMSD -1
REMARK  1 active torsions:
REMARK  status: ('A' for Active; 'I' for Inactive)
REMARK    1  A    between atoms: C1_2  and  C2_3 
ROOT
ATOM      1  C2  UNL d   1       0.887  -0.005  -0.190  0.00  0.00    -0.081 A 
ATOM      2  C3  UNL d   1       0.386   0.783  -1.234  0.00  0.00     0.006 A 
ATOM      3  C4  UNL d   1      -0.908   0.577  -1.717  0.00  0.00     0.002 A 
ATOM      4  C5  UNL d   1      -1.725  -0.413  -1.161  0.00  0.00    -0.080 A 
ATOM      5  C6  UNL d   1      -3.127  -0.623  -1.650  0.00  0.00     0.076 C 
ATOM      6  C7  UNL d   1      -1.218  -1.211  -0.130  0.00  0.00     0.002 A 
ATOM      7  C8  UNL d   1       0.076  -1.006   0.354  0.00  0.00     0.006 A 
ENDROOT
BRANCH   1   8
ATOM      8  C1  UNL d   1       2.259   0.257   0.377  0.00  0.00     0.054 C 
ATOM      9  C   UNL d   1       2.478   1.742   0.633  0.00  0.00     0.018 C 
ENDBRANCH   1   8
TORSDOF 1
ENDMDL
