MODEL 1
REMARK minimizedAffinity -3.49433613
REMARK minimizedRMSD -1
REMARK  1 active torsions:
REMARK  status: ('A' for Active; 'I' for Inactive)
REMARK    1  A    between atoms: C1_2  and  C2_3 
ROOT
ATOM      1  C2  UNL d   1      -1.555  -0.581  -0.248  0.00  0.00    -0.081 A 
ATOM      2  C3  UNL d   1      -0.670  -0.922   0.782  0.00  0.00     0.006 A 
ATOM      3  C4  UNL d   1       0.509  -0.198   0.972  0.00  0.00     0.002 A 
ATOM      4  C5  UNL d   1       0.818   0.885   0.141  0.00  0.00    -0.080 A 
ATOM      5  C6  UNL d   1       2.066   1.690   0.353  0.00  0.00     0.076 C 
ATOM      6  C7  UNL d   1      -0.058   1.215  -0.898  0.00  0.00     0.002 A 
ATOM      7  C8  UNL d   1      -1.236   0.490  -1.089  0.00  0.00     0.006 A 
ENDROOT
BRANCH   1   8
ATOM      8  C1  UNL d   1      -2.859  -1.320  -0.414  0.00  0.00     0.054 C 
ATOM      9  C   UNL d   1      -2.912  -2.555   0.473  0.00  0.00     0.018 C 
ENDBRANCH   1   8
TORSDOF 1
ENDMDL
