MODEL 1
REMARK minimizedAffinity -4.92403126
REMARK minimizedRMSD -1
REMARK  1 active torsions:
REMARK  status: ('A' for Active; 'I' for Inactive)
REMARK    1  A    between atoms: C1_2  and  C2_3 
ROOT
ATOM      1  C2  UNL d   1       0.424  -0.011  -0.032  0.00  0.00    -0.081 A 
ATOM      2  C3  UNL d   1      -0.476   0.277  -1.066  0.00  0.00     0.006 A 
ATOM      3  C4  UNL d   1      -1.779  -0.224  -1.030  0.00  0.00     0.002 A 
ATOM      4  C5  UNL d   1      -2.207  -1.014   0.043  0.00  0.00    -0.080 A 
ATOM      5  C6  UNL d   1      -3.613  -1.532   0.108  0.00  0.00     0.076 C 
ATOM      6  C7  UNL d   1      -1.303  -1.316   1.067  0.00  0.00     0.002 A 
ATOM      7  C8  UNL d   1       0.000  -0.816   1.031  0.00  0.00     0.006 A 
ENDROOT
BRANCH   1   8
ATOM      8  C1  UNL d   1       1.810   0.581  -0.035  0.00  0.00     0.054 C 
ATOM      9  C   UNL d   1       1.960   1.646   1.041  0.00  0.00     0.018 C 
ENDBRANCH   1   8
TORSDOF 1
ENDMDL
