MODEL 1
REMARK minimizedAffinity -5.61172915
REMARK minimizedRMSD -1
REMARK  1 active torsions:
REMARK  status: ('A' for Active; 'I' for Inactive)
REMARK    1  A    between atoms: C1_2  and  C2_3 
ROOT
ATOM      1  C2  UNL d   1       0.503   0.196   0.128  0.00  0.00    -0.081 A 
ATOM      2  C3  UNL d   1      -0.502   0.623  -0.749  0.00  0.00     0.006 A 
ATOM      3  C4  UNL d   1      -1.727  -0.046  -0.800  0.00  0.00     0.002 A 
ATOM      4  C5  UNL d   1      -1.971  -1.145   0.029  0.00  0.00    -0.080 A 
ATOM      5  C6  UNL d   1      -3.294  -1.853   0.006  0.00  0.00     0.076 C 
ATOM      6  C7  UNL d   1      -0.961  -1.582   0.893  0.00  0.00     0.002 A 
ATOM      7  C8  UNL d   1       0.264  -0.915   0.944  0.00  0.00     0.006 A 
ENDROOT
BRANCH   1   8
ATOM      8  C1  UNL d   1       1.802   0.954   0.232  0.00  0.00     0.054 C 
ATOM      9  C   UNL d   1       1.750   1.991   1.345  0.00  0.00     0.018 C 
ENDBRANCH   1   8
TORSDOF 1
ENDMDL
