MODEL 1
REMARK minimizedAffinity -4.22106504
REMARK minimizedRMSD -1
REMARK  1 active torsions:
REMARK  status: ('A' for Active; 'I' for Inactive)
REMARK    1  A    between atoms: C1_2  and  C2_3 
ROOT
ATOM      1  C2  UNL d   1       0.785  -0.009   0.188  0.00  0.00    -0.081 A 
ATOM      2  C3  UNL d   1      -0.007   0.362  -0.905  0.00  0.00     0.006 A 
ATOM      3  C4  UNL d   1      -1.329  -0.079  -1.004  0.00  0.00     0.002 A 
ATOM      4  C5  UNL d   1      -1.882  -0.891  -0.009  0.00  0.00    -0.080 A 
ATOM      5  C6  UNL d   1      -3.309  -1.347  -0.088  0.00  0.00     0.076 C 
ATOM      6  C7  UNL d   1      -1.086  -1.276   1.075  0.00  0.00     0.002 A 
ATOM      7  C8  UNL d   1       0.236  -0.836   1.174  0.00  0.00     0.006 A 
ENDROOT
BRANCH   1   8
ATOM      8  C1  UNL d   1       2.190   0.518   0.331  0.00  0.00     0.054 C 
ATOM      9  C   UNL d   1       2.309   1.465   1.516  0.00  0.00     0.018 C 
ENDBRANCH   1   8
TORSDOF 1
ENDMDL
