MODEL 1
REMARK minimizedAffinity 4.92908525
REMARK minimizedRMSD -1
REMARK  1 active torsions:
REMARK  status: ('A' for Active; 'I' for Inactive)
REMARK    1  A    between atoms: N_2  and  C1_3 
ROOT
ATOM      1  C1  UNL d   1       0.458   3.506  -0.631  0.00  0.00     0.143 A 
ATOM      2  C2  UNL d   1      -0.861   3.971  -0.619  0.00  0.00    -0.057 A 
ATOM      3  C3  UNL d   1      -1.944   3.085  -0.576  0.00  0.00     0.033 A 
ATOM      4  C4  UNL d   1      -1.726   1.711  -0.574  0.00  0.00    -0.042 A 
ATOM      5  C5  UNL d   1      -0.423   1.225  -0.611  0.00  0.00     0.033 A 
ATOM      6  C6  UNL d   1       0.654   2.116  -0.647  0.00  0.00    -0.057 A 
ENDROOT
BRANCH   1   7
ATOM      7  N   UNL d   1       1.574   4.334  -0.773  0.00  0.00    -0.732 N 
ATOM      8  C   UNL d   1       1.414   5.759  -0.972  0.00  0.00     0.284 C 
ATOM      9  H3  UNL d   1       2.326   4.086  -0.134  0.00  0.00     0.395 HD
ENDBRANCH   1   7
TORSDOF 1
ENDMDL
