MODEL 1
REMARK minimizedAffinity -2.71030498
REMARK minimizedRMSD -1
REMARK  1 active torsions:
REMARK  status: ('A' for Active; 'I' for Inactive)
REMARK    1  A    between atoms: N_2  and  C1_3 
ROOT
ATOM      1  C1  UNL d   1      -0.451   1.406   0.286  0.00  0.00     0.143 A 
ATOM      2  C2  UNL d   1      -0.680   0.064   0.609  0.00  0.00    -0.057 A 
ATOM      3  C3  UNL d   1      -1.979  -0.428   0.788  0.00  0.00     0.033 A 
ATOM      4  C4  UNL d   1      -3.073   0.424   0.675  0.00  0.00    -0.042 A 
ATOM      5  C5  UNL d   1      -2.867   1.766   0.379  0.00  0.00     0.033 A 
ATOM      6  C6  UNL d   1      -1.568   2.250   0.195  0.00  0.00    -0.057 A 
ENDROOT
BRANCH   1   7
ATOM      7  N   UNL d   1       0.821   1.976   0.192  0.00  0.00    -0.732 N 
ATOM      8  C   UNL d   1       1.891   1.540   1.064  0.00  0.00     0.284 C 
ATOM      9  H3  UNL d   1       1.107   2.132  -0.772  0.00  0.00     0.395 HD
ENDBRANCH   1   7
TORSDOF 1
ENDMDL
