MODEL 1
REMARK minimizedAffinity 1.11040747
REMARK minimizedRMSD -1
REMARK  1 active torsions:
REMARK  status: ('A' for Active; 'I' for Inactive)
REMARK    1  A    between atoms: N_2  and  C1_3 
ROOT
ATOM      1  C1  UNL d   1      -1.073   1.336   2.095  0.00  0.00     0.143 A 
ATOM      2  C2  UNL d   1      -0.639   0.351   1.201  0.00  0.00    -0.057 A 
ATOM      3  C3  UNL d   1      -0.960   0.414  -0.161  0.00  0.00     0.033 A 
ATOM      4  C4  UNL d   1      -1.749   1.450  -0.648  0.00  0.00    -0.042 A 
ATOM      5  C5  UNL d   1      -2.213   2.426   0.226  0.00  0.00     0.033 A 
ATOM      6  C6  UNL d   1      -1.883   2.362   1.583  0.00  0.00    -0.057 A 
ENDROOT
BRANCH   1   7
ATOM      7  N   UNL d   1      -0.870   1.277   3.475  0.00  0.00    -0.732 N 
ATOM      8  C   UNL d   1      -1.331   2.347   4.335  0.00  0.00     0.284 C 
ATOM      9  H3  UNL d   1      -1.026   0.345   3.852  0.00  0.00     0.395 HD
ENDBRANCH   1   7
TORSDOF 1
ENDMDL
