MODEL 1
REMARK minimizedAffinity 6.21768332
REMARK minimizedRMSD -1
REMARK  1 active torsions:
REMARK  status: ('A' for Active; 'I' for Inactive)
REMARK    1  A    between atoms: N_2  and  C1_3 
ROOT
ATOM      1  C1  UNL d   1      -0.740   0.725   1.400  0.00  0.00     0.143 A 
ATOM      2  C2  UNL d   1      -1.841   0.024   0.896  0.00  0.00    -0.057 A 
ATOM      3  C3  UNL d   1      -2.539   0.480  -0.228  0.00  0.00     0.033 A 
ATOM      4  C4  UNL d   1      -2.165   1.665  -0.853  0.00  0.00    -0.042 A 
ATOM      5  C5  UNL d   1      -1.090   2.392  -0.355  0.00  0.00     0.033 A 
ATOM      6  C6  UNL d   1      -0.392   1.928   0.764  0.00  0.00    -0.057 A 
ENDROOT
BRANCH   1   7
ATOM      7  N   UNL d   1      -0.066   0.376   2.573  0.00  0.00    -0.732 N 
ATOM      8  C   UNL d   1      -0.147   1.217   3.748  0.00  0.00     0.284 C 
ATOM      9  H3  UNL d   1      -0.121  -0.620   2.770  0.00  0.00     0.395 HD
ENDBRANCH   1   7
TORSDOF 1
ENDMDL
