MODEL 1
REMARK minimizedAffinity -1.07752371
REMARK minimizedRMSD -1
REMARK  1 active torsions:
REMARK  status: ('A' for Active; 'I' for Inactive)
REMARK    1  A    between atoms: N_2  and  C1_3 
ROOT
ATOM      1  C1  UNL d   1      -1.958   0.431   1.366  0.00  0.00     0.143 A 
ATOM      2  C2  UNL d   1      -0.613   0.738   1.134  0.00  0.00    -0.057 A 
ATOM      3  C3  UNL d   1      -0.244   1.779   0.273  0.00  0.00     0.033 A 
ATOM      4  C4  UNL d   1      -1.217   2.514  -0.397  0.00  0.00    -0.042 A 
ATOM      5  C5  UNL d   1      -2.560   2.209  -0.201  0.00  0.00     0.033 A 
ATOM      6  C6  UNL d   1      -2.922   1.174   0.666  0.00  0.00    -0.057 A 
ENDROOT
BRANCH   1   7
ATOM      7  N   UNL d   1      -2.387  -0.654   2.134  0.00  0.00    -0.732 N 
ATOM      8  C   UNL d   1      -2.837  -0.461   3.496  0.00  0.00     0.284 C 
ATOM      9  H3  UNL d   1      -2.951  -1.310   1.599  0.00  0.00     0.395 HD
ENDBRANCH   1   7
TORSDOF 1
ENDMDL
