MODEL 1
REMARK minimizedAffinity 1.8451221
REMARK minimizedRMSD -1
REMARK  1 active torsions:
REMARK  status: ('A' for Active; 'I' for Inactive)
REMARK    1  A    between atoms: N_2  and  C1_3 
ROOT
ATOM      1  C1  UNL d   1      -2.398   1.897  -0.097  0.00  0.00     0.143 A 
ATOM      2  C2  UNL d   1      -1.193   2.596   0.032  0.00  0.00    -0.057 A 
ATOM      3  C3  UNL d   1      -0.041   1.971   0.526  0.00  0.00     0.033 A 
ATOM      4  C4  UNL d   1      -0.082   0.640   0.929  0.00  0.00    -0.042 A 
ATOM      5  C5  UNL d   1      -1.276  -0.066   0.833  0.00  0.00     0.033 A 
ATOM      6  C6  UNL d   1      -2.421   0.561   0.332  0.00  0.00    -0.057 A 
ENDROOT
BRANCH   1   7
ATOM      7  N   UNL d   1      -3.601   2.489  -0.489  0.00  0.00    -0.732 N 
ATOM      8  C   UNL d   1      -4.857   2.058   0.088  0.00  0.00     0.284 C 
ATOM      9  H3  UNL d   1      -3.520   3.497  -0.602  0.00  0.00     0.395 HD
ENDBRANCH   1   7
TORSDOF 1
ENDMDL
