MODEL 1
REMARK minimizedAffinity 0.819719255
REMARK minimizedRMSD -1
REMARK  1 active torsions:
REMARK  status: ('A' for Active; 'I' for Inactive)
REMARK    1  A    between atoms: N_2  and  C1_3 
ROOT
ATOM      1  C1  UNL d   1      -1.030   1.649  -0.730  0.00  0.00     0.143 A 
ATOM      2  C2  UNL d   1      -0.060   0.862  -0.099  0.00  0.00    -0.057 A 
ATOM      3  C3  UNL d   1      -0.416  -0.137   0.815  0.00  0.00     0.033 A 
ATOM      4  C4  UNL d   1      -1.753  -0.348   1.137  0.00  0.00    -0.042 A 
ATOM      5  C5  UNL d   1      -2.733   0.439   0.542  0.00  0.00     0.033 A 
ATOM      6  C6  UNL d   1      -2.371   1.430  -0.375  0.00  0.00    -0.057 A 
ENDROOT
BRANCH   1   7
ATOM      7  N   UNL d   1      -0.734   2.723  -1.573  0.00  0.00    -0.732 N 
ATOM      8  C   UNL d   1      -0.351   4.006  -1.025  0.00  0.00     0.284 C 
ATOM      9  H3  UNL d   1      -0.192   2.440  -2.386  0.00  0.00     0.395 HD
ENDBRANCH   1   7
TORSDOF 1
ENDMDL
