MODEL 1
REMARK minimizedAffinity -0.172526583
REMARK minimizedRMSD -1
REMARK  1 active torsions:
REMARK  status: ('A' for Active; 'I' for Inactive)
REMARK    1  A    between atoms: N_2  and  C1_3 
ROOT
ATOM      1  C1  UNL d   1      -0.035   1.440   0.843  0.00  0.00     0.143 A 
ATOM      2  C2  UNL d   1      -0.819   0.315   1.122  0.00  0.00    -0.057 A 
ATOM      3  C3  UNL d   1      -2.197   0.311   0.874  0.00  0.00     0.033 A 
ATOM      4  C4  UNL d   1      -2.822   1.447   0.370  0.00  0.00    -0.042 A 
ATOM      5  C5  UNL d   1      -2.067   2.584   0.109  0.00  0.00     0.033 A 
ATOM      6  C6  UNL d   1      -0.690   2.580   0.352  0.00  0.00    -0.057 A 
ENDROOT
BRANCH   1   7
ATOM      7  N   UNL d   1       1.323   1.539   1.159  0.00  0.00    -0.732 N 
ATOM      8  C   UNL d   1       2.329   1.016   0.260  0.00  0.00     0.284 C 
ATOM      9  H3  UNL d   1       1.561   2.438   1.571  0.00  0.00     0.395 HD
ENDBRANCH   1   7
TORSDOF 1
ENDMDL
