MODEL 1
REMARK minimizedAffinity 7.46783829
REMARK minimizedRMSD -1
REMARK  1 active torsions:
REMARK  status: ('A' for Active; 'I' for Inactive)
REMARK    1  A    between atoms: N_2  and  C1_3 
ROOT
ATOM      1  C1  UNL d   1      -2.167   1.167   0.936  0.00  0.00     0.143 A 
ATOM      2  C2  UNL d   1      -0.965   1.180   1.652  0.00  0.00    -0.057 A 
ATOM      3  C3  UNL d   1       0.122   1.955   1.232  0.00  0.00     0.033 A 
ATOM      4  C4  UNL d   1       0.036   2.712   0.068  0.00  0.00    -0.042 A 
ATOM      5  C5  UNL d   1      -1.140   2.695  -0.673  0.00  0.00     0.033 A 
ATOM      6  C6  UNL d   1      -2.225   1.924  -0.244  0.00  0.00    -0.057 A 
ENDROOT
BRANCH   1   7
ATOM      7  N   UNL d   1      -3.250   0.342   1.248  0.00  0.00    -0.732 N 
ATOM      8  C   UNL d   1      -3.185  -0.565   2.375  0.00  0.00     0.284 C 
ATOM      9  H3  UNL d   1      -4.143   0.818   1.149  0.00  0.00     0.395 HD
ENDBRANCH   1   7
TORSDOF 1
ENDMDL
