MODEL 1
REMARK minimizedAffinity 2.05283117
REMARK minimizedRMSD -1
REMARK  1 active torsions:
REMARK  status: ('A' for Active; 'I' for Inactive)
REMARK    1  A    between atoms: N_2  and  C1_3 
ROOT
ATOM      1  C1  UNL d   1      -1.738   1.453   0.141  0.00  0.00     0.143 A 
ATOM      2  C2  UNL d   1      -0.396   1.690  -0.179  0.00  0.00    -0.057 A 
ATOM      3  C3  UNL d   1       0.638   1.038   0.503  0.00  0.00     0.033 A 
ATOM      4  C4  UNL d   1       0.349   0.157   1.540  0.00  0.00    -0.042 A 
ATOM      5  C5  UNL d   1      -0.976  -0.075   1.891  0.00  0.00     0.033 A 
ATOM      6  C6  UNL d   1      -2.005   0.574   1.202  0.00  0.00    -0.057 A 
ENDROOT
BRANCH   1   7
ATOM      7  N   UNL d   1      -2.808   2.144  -0.434  0.00  0.00    -0.732 N 
ATOM      8  C   UNL d   1      -2.675   2.754  -1.739  0.00  0.00     0.284 C 
ATOM      9  H3  UNL d   1      -3.698   1.676  -0.282  0.00  0.00     0.395 HD
ENDBRANCH   1   7
TORSDOF 1
ENDMDL
