MODEL 1
REMARK minimizedAffinity 3.92977428
REMARK minimizedRMSD -1
REMARK  1 active torsions:
REMARK  status: ('A' for Active; 'I' for Inactive)
REMARK    1  A    between atoms: N_2  and  C1_3 
ROOT
ATOM      1  C1  UNL d   1      -0.039   1.428   0.362  0.00  0.00     0.143 A 
ATOM      2  C2  UNL d   1      -0.268   2.319   1.417  0.00  0.00    -0.057 A 
ATOM      3  C3  UNL d   1       0.782   2.775   2.223  0.00  0.00     0.033 A 
ATOM      4  C4  UNL d   1       2.080   2.324   2.006  0.00  0.00    -0.042 A 
ATOM      5  C5  UNL d   1       2.327   1.419   0.980  0.00  0.00     0.033 A 
ATOM      6  C6  UNL d   1       1.275   0.972   0.174  0.00  0.00    -0.057 A 
ENDROOT
BRANCH   1   7
ATOM      7  N   UNL d   1      -1.055   0.862  -0.412  0.00  0.00    -0.732 N 
ATOM      8  C   UNL d   1      -1.960  -0.113   0.158  0.00  0.00     0.284 C 
ATOM      9  H3  UNL d   1      -1.505   1.543  -1.019  0.00  0.00     0.395 HD
ENDBRANCH   1   7
TORSDOF 1
ENDMDL
