MODEL 1
REMARK minimizedAffinity 3.53577709
REMARK minimizedRMSD -1
REMARK  1 active torsions:
REMARK  status: ('A' for Active; 'I' for Inactive)
REMARK    1  A    between atoms: N_2  and  C1_3 
ROOT
ATOM      1  C1  UNL d   1       1.491   1.278  -0.016  0.00  0.00     0.143 A 
ATOM      2  C2  UNL d   1       2.123   1.915   1.057  0.00  0.00    -0.057 A 
ATOM      3  C3  UNL d   1       1.383   2.513   2.085  0.00  0.00     0.033 A 
ATOM      4  C4  UNL d   1      -0.008   2.509   2.041  0.00  0.00    -0.042 A 
ATOM      5  C5  UNL d   1      -0.657   1.903   0.971  0.00  0.00     0.033 A 
ATOM      6  C6  UNL d   1       0.088   1.303  -0.048  0.00  0.00    -0.057 A 
ENDROOT
BRANCH   1   7
ATOM      7  N   UNL d   1       2.171   0.753  -1.118  0.00  0.00    -0.732 N 
ATOM      8  C   UNL d   1       2.053   1.371  -2.421  0.00  0.00     0.284 C 
ATOM      9  H3  UNL d   1       3.114   0.451  -0.884  0.00  0.00     0.395 HD
ENDBRANCH   1   7
TORSDOF 1
ENDMDL
