MODEL 1
REMARK minimizedAffinity 6.91931486
REMARK minimizedRMSD -1
REMARK  1 active torsions:
REMARK  status: ('A' for Active; 'I' for Inactive)
REMARK    1  A    between atoms: N_2  and  C1_3 
ROOT
ATOM      1  C1  UNL d   1       0.853   1.664   0.641  0.00  0.00     0.143 A 
ATOM      2  C2  UNL d   1       1.883   2.118   1.471  0.00  0.00    -0.057 A 
ATOM      3  C3  UNL d   1       1.610   2.870   2.621  0.00  0.00     0.033 A 
ATOM      4  C4  UNL d   1       0.300   3.207   2.945  0.00  0.00    -0.042 A 
ATOM      5  C5  UNL d   1      -0.738   2.787   2.120  0.00  0.00     0.033 A 
ATOM      6  C6  UNL d   1      -0.460   2.031   0.977  0.00  0.00    -0.057 A 
ENDROOT
BRANCH   1   7
ATOM      7  N   UNL d   1       1.066   0.996  -0.568  0.00  0.00    -0.732 N 
ATOM      8  C   UNL d   1       1.527   1.716  -1.736  0.00  0.00     0.284 C 
ATOM      9  H3  UNL d   1       1.506   0.088  -0.438  0.00  0.00     0.395 HD
ENDBRANCH   1   7
TORSDOF 1
ENDMDL
