MODEL 1
REMARK minimizedAffinity -2.03750324
REMARK minimizedRMSD -1
REMARK  1 active torsions:
REMARK  status: ('A' for Active; 'I' for Inactive)
REMARK    1  A    between atoms: N_2  and  C1_3 
ROOT
ATOM      1  C1  UNL d   1       0.110   0.919   0.451  0.00  0.00     0.143 A 
ATOM      2  C2  UNL d   1       1.476   0.651   0.592  0.00  0.00    -0.057 A 
ATOM      3  C3  UNL d   1       2.298   1.463   1.383  0.00  0.00     0.033 A 
ATOM      4  C4  UNL d   1       1.771   2.579   2.026  0.00  0.00    -0.042 A 
ATOM      5  C5  UNL d   1       0.421   2.879   1.880  0.00  0.00     0.033 A 
ATOM      6  C6  UNL d   1      -0.395   2.060   1.094  0.00  0.00    -0.057 A 
ENDROOT
BRANCH   1   7
ATOM      7  N   UNL d   1      -0.738   0.206  -0.400  0.00  0.00    -0.732 N 
ATOM      8  C   UNL d   1      -1.563  -0.867   0.112  0.00  0.00     0.284 C 
ATOM      9  H3  UNL d   1      -1.209   0.808  -1.072  0.00  0.00     0.395 HD
ENDBRANCH   1   7
TORSDOF 1
ENDMDL
