MODEL 1
REMARK minimizedAffinity -4.438941
REMARK minimizedRMSD -1
REMARK  0 active torsions:
REMARK  status: ('A' for Active; 'I' for Inactive)
ROOT
ATOM      1  C   UNL d   1       0.745   3.332  -0.008  0.00  0.00    -0.002 A 
ATOM      2  C1  UNL d   1       1.903   2.579  -0.146  0.00  0.00     0.010 A 
ATOM      3  C2  UNL d   1       1.858   1.186  -0.071  0.00  0.00     0.041 A 
ATOM      4  C3  UNL d   1       0.617   0.555   0.147  0.00  0.00    -0.075 A 
ATOM      5  S   UNL d   1       0.320  -1.139   0.274  0.00  0.00     0.015 SA
ATOM      6  C4  UNL d   1      -1.351  -0.903   0.514  0.00  0.00     0.022 A 
ATOM      7  C5  UNL d   1      -1.691   0.429   0.501  0.00  0.00     0.026 A 
ATOM      8  C6  UNL d   1      -0.563   1.291   0.288  0.00  0.00    -0.082 A 
ATOM      9  C7  UNL d   1      -0.484   2.702   0.208  0.00  0.00     0.045 A 
ENDROOT
TORSDOF 0
ENDMDL
