MODEL 1
REMARK minimizedAffinity -0.948431551
REMARK minimizedRMSD -1
REMARK  0 active torsions:
REMARK  status: ('A' for Active; 'I' for Inactive)
ROOT
ATOM      1  C   UNL d   1       0.416   3.574   0.697  0.00  0.00    -0.002 A 
ATOM      2  C1  UNL d   1       1.747   3.197   0.587  0.00  0.00     0.010 A 
ATOM      3  C2  UNL d   1       2.096   1.851   0.456  0.00  0.00     0.041 A 
ATOM      4  C3  UNL d   1       1.074   0.882   0.435  0.00  0.00    -0.075 A 
ATOM      5  S   UNL d   1       1.264  -0.825   0.282  0.00  0.00     0.015 SA
ATOM      6  C4  UNL d   1      -0.417  -1.094   0.358  0.00  0.00     0.022 A 
ATOM      7  C5  UNL d   1      -1.121   0.078   0.497  0.00  0.00     0.026 A 
ATOM      8  C6  UNL d   1      -0.273   1.236   0.543  0.00  0.00    -0.082 A 
ATOM      9  C7  UNL d   1      -0.594   2.609   0.676  0.00  0.00     0.045 A 
ENDROOT
TORSDOF 0
ENDMDL
