MODEL 1
REMARK minimizedAffinity -4.90821266
REMARK minimizedRMSD -1
REMARK  0 active torsions:
REMARK  status: ('A' for Active; 'I' for Inactive)
ROOT
ATOM      1  C   UNL d   1       1.267   3.068   0.826  0.00  0.00    -0.002 A 
ATOM      2  C1  UNL d   1       2.355   2.253   0.546  0.00  0.00     0.010 A 
ATOM      3  C2  UNL d   1       2.193   0.872   0.419  0.00  0.00     0.041 A 
ATOM      4  C3  UNL d   1       0.907   0.319   0.579  0.00  0.00    -0.075 A 
ATOM      5  S   UNL d   1       0.470  -1.345   0.467  0.00  0.00     0.015 SA
ATOM      6  C4  UNL d   1      -1.170  -1.013   0.788  0.00  0.00     0.022 A 
ATOM      7  C5  UNL d   1      -1.397   0.330   0.978  0.00  0.00     0.026 A 
ATOM      8  C6  UNL d   1      -0.203   1.119   0.860  0.00  0.00    -0.082 A 
ATOM      9  C7  UNL d   1      -0.006   2.516   0.984  0.00  0.00     0.045 A 
ENDROOT
TORSDOF 0
ENDMDL
