MODEL 1
REMARK minimizedAffinity -6.28384638
REMARK minimizedRMSD -1
REMARK  0 active torsions:
REMARK  status: ('A' for Active; 'I' for Inactive)
ROOT
ATOM      1  C   UNL d   1       1.225   3.187   0.329  0.00  0.00    -0.002 A 
ATOM      2  C1  UNL d   1       2.466   2.566   0.315  0.00  0.00     0.010 A 
ATOM      3  C2  UNL d   1       2.564   1.175   0.245  0.00  0.00     0.041 A 
ATOM      4  C3  UNL d   1       1.382   0.411   0.186  0.00  0.00    -0.075 A 
ATOM      5  S   UNL d   1       1.258  -1.306   0.094  0.00  0.00     0.015 SA
ATOM      6  C4  UNL d   1      -0.445  -1.257   0.069  0.00  0.00     0.022 A 
ATOM      7  C5  UNL d   1      -0.925   0.030   0.129  0.00  0.00     0.026 A 
ATOM      8  C6  UNL d   1       0.121   1.013   0.197  0.00  0.00    -0.082 A 
ATOM      9  C7  UNL d   1       0.055   2.425   0.270  0.00  0.00     0.045 A 
ENDROOT
TORSDOF 0
ENDMDL
