MODEL 1
REMARK minimizedAffinity -3.1137166
REMARK minimizedRMSD -1
REMARK  0 active torsions:
REMARK  status: ('A' for Active; 'I' for Inactive)
ROOT
ATOM      1  C   UNL d   1       0.917   3.667   0.751  0.00  0.00    -0.002 A 
ATOM      2  C1  UNL d   1       2.088   2.990   0.442  0.00  0.00     0.010 A 
ATOM      3  C2  UNL d   1       2.061   1.628   0.135  0.00  0.00     0.041 A 
ATOM      4  C3  UNL d   1       0.825   0.952   0.142  0.00  0.00    -0.075 A 
ATOM      5  S   UNL d   1       0.549  -0.715  -0.203  0.00  0.00     0.015 SA
ATOM      6  C4  UNL d   1      -1.130  -0.566   0.052  0.00  0.00     0.022 A 
ATOM      7  C5  UNL d   1      -1.488   0.716   0.393  0.00  0.00     0.026 A 
ATOM      8  C6  UNL d   1      -0.368   1.613   0.450  0.00  0.00    -0.082 A 
ATOM      9  C7  UNL d   1      -0.307   2.993   0.758  0.00  0.00     0.045 A 
ENDROOT
TORSDOF 0
ENDMDL
