MODEL 1
REMARK minimizedAffinity -1.88202918
REMARK minimizedRMSD -1
REMARK  0 active torsions:
REMARK  status: ('A' for Active; 'I' for Inactive)
ROOT
ATOM      1  C   UNL d   1       1.573   3.318   0.118  0.00  0.00    -0.002 A 
ATOM      2  C1  UNL d   1       0.525   3.686   0.950  0.00  0.00     0.010 A 
ATOM      3  C2  UNL d   1      -0.489   2.778   1.259  0.00  0.00     0.041 A 
ATOM      4  C3  UNL d   1      -0.432   1.480   0.714  0.00  0.00    -0.075 A 
ATOM      5  S   UNL d   1      -1.562   0.201   0.955  0.00  0.00     0.015 SA
ATOM      6  C4  UNL d   1      -0.680  -0.866  -0.041  0.00  0.00     0.022 A 
ATOM      7  C5  UNL d   1       0.451  -0.276  -0.553  0.00  0.00     0.026 A 
ATOM      8  C6  UNL d   1       0.614   1.085  -0.126  0.00  0.00    -0.082 A 
ATOM      9  C7  UNL d   1       1.627   2.029  -0.421  0.00  0.00     0.045 A 
ENDROOT
TORSDOF 0
ENDMDL
