MODEL 1
REMARK minimizedAffinity -3.30234385
REMARK minimizedRMSD -1
REMARK  0 active torsions:
REMARK  status: ('A' for Active; 'I' for Inactive)
ROOT
ATOM      1  C   UNL d   1      -0.661   0.931   0.572  0.00  0.00    -0.002 A 
ATOM      2  C1  UNL d   1      -1.495   1.310  -0.470  0.00  0.00     0.010 A 
ATOM      3  C2  UNL d   1      -1.725   0.448  -1.544  0.00  0.00     0.041 A 
ATOM      4  C3  UNL d   1      -1.098  -0.813  -1.554  0.00  0.00    -0.075 A 
ATOM      5  S   UNL d   1      -1.233  -2.033  -2.765  0.00  0.00     0.015 SA
ATOM      6  C4  UNL d   1      -0.187  -3.085  -1.927  0.00  0.00     0.022 A 
ATOM      7  C5  UNL d   1       0.264  -2.536  -0.750  0.00  0.00     0.026 A 
ATOM      8  C6  UNL d   1      -0.254  -1.217  -0.515  0.00  0.00    -0.082 A 
ATOM      9  C7  UNL d   1      -0.040  -0.321   0.560  0.00  0.00     0.045 A 
ENDROOT
TORSDOF 0
ENDMDL
