MODEL 1
REMARK minimizedAffinity -2.49778843
REMARK minimizedRMSD -1
REMARK  0 active torsions:
REMARK  status: ('A' for Active; 'I' for Inactive)
ROOT
ATOM      1  C   UNL d   1      -1.545   1.774   0.424  0.00  0.00    -0.002 A 
ATOM      2  C1  UNL d   1      -0.347   2.408   0.130  0.00  0.00     0.010 A 
ATOM      3  C2  UNL d   1       0.851   1.691   0.114  0.00  0.00     0.041 A 
ATOM      4  C3  UNL d   1       0.823   0.311   0.398  0.00  0.00    -0.075 A 
ATOM      5  S   UNL d   1       2.166  -0.770   0.435  0.00  0.00     0.015 SA
ATOM      6  C4  UNL d   1       1.180  -2.099   0.841  0.00  0.00     0.022 A 
ATOM      7  C5  UNL d   1      -0.144  -1.745   0.950  0.00  0.00     0.026 A 
ATOM      8  C6  UNL d   1      -0.372  -0.350   0.696  0.00  0.00    -0.082 A 
ATOM      9  C7  UNL d   1      -1.569   0.406   0.706  0.00  0.00     0.045 A 
ENDROOT
TORSDOF 0
ENDMDL
