MODEL 1
REMARK minimizedAffinity -4.92197132
REMARK minimizedRMSD -1
REMARK  0 active torsions:
REMARK  status: ('A' for Active; 'I' for Inactive)
ROOT
ATOM      1  C   UNL d   1       0.993   3.859   0.164  0.00  0.00    -0.002 A 
ATOM      2  C1  UNL d   1       2.128   3.065   0.078  0.00  0.00     0.010 A 
ATOM      3  C2  UNL d   1       2.019   1.673   0.046  0.00  0.00     0.041 A 
ATOM      4  C3  UNL d   1       0.738   1.088   0.100  0.00  0.00    -0.075 A 
ATOM      5  S   UNL d   1       0.362  -0.594   0.073  0.00  0.00     0.015 SA
ATOM      6  C4  UNL d   1      -1.313  -0.298   0.174  0.00  0.00     0.022 A 
ATOM      7  C5  UNL d   1      -1.596   1.046   0.228  0.00  0.00     0.026 A 
ATOM      8  C6  UNL d   1      -0.419   1.867   0.186  0.00  0.00    -0.082 A 
ATOM      9  C7  UNL d   1      -0.275   3.275   0.218  0.00  0.00     0.045 A 
ENDROOT
TORSDOF 0
ENDMDL
