MODEL 1
REMARK minimizedAffinity -3.43632245
REMARK minimizedRMSD -1
REMARK  0 active torsions:
REMARK  status: ('A' for Active; 'I' for Inactive)
ROOT
ATOM      1  C   UNL d   1       0.611   3.738   0.372  0.00  0.00    -0.002 A 
ATOM      2  C1  UNL d   1       1.920   3.301   0.516  0.00  0.00     0.010 A 
ATOM      3  C2  UNL d   1       2.211   1.937   0.572  0.00  0.00     0.041 A 
ATOM      4  C3  UNL d   1       1.154   1.010   0.479  0.00  0.00    -0.075 A 
ATOM      5  S   UNL d   1       1.273  -0.709   0.523  0.00  0.00     0.015 SA
ATOM      6  C4  UNL d   1      -0.412  -0.904   0.351  0.00  0.00     0.022 A 
ATOM      7  C5  UNL d   1      -1.064   0.302   0.261  0.00  0.00     0.026 A 
ATOM      8  C6  UNL d   1      -0.172   1.426   0.332  0.00  0.00    -0.082 A 
ATOM      9  C7  UNL d   1      -0.435   2.816   0.279  0.00  0.00     0.045 A 
ENDROOT
TORSDOF 0
ENDMDL
