MODEL 1
REMARK minimizedAffinity 8.41939259
REMARK minimizedRMSD -1
REMARK  0 active torsions:
REMARK  status: ('A' for Active; 'I' for Inactive)
ROOT
ATOM      1  C2' OXE d   1       5.472   4.715   4.187  0.00  0.00     0.078 C 
ATOM      2  C1' OXE d   1       3.744   3.338   2.456  0.00  0.00     0.078 C 
ATOM      3  C1  OXE d   1       4.466   2.539   3.511  0.00  0.00    -0.078 A 
ATOM      4  C2  OXE d   1       5.346   3.213   4.324  0.00  0.00    -0.078 A 
ATOM      5  C3  OXE d   1       5.997   2.533   5.349  0.00  0.00     0.003 A 
ATOM      6  C4  OXE d   1       5.882   1.143   5.462  0.00  0.00    -0.002 A 
ATOM      7  C5  OXE d   1       5.022   0.430   4.619  0.00  0.00    -0.002 A 
ATOM      8  C6  OXE d   1       4.277   1.118   3.668  0.00  0.00     0.003 A 
ENDROOT
TORSDOF 0
ENDMDL
