MODEL 1
REMARK minimizedAffinity 5.38562489
REMARK minimizedRMSD -1
REMARK  0 active torsions:
REMARK  status: ('A' for Active; 'I' for Inactive)
ROOT
ATOM      1  C2' OXE d   1       3.746  -0.562   2.120  0.00  0.00     0.078 C 
ATOM      2  C1' OXE d   1       3.694   2.240   1.952  0.00  0.00     0.078 C 
ATOM      3  C1  OXE d   1       4.527   1.616   3.043  0.00  0.00    -0.078 A 
ATOM      4  C2  OXE d   1       4.510   0.246   3.147  0.00  0.00    -0.078 A 
ATOM      5  C3  OXE d   1       5.304  -0.383   4.102  0.00  0.00     0.003 A 
ATOM      6  C4  OXE d   1       6.000   0.371   5.054  0.00  0.00    -0.002 A 
ATOM      7  C5  OXE d   1       5.999   1.769   4.991  0.00  0.00    -0.002 A 
ATOM      8  C6  OXE d   1       5.304   2.404   3.968  0.00  0.00     0.003 A 
ENDROOT
TORSDOF 0
ENDMDL
