MODEL 1
REMARK minimizedAffinity -3.52925181
REMARK minimizedRMSD -1
REMARK  0 active torsions:
REMARK  status: ('A' for Active; 'I' for Inactive)
ROOT
ATOM      1  C2' OXE d   1      -3.032  -1.052   0.795  0.00  0.00     0.078 C 
ATOM      2  C1' OXE d   1      -1.941   0.424   2.919  0.00  0.00     0.078 C 
ATOM      3  C1  OXE d   1      -2.427   1.184   1.711  0.00  0.00    -0.078 A 
ATOM      4  C2  OXE d   1      -2.916   0.451   0.657  0.00  0.00    -0.078 A 
ATOM      5  C3  OXE d   1      -3.427   1.105  -0.460  0.00  0.00     0.003 A 
ATOM      6  C4  OXE d   1      -3.307   2.495  -0.585  0.00  0.00    -0.002 A 
ATOM      7  C5  OXE d   1      -2.776   3.258   0.461  0.00  0.00    -0.002 A 
ATOM      8  C6  OXE d   1      -2.371   2.623   1.630  0.00  0.00     0.003 A 
ENDROOT
TORSDOF 0
ENDMDL
