MODEL 1
REMARK minimizedAffinity -3.24178767
REMARK minimizedRMSD -1
REMARK  0 active torsions:
REMARK  status: ('A' for Active; 'I' for Inactive)
ROOT
ATOM      1  C2' OXE d   1      -3.121  -0.995   2.957  0.00  0.00     0.078 C 
ATOM      2  C1' OXE d   1      -2.089  -1.879   0.500  0.00  0.00     0.078 C 
ATOM      3  C1  OXE d   1      -2.192  -0.391   0.726  0.00  0.00    -0.078 A 
ATOM      4  C2  OXE d   1      -2.741   0.032   1.912  0.00  0.00    -0.078 A 
ATOM      5  C3  OXE d   1      -2.808   1.394   2.193  0.00  0.00     0.003 A 
ATOM      6  C4  OXE d   1      -2.464   2.337   1.217  0.00  0.00    -0.002 A 
ATOM      7  C5  OXE d   1      -1.939   1.926  -0.013  0.00  0.00    -0.002 A 
ATOM      8  C6  OXE d   1      -1.757   0.570  -0.258  0.00  0.00     0.003 A 
ENDROOT
TORSDOF 0
ENDMDL
