MODEL 1
REMARK minimizedAffinity 1.91211569
REMARK minimizedRMSD -1
REMARK  0 active torsions:
REMARK  status: ('A' for Active; 'I' for Inactive)
ROOT
ATOM      1  C2' OXE d   1      -0.641   2.172  -0.933  0.00  0.00     0.078 C 
ATOM      2  C1' OXE d   1      -2.774   0.655   0.082  0.00  0.00     0.078 C 
ATOM      3  C1  OXE d   1      -2.959   2.148  -0.022  0.00  0.00    -0.078 A 
ATOM      4  C2  OXE d   1      -1.893   2.888  -0.476  0.00  0.00    -0.078 A 
ATOM      5  C3  OXE d   1      -2.029   4.263  -0.642  0.00  0.00     0.003 A 
ATOM      6  C4  OXE d   1      -3.188   4.918  -0.207  0.00  0.00    -0.002 A 
ATOM      7  C5  OXE d   1      -4.270   4.189   0.295  0.00  0.00    -0.002 A 
ATOM      8  C6  OXE d   1      -4.188   2.802   0.355  0.00  0.00     0.003 A 
ENDROOT
TORSDOF 0
ENDMDL
