MODEL 1
REMARK minimizedAffinity 3.07705879
REMARK minimizedRMSD -1
REMARK  0 active torsions:
REMARK  status: ('A' for Active; 'I' for Inactive)
ROOT
ATOM      1  C2' OXE d   1       5.999   0.711   4.896  0.00  0.00     0.078 C 
ATOM      2  C1' OXE d   1       5.349   2.614   2.937  0.00  0.00     0.078 C 
ATOM      3  C1  OXE d   1       4.694   1.259   2.846  0.00  0.00    -0.078 A 
ATOM      4  C2  OXE d   1       5.053   0.318   3.781  0.00  0.00    -0.078 A 
ATOM      5  C3  OXE d   1       4.438  -0.930   3.775  0.00  0.00     0.003 A 
ATOM      6  C4  OXE d   1       3.572  -1.288   2.735  0.00  0.00    -0.002 A 
ATOM      7  C5  OXE d   1       3.223  -0.359   1.749  0.00  0.00    -0.002 A 
ATOM      8  C6  OXE d   1       3.742   0.930   1.814  0.00  0.00     0.003 A 
ENDROOT
TORSDOF 0
ENDMDL
