MODEL 1
REMARK minimizedAffinity -0.88834095
REMARK minimizedRMSD -1
REMARK  0 active torsions:
REMARK  status: ('A' for Active; 'I' for Inactive)
ROOT
ATOM      1  C2' OXE d   1      -2.760  -0.439   0.462  0.00  0.00     0.078 C 
ATOM      2  C1' OXE d   1      -2.426   0.544   3.070  0.00  0.00     0.078 C 
ATOM      3  C1  OXE d   1      -2.854   1.517   2.001  0.00  0.00    -0.078 A 
ATOM      4  C2  OXE d   1      -2.970   1.037   0.718  0.00  0.00    -0.078 A 
ATOM      5  C3  OXE d   1      -3.414   1.881  -0.296  0.00  0.00     0.003 A 
ATOM      6  C4  OXE d   1      -3.597   3.247  -0.052  0.00  0.00    -0.002 A 
ATOM      7  C5  OXE d   1      -3.446   3.765   1.239  0.00  0.00    -0.002 A 
ATOM      8  C6  OXE d   1      -3.117   2.907   2.283  0.00  0.00     0.003 A 
ENDROOT
TORSDOF 0
ENDMDL
