MODEL 1
REMARK minimizedAffinity 2.95252752
REMARK minimizedRMSD -1
REMARK  0 active torsions:
REMARK  status: ('A' for Active; 'I' for Inactive)
ROOT
ATOM      1  C2' OXE d   1      -2.106  -2.726   1.611  0.00  0.00     0.078 C 
ATOM      2  C1' OXE d   1      -3.198  -0.498   0.298  0.00  0.00     0.078 C 
ATOM      3  C1  OXE d   1      -3.094  -0.447   1.802  0.00  0.00    -0.078 A 
ATOM      4  C2  OXE d   1      -2.602  -1.561   2.439  0.00  0.00    -0.078 A 
ATOM      5  C3  OXE d   1      -2.434  -1.546   3.821  0.00  0.00     0.003 A 
ATOM      6  C4  OXE d   1      -2.905  -0.469   4.581  0.00  0.00    -0.002 A 
ATOM      7  C5  OXE d   1      -3.446   0.659   3.955  0.00  0.00    -0.002 A 
ATOM      8  C6  OXE d   1      -3.509   0.703   2.566  0.00  0.00     0.003 A 
ENDROOT
TORSDOF 0
ENDMDL
