MODEL 1
REMARK minimizedAffinity 14.9614458
REMARK minimizedRMSD -1
REMARK  0 active torsions:
REMARK  status: ('A' for Active; 'I' for Inactive)
ROOT
ATOM      1  C2' OXE d   1      -5.162   5.324   1.009  0.00  0.00     0.078 C 
ATOM      2  C1' OXE d   1      -3.304   3.608   2.227  0.00  0.00     0.078 C 
ATOM      3  C1  OXE d   1      -4.217   4.406   3.123  0.00  0.00    -0.078 A 
ATOM      4  C2  OXE d   1      -5.091   5.278   2.520  0.00  0.00    -0.078 A 
ATOM      5  C3  OXE d   1      -5.993   5.998   3.298  0.00  0.00     0.003 A 
ATOM      6  C4  OXE d   1      -5.914   5.958   4.696  0.00  0.00    -0.002 A 
ATOM      7  C5  OXE d   1      -5.004   5.106   5.331  0.00  0.00    -0.002 A 
ATOM      8  C6  OXE d   1      -4.179   4.294   4.561  0.00  0.00     0.003 A 
ENDROOT
TORSDOF 0
ENDMDL
