MODEL 1
REMARK minimizedAffinity 3.47423267
REMARK minimizedRMSD -1
REMARK  0 active torsions:
REMARK  status: ('A' for Active; 'I' for Inactive)
ROOT
ATOM      1  C2' OXE d   1       4.126  -0.126   1.631  0.00  0.00     0.078 C 
ATOM      2  C1' OXE d   1       3.747   2.634   1.283  0.00  0.00     0.078 C 
ATOM      3  C1  OXE d   1       4.557   2.179   2.470  0.00  0.00    -0.078 A 
ATOM      4  C2  OXE d   1       4.698   0.826   2.659  0.00  0.00    -0.078 A 
ATOM      5  C3  OXE d   1       5.482   0.354   3.708  0.00  0.00     0.003 A 
ATOM      6  C4  OXE d   1       6.000   1.240   4.660  0.00  0.00    -0.002 A 
ATOM      7  C5  OXE d   1       5.834   2.621   4.509  0.00  0.00    -0.002 A 
ATOM      8  C6  OXE d   1       5.153   3.108   3.399  0.00  0.00     0.003 A 
ENDROOT
TORSDOF 0
ENDMDL
