MODEL 1
REMARK minimizedAffinity 6.52332878
REMARK minimizedRMSD -1
REMARK  0 active torsions:
REMARK  status: ('A' for Active; 'I' for Inactive)
ROOT
ATOM      1  C2' OXE d   1       6.000   0.544   5.500  0.00  0.00     0.078 C 
ATOM      2  C1' OXE d   1       4.471  -0.454   3.368  0.00  0.00     0.078 C 
ATOM      3  C1  OXE d   1       4.860   1.003   3.333  0.00  0.00    -0.078 A 
ATOM      4  C2  OXE d   1       5.568   1.494   4.404  0.00  0.00    -0.078 A 
ATOM      5  C3  OXE d   1       6.000   2.817   4.397  0.00  0.00     0.003 A 
ATOM      6  C4  OXE d   1       5.588   3.692   3.384  0.00  0.00    -0.002 A 
ATOM      7  C5  OXE d   1       4.832   3.222   2.305  0.00  0.00    -0.002 A 
ATOM      8  C6  OXE d   1       4.497   1.874   2.243  0.00  0.00     0.003 A 
ENDROOT
TORSDOF 0
ENDMDL
