MODEL 1
REMARK minimizedAffinity 12.0288258
REMARK minimizedRMSD -1
REMARK  0 active torsions:
REMARK  status: ('A' for Active; 'I' for Inactive)
ROOT
ATOM      1  C2' OXE d   1       5.191   4.301   3.484  0.00  0.00     0.078 C 
ATOM      2  C1' OXE d   1       3.392   2.962   1.796  0.00  0.00     0.078 C 
ATOM      3  C1  OXE d   1       4.280   2.125   2.682  0.00  0.00    -0.078 A 
ATOM      4  C2  OXE d   1       5.190   2.787   3.471  0.00  0.00    -0.078 A 
ATOM      5  C3  OXE d   1       5.996   2.066   4.348  0.00  0.00     0.003 A 
ATOM      6  C4  OXE d   1       5.996   0.666   4.322  0.00  0.00    -0.002 A 
ATOM      7  C5  OXE d   1       5.105  -0.029   3.497  0.00  0.00    -0.002 A 
ATOM      8  C6  OXE d   1       4.213   0.685   2.704  0.00  0.00     0.003 A 
ENDROOT
TORSDOF 0
ENDMDL
