MODEL 1
REMARK minimizedAffinity 0.000772632426
REMARK minimizedRMSD -1
REMARK  0 active torsions:
REMARK  status: ('A' for Active; 'I' for Inactive)
ROOT
ATOM      1  C2' OXE d   1       1.172  -0.930   0.116  0.00  0.00     0.078 C 
ATOM      2  C1' OXE d   1       2.753  -3.115   0.895  0.00  0.00     0.078 C 
ATOM      3  C1  OXE d   1       3.121  -1.754   1.431  0.00  0.00    -0.078 A 
ATOM      4  C2  OXE d   1       2.370  -0.684   1.007  0.00  0.00    -0.078 A 
ATOM      5  C3  OXE d   1       2.633   0.586   1.514  0.00  0.00     0.003 A 
ATOM      6  C4  OXE d   1       3.749   0.807   2.330  0.00  0.00    -0.002 A 
ATOM      7  C5  OXE d   1       4.551  -0.264   2.741  0.00  0.00    -0.002 A 
ATOM      8  C6  OXE d   1       4.226  -1.554   2.336  0.00  0.00     0.003 A 
ENDROOT
TORSDOF 0
ENDMDL
