MODEL 1
REMARK minimizedAffinity 2.81616831
REMARK minimizedRMSD -1
REMARK  0 active torsions:
REMARK  status: ('A' for Active; 'I' for Inactive)
ROOT
ATOM      1  C2' OXE d   1       4.877   2.148   2.988  0.00  0.00     0.078 C 
ATOM      2  C1' OXE d   1       6.000   0.699   5.115  0.00  0.00     0.078 C 
ATOM      3  C1  OXE d   1       4.970   0.006   4.258  0.00  0.00    -0.078 A 
ATOM      4  C2  OXE d   1       4.391   0.738   3.249  0.00  0.00    -0.078 A 
ATOM      5  C3  OXE d   1       3.476   0.130   2.395  0.00  0.00     0.003 A 
ATOM      6  C4  OXE d   1       3.025  -1.171   2.648  0.00  0.00    -0.002 A 
ATOM      7  C5  OXE d   1       3.572  -1.920   3.696  0.00  0.00    -0.002 A 
ATOM      8  C6  OXE d   1       4.574  -1.362   4.482  0.00  0.00     0.003 A 
ENDROOT
TORSDOF 0
ENDMDL
