MODEL 1
REMARK minimizedAffinity 1.19363344
REMARK minimizedRMSD -1
REMARK  0 active torsions:
REMARK  status: ('A' for Active; 'I' for Inactive)
ROOT
ATOM      1  C2' OXE d   1       5.322   4.704   3.763  0.00  0.00     0.078 C 
ATOM      2  C1' OXE d   1       3.759   3.232   1.955  0.00  0.00     0.078 C 
ATOM      3  C1  OXE d   1       4.519   2.469   3.011  0.00  0.00    -0.078 A 
ATOM      4  C2  OXE d   1       5.317   3.194   3.863  0.00  0.00    -0.078 A 
ATOM      5  C3  OXE d   1       5.997   2.545   4.890  0.00  0.00     0.003 A 
ATOM      6  C4  OXE d   1       5.995   1.147   4.969  0.00  0.00    -0.002 A 
ATOM      7  C5  OXE d   1       5.220   0.387   4.087  0.00  0.00    -0.002 A 
ATOM      8  C6  OXE d   1       4.444   1.034   3.131  0.00  0.00     0.003 A 
ENDROOT
TORSDOF 0
ENDMDL
