MODEL 1
REMARK minimizedAffinity -0.508172691
REMARK minimizedRMSD -1
REMARK  0 active torsions:
REMARK  status: ('A' for Active; 'I' for Inactive)
ROOT
ATOM      1  C2' OXE d   1      -5.604  -1.215   1.856  0.00  0.00     0.078 C 
ATOM      2  C1' OXE d   1      -3.431  -1.359   0.084  0.00  0.00     0.078 C 
ATOM      3  C1  OXE d   1      -3.147  -0.982   1.517  0.00  0.00    -0.078 A 
ATOM      4  C2  OXE d   1      -4.221  -0.869   2.366  0.00  0.00    -0.078 A 
ATOM      5  C3  OXE d   1      -4.010  -0.577   3.710  0.00  0.00     0.003 A 
ATOM      6  C4  OXE d   1      -2.729  -0.248   4.171  0.00  0.00    -0.002 A 
ATOM      7  C5  OXE d   1      -1.626  -0.319   3.314  0.00  0.00    -0.002 A 
ATOM      8  C6  OXE d   1      -1.812  -0.725   1.997  0.00  0.00     0.003 A 
ENDROOT
TORSDOF 0
ENDMDL
