MODEL 1
REMARK minimizedAffinity -4.65592337
REMARK minimizedRMSD -1
REMARK  1 active torsions:
REMARK  status: ('A' for Active; 'I' for Inactive)
REMARK    1  A    between atoms: C1_2  and  C2_3 
ROOT
ATOM      1  C2  UNL d   1       0.805  -1.003  -0.757  0.00  0.00    -0.077 A 
ATOM      2  C3  UNL d   1       2.090  -1.558  -0.833  0.00  0.00     0.002 A 
ATOM      3  C4  UNL d   1       2.948  -1.505   0.267  0.00  0.00     0.002 A 
ATOM      4  C5  UNL d   1       2.530  -0.903   1.452  0.00  0.00    -0.004 A 
ATOM      5  C6  UNL d   1       1.254  -0.346   1.536  0.00  0.00     0.002 A 
ATOM      6  C7  UNL d   1       0.395  -0.396   0.438  0.00  0.00     0.002 A 
ENDROOT
BRANCH   1   7
ATOM      7  C1  UNL d   1      -0.140  -1.102  -1.926  0.00  0.00     0.055 C 
ATOM      8  C   UNL d   1      -0.898   0.200  -2.137  0.00  0.00     0.019 C 
ENDBRANCH   1   7
TORSDOF 1
ENDMDL
