MODEL 1
REMARK minimizedAffinity -2.30536318
REMARK minimizedRMSD -1
REMARK  1 active torsions:
REMARK  status: ('A' for Active; 'I' for Inactive)
REMARK    1  A    between atoms: C1_2  and  C2_3 
ROOT
ATOM      1  C2  UNL d   1      -0.056   0.265  -0.051  0.00  0.00    -0.077 A 
ATOM      2  C3  UNL d   1       0.278   1.590  -0.363  0.00  0.00     0.002 A 
ATOM      3  C4  UNL d   1       1.400   2.190   0.211  0.00  0.00     0.002 A 
ATOM      4  C5  UNL d   1       2.200   1.471   1.097  0.00  0.00    -0.004 A 
ATOM      5  C6  UNL d   1       1.875   0.153   1.416  0.00  0.00     0.002 A 
ATOM      6  C7  UNL d   1       0.753  -0.448   0.844  0.00  0.00     0.002 A 
ENDROOT
BRANCH   1   7
ATOM      7  C1  UNL d   1      -1.238  -0.400  -0.707  0.00  0.00     0.055 C 
ATOM      8  C   UNL d   1      -1.069  -0.463  -2.218  0.00  0.00     0.019 C 
ENDBRANCH   1   7
TORSDOF 1
ENDMDL
