MODEL 1
REMARK minimizedAffinity -0.639911473
REMARK minimizedRMSD -1
REMARK  1 active torsions:
REMARK  status: ('A' for Active; 'I' for Inactive)
REMARK    1  A    between atoms: C1_2  and  C2_3 
ROOT
ATOM      1  C2  UNL d   1       0.006  -1.302  -1.175  0.00  0.00    -0.077 A 
ATOM      2  C3  UNL d   1       1.364  -1.558  -0.939  0.00  0.00     0.002 A 
ATOM      3  C4  UNL d   1       2.021  -0.957   0.136  0.00  0.00     0.002 A 
ATOM      4  C5  UNL d   1       1.326  -0.099   0.987  0.00  0.00    -0.004 A 
ATOM      5  C6  UNL d   1      -0.024   0.164   0.760  0.00  0.00     0.002 A 
ATOM      6  C7  UNL d   1      -0.681  -0.436  -0.315  0.00  0.00     0.002 A 
ENDROOT
BRANCH   1   7
ATOM      7  C1  UNL d   1      -0.716  -1.988  -2.305  0.00  0.00     0.055 C 
ATOM      8  C   UNL d   1      -1.397  -0.980  -3.219  0.00  0.00     0.019 C 
ENDBRANCH   1   7
TORSDOF 1
ENDMDL
