MODEL 1
REMARK minimizedAffinity -3.77078795
REMARK minimizedRMSD -1
REMARK  1 active torsions:
REMARK  status: ('A' for Active; 'I' for Inactive)
REMARK    1  A    between atoms: C1_2  and  C2_3 
ROOT
ATOM      1  C2  UNL d   1       2.897  -0.654   0.237  0.00  0.00    -0.077 A 
ATOM      2  C3  UNL d   1       3.548   0.550  -0.066  0.00  0.00     0.002 A 
ATOM      3  C4  UNL d   1       4.228   0.700  -1.277  0.00  0.00     0.002 A 
ATOM      4  C5  UNL d   1       4.260  -0.348  -2.194  0.00  0.00    -0.004 A 
ATOM      5  C6  UNL d   1       3.617  -1.550  -1.901  0.00  0.00     0.002 A 
ATOM      6  C7  UNL d   1       2.938  -1.702  -0.691  0.00  0.00     0.002 A 
ENDROOT
BRANCH   1   7
ATOM      7  C1  UNL d   1       2.122  -0.800   1.520  0.00  0.00     0.055 C 
ATOM      8  C   UNL d   1       1.291   0.442   1.810  0.00  0.00     0.019 C 
ENDBRANCH   1   7
TORSDOF 1
ENDMDL
