MODEL 1
REMARK minimizedAffinity -6.07629395
REMARK minimizedRMSD -1
REMARK  1 active torsions:
REMARK  status: ('A' for Active; 'I' for Inactive)
REMARK    1  A    between atoms: C1_2  and  C2_3 
ROOT
ATOM      1  C2  UNL d   1       0.826  -1.587  -0.821  0.00  0.00    -0.077 A 
ATOM      2  C3  UNL d   1       0.412  -0.267  -0.593  0.00  0.00     0.002 A 
ATOM      3  C4  UNL d   1       1.181   0.586   0.201  0.00  0.00     0.002 A 
ATOM      4  C5  UNL d   1       2.368   0.131   0.770  0.00  0.00    -0.004 A 
ATOM      5  C6  UNL d   1       2.787  -1.181   0.551  0.00  0.00     0.002 A 
ATOM      6  C7  UNL d   1       2.019  -2.036  -0.242  0.00  0.00     0.002 A 
ENDROOT
BRANCH   1   7
ATOM      7  C1  UNL d   1       0.024  -2.494  -1.717  0.00  0.00     0.055 C 
ATOM      8  C   UNL d   1      -0.469  -1.756  -2.954  0.00  0.00     0.019 C 
ENDBRANCH   1   7
TORSDOF 1
ENDMDL
