MODEL 1
REMARK minimizedAffinity -3.28184295
REMARK minimizedRMSD -1
REMARK  1 active torsions:
REMARK  status: ('A' for Active; 'I' for Inactive)
REMARK    1  A    between atoms: C1_2  and  C2_3 
ROOT
ATOM      1  C2  UNL d   1       1.121  -0.418  -0.053  0.00  0.00    -0.077 A 
ATOM      2  C3  UNL d   1       2.049  -1.408  -0.404  0.00  0.00     0.002 A 
ATOM      3  C4  UNL d   1       3.390  -1.281  -0.037  0.00  0.00     0.002 A 
ATOM      4  C5  UNL d   1       3.814  -0.168   0.686  0.00  0.00    -0.004 A 
ATOM      5  C6  UNL d   1       2.899   0.823   1.038  0.00  0.00     0.002 A 
ATOM      6  C7  UNL d   1       1.558   0.699   0.671  0.00  0.00     0.002 A 
ENDROOT
BRANCH   1   7
ATOM      7  C1  UNL d   1      -0.335  -0.577  -0.404  0.00  0.00     0.055 C 
ATOM      8  C   UNL d   1      -0.558  -1.779  -1.311  0.00  0.00     0.019 C 
ENDBRANCH   1   7
TORSDOF 1
ENDMDL
