MODEL 1
REMARK minimizedAffinity -1.88475108
REMARK minimizedRMSD -1
REMARK  2 active torsions:
REMARK  status: ('A' for Active; 'I' for Inactive)
REMARK    1  A    between atoms: C2'_3  and  C1'_4 
REMARK    2  A    between atoms: C1'_4  and  C1_5 
ROOT
ATOM      1  C1  I4B d   1      -0.961   0.035   1.711  0.00  0.00    -0.075 A 
ATOM      2  C2  I4B d   1       0.247   0.671   1.862  0.00  0.00     0.003 A 
ATOM      3  C3  I4B d   1       1.156   0.742   0.779  0.00  0.00     0.002 A 
ATOM      4  C4  I4B d   1       0.840   0.124  -0.414  0.00  0.00    -0.004 A 
ATOM      5  C5  I4B d   1      -0.394  -0.500  -0.573  0.00  0.00     0.002 A 
ATOM      6  C6  I4B d   1      -1.306  -0.534   0.492  0.00  0.00     0.003 A 
ENDROOT
BRANCH   1   7
ATOM      7  C1' I4B d   1      -1.882  -0.050   2.886  0.00  0.00     0.060 C 
BRANCH   7   8
ATOM      8  C2' I4B d   1      -2.360  -1.483   3.002  0.00  0.00    -0.013 C 
ATOM      9  C4' I4B d   1      -1.895  -2.109   4.291  0.00  0.00     0.013 C 
ATOM     10  C3' I4B d   1      -3.856  -1.482   2.910  0.00  0.00     0.013 C 
ENDBRANCH   7   8
ENDBRANCH   1   7
TORSDOF 2
ENDMDL
