MODEL 1
REMARK minimizedAffinity -4.52619028
REMARK minimizedRMSD -1
REMARK  2 active torsions:
REMARK  status: ('A' for Active; 'I' for Inactive)
REMARK    1  A    between atoms: C2'_3  and  C1'_4 
REMARK    2  A    between atoms: C1'_4  and  C1_5 
ROOT
ATOM      1  C1  I4B d   1      -0.026  -0.129  -0.207  0.00  0.00    -0.075 A 
ATOM      2  C2  I4B d   1      -1.381  -0.326  -0.297  0.00  0.00     0.003 A 
ATOM      3  C3  I4B d   1      -2.255   0.288   0.632  0.00  0.00     0.002 A 
ATOM      4  C4  I4B d   1      -1.730   1.046   1.659  0.00  0.00    -0.004 A 
ATOM      5  C5  I4B d   1      -0.358   1.264   1.736  0.00  0.00     0.002 A 
ATOM      6  C6  I4B d   1       0.499   0.683   0.790  0.00  0.00     0.003 A 
ENDROOT
BRANCH   1   7
ATOM      7  C1' I4B d   1       0.870  -0.820  -1.185  0.00  0.00     0.060 C 
BRANCH   7   8
ATOM      8  C2' I4B d   1       0.688  -0.156  -2.535  0.00  0.00    -0.013 C 
ATOM      9  C4' I4B d   1       1.616   1.019  -2.694  0.00  0.00     0.013 C 
ATOM     10  C3' I4B d   1       0.933  -1.187  -3.595  0.00  0.00     0.013 C 
ENDBRANCH   7   8
ENDBRANCH   1   7
TORSDOF 2
ENDMDL
