MODEL 1
REMARK minimizedAffinity -3.23374557
REMARK minimizedRMSD -1
REMARK  2 active torsions:
REMARK  status: ('A' for Active; 'I' for Inactive)
REMARK    1  A    between atoms: C2'_3  and  C1'_4 
REMARK    2  A    between atoms: C1'_4  and  C1_5 
ROOT
ATOM      1  C1  I4B d   1       0.265  -0.270  -1.409  0.00  0.00    -0.075 A 
ATOM      2  C2  I4B d   1      -1.101  -0.315  -1.282  0.00  0.00     0.003 A 
ATOM      3  C3  I4B d   1      -1.706  -0.107  -0.019  0.00  0.00     0.002 A 
ATOM      4  C4  I4B d   1      -0.912   0.093   1.092  0.00  0.00    -0.004 A 
ATOM      5  C5  I4B d   1       0.472   0.161   0.957  0.00  0.00     0.002 A 
ATOM      6  C6  I4B d   1       1.064  -0.009  -0.303  0.00  0.00     0.003 A 
ENDROOT
BRANCH   1   7
ATOM      7  C1' I4B d   1       0.873  -0.527  -2.751  0.00  0.00     0.060 C 
BRANCH   7   8
ATOM      8  C2' I4B d   1       1.449   0.778  -3.261  0.00  0.00    -0.013 C 
ATOM      9  C4' I4B d   1       2.927   0.657  -3.521  0.00  0.00     0.013 C 
ATOM     10  C3' I4B d   1       0.708   1.154  -4.510  0.00  0.00     0.013 C 
ENDBRANCH   7   8
ENDBRANCH   1   7
TORSDOF 2
ENDMDL
