MODEL 1
REMARK minimizedAffinity -4.04608727
REMARK minimizedRMSD -1
REMARK  2 active torsions:
REMARK  status: ('A' for Active; 'I' for Inactive)
REMARK    1  A    between atoms: C2'_3  and  C1'_4 
REMARK    2  A    between atoms: C1'_4  and  C1_5 
ROOT
ATOM      1  C1  I4B d   1      -0.367  -0.010  -0.096  0.00  0.00    -0.075 A 
ATOM      2  C2  I4B d   1      -1.684   0.084  -0.473  0.00  0.00     0.003 A 
ATOM      3  C3  I4B d   1      -2.666   0.493   0.462  0.00  0.00     0.002 A 
ATOM      4  C4  I4B d   1      -2.297   0.747   1.768  0.00  0.00    -0.004 A 
ATOM      5  C5  I4B d   1      -0.958   0.673   2.142  0.00  0.00     0.002 A 
ATOM      6  C6  I4B d   1       0.015   0.305   1.202  0.00  0.00     0.003 A 
ENDROOT
BRANCH   1   7
ATOM      7  C1' I4B d   1       0.638  -0.476  -1.100  0.00  0.00     0.060 C 
BRANCH   7   8
ATOM      8  C2' I4B d   1       0.516   0.404  -2.327  0.00  0.00    -0.013 C 
ATOM      9  C4' I4B d   1       1.848   0.991  -2.712  0.00  0.00     0.013 C 
ATOM     10  C3' I4B d   1      -0.051  -0.428  -3.439  0.00  0.00     0.013 C 
ENDBRANCH   7   8
ENDBRANCH   1   7
TORSDOF 2
ENDMDL
