MODEL 1
REMARK minimizedAffinity -3.72642994
REMARK minimizedRMSD -1
REMARK  2 active torsions:
REMARK  status: ('A' for Active; 'I' for Inactive)
REMARK    1  A    between atoms: C2'_3  and  C1'_4 
REMARK    2  A    between atoms: C1'_4  and  C1_5 
ROOT
ATOM      1  C1  I4B d   1      -0.034  -0.141  -0.648  0.00  0.00    -0.075 A 
ATOM      2  C2  I4B d   1       0.789   0.382   0.318  0.00  0.00     0.003 A 
ATOM      3  C3  I4B d   1       0.262   0.748   1.581  0.00  0.00     0.002 A 
ATOM      4  C4  I4B d   1      -1.092   0.622   1.815  0.00  0.00    -0.004 A 
ATOM      5  C5  I4B d   1      -1.920   0.071   0.842  0.00  0.00     0.002 A 
ATOM      6  C6  I4B d   1      -1.387  -0.325  -0.393  0.00  0.00     0.003 A 
ENDROOT
BRANCH   1   7
ATOM      7  C1' I4B d   1       0.550  -0.486  -1.982  0.00  0.00     0.060 C 
BRANCH   7   8
ATOM      8  C2' I4B d   1       0.578   0.776  -2.819  0.00  0.00    -0.013 C 
ATOM      9  C4' I4B d   1       1.990   1.249  -3.046  0.00  0.00     0.013 C 
ATOM     10  C3' I4B d   1      -0.110   0.485  -4.119  0.00  0.00     0.013 C 
ENDBRANCH   7   8
ENDBRANCH   1   7
TORSDOF 2
ENDMDL
