MODEL 1
REMARK minimizedAffinity -0.973353624
REMARK minimizedRMSD -1
REMARK  0 active torsions:
REMARK  status: ('A' for Active; 'I' for Inactive)
ROOT
ATOM      1  C1  DEN d   1      -1.115   0.523   1.659  0.00  0.00     0.130 A 
ATOM      2  C2  DEN d   1      -1.544   1.919   1.671  0.00  0.00    -0.031 A 
ATOM      3  C3  DEN d   1      -1.016   2.570   0.456  0.00  0.00     0.027 A 
ATOM      4  C4  DEN d   1       0.413   1.557  -1.437  0.00  0.00     0.027 A 
ATOM      5  C5  DEN d   1       1.038   0.413  -1.883  0.00  0.00    -0.003 A 
ATOM      6  C6  DEN d   1       1.017  -0.756  -1.169  0.00  0.00     0.001 A 
ATOM      7  C7  DEN d   1       0.321  -0.819   0.009  0.00  0.00     0.017 A 
ATOM      8  C8  DEN d   1      -0.305   0.332   0.469  0.00  0.00    -0.094 A 
ATOM      9  C9  DEN d   1      -0.284   1.500  -0.274  0.00  0.00    -0.072 A 
ENDROOT
TORSDOF 0
ENDMDL
