MODEL 1
REMARK minimizedAffinity -0.890814424
REMARK minimizedRMSD -1
REMARK  0 active torsions:
REMARK  status: ('A' for Active; 'I' for Inactive)
ROOT
ATOM      1  C1  DEN d   1      -0.313  -0.299  -1.061  0.00  0.00     0.130 A 
ATOM      2  C2  DEN d   1       0.740   0.119  -0.139  0.00  0.00    -0.031 A 
ATOM      3  C3  DEN d   1       1.725  -0.978  -0.043  0.00  0.00     0.027 A 
ATOM      4  C4  DEN d   1       1.724  -3.268  -1.230  0.00  0.00     0.027 A 
ATOM      5  C5  DEN d   1       1.031  -4.081  -2.100  0.00  0.00    -0.003 A 
ATOM      6  C6  DEN d   1      -0.165  -3.708  -2.653  0.00  0.00     0.001 A 
ATOM      7  C7  DEN d   1      -0.683  -2.470  -2.378  0.00  0.00     0.017 A 
ATOM      8  C8  DEN d   1       0.006  -1.647  -1.496  0.00  0.00    -0.094 A 
ATOM      9  C9  DEN d   1       1.219  -2.038  -0.956  0.00  0.00    -0.072 A 
ENDROOT
TORSDOF 0
ENDMDL
