MODEL 1
REMARK minimizedAffinity -6.21960974
REMARK minimizedRMSD -1
REMARK  0 active torsions:
REMARK  status: ('A' for Active; 'I' for Inactive)
ROOT
ATOM      1  C1  DEN d   1       1.202   0.127  -0.655  0.00  0.00     0.130 A 
ATOM      2  C2  DEN d   1       1.039  -0.979   0.286  0.00  0.00    -0.031 A 
ATOM      3  C3  DEN d   1       0.143  -0.528   1.369  0.00  0.00     0.027 A 
ATOM      4  C4  DEN d   1      -1.007   1.760   1.678  0.00  0.00     0.027 A 
ATOM      5  C5  DEN d   1      -1.161   3.020   1.144  0.00  0.00    -0.003 A 
ATOM      6  C6  DEN d   1      -0.517   3.412   0.001  0.00  0.00     0.001 A 
ATOM      7  C7  DEN d   1       0.277   2.520  -0.671  0.00  0.00     0.017 A 
ATOM      8  C8  DEN d   1       0.443   1.250  -0.135  0.00  0.00    -0.094 A 
ATOM      9  C9  DEN d   1      -0.227   0.869   1.015  0.00  0.00    -0.072 A 
ENDROOT
TORSDOF 0
ENDMDL
