MODEL 1
REMARK minimizedAffinity -0.678224683
REMARK minimizedRMSD -1
REMARK  0 active torsions:
REMARK  status: ('A' for Active; 'I' for Inactive)
ROOT
ATOM      1  C1  DEN d   1       2.086  -3.864   0.758  0.00  0.00     0.130 A 
ATOM      2  C2  DEN d   1       1.653  -5.234   0.500  0.00  0.00    -0.031 A 
ATOM      3  C3  DEN d   1       0.897  -5.242  -0.769  0.00  0.00     0.027 A 
ATOM      4  C4  DEN d   1       0.364  -3.277  -2.352  0.00  0.00     0.027 A 
ATOM      5  C5  DEN d   1       0.512  -1.921  -2.548  0.00  0.00    -0.003 A 
ATOM      6  C6  DEN d   1       1.160  -1.119  -1.647  0.00  0.00     0.001 A 
ATOM      7  C7  DEN d   1       1.724  -1.674  -0.528  0.00  0.00     0.017 A 
ATOM      8  C8  DEN d   1       1.573  -3.038  -0.320  0.00  0.00    -0.094 A 
ATOM      9  C9  DEN d   1       0.925  -3.834  -1.250  0.00  0.00    -0.072 A 
ENDROOT
TORSDOF 0
ENDMDL
