MODEL 1
REMARK minimizedAffinity 2.71574116
REMARK minimizedRMSD -1
REMARK  0 active torsions:
REMARK  status: ('A' for Active; 'I' for Inactive)
ROOT
ATOM      1  C1  DEN d   1       0.141   2.292  -1.056  0.00  0.00     0.130 A 
ATOM      2  C2  DEN d   1       1.095   1.998  -2.121  0.00  0.00    -0.031 A 
ATOM      3  C3  DEN d   1       1.695   0.677  -1.846  0.00  0.00     0.027 A 
ATOM      4  C4  DEN d   1       1.237  -0.935   0.115  0.00  0.00     0.027 A 
ATOM      5  C5  DEN d   1       0.517  -1.116   1.275  0.00  0.00    -0.003 A 
ATOM      6  C6  DEN d   1      -0.346  -0.167   1.754  0.00  0.00     0.001 A 
ATOM      7  C7  DEN d   1      -0.546   0.989   1.045  0.00  0.00     0.017 A 
ATOM      8  C8  DEN d   1       0.182   1.181  -0.122  0.00  0.00    -0.094 A 
ATOM      9  C9  DEN d   1       1.041   0.204  -0.596  0.00  0.00    -0.072 A 
ENDROOT
TORSDOF 0
ENDMDL
