MODEL 1
REMARK minimizedAffinity -6.55528736
REMARK minimizedRMSD -1
REMARK  0 active torsions:
REMARK  status: ('A' for Active; 'I' for Inactive)
ROOT
ATOM      1  C1  DEN d   1      -1.108   3.191   0.114  0.00  0.00     0.130 A 
ATOM      2  C2  DEN d   1      -0.117   3.165  -0.959  0.00  0.00    -0.031 A 
ATOM      3  C3  DEN d   1       0.521   1.834  -0.959  0.00  0.00     0.027 A 
ATOM      4  C4  DEN d   1       0.069  -0.183   0.585  0.00  0.00     0.027 A 
ATOM      5  C5  DEN d   1      -0.674  -0.634   1.653  0.00  0.00    -0.003 A 
ATOM      6  C6  DEN d   1      -1.582   0.162   2.299  0.00  0.00     0.001 A 
ATOM      7  C7  DEN d   1      -1.803   1.439   1.854  0.00  0.00     0.017 A 
ATOM      8  C8  DEN d   1      -1.052   1.904   0.783  0.00  0.00    -0.094 A 
ATOM      9  C9  DEN d   1      -0.148   1.079   0.135  0.00  0.00    -0.072 A 
ENDROOT
TORSDOF 0
ENDMDL
