MODEL 1
REMARK minimizedAffinity 0.674616098
REMARK minimizedRMSD -1
REMARK  0 active torsions:
REMARK  status: ('A' for Active; 'I' for Inactive)
ROOT
ATOM      1  C1  DEN d   1      -0.773   0.302  -1.428  0.00  0.00     0.130 A 
ATOM      2  C2  DEN d   1      -0.737   0.497   0.019  0.00  0.00    -0.031 A 
ATOM      3  C3  DEN d   1      -0.032  -0.655   0.617  0.00  0.00     0.027 A 
ATOM      4  C4  DEN d   1       1.005  -2.707  -0.551  0.00  0.00     0.027 A 
ATOM      5  C5  DEN d   1       1.214  -3.321  -1.767  0.00  0.00    -0.003 A 
ATOM      6  C6  DEN d   1       0.749  -2.791  -2.941  0.00  0.00     0.001 A 
ATOM      7  C7  DEN d   1       0.091  -1.590  -2.931  0.00  0.00     0.017 A 
ATOM      8  C8  DEN d   1      -0.130  -0.969  -1.708  0.00  0.00    -0.094 A 
ATOM      9  C9  DEN d   1       0.359  -1.514  -0.533  0.00  0.00    -0.072 A 
ENDROOT
TORSDOF 0
ENDMDL
