MODEL 1
REMARK minimizedAffinity -0.77268517
REMARK minimizedRMSD -1
REMARK  0 active torsions:
REMARK  status: ('A' for Active; 'I' for Inactive)
ROOT
ATOM      1  C1  DEN d   1       1.111  -0.606  -1.353  0.00  0.00     0.130 A 
ATOM      2  C2  DEN d   1       0.958  -1.552  -0.250  0.00  0.00    -0.031 A 
ATOM      3  C3  DEN d   1      -0.050  -1.009   0.681  0.00  0.00     0.027 A 
ATOM      4  C4  DEN d   1      -1.387   1.191   0.522  0.00  0.00     0.027 A 
ATOM      5  C5  DEN d   1      -1.593   2.328  -0.227  0.00  0.00    -0.003 A 
ATOM      6  C6  DEN d   1      -0.892   2.581  -1.377  0.00  0.00     0.001 A 
ATOM      7  C7  DEN d   1       0.015   1.663  -1.835  0.00  0.00     0.017 A 
ATOM      8  C8  DEN d   1       0.233   0.517  -1.081  0.00  0.00    -0.094 A 
ATOM      9  C9  DEN d   1      -0.494   0.274   0.072  0.00  0.00    -0.072 A 
ENDROOT
TORSDOF 0
ENDMDL
