MODEL 1
REMARK minimizedAffinity -4.40205669
REMARK minimizedRMSD -1
REMARK  0 active torsions:
REMARK  status: ('A' for Active; 'I' for Inactive)
ROOT
ATOM      1  C1  DEN d   1      -1.574   2.036   0.366  0.00  0.00     0.130 A 
ATOM      2  C2  DEN d   1      -1.868   2.188   1.788  0.00  0.00    -0.031 A 
ATOM      3  C3  DEN d   1      -1.127   1.143   2.522  0.00  0.00     0.027 A 
ATOM      4  C4  DEN d   1       0.444  -0.683   1.600  0.00  0.00     0.027 A 
ATOM      5  C5  DEN d   1       0.994  -1.217   0.456  0.00  0.00    -0.003 A 
ATOM      6  C6  DEN d   1       0.702  -0.730  -0.791  0.00  0.00     0.001 A 
ATOM      7  C7  DEN d   1      -0.128   0.352  -0.920  0.00  0.00     0.017 A 
ATOM      8  C8  DEN d   1      -0.692   0.891   0.229  0.00  0.00    -0.094 A 
ATOM      9  C9  DEN d   1      -0.376   0.392   1.481  0.00  0.00    -0.072 A 
ENDROOT
TORSDOF 0
ENDMDL
