MODEL 1
REMARK minimizedAffinity -1.86903441
REMARK minimizedRMSD -1
REMARK  0 active torsions:
REMARK  status: ('A' for Active; 'I' for Inactive)
ROOT
ATOM      1  C1  DEN d   1      -0.464  -0.138  -0.752  0.00  0.00     0.130 A 
ATOM      2  C2  DEN d   1       0.313  -1.105   0.018  0.00  0.00    -0.031 A 
ATOM      3  C3  DEN d   1       0.231  -0.726   1.443  0.00  0.00     0.027 A 
ATOM      4  C4  DEN d   1      -1.023   1.251   2.526  0.00  0.00     0.027 A 
ATOM      5  C5  DEN d   1      -1.813   2.352   2.277  0.00  0.00    -0.003 A 
ATOM      6  C6  DEN d   1      -2.178   2.716   1.008  0.00  0.00     0.001 A 
ATOM      7  C7  DEN d   1      -1.789   1.947  -0.057  0.00  0.00     0.017 A 
ATOM      8  C8  DEN d   1      -0.986   0.840   0.186  0.00  0.00    -0.094 A 
ATOM      9  C9  DEN d   1      -0.638   0.481   1.477  0.00  0.00    -0.072 A 
ENDROOT
TORSDOF 0
ENDMDL
