MODEL 1
REMARK minimizedAffinity -3.87187219
REMARK minimizedRMSD -1
REMARK  0 active torsions:
REMARK  status: ('A' for Active; 'I' for Inactive)
ROOT
ATOM      1  C1  DEN d   1       0.158  -0.001  -0.773  0.00  0.00     0.130 A 
ATOM      2  C2  DEN d   1       1.055  -0.755   0.099  0.00  0.00    -0.031 A 
ATOM      3  C3  DEN d   1       0.635  -0.524   1.496  0.00  0.00     0.027 A 
ATOM      4  C4  DEN d   1      -1.310   0.915   2.389  0.00  0.00     0.027 A 
ATOM      5  C5  DEN d   1      -2.343   1.753   2.030  0.00  0.00    -0.003 A 
ATOM      6  C6  DEN d   1      -2.592   2.089   0.726  0.00  0.00     0.001 A 
ATOM      7  C7  DEN d   1      -1.825   1.549  -0.272  0.00  0.00     0.017 A 
ATOM      8  C8  DEN d   1      -0.777   0.709   0.082  0.00  0.00    -0.094 A 
ATOM      9  C9  DEN d   1      -0.549   0.372   1.405  0.00  0.00    -0.072 A 
ENDROOT
TORSDOF 0
ENDMDL
