MODEL 1
REMARK minimizedAffinity -3.90883327
REMARK minimizedRMSD -1
REMARK  0 active torsions:
REMARK  status: ('A' for Active; 'I' for Inactive)
ROOT
ATOM      1  C1  DEN d   1       0.028   1.039  -1.120  0.00  0.00     0.130 A 
ATOM      2  C2  DEN d   1       0.928  -0.057  -1.470  0.00  0.00    -0.031 A 
ATOM      3  C3  DEN d   1       1.025  -0.958  -0.305  0.00  0.00     0.027 A 
ATOM      4  C4  DEN d   1      -0.130  -0.768   1.994  0.00  0.00     0.027 A 
ATOM      5  C5  DEN d   1      -0.977  -0.003   2.764  0.00  0.00    -0.003 A 
ATOM      6  C6  DEN d   1      -1.518   1.171   2.310  0.00  0.00     0.001 A 
ATOM      7  C7  DEN d   1      -1.252   1.591   1.034  0.00  0.00     0.017 A 
ATOM      8  C8  DEN d   1      -0.393   0.829   0.253  0.00  0.00    -0.094 A 
ATOM      9  C9  DEN d   1       0.134  -0.361   0.726  0.00  0.00    -0.072 A 
ENDROOT
TORSDOF 0
ENDMDL
