MODEL 1
REMARK minimizedAffinity -2.36180115
REMARK minimizedRMSD -1
REMARK  0 active torsions:
REMARK  status: ('A' for Active; 'I' for Inactive)
ROOT
ATOM      1  C1  DEN d   1       0.919  -1.227  -1.225  0.00  0.00     0.130 A 
ATOM      2  C2  DEN d   1       0.449  -2.123  -0.172  0.00  0.00    -0.031 A 
ATOM      3  C3  DEN d   1      -0.436  -1.350   0.723  0.00  0.00     0.027 A 
ATOM      4  C4  DEN d   1      -1.123   1.132   0.578  0.00  0.00     0.027 A 
ATOM      5  C5  DEN d   1      -0.968   2.300  -0.136  0.00  0.00    -0.003 A 
ATOM      6  C6  DEN d   1      -0.153   2.382  -1.234  0.00  0.00     0.001 A 
ATOM      7  C7  DEN d   1       0.504   1.264  -1.677  0.00  0.00     0.017 A 
ATOM      8  C8  DEN d   1       0.358   0.085  -0.958  0.00  0.00    -0.094 A 
ATOM      9  C9  DEN d   1      -0.480   0.019   0.142  0.00  0.00    -0.072 A 
ENDROOT
TORSDOF 0
ENDMDL
