MODEL 1
REMARK minimizedAffinity -5.88544416
REMARK minimizedRMSD -1
REMARK  0 active torsions:
REMARK  status: ('A' for Active; 'I' for Inactive)
ROOT
ATOM      1  C1  DEN d   1      -0.588  -0.764   0.675  0.00  0.00     0.130 A 
ATOM      2  C2  DEN d   1       0.263  -1.017  -0.485  0.00  0.00    -0.031 A 
ATOM      3  C3  DEN d   1       0.580   0.282  -1.111  0.00  0.00     0.027 A 
ATOM      4  C4  DEN d   1      -0.155   2.649  -0.398  0.00  0.00     0.027 A 
ATOM      5  C5  DEN d   1      -0.892   3.367   0.518  0.00  0.00    -0.003 A 
ATOM      6  C6  DEN d   1      -1.601   2.762   1.521  0.00  0.00     0.001 A 
ATOM      7  C7  DEN d   1      -1.551   1.400   1.661  0.00  0.00     0.017 A 
ATOM      8  C8  DEN d   1      -0.817   0.668   0.737  0.00  0.00    -0.094 A 
ATOM      9  C9  DEN d   1      -0.097   1.300  -0.263  0.00  0.00    -0.072 A 
ENDROOT
TORSDOF 0
ENDMDL
