MODEL 1
REMARK minimizedAffinity -3.38757133
REMARK minimizedRMSD -1
REMARK  1 active torsions:
REMARK  status: ('A' for Active; 'I' for Inactive)
REMARK    1  A    between atoms: C1_2  and  C2_3 
ROOT
ATOM      1  C2  UNL d   1      -1.504  -1.195  -1.993  0.00  0.00    -0.081 A 
ATOM      2  C3  UNL d   1      -0.498  -1.732  -1.181  0.00  0.00     0.006 A 
ATOM      3  C4  UNL d   1       0.461  -0.900  -0.597  0.00  0.00     0.002 A 
ATOM      4  C5  UNL d   1       0.424   0.482  -0.808  0.00  0.00    -0.080 A 
ATOM      5  C6  UNL d   1       1.429   1.389  -0.163  0.00  0.00     0.076 C 
ATOM      6  C7  UNL d   1      -0.571   1.017  -1.633  0.00  0.00     0.002 A 
ATOM      7  C8  UNL d   1      -1.529   0.186  -2.218  0.00  0.00     0.006 A 
ENDROOT
BRANCH   1   8
ATOM      8  C1  UNL d   1      -2.577  -2.081  -2.572  0.00  0.00     0.054 C 
ATOM      9  C   UNL d   1      -3.482  -2.638  -1.482  0.00  0.00     0.018 C 
ENDBRANCH   1   8
TORSDOF 1
ENDMDL
