MODEL 1
REMARK minimizedAffinity 7.92029715
REMARK minimizedRMSD -1
REMARK  1 active torsions:
REMARK  status: ('A' for Active; 'I' for Inactive)
REMARK    1  A    between atoms: C1_2  and  C2_3 
ROOT
ATOM      1  C2  UNL d   1      -3.197  -2.023  -1.919  0.00  0.00    -0.081 A 
ATOM      2  C3  UNL d   1      -3.377  -2.685  -3.139  0.00  0.00     0.006 A 
ATOM      3  C4  UNL d   1      -2.762  -2.210  -4.300  0.00  0.00     0.002 A 
ATOM      4  C5  UNL d   1      -1.952  -1.071  -4.259  0.00  0.00    -0.080 A 
ATOM      5  C6  UNL d   1      -1.261  -0.568  -5.492  0.00  0.00     0.076 C 
ATOM      6  C7  UNL d   1      -1.786  -0.399  -3.043  0.00  0.00     0.002 A 
ATOM      7  C8  UNL d   1      -2.401  -0.873  -1.882  0.00  0.00     0.006 A 
ENDROOT
BRANCH   1   8
ATOM      8  C1  UNL d   1      -3.807  -2.569  -0.653  0.00  0.00     0.054 C 
ATOM      9  C   UNL d   1      -5.247  -3.007  -0.876  0.00  0.00     0.018 C 
ENDBRANCH   1   8
TORSDOF 1
ENDMDL
