MODEL 1
REMARK minimizedAffinity -1.59594345
REMARK minimizedRMSD -1
REMARK  1 active torsions:
REMARK  status: ('A' for Active; 'I' for Inactive)
REMARK    1  A    between atoms: C1_2  and  C2_3 
ROOT
ATOM      1  C2  UNL d   1      -0.873   6.000  -4.118  0.00  0.00    -0.081 A 
ATOM      2  C3  UNL d   1      -0.392   5.955  -5.433  0.00  0.00     0.006 A 
ATOM      3  C4  UNL d   1       0.981   5.900  -5.682  0.00  0.00     0.002 A 
ATOM      4  C5  UNL d   1       1.895   5.881  -4.623  0.00  0.00    -0.080 A 
ATOM      5  C6  UNL d   1       3.371   5.792  -4.877  0.00  0.00     0.076 C 
ATOM      6  C7  UNL d   1       1.415   5.944  -3.311  0.00  0.00     0.002 A 
ATOM      7  C8  UNL d   1       0.043   6.000  -3.060  0.00  0.00     0.006 A 
ENDROOT
BRANCH   1   8
ATOM      8  C1  UNL d   1      -2.355   5.994  -3.844  0.00  0.00     0.054 C 
ATOM      9  C   UNL d   1      -2.642   5.981  -2.349  0.00  0.00     0.018 C 
ENDBRANCH   1   8
TORSDOF 1
ENDMDL
