MODEL 1
REMARK minimizedAffinity -1.80944419
REMARK minimizedRMSD -1
REMARK  1 active torsions:
REMARK  status: ('A' for Active; 'I' for Inactive)
REMARK    1  A    between atoms: C1_2  and  C2_3 
ROOT
ATOM      1  C2  UNL d   1      -0.167   5.982  -4.374  0.00  0.00    -0.081 A 
ATOM      2  C3  UNL d   1      -0.563   5.991  -3.031  0.00  0.00     0.006 A 
ATOM      3  C4  UNL d   1      -1.918   6.000  -2.692  0.00  0.00     0.002 A 
ATOM      4  C5  UNL d   1      -2.899   5.992  -3.689  0.00  0.00    -0.080 A 
ATOM      5  C6  UNL d   1      -4.357   5.970  -3.338  0.00  0.00     0.076 C 
ATOM      6  C7  UNL d   1      -2.504   6.000  -5.031  0.00  0.00     0.002 A 
ATOM      7  C8  UNL d   1      -1.149   5.992  -5.371  0.00  0.00     0.006 A 
ENDROOT
BRANCH   1   8
ATOM      8  C1  UNL d   1       1.293   5.907  -4.743  0.00  0.00     0.054 C 
ATOM      9  C   UNL d   1       1.823   4.486  -4.618  0.00  0.00     0.018 C 
ENDBRANCH   1   8
TORSDOF 1
ENDMDL
