MODEL 1
REMARK minimizedAffinity 8.90264606
REMARK minimizedRMSD -1
REMARK  1 active torsions:
REMARK  status: ('A' for Active; 'I' for Inactive)
REMARK    1  A    between atoms: C1_2  and  C2_3 
ROOT
ATOM      1  C2  UNL d   1       0.272  -0.722   0.306  0.00  0.00    -0.081 A 
ATOM      2  C3  UNL d   1       0.927  -0.275   1.460  0.00  0.00     0.006 A 
ATOM      3  C4  UNL d   1       1.755   0.850   1.413  0.00  0.00     0.002 A 
ATOM      4  C5  UNL d   1       1.935   1.549   0.215  0.00  0.00    -0.080 A 
ATOM      5  C6  UNL d   1       2.797   2.775   0.157  0.00  0.00     0.076 C 
ATOM      6  C7  UNL d   1       1.294   1.091  -0.942  0.00  0.00     0.002 A 
ATOM      7  C8  UNL d   1       0.467  -0.033  -0.896  0.00  0.00     0.006 A 
ENDROOT
BRANCH   1   8
ATOM      8  C1  UNL d   1      -0.673  -1.896   0.368  0.00  0.00     0.054 C 
ATOM      9  C   UNL d   1      -0.289  -2.856   1.484  0.00  0.00     0.018 C 
ENDBRANCH   1   8
TORSDOF 1
ENDMDL
