MODEL 1
REMARK minimizedAffinity 6.91943645
REMARK minimizedRMSD -1
REMARK  1 active torsions:
REMARK  status: ('A' for Active; 'I' for Inactive)
REMARK    1  A    between atoms: C1_2  and  C2_3 
ROOT
ATOM      1  C2  UNL d   1       0.254   0.303   1.877  0.00  0.00    -0.081 A 
ATOM      2  C3  UNL d   1       1.345   1.154   1.662  0.00  0.00     0.006 A 
ATOM      3  C4  UNL d   1       1.715   1.518   0.366  0.00  0.00     0.002 A 
ATOM      4  C5  UNL d   1       0.995   1.044  -0.737  0.00  0.00    -0.080 A 
ATOM      5  C6  UNL d   1       1.363   1.452  -2.133  0.00  0.00     0.076 C 
ATOM      6  C7  UNL d   1      -0.084   0.180  -0.524  0.00  0.00     0.002 A 
ATOM      7  C8  UNL d   1      -0.454  -0.185   0.773  0.00  0.00     0.006 A 
ENDROOT
BRANCH   1   8
ATOM      8  C1  UNL d   1      -0.187  -0.040   3.277  0.00  0.00     0.054 C 
ATOM      9  C   UNL d   1      -1.699  -0.199   3.358  0.00  0.00     0.018 C 
ENDBRANCH   1   8
TORSDOF 1
ENDMDL
