MODEL 1
REMARK minimizedAffinity -0.955109358
REMARK minimizedRMSD -1
REMARK  1 active torsions:
REMARK  status: ('A' for Active; 'I' for Inactive)
REMARK    1  A    between atoms: C1_2  and  C2_3 
ROOT
ATOM      1  C2  UNL d   1       0.226   5.968  -3.325  0.00  0.00    -0.081 A 
ATOM      2  C3  UNL d   1      -0.018   5.980  -1.946  0.00  0.00     0.006 A 
ATOM      3  C4  UNL d   1      -1.327   5.997  -1.459  0.00  0.00     0.002 A 
ATOM      4  C5  UNL d   1      -2.413   5.994  -2.342  0.00  0.00    -0.080 A 
ATOM      5  C6  UNL d   1      -3.823   5.982  -1.832  0.00  0.00     0.076 C 
ATOM      6  C7  UNL d   1      -2.169   6.000  -3.719  0.00  0.00     0.002 A 
ATOM      7  C8  UNL d   1      -0.860   5.983  -4.207  0.00  0.00     0.006 A 
ENDROOT
BRANCH   1   8
ATOM      8  C1  UNL d   1       1.636   5.884  -3.853  0.00  0.00     0.054 C 
ATOM      9  C   UNL d   1       1.661   5.932  -5.374  0.00  0.00     0.018 C 
ENDBRANCH   1   8
TORSDOF 1
ENDMDL
