MODEL 1
REMARK minimizedAffinity 2.5531733
REMARK minimizedRMSD -1
REMARK  1 active torsions:
REMARK  status: ('A' for Active; 'I' for Inactive)
REMARK    1  A    between atoms: C1_2  and  C2_3 
ROOT
ATOM      1  C2  UNL d   1       2.335   2.484   0.561  0.00  0.00    -0.081 A 
ATOM      2  C3  UNL d   1       1.756   2.061  -0.641  0.00  0.00     0.006 A 
ATOM      3  C4  UNL d   1       0.848   1.000  -0.655  0.00  0.00     0.002 A 
ATOM      4  C5  UNL d   1       0.498   0.349   0.533  0.00  0.00    -0.080 A 
ATOM      5  C6  UNL d   1      -0.499  -0.771   0.536  0.00  0.00     0.076 C 
ATOM      6  C7  UNL d   1       1.089   0.760   1.732  0.00  0.00     0.002 A 
ATOM      7  C8  UNL d   1       1.998   1.821   1.747  0.00  0.00     0.006 A 
ENDROOT
BRANCH   1   8
ATOM      8  C1  UNL d   1       3.266   3.669   0.589  0.00  0.00     0.054 C 
ATOM      9  C   UNL d   1       4.701   3.253   0.303  0.00  0.00     0.018 C 
ENDBRANCH   1   8
TORSDOF 1
ENDMDL
