MODEL 1
REMARK minimizedAffinity 3.09324622
REMARK minimizedRMSD -1
REMARK  1 active torsions:
REMARK  status: ('A' for Active; 'I' for Inactive)
REMARK    1  A    between atoms: C1_2  and  C2_3 
ROOT
ATOM      1  C2  UNL d   1       1.666   1.263   1.391  0.00  0.00    -0.081 A 
ATOM      2  C3  UNL d   1       1.484   1.363   0.006  0.00  0.00     0.006 A 
ATOM      3  C4  UNL d   1       0.289   0.942  -0.583  0.00  0.00     0.002 A 
ATOM      4  C5  UNL d   1      -0.745   0.421   0.202  0.00  0.00    -0.080 A 
ATOM      5  C6  UNL d   1      -2.043  -0.006  -0.415  0.00  0.00     0.076 C 
ATOM      6  C7  UNL d   1      -0.556   0.305   1.583  0.00  0.00     0.002 A 
ATOM      7  C8  UNL d   1       0.638   0.725   2.173  0.00  0.00     0.006 A 
ENDROOT
BRANCH   1   8
ATOM      8  C1  UNL d   1       2.928   1.776   2.037  0.00  0.00     0.054 C 
ATOM      9  C   UNL d   1       3.724   0.645   2.672  0.00  0.00     0.018 C 
ENDBRANCH   1   8
TORSDOF 1
ENDMDL
