MODEL 1
REMARK minimizedAffinity -0.807775795
REMARK minimizedRMSD -1
REMARK  1 active torsions:
REMARK  status: ('A' for Active; 'I' for Inactive)
REMARK    1  A    between atoms: C1_2  and  C2_3 
ROOT
ATOM      1  C2  UNL d   1      -0.179   5.940  -3.557  0.00  0.00    -0.081 A 
ATOM      2  C3  UNL d   1      -1.296   5.975  -4.400  0.00  0.00     0.006 A 
ATOM      3  C4  UNL d   1      -2.587   5.980  -3.867  0.00  0.00     0.002 A 
ATOM      4  C5  UNL d   1      -2.783   5.957  -2.481  0.00  0.00    -0.080 A 
ATOM      5  C6  UNL d   1      -4.163   5.993  -1.895  0.00  0.00     0.076 C 
ATOM      6  C7  UNL d   1      -1.667   5.904  -1.639  0.00  0.00     0.002 A 
ATOM      7  C8  UNL d   1      -0.376   5.899  -2.172  0.00  0.00     0.006 A 
ENDROOT
BRANCH   1   8
ATOM      8  C1  UNL d   1       1.214   6.000  -4.127  0.00  0.00     0.054 C 
ATOM      9  C   UNL d   1       1.279   5.344  -5.499  0.00  0.00     0.018 C 
ENDBRANCH   1   8
TORSDOF 1
ENDMDL
