MODEL 1
REMARK minimizedAffinity 1.26425695
REMARK minimizedRMSD -1
REMARK  1 active torsions:
REMARK  status: ('A' for Active; 'I' for Inactive)
REMARK    1  A    between atoms: C1_2  and  C2_3 
ROOT
ATOM      1  C2  UNL d   1      -2.048   5.937  -3.663  0.00  0.00    -0.081 A 
ATOM      2  C3  UNL d   1      -3.315   5.992  -4.257  0.00  0.00     0.006 A 
ATOM      3  C4  UNL d   1      -4.468   6.000  -3.468  0.00  0.00     0.002 A 
ATOM      4  C5  UNL d   1      -4.373   5.960  -2.073  0.00  0.00    -0.080 A 
ATOM      5  C6  UNL d   1      -5.602   5.999  -1.214  0.00  0.00     0.076 C 
ATOM      6  C7  UNL d   1      -3.108   5.887  -1.480  0.00  0.00     0.002 A 
ATOM      7  C8  UNL d   1      -1.955   5.879  -2.268  0.00  0.00     0.006 A 
ENDROOT
BRANCH   1   8
ATOM      8  C1  UNL d   1      -0.802   5.993  -4.509  0.00  0.00     0.054 C 
ATOM      9  C   UNL d   1      -0.017   4.692  -4.425  0.00  0.00     0.018 C 
ENDBRANCH   1   8
TORSDOF 1
ENDMDL
