MODEL 1
REMARK minimizedAffinity -3.68327188
REMARK minimizedRMSD -1
REMARK  1 active torsions:
REMARK  status: ('A' for Active; 'I' for Inactive)
REMARK    1  A    between atoms: C1_2  and  C2_3 
ROOT
ATOM      1  C2  UNL d   1      -1.194   5.802  -4.389  0.00  0.00    -0.081 A 
ATOM      2  C3  UNL d   1      -0.743   5.766  -5.714  0.00  0.00     0.006 A 
ATOM      3  C4  UNL d   1       0.622   5.840  -6.000  0.00  0.00     0.002 A 
ATOM      4  C5  UNL d   1       1.559   5.945  -4.966  0.00  0.00    -0.080 A 
ATOM      5  C6  UNL d   1       3.029   5.996  -5.258  0.00  0.00     0.076 C 
ATOM      6  C7  UNL d   1       1.108   6.000  -3.643  0.00  0.00     0.002 A 
ATOM      7  C8  UNL d   1      -0.257   5.926  -3.357  0.00  0.00     0.006 A 
ENDROOT
BRANCH   1   8
ATOM      8  C1  UNL d   1      -2.661   5.657  -4.074  0.00  0.00     0.054 C 
ATOM      9  C   UNL d   1      -2.940   5.919  -2.601  0.00  0.00     0.018 C 
ENDBRANCH   1   8
TORSDOF 1
ENDMDL
