MODEL 1
REMARK minimizedAffinity -4.63308811
REMARK minimizedRMSD -1
REMARK  1 active torsions:
REMARK  status: ('A' for Active; 'I' for Inactive)
REMARK    1  A    between atoms: C1_2  and  C2_3 
ROOT
ATOM      1  C2  UNL d   1       0.532   5.458  -4.199  0.00  0.00    -0.081 A 
ATOM      2  C3  UNL d   1      -0.116   5.797  -3.004  0.00  0.00     0.006 A 
ATOM      3  C4  UNL d   1      -1.505   5.941  -2.968  0.00  0.00     0.002 A 
ATOM      4  C5  UNL d   1      -2.269   5.742  -4.123  0.00  0.00    -0.080 A 
ATOM      5  C6  UNL d   1      -3.764   5.864  -4.091  0.00  0.00     0.076 C 
ATOM      6  C7  UNL d   1      -1.620   5.421  -5.320  0.00  0.00     0.002 A 
ATOM      7  C8  UNL d   1      -0.232   5.277  -5.357  0.00  0.00     0.006 A 
ENDROOT
BRANCH   1   8
ATOM      8  C1  UNL d   1       2.023   5.239  -4.226  0.00  0.00     0.054 C 
ATOM      9  C   UNL d   1       2.673   5.999  -5.374  0.00  0.00     0.018 C 
ENDBRANCH   1   8
TORSDOF 1
ENDMDL
