MODEL 1
REMARK minimizedAffinity 1.85206914
REMARK minimizedRMSD -1
REMARK  1 active torsions:
REMARK  status: ('A' for Active; 'I' for Inactive)
REMARK    1  A    between atoms: C1_2  and  C2_3 
ROOT
ATOM      1  C2  UNL d   1      -0.063   0.631   1.438  0.00  0.00    -0.081 A 
ATOM      2  C3  UNL d   1      -0.992  -0.238   0.853  0.00  0.00     0.006 A 
ATOM      3  C4  UNL d   1      -2.006  -0.813   1.622  0.00  0.00     0.002 A 
ATOM      4  C5  UNL d   1      -2.113  -0.524   2.987  0.00  0.00    -0.080 A 
ATOM      5  C6  UNL d   1      -3.215  -1.111   3.818  0.00  0.00     0.076 C 
ATOM      6  C7  UNL d   1      -1.174   0.330   3.575  0.00  0.00     0.002 A 
ATOM      7  C8  UNL d   1      -0.159   0.905   2.807  0.00  0.00     0.006 A 
ENDROOT
BRANCH   1   8
ATOM      8  C1  UNL d   1       0.992   1.304   0.598  0.00  0.00     0.054 C 
ATOM      9  C   UNL d   1       2.214   1.667   1.430  0.00  0.00     0.018 C 
ENDBRANCH   1   8
TORSDOF 1
ENDMDL
