MODEL 1
REMARK minimizedAffinity -4.49493551
REMARK minimizedRMSD -1
REMARK  0 active torsions:
REMARK  status: ('A' for Active; 'I' for Inactive)
ROOT
ATOM      1  C   UNL d   1      -3.097  -1.206  -0.105  0.00  0.00     0.077 C 
ATOM      2  C1  UNL d   1      -1.718  -0.666   0.134  0.00  0.00    -0.074 A 
ATOM      3  C2  UNL d   1      -0.702  -1.487   0.634  0.00  0.00    -0.005 A 
ATOM      4  C3  UNL d   1       0.578  -0.973   0.842  0.00  0.00     0.006 A 
ATOM      5  C4  UNL d   1       0.855   0.364   0.553  0.00  0.00    -0.005 A 
ATOM      6  C5  UNL d   1      -0.148   1.199   0.052  0.00  0.00    -0.074 A 
ATOM      7  C6  UNL d   1       0.135   2.636  -0.274  0.00  0.00     0.077 C 
ATOM      8  C7  UNL d   1      -1.430   0.674  -0.162  0.00  0.00    -0.001 A 
ENDROOT
TORSDOF 0
ENDMDL
