MODEL 1
REMARK minimizedAffinity -5.58503675
REMARK minimizedRMSD -1
REMARK  0 active torsions:
REMARK  status: ('A' for Active; 'I' for Inactive)
ROOT
ATOM      1  C   UNL d   1       1.065   0.476   0.016  0.00  0.00     0.077 C 
ATOM      2  C1  UNL d   1      -0.343   0.006  -0.194  0.00  0.00    -0.074 A 
ATOM      3  C2  UNL d   1      -1.254   0.770  -0.932  0.00  0.00    -0.005 A 
ATOM      4  C3  UNL d   1      -2.558   0.316  -1.126  0.00  0.00     0.006 A 
ATOM      5  C4  UNL d   1      -2.964  -0.905  -0.586  0.00  0.00    -0.005 A 
ATOM      6  C5  UNL d   1      -2.068  -1.683   0.153  0.00  0.00    -0.074 A 
ATOM      7  C6  UNL d   1      -2.486  -3.002   0.732  0.00  0.00     0.077 C 
ATOM      8  C7  UNL d   1      -0.757  -1.223   0.339  0.00  0.00    -0.001 A 
ENDROOT
TORSDOF 0
ENDMDL
