MODEL 1
REMARK minimizedAffinity 0.609052837
REMARK minimizedRMSD -1
REMARK  0 active torsions:
REMARK  status: ('A' for Active; 'I' for Inactive)
ROOT
ATOM      1  C   UNL d   1       5.051   3.378  -1.197  0.00  0.00     0.077 C 
ATOM      2  C1  UNL d   1       4.092   3.390  -0.044  0.00  0.00    -0.074 A 
ATOM      3  C2  UNL d   1       4.049   4.470   0.844  0.00  0.00    -0.005 A 
ATOM      4  C3  UNL d   1       3.146   4.472   1.906  0.00  0.00     0.006 A 
ATOM      5  C4  UNL d   1       2.278   3.395   2.092  0.00  0.00    -0.005 A 
ATOM      6  C5  UNL d   1       2.306   2.307   1.214  0.00  0.00    -0.074 A 
ATOM      7  C6  UNL d   1       1.373   1.146   1.394  0.00  0.00     0.077 C 
ATOM      8  C7  UNL d   1       3.212   2.316   0.145  0.00  0.00    -0.001 A 
ENDROOT
TORSDOF 0
ENDMDL
