MODEL 1
REMARK minimizedAffinity -0.686722755
REMARK minimizedRMSD -1
REMARK  0 active torsions:
REMARK  status: ('A' for Active; 'I' for Inactive)
ROOT
ATOM      1  C   UNL d   1      -2.325  -0.033   1.211  0.00  0.00     0.077 C 
ATOM      2  C1  UNL d   1      -0.878   0.312   1.019  0.00  0.00    -0.074 A 
ATOM      3  C2  UNL d   1       0.040  -0.650   0.585  0.00  0.00    -0.005 A 
ATOM      4  C3  UNL d   1       1.380  -0.312   0.402  0.00  0.00     0.006 A 
ATOM      5  C4  UNL d   1       1.817   0.990   0.651  0.00  0.00    -0.005 A 
ATOM      6  C5  UNL d   1       0.914   1.966   1.085  0.00  0.00    -0.074 A 
ATOM      7  C6  UNL d   1       1.365   3.372   1.348  0.00  0.00     0.077 C 
ATOM      8  C7  UNL d   1      -0.433   1.620   1.260  0.00  0.00    -0.001 A 
ENDROOT
TORSDOF 0
ENDMDL
