MODEL 1
REMARK minimizedAffinity -3.82020545
REMARK minimizedRMSD -1
REMARK  0 active torsions:
REMARK  status: ('A' for Active; 'I' for Inactive)
ROOT
ATOM      1  C   UNL d   1      -1.841  -3.393   0.651  0.00  0.00     0.077 C 
ATOM      2  C1  UNL d   1      -1.427  -2.114  -0.014  0.00  0.00    -0.074 A 
ATOM      3  C2  UNL d   1      -2.190  -1.561  -1.047  0.00  0.00    -0.005 A 
ATOM      4  C3  UNL d   1      -1.798  -0.366  -1.650  0.00  0.00     0.006 A 
ATOM      5  C4  UNL d   1      -0.639   0.287  -1.227  0.00  0.00    -0.005 A 
ATOM      6  C5  UNL d   1       0.137  -0.251  -0.195  0.00  0.00    -0.074 A 
ATOM      7  C6  UNL d   1       1.379   0.443   0.278  0.00  0.00     0.077 C 
ATOM      8  C7  UNL d   1      -0.268  -1.448   0.410  0.00  0.00    -0.001 A 
ENDROOT
TORSDOF 0
ENDMDL
