MODEL 1
REMARK minimizedAffinity -6.2560215
REMARK minimizedRMSD -1
REMARK  0 active torsions:
REMARK  status: ('A' for Active; 'I' for Inactive)
ROOT
ATOM      1  C   UNL d   1      -1.721  -3.164   1.777  0.00  0.00     0.077 C 
ATOM      2  C1  UNL d   1      -1.616  -1.876   1.017  0.00  0.00    -0.074 A 
ATOM      3  C2  UNL d   1      -2.712  -1.366   0.312  0.00  0.00    -0.005 A 
ATOM      4  C3  UNL d   1      -2.603  -0.161  -0.383  0.00  0.00     0.006 A 
ATOM      5  C4  UNL d   1      -1.399   0.544  -0.381  0.00  0.00    -0.005 A 
ATOM      6  C5  UNL d   1      -0.293   0.050   0.318  0.00  0.00    -0.074 A 
ATOM      7  C6  UNL d   1       1.006   0.801   0.339  0.00  0.00     0.077 C 
ATOM      8  C7  UNL d   1      -0.413  -1.157   1.020  0.00  0.00    -0.001 A 
ENDROOT
TORSDOF 0
ENDMDL
