MODEL 1
REMARK minimizedAffinity -2.47872782
REMARK minimizedRMSD -1
REMARK  0 active torsions:
REMARK  status: ('A' for Active; 'I' for Inactive)
ROOT
ATOM      1  C   UNL d   1       2.053   0.794  -0.398  0.00  0.00     0.077 C 
ATOM      2  C1  UNL d   1       0.978  -0.173   0.001  0.00  0.00    -0.074 A 
ATOM      3  C2  UNL d   1       1.162  -1.051   1.074  0.00  0.00    -0.005 A 
ATOM      4  C3  UNL d   1       0.150  -1.938   1.439  0.00  0.00     0.006 A 
ATOM      5  C4  UNL d   1      -1.055  -1.957   0.735  0.00  0.00    -0.005 A 
ATOM      6  C5  UNL d   1      -1.258  -1.086  -0.340  0.00  0.00    -0.074 A 
ATOM      7  C6  UNL d   1      -2.551  -1.087  -1.101  0.00  0.00     0.077 C 
ATOM      8  C7  UNL d   1      -0.238  -0.193  -0.696  0.00  0.00    -0.001 A 
ENDROOT
TORSDOF 0
ENDMDL
