MODEL 1
REMARK minimizedAffinity -2.88652301
REMARK minimizedRMSD -1
REMARK  0 active torsions:
REMARK  status: ('A' for Active; 'I' for Inactive)
ROOT
ATOM      1  C   UNL d   1       3.564   2.704  -0.040  0.00  0.00     0.077 C 
ATOM      2  C1  UNL d   1       2.541   1.611   0.052  0.00  0.00    -0.074 A 
ATOM      3  C2  UNL d   1       2.769   0.477   0.839  0.00  0.00    -0.005 A 
ATOM      4  C3  UNL d   1       1.804  -0.526   0.923  0.00  0.00     0.006 A 
ATOM      5  C4  UNL d   1       0.603  -0.407   0.222  0.00  0.00    -0.005 A 
ATOM      6  C5  UNL d   1       0.357   0.720  -0.569  0.00  0.00    -0.074 A 
ATOM      7  C6  UNL d   1      -0.932   0.868  -1.321  0.00  0.00     0.077 C 
ATOM      8  C7  UNL d   1       1.328   1.727  -0.642  0.00  0.00    -0.001 A 
ENDROOT
TORSDOF 0
ENDMDL
