MODEL 1
REMARK minimizedAffinity -4.40747976
REMARK minimizedRMSD -1
REMARK  0 active torsions:
REMARK  status: ('A' for Active; 'I' for Inactive)
ROOT
ATOM      1  C   UNL d   1       2.247   3.045   1.317  0.00  0.00     0.077 C 
ATOM      2  C1  UNL d   1       1.824   1.671   0.891  0.00  0.00    -0.074 A 
ATOM      3  C2  UNL d   1       2.680   0.575   1.047  0.00  0.00    -0.005 A 
ATOM      4  C3  UNL d   1       2.269  -0.699   0.655  0.00  0.00     0.006 A 
ATOM      5  C4  UNL d   1       1.002  -0.890   0.104  0.00  0.00    -0.005 A 
ATOM      6  C5  UNL d   1       0.132   0.193  -0.058  0.00  0.00    -0.074 A 
ATOM      7  C6  UNL d   1      -1.237   0.003  -0.640  0.00  0.00     0.077 C 
ATOM      8  C7  UNL d   1       0.549   1.469   0.344  0.00  0.00    -0.001 A 
ENDROOT
TORSDOF 0
ENDMDL
