MODEL 1
REMARK minimizedAffinity 6.28653049
REMARK minimizedRMSD -1
REMARK  0 active torsions:
REMARK  status: ('A' for Active; 'I' for Inactive)
ROOT
ATOM      1  C   UNL d   1      -1.641  -1.559  -0.369  0.00  0.00     0.077 C 
ATOM      2  C1  UNL d   1      -0.797  -1.279   0.839  0.00  0.00    -0.074 A 
ATOM      3  C2  UNL d   1       0.289  -2.098   1.162  0.00  0.00    -0.005 A 
ATOM      4  C3  UNL d   1       1.070  -1.820   2.284  0.00  0.00     0.006 A 
ATOM      5  C4  UNL d   1       0.773  -0.722   3.093  0.00  0.00    -0.005 A 
ATOM      6  C5  UNL d   1      -0.309   0.108   2.785  0.00  0.00    -0.074 A 
ATOM      7  C6  UNL d   1      -0.636   1.298   3.637  0.00  0.00     0.077 C 
ATOM      8  C7  UNL d   1      -1.085  -0.174   1.652  0.00  0.00    -0.001 A 
ENDROOT
TORSDOF 0
ENDMDL
