MODEL 1
REMARK minimizedAffinity -0.584243894
REMARK minimizedRMSD -1
REMARK  0 active torsions:
REMARK  status: ('A' for Active; 'I' for Inactive)
ROOT
ATOM      1  C   UNL d   1      -0.556  -1.913   1.364  0.00  0.00     0.077 C 
ATOM      2  C1  UNL d   1      -0.072  -0.593   1.886  0.00  0.00    -0.074 A 
ATOM      3  C2  UNL d   1      -0.890   0.205   2.691  0.00  0.00    -0.005 A 
ATOM      4  C3  UNL d   1      -0.423   1.426   3.177  0.00  0.00     0.006 A 
ATOM      5  C4  UNL d   1       0.865   1.861   2.863  0.00  0.00    -0.005 A 
ATOM      6  C5  UNL d   1       1.698   1.076   2.060  0.00  0.00    -0.074 A 
ATOM      7  C6  UNL d   1       3.089   1.523   1.721  0.00  0.00     0.077 C 
ATOM      8  C7  UNL d   1       1.224  -0.153   1.581  0.00  0.00    -0.001 A 
ENDROOT
TORSDOF 0
ENDMDL
