MODEL 1
REMARK minimizedAffinity -2.04100776
REMARK minimizedRMSD -1
REMARK  0 active torsions:
REMARK  status: ('A' for Active; 'I' for Inactive)
ROOT
ATOM      1  C   UNL d   1      -2.512  -1.873  -3.024  0.00  0.00     0.077 C 
ATOM      2  C1  UNL d   1      -2.083  -1.406  -1.665  0.00  0.00    -0.074 A 
ATOM      3  C2  UNL d   1      -2.775  -1.805  -0.517  0.00  0.00    -0.005 A 
ATOM      4  C3  UNL d   1      -2.359  -1.371   0.742  0.00  0.00     0.006 A 
ATOM      5  C4  UNL d   1      -1.249  -0.535   0.865  0.00  0.00    -0.005 A 
ATOM      6  C5  UNL d   1      -0.544  -0.127  -0.272  0.00  0.00    -0.074 A 
ATOM      7  C6  UNL d   1       0.658   0.763  -0.156  0.00  0.00     0.077 C 
ATOM      8  C7  UNL d   1      -0.964  -0.573  -1.532  0.00  0.00    -0.001 A 
ENDROOT
TORSDOF 0
ENDMDL
