MODEL 1
REMARK minimizedAffinity -3.67833471
REMARK minimizedRMSD -1
REMARK  0 active torsions:
REMARK  status: ('A' for Active; 'I' for Inactive)
ROOT
ATOM      1  C   UNL d   1      -1.289   0.819  -0.600  0.00  0.00     0.077 C 
ATOM      2  C1  UNL d   1       0.136   0.783  -0.135  0.00  0.00    -0.074 A 
ATOM      3  C2  UNL d   1       0.885  -0.396  -0.202  0.00  0.00    -0.005 A 
ATOM      4  C3  UNL d   1       2.213  -0.411   0.225  0.00  0.00     0.006 A 
ATOM      5  C4  UNL d   1       2.804   0.751   0.722  0.00  0.00    -0.005 A 
ATOM      6  C5  UNL d   1       2.072   1.940   0.795  0.00  0.00    -0.074 A 
ATOM      7  C6  UNL d   1       2.695   3.200   1.317  0.00  0.00     0.077 C 
ATOM      8  C7  UNL d   1       0.740   1.949   0.358  0.00  0.00    -0.001 A 
ENDROOT
TORSDOF 0
ENDMDL
