MODEL 1
REMARK minimizedAffinity -1.40800416
REMARK minimizedRMSD -1
REMARK  0 active torsions:
REMARK  status: ('A' for Active; 'I' for Inactive)
ROOT
ATOM      1  C   UNL d   1      -1.402   1.365  -0.375  0.00  0.00     0.077 C 
ATOM      2  C1  UNL d   1      -0.000   1.211   0.136  0.00  0.00    -0.074 A 
ATOM      3  C2  UNL d   1       0.686   0.000   0.000  0.00  0.00    -0.005 A 
ATOM      4  C3  UNL d   1       1.992  -0.125   0.472  0.00  0.00     0.006 A 
ATOM      5  C4  UNL d   1       2.625   0.957   1.084  0.00  0.00    -0.005 A 
ATOM      6  C5  UNL d   1       1.956   2.177   1.228  0.00  0.00    -0.074 A 
ATOM      7  C6  UNL d   1       2.625   3.353   1.875  0.00  0.00     0.077 C 
ATOM      8  C7  UNL d   1       0.645   2.297   0.745  0.00  0.00    -0.001 A 
ENDROOT
TORSDOF 0
ENDMDL
