MODEL 1
REMARK minimizedAffinity -2.4227879
REMARK minimizedRMSD -1
REMARK  0 active torsions:
REMARK  status: ('A' for Active; 'I' for Inactive)
ROOT
ATOM      1  C   UNL d   1       1.181  -0.084   0.333  0.00  0.00     0.077 C 
ATOM      2  C1  UNL d   1       1.894   1.200   0.637  0.00  0.00    -0.074 A 
ATOM      3  C2  UNL d   1       1.869   1.750   1.923  0.00  0.00    -0.005 A 
ATOM      4  C3  UNL d   1       2.545   2.940   2.192  0.00  0.00     0.006 A 
ATOM      5  C4  UNL d   1       3.251   3.591   1.180  0.00  0.00    -0.005 A 
ATOM      6  C5  UNL d   1       3.287   3.056  -0.112  0.00  0.00    -0.074 A 
ATOM      7  C6  UNL d   1       4.050   3.739  -1.208  0.00  0.00     0.077 C 
ATOM      8  C7  UNL d   1       2.612   1.857  -0.373  0.00  0.00    -0.001 A 
ENDROOT
TORSDOF 0
ENDMDL
