MODEL 1
REMARK minimizedAffinity 3.24442673
REMARK minimizedRMSD -1
REMARK  0 active torsions:
REMARK  status: ('A' for Active; 'I' for Inactive)
ROOT
ATOM      1  O1  BZF d   1      -2.695   0.771   3.559  0.00  0.00    -0.204 OA
ATOM      2  C2  BZF d   1      -2.977  -0.467   4.102  0.00  0.00     0.174 A 
ATOM      3  C3  BZF d   1      -3.162  -1.385   3.131  0.00  0.00    -0.012 A 
ATOM      4  C3A BZF d   1      -2.893  -0.696   1.906  0.00  0.00    -0.107 A 
ATOM      5  C4  BZF d   1      -2.894  -1.077   0.595  0.00  0.00     0.055 A 
ATOM      6  C5  BZF d   1      -2.659  -0.144  -0.364  0.00  0.00    -0.016 A 
ATOM      7  C6  BZF d   1      -2.424   1.178  -0.049  0.00  0.00     0.022 A 
ATOM      8  C7  BZF d   1      -2.408   1.603   1.238  0.00  0.00     0.029 A 
ATOM      9  C7A BZF d   1      -2.613   0.656   2.211  0.00  0.00     0.058 A 
ENDROOT
TORSDOF 0
ENDMDL
