MODEL 1
REMARK minimizedAffinity 0.13919425
REMARK minimizedRMSD -1
REMARK  0 active torsions:
REMARK  status: ('A' for Active; 'I' for Inactive)
ROOT
ATOM      1  O1  BZF d   1      -2.375   1.381   3.589  0.00  0.00    -0.204 OA
ATOM      2  C2  BZF d   1      -2.856   0.245   4.211  0.00  0.00     0.174 A 
ATOM      3  C3  BZF d   1      -3.426  -0.587   3.315  0.00  0.00    -0.012 A 
ATOM      4  C3A BZF d   1      -3.210   0.028   2.041  0.00  0.00    -0.107 A 
ATOM      5  C4  BZF d   1      -3.530  -0.325   0.762  0.00  0.00     0.055 A 
ATOM      6  C5  BZF d   1      -3.241   0.532  -0.252  0.00  0.00    -0.016 A 
ATOM      7  C6  BZF d   1      -2.637   1.751  -0.023  0.00  0.00     0.022 A 
ATOM      8  C7  BZF d   1      -2.296   2.143   1.229  0.00  0.00     0.029 A 
ATOM      9  C7A BZF d   1      -2.557   1.265   2.252  0.00  0.00     0.058 A 
ENDROOT
TORSDOF 0
ENDMDL
