MODEL 1
REMARK minimizedAffinity -5.53106356
REMARK minimizedRMSD -1
REMARK  0 active torsions:
REMARK  status: ('A' for Active; 'I' for Inactive)
ROOT
ATOM      1  O1  BZF d   1       4.864  -0.657  -4.274  0.00  0.00    -0.204 OA
ATOM      2  C2  BZF d   1       4.761   0.450  -5.094  0.00  0.00     0.174 A 
ATOM      3  C3  BZF d   1       3.476   0.842  -5.209  0.00  0.00    -0.012 A 
ATOM      4  C3A BZF d   1       2.740  -0.021  -4.337  0.00  0.00    -0.107 A 
ATOM      5  C4  BZF d   1       1.418  -0.116  -4.006  0.00  0.00     0.055 A 
ATOM      6  C5  BZF d   1       1.015  -1.117  -3.180  0.00  0.00    -0.016 A 
ATOM      7  C6  BZF d   1       1.903  -2.041  -2.671  0.00  0.00     0.022 A 
ATOM      8  C7  BZF d   1       3.224  -1.985  -2.967  0.00  0.00     0.029 A 
ATOM      9  C7A BZF d   1       3.641  -0.955  -3.775  0.00  0.00     0.058 A 
ENDROOT
TORSDOF 0
ENDMDL
