MODEL 1
REMARK minimizedAffinity 0.602742016
REMARK minimizedRMSD -1
REMARK  0 active torsions:
REMARK  status: ('A' for Active; 'I' for Inactive)
ROOT
ATOM      1  O1  BZF d   1       3.756   1.235   2.201  0.00  0.00    -0.204 OA
ATOM      2  C2  BZF d   1       4.161   2.554   2.251  0.00  0.00     0.174 A 
ATOM      3  C3  BZF d   1       5.021   2.752   3.271  0.00  0.00    -0.012 A 
ATOM      4  C3A BZF d   1       5.234   1.457   3.840  0.00  0.00    -0.107 A 
ATOM      5  C4  BZF d   1       6.000   1.000   4.875  0.00  0.00     0.055 A 
ATOM      6  C5  BZF d   1       5.927  -0.312   5.222  0.00  0.00    -0.016 A 
ATOM      7  C6  BZF d   1       5.096  -1.192   4.561  0.00  0.00     0.022 A 
ATOM      8  C7  BZF d   1       4.321  -0.787   3.526  0.00  0.00     0.029 A 
ATOM      9  C7A BZF d   1       4.417   0.531   3.151  0.00  0.00     0.058 A 
ENDROOT
TORSDOF 0
ENDMDL
