MODEL 1
REMARK minimizedAffinity 1.38711596
REMARK minimizedRMSD -1
REMARK  0 active torsions:
REMARK  status: ('A' for Active; 'I' for Inactive)
ROOT
ATOM      1  O1  BZF d   1      -5.639  -1.137   1.874  0.00  0.00    -0.204 OA
ATOM      2  C2  BZF d   1      -5.937  -1.514   0.579  0.00  0.00     0.174 A 
ATOM      3  C3  BZF d   1      -4.814  -1.598  -0.165  0.00  0.00    -0.012 A 
ATOM      4  C3A BZF d   1      -3.740  -1.343   0.745  0.00  0.00    -0.107 A 
ATOM      5  C4  BZF d   1      -2.382  -1.303   0.607  0.00  0.00     0.055 A 
ATOM      6  C5  BZF d   1      -1.619  -0.952   1.675  0.00  0.00    -0.016 A 
ATOM      7  C6  BZF d   1      -2.181  -0.631   2.894  0.00  0.00     0.022 A 
ATOM      8  C7  BZF d   1      -3.523  -0.662   3.081  0.00  0.00     0.029 A 
ATOM      9  C7A BZF d   1      -4.294  -1.048   2.012  0.00  0.00     0.058 A 
ENDROOT
TORSDOF 0
ENDMDL
