MODEL 1
REMARK minimizedAffinity 0.199541599
REMARK minimizedRMSD -1
REMARK  0 active torsions:
REMARK  status: ('A' for Active; 'I' for Inactive)
ROOT
ATOM      1  O1  BZF d   1       2.974   0.564  -2.364  0.00  0.00    -0.204 OA
ATOM      2  C2  BZF d   1       1.694   1.031  -2.591  0.00  0.00     0.174 A 
ATOM      3  C3  BZF d   1       1.572   1.501  -3.849  0.00  0.00    -0.012 A 
ATOM      4  C3A BZF d   1       2.831   1.232  -4.474  0.00  0.00    -0.107 A 
ATOM      5  C4  BZF d   1       3.321   1.451  -5.730  0.00  0.00     0.055 A 
ATOM      6  C5  BZF d   1       4.616   1.136  -5.998  0.00  0.00    -0.016 A 
ATOM      7  C6  BZF d   1       5.448   0.606  -5.034  0.00  0.00     0.022 A 
ATOM      8  C7  BZF d   1       5.006   0.366  -3.776  0.00  0.00     0.029 A 
ATOM      9  C7A BZF d   1       3.688   0.653  -3.511  0.00  0.00     0.058 A 
ENDROOT
TORSDOF 0
ENDMDL
