MODEL 1
REMARK minimizedAffinity -1.68902385
REMARK minimizedRMSD -1
REMARK  0 active torsions:
REMARK  status: ('A' for Active; 'I' for Inactive)
ROOT
ATOM      1  O1  BZF d   1      -3.138   2.516   1.884  0.00  0.00    -0.204 OA
ATOM      2  C2  BZF d   1      -2.846   2.715   0.549  0.00  0.00     0.174 A 
ATOM      3  C3  BZF d   1      -2.483   1.557  -0.040  0.00  0.00    -0.012 A 
ATOM      4  C3A BZF d   1      -2.641   0.556   0.970  0.00  0.00    -0.107 A 
ATOM      5  C4  BZF d   1      -2.452  -0.796   0.989  0.00  0.00     0.055 A 
ATOM      6  C5  BZF d   1      -2.625  -1.471   2.156  0.00  0.00    -0.016 A 
ATOM      7  C6  BZF d   1      -2.982  -0.825   3.322  0.00  0.00     0.022 A 
ATOM      8  C7  BZF d   1      -3.186   0.514   3.351  0.00  0.00     0.029 A 
ATOM      9  C7A BZF d   1      -3.043   1.194   2.166  0.00  0.00     0.058 A 
ENDROOT
TORSDOF 0
ENDMDL
