MODEL 1
REMARK minimizedAffinity 2.87423158
REMARK minimizedRMSD -1
REMARK  0 active torsions:
REMARK  status: ('A' for Active; 'I' for Inactive)
ROOT
ATOM      1  O1  BZF d   1       5.636   1.617   4.351  0.00  0.00    -0.204 OA
ATOM      2  C2  BZF d   1       6.000   0.375   4.833  0.00  0.00     0.174 A 
ATOM      3  C3  BZF d   1       5.404  -0.606   4.125  0.00  0.00    -0.012 A 
ATOM      4  C3A BZF d   1       4.691   0.063   3.081  0.00  0.00    -0.107 A 
ATOM      5  C4  BZF d   1       3.916  -0.373   2.044  0.00  0.00     0.055 A 
ATOM      6  C5  BZF d   1       3.304   0.542   1.247  0.00  0.00    -0.016 A 
ATOM      7  C6  BZF d   1       3.442   1.898   1.459  0.00  0.00     0.022 A 
ATOM      8  C7  BZF d   1       4.205   2.378   2.472  0.00  0.00     0.029 A 
ATOM      9  C7A BZF d   1       4.850   1.457   3.259  0.00  0.00     0.058 A 
ENDROOT
TORSDOF 0
ENDMDL
