MODEL 1
REMARK minimizedAffinity 1.77102363
REMARK minimizedRMSD -1
REMARK  0 active torsions:
REMARK  status: ('A' for Active; 'I' for Inactive)
ROOT
ATOM      1  O1  BZF d   1      -3.359  -0.447   4.210  0.00  0.00    -0.204 OA
ATOM      2  C2  BZF d   1      -2.058   0.013   4.268  0.00  0.00     0.174 A 
ATOM      3  C3  BZF d   1      -1.463  -0.081   3.061  0.00  0.00    -0.012 A 
ATOM      4  C3A BZF d   1      -2.485  -0.547   2.173  0.00  0.00    -0.107 A 
ATOM      5  C4  BZF d   1      -2.513  -0.822   0.836  0.00  0.00     0.055 A 
ATOM      6  C5  BZF d   1      -3.648  -1.331   0.290  0.00  0.00    -0.016 A 
ATOM      7  C6  BZF d   1      -4.771  -1.583   1.052  0.00  0.00     0.022 A 
ATOM      8  C7  BZF d   1      -4.792  -1.321   2.382  0.00  0.00     0.029 A 
ATOM      9  C7A BZF d   1      -3.657  -0.775   2.930  0.00  0.00     0.058 A 
ENDROOT
TORSDOF 0
ENDMDL
