MODEL 1
REMARK minimizedAffinity 11.9194746
REMARK minimizedRMSD -1
REMARK  0 active torsions:
REMARK  status: ('A' for Active; 'I' for Inactive)
ROOT
ATOM      1  O1  BZF d   1       4.507   3.368   3.390  0.00  0.00    -0.204 OA
ATOM      2  C2  BZF d   1       3.550   3.447   2.398  0.00  0.00     0.174 A 
ATOM      3  C3  BZF d   1       3.338   2.237   1.840  0.00  0.00    -0.012 A 
ATOM      4  C3A BZF d   1       4.151   1.330   2.590  0.00  0.00    -0.107 A 
ATOM      5  C4  BZF d   1       4.359  -0.019   2.525  0.00  0.00     0.055 A 
ATOM      6  C5  BZF d   1       5.272  -0.587   3.355  0.00  0.00    -0.016 A 
ATOM      7  C6  BZF d   1       5.999   0.162   4.257  0.00  0.00     0.022 A 
ATOM      8  C7  BZF d   1       5.825   1.502   4.361  0.00  0.00     0.029 A 
ATOM      9  C7A BZF d   1       4.878   2.075   3.547  0.00  0.00     0.058 A 
ENDROOT
TORSDOF 0
ENDMDL
