MODEL 1
REMARK minimizedAffinity -2.59034324
REMARK minimizedRMSD -1
REMARK  0 active torsions:
REMARK  status: ('A' for Active; 'I' for Inactive)
ROOT
ATOM      1  O1  BZF d   1      -2.851   1.522   3.282  0.00  0.00    -0.204 OA
ATOM      2  C2  BZF d   1      -3.373   0.584   4.152  0.00  0.00     0.174 A 
ATOM      3  C3  BZF d   1      -3.435  -0.629   3.567  0.00  0.00    -0.012 A 
ATOM      4  C3A BZF d   1      -2.833  -0.457   2.280  0.00  0.00    -0.107 A 
ATOM      5  C4  BZF d   1      -2.587  -1.305   1.238  0.00  0.00     0.055 A 
ATOM      6  C5  BZF d   1      -2.051  -0.806   0.093  0.00  0.00    -0.016 A 
ATOM      7  C6  BZF d   1      -1.756   0.534  -0.046  0.00  0.00     0.022 A 
ATOM      8  C7  BZF d   1      -1.978   1.413   0.961  0.00  0.00     0.029 A 
ATOM      9  C7A BZF d   1      -2.489   0.906   2.131  0.00  0.00     0.058 A 
ENDROOT
TORSDOF 0
ENDMDL
