MODEL 1
REMARK minimizedAffinity 7.10762596
REMARK minimizedRMSD -1
REMARK  0 active torsions:
REMARK  status: ('A' for Active; 'I' for Inactive)
ROOT
ATOM      1  O1  BZF d   1      -3.788  -0.527   4.734  0.00  0.00    -0.204 OA
ATOM      2  C2  BZF d   1      -2.412  -0.436   4.656  0.00  0.00     0.174 A 
ATOM      3  C3  BZF d   1      -2.001  -0.477   3.372  0.00  0.00    -0.012 A 
ATOM      4  C3A BZF d   1      -3.201  -0.508   2.594  0.00  0.00    -0.107 A 
ATOM      5  C4  BZF d   1      -3.450  -0.539   1.252  0.00  0.00     0.055 A 
ATOM      6  C5  BZF d   1      -4.734  -0.639   0.819  0.00  0.00    -0.016 A 
ATOM      7  C6  BZF d   1      -5.793  -0.715   1.701  0.00  0.00     0.022 A 
ATOM      8  C7  BZF d   1      -5.597  -0.683   3.041  0.00  0.00     0.029 A 
ATOM      9  C7A BZF d   1      -4.302  -0.549   3.481  0.00  0.00     0.058 A 
ENDROOT
TORSDOF 0
ENDMDL
