MODEL 1
REMARK minimizedAffinity 6.82437468
REMARK minimizedRMSD -1
REMARK  0 active torsions:
REMARK  status: ('A' for Active; 'I' for Inactive)
ROOT
ATOM      1  O1  BZF d   1      -3.216  -1.292   2.652  0.00  0.00    -0.204 OA
ATOM      2  C2  BZF d   1      -3.275  -0.523   3.798  0.00  0.00     0.174 A 
ATOM      3  C3  BZF d   1      -3.004   0.769   3.521  0.00  0.00    -0.012 A 
ATOM      4  C3A BZF d   1      -2.852   0.825   2.099  0.00  0.00    -0.107 A 
ATOM      5  C4  BZF d   1      -2.588   1.839   1.223  0.00  0.00     0.055 A 
ATOM      6  C5  BZF d   1      -2.430   1.548  -0.095  0.00  0.00    -0.016 A 
ATOM      7  C6  BZF d   1      -2.523   0.256  -0.570  0.00  0.00     0.022 A 
ATOM      8  C7  BZF d   1      -2.788  -0.782   0.261  0.00  0.00     0.029 A 
ATOM      9  C7A BZF d   1      -2.981  -0.487   1.588  0.00  0.00     0.058 A 
ENDROOT
TORSDOF 0
ENDMDL
