MODEL 1
REMARK minimizedAffinity 5.70568419
REMARK minimizedRMSD -1
REMARK  0 active torsions:
REMARK  status: ('A' for Active; 'I' for Inactive)
ROOT
ATOM      1  O1  BZF d   1       4.995   3.544   3.307  0.00  0.00    -0.204 OA
ATOM      2  C2  BZF d   1       4.102   3.459   2.257  0.00  0.00     0.174 A 
ATOM      3  C3  BZF d   1       3.751   2.177   2.029  0.00  0.00    -0.012 A 
ATOM      4  C3A BZF d   1       4.398   1.421   3.058  0.00  0.00    -0.107 A 
ATOM      5  C4  BZF d   1       4.422   0.093   3.374  0.00  0.00     0.055 A 
ATOM      6  C5  BZF d   1       5.211  -0.329   4.396  0.00  0.00    -0.016 A 
ATOM      7  C6  BZF d   1       5.994   0.548   5.119  0.00  0.00     0.022 A 
ATOM      8  C7  BZF d   1       6.000   1.875   4.846  0.00  0.00     0.029 A 
ATOM      9  C7A BZF d   1       5.178   2.309   3.835  0.00  0.00     0.058 A 
ENDROOT
TORSDOF 0
ENDMDL
