MODEL 1
REMARK minimizedAffinity 1.44084108
REMARK minimizedRMSD -1
REMARK  0 active torsions:
REMARK  status: ('A' for Active; 'I' for Inactive)
ROOT
ATOM      1  O1  BZF d   1      -3.175   0.796   4.078  0.00  0.00    -0.204 OA
ATOM      2  C2  BZF d   1      -2.715   2.083   3.876  0.00  0.00     0.174 A 
ATOM      3  C3  BZF d   1      -2.330   2.258   2.595  0.00  0.00    -0.012 A 
ATOM      4  C3A BZF d   1      -2.651   1.030   1.934  0.00  0.00    -0.107 A 
ATOM      5  C4  BZF d   1      -2.522   0.595   0.646  0.00  0.00     0.055 A 
ATOM      6  C5  BZF d   1      -2.864  -0.685   0.344  0.00  0.00    -0.016 A 
ATOM      7  C6  BZF d   1      -3.333  -1.557   1.304  0.00  0.00     0.022 A 
ATOM      8  C7  BZF d   1      -3.484  -1.170   2.594  0.00  0.00     0.029 A 
ATOM      9  C7A BZF d   1      -3.170   0.133   2.896  0.00  0.00     0.058 A 
ENDROOT
TORSDOF 0
ENDMDL
