MODEL 1
REMARK minimizedAffinity 8.02572632
REMARK minimizedRMSD -1
REMARK  0 active torsions:
REMARK  status: ('A' for Active; 'I' for Inactive)
ROOT
ATOM      1  O1  BZF d   1       6.000   1.202  -5.755  0.00  0.00    -0.204 OA
ATOM      2  C2  BZF d   1       5.376  -0.015  -5.952  0.00  0.00     0.174 A 
ATOM      3  C3  BZF d   1       4.036   0.137  -5.999  0.00  0.00    -0.012 A 
ATOM      4  C3A BZF d   1       3.814   1.547  -5.913  0.00  0.00    -0.107 A 
ATOM      5  C4  BZF d   1       2.690   2.323  -5.924  0.00  0.00     0.055 A 
ATOM      6  C5  BZF d   1       2.812   3.665  -5.748  0.00  0.00    -0.016 A 
ATOM      7  C6  BZF d   1       4.040   4.263  -5.554  0.00  0.00     0.022 A 
ATOM      8  C7  BZF d   1       5.183   3.536  -5.541  0.00  0.00     0.029 A 
ATOM      9  C7A BZF d   1       5.066   2.184  -5.751  0.00  0.00     0.058 A 
ENDROOT
TORSDOF 0
ENDMDL
