MODEL 1
REMARK minimizedAffinity 4.04036617
REMARK minimizedRMSD -1
REMARK  0 active torsions:
REMARK  status: ('A' for Active; 'I' for Inactive)
ROOT
ATOM      1  O1  BZF d   1      -5.945  -0.469   0.282  0.00  0.00    -0.204 OA
ATOM      2  C2  BZF d   1      -5.053  -0.270  -0.754  0.00  0.00     0.174 A 
ATOM      3  C3  BZF d   1      -3.781  -0.360  -0.315  0.00  0.00    -0.012 A 
ATOM      4  C3A BZF d   1      -3.884  -0.725   1.065  0.00  0.00    -0.107 A 
ATOM      5  C4  BZF d   1      -2.963  -0.978   2.040  0.00  0.00     0.055 A 
ATOM      6  C5  BZF d   1      -3.393  -1.236   3.304  0.00  0.00    -0.016 A 
ATOM      7  C6  BZF d   1      -4.734  -1.243   3.627  0.00  0.00     0.022 A 
ATOM      8  C7  BZF d   1      -5.685  -1.002   2.692  0.00  0.00     0.029 A 
ATOM      9  C7A BZF d   1      -5.255  -0.774   1.408  0.00  0.00     0.058 A 
ENDROOT
TORSDOF 0
ENDMDL
