MODEL 1
REMARK minimizedAffinity -1.15790808
REMARK minimizedRMSD -1
REMARK  0 active torsions:
REMARK  status: ('A' for Active; 'I' for Inactive)
ROOT
ATOM      1  O1  BZF d   1      -2.978   4.973  -0.612  0.00  0.00    -0.204 OA
ATOM      2  C2  BZF d   1      -4.038   5.310   0.208  0.00  0.00     0.174 A 
ATOM      3  C3  BZF d   1      -4.421   4.253   0.953  0.00  0.00    -0.012 A 
ATOM      4  C3A BZF d   1      -3.486   3.215   0.642  0.00  0.00    -0.107 A 
ATOM      5  C4  BZF d   1      -3.333   1.929   1.075  0.00  0.00     0.055 A 
ATOM      6  C5  BZF d   1      -2.364   1.156   0.519  0.00  0.00    -0.016 A 
ATOM      7  C6  BZF d   1      -1.534   1.634  -0.474  0.00  0.00     0.022 A 
ATOM      8  C7  BZF d   1      -1.645   2.904  -0.933  0.00  0.00     0.029 A 
ATOM      9  C7A BZF d   1      -2.602   3.698  -0.350  0.00  0.00     0.058 A 
ENDROOT
TORSDOF 0
ENDMDL
