MODEL 1
REMARK minimizedAffinity 2.05364609
REMARK minimizedRMSD -1
REMARK  0 active torsions:
REMARK  status: ('A' for Active; 'I' for Inactive)
ROOT
ATOM      1  O1  BZF d   1      -2.519   4.337  -1.170  0.00  0.00    -0.204 OA
ATOM      2  C2  BZF d   1      -3.666   4.840  -0.586  0.00  0.00     0.174 A 
ATOM      3  C3  BZF d   1      -4.267   3.901   0.173  0.00  0.00    -0.012 A 
ATOM      4  C3A BZF d   1      -3.396   2.767   0.129  0.00  0.00    -0.107 A 
ATOM      5  C4  BZF d   1      -3.440   1.527   0.699  0.00  0.00     0.055 A 
ATOM      6  C5  BZF d   1      -2.468   0.626   0.397  0.00  0.00    -0.016 A 
ATOM      7  C6  BZF d   1      -1.442   0.930  -0.474  0.00  0.00     0.022 A 
ATOM      8  C7  BZF d   1      -1.353   2.149  -1.059  0.00  0.00     0.029 A 
ATOM      9  C7A BZF d   1      -2.316   3.072  -0.730  0.00  0.00     0.058 A 
ENDROOT
TORSDOF 0
ENDMDL
