MODEL 1
REMARK minimizedAffinity 20.3058929
REMARK minimizedRMSD -1
REMARK  0 active torsions:
REMARK  status: ('A' for Active; 'I' for Inactive)
ROOT
ATOM      1  C   UNL d   1      -2.609  -1.180  -1.655  0.00  0.00     0.124 A 
ATOM      2  C1  UNL d   1      -1.228  -1.080  -1.561  0.00  0.00     0.062 A 
ATOM      3  C2  UNL d   1      -0.632   0.150  -1.296  0.00  0.00     0.162 A 
ATOM      4  C3  UNL d   1      -1.417   1.290  -1.124  0.00  0.00    -0.034 A 
ATOM      5  C4  UNL d   1      -2.805   1.181  -1.221  0.00  0.00     0.162 A 
ATOM      6  C5  UNL d   1      -3.396  -0.050  -1.485  0.00  0.00     0.062 A 
ATOM      7  F   UNL d   1      -4.731  -0.145  -1.576  0.00  0.00    -0.097 F 
ATOM      8  F1  UNL d   1      -3.590   2.257  -1.060  0.00  0.00    -0.096 F 
ATOM      9  I   UNL d   1      -0.529   3.131  -0.729  0.00  0.00    -0.060 I 
ATOM     10  F2  UNL d   1       0.705   0.218  -1.211  0.00  0.00    -0.096 F 
ATOM     11  F3  UNL d   1      -0.465  -2.170  -1.725  0.00  0.00    -0.097 F 
ATOM     12  F4  UNL d   1      -3.180  -2.364  -1.910  0.00  0.00    -0.092 F 
ENDROOT
TORSDOF 0
ENDMDL
