MODEL 1
REMARK minimizedAffinity 15.0571527
REMARK minimizedRMSD -1
REMARK  0 active torsions:
REMARK  status: ('A' for Active; 'I' for Inactive)
ROOT
ATOM      1  C   UNL d   1       1.066   3.669   1.049  0.00  0.00     0.124 A 
ATOM      2  C1  UNL d   1       0.830   3.039   2.263  0.00  0.00     0.062 A 
ATOM      3  C2  UNL d   1      -0.282   2.217   2.420  0.00  0.00     0.162 A 
ATOM      4  C3  UNL d   1      -1.167   2.019   1.360  0.00  0.00    -0.034 A 
ATOM      5  C4  UNL d   1      -0.923   2.656   0.142  0.00  0.00     0.162 A 
ATOM      6  C5  UNL d   1       0.190   3.477  -0.010  0.00  0.00     0.062 A 
ATOM      7  F   UNL d   1       0.416   4.085  -1.184  0.00  0.00    -0.097 F 
ATOM      8  F1  UNL d   1      -1.753   2.488  -0.898  0.00  0.00    -0.096 F 
ATOM      9  I   UNL d   1      -2.831   0.790   1.591  0.00  0.00    -0.060 I 
ATOM     10  F2  UNL d   1      -0.486   1.621   3.604  0.00  0.00    -0.096 F 
ATOM     11  F3  UNL d   1       1.674   3.223   3.288  0.00  0.00    -0.097 F 
ATOM     12  F4  UNL d   1       2.136   4.460   0.901  0.00  0.00    -0.092 F 
ENDROOT
TORSDOF 0
ENDMDL
