MODEL 1
REMARK minimizedAffinity 15.5304508
REMARK minimizedRMSD -1
REMARK  0 active torsions:
REMARK  status: ('A' for Active; 'I' for Inactive)
ROOT
ATOM      1  C   UNL d   1      -1.354   4.329  -1.942  0.00  0.00     0.124 A 
ATOM      2  C1  UNL d   1      -0.674   3.535  -1.028  0.00  0.00     0.062 A 
ATOM      3  C2  UNL d   1      -1.105   2.237  -0.772  0.00  0.00     0.162 A 
ATOM      4  C3  UNL d   1      -2.221   1.723  -1.432  0.00  0.00    -0.034 A 
ATOM      5  C4  UNL d   1      -2.900   2.527  -2.349  0.00  0.00     0.162 A 
ATOM      6  C5  UNL d   1      -2.466   3.825  -2.601  0.00  0.00     0.062 A 
ATOM      7  F   UNL d   1      -3.124   4.590  -3.484  0.00  0.00    -0.097 F 
ATOM      8  F1  UNL d   1      -3.977   2.065  -3.001  0.00  0.00    -0.096 F 
ATOM      9  I   UNL d   1      -2.868  -0.219  -1.053  0.00  0.00    -0.060 I 
ATOM     10  F2  UNL d   1      -0.429   1.492   0.115  0.00  0.00    -0.096 F 
ATOM     11  F3  UNL d   1       0.400   4.021  -0.389  0.00  0.00    -0.097 F 
ATOM     12  F4  UNL d   1      -0.938   5.579  -2.185  0.00  0.00    -0.092 F 
ENDROOT
TORSDOF 0
ENDMDL
