MODEL 1
REMARK minimizedAffinity 23.7620296
REMARK minimizedRMSD -1
REMARK  0 active torsions:
REMARK  status: ('A' for Active; 'I' for Inactive)
ROOT
ATOM      1  C   UNL d   1       0.975   4.108   0.736  0.00  0.00     0.124 A 
ATOM      2  C1  UNL d   1       0.165   3.972  -0.384  0.00  0.00     0.062 A 
ATOM      3  C2  UNL d   1      -0.869   3.041  -0.390  0.00  0.00     0.162 A 
ATOM      4  C3  UNL d   1      -1.101   2.239   0.727  0.00  0.00    -0.034 A 
ATOM      5  C4  UNL d   1      -0.282   2.381   1.849  0.00  0.00     0.162 A 
ATOM      6  C5  UNL d   1       0.750   3.313   1.851  0.00  0.00     0.062 A 
ATOM      7  F   UNL d   1       1.531   3.444   2.933  0.00  0.00    -0.097 F 
ATOM      8  F1  UNL d   1      -0.478   1.626   2.940  0.00  0.00    -0.096 F 
ATOM      9  I   UNL d   1      -2.647   0.845   0.722  0.00  0.00    -0.060 I 
ATOM     10  F2  UNL d   1      -1.636   2.931  -1.485  0.00  0.00    -0.096 F 
ATOM     11  F3  UNL d   1       0.381   4.738  -1.462  0.00  0.00    -0.097 F 
ATOM     12  F4  UNL d   1       1.970   5.004   0.739  0.00  0.00    -0.092 F 
ENDROOT
TORSDOF 0
ENDMDL
