MODEL 1
REMARK minimizedAffinity 18.3019543
REMARK minimizedRMSD -1
REMARK  0 active torsions:
REMARK  status: ('A' for Active; 'I' for Inactive)
ROOT
ATOM      1  C   UNL d   1       0.167   2.999   2.074  0.00  0.00     0.124 A 
ATOM      2  C1  UNL d   1       0.240   3.231   0.707  0.00  0.00     0.062 A 
ATOM      3  C2  UNL d   1      -0.633   2.583  -0.161  0.00  0.00     0.162 A 
ATOM      4  C3  UNL d   1      -1.588   1.695   0.335  0.00  0.00    -0.034 A 
ATOM      5  C4  UNL d   1      -1.655   1.466   1.710  0.00  0.00     0.162 A 
ATOM      6  C5  UNL d   1      -0.780   2.116   2.574  0.00  0.00     0.062 A 
ATOM      7  F   UNL d   1      -0.852   1.890   3.893  0.00  0.00    -0.097 F 
ATOM      8  F1  UNL d   1      -2.561   0.619   2.220  0.00  0.00    -0.096 F 
ATOM      9  I   UNL d   1      -2.896   0.724  -0.960  0.00  0.00    -0.060 I 
ATOM     10  F2  UNL d   1      -0.540   2.827  -1.477  0.00  0.00    -0.096 F 
ATOM     11  F3  UNL d   1       1.155   4.083   0.221  0.00  0.00    -0.097 F 
ATOM     12  F4  UNL d   1       1.010   3.623   2.907  0.00  0.00    -0.092 F 
ENDROOT
TORSDOF 0
ENDMDL
