MODEL 1
REMARK minimizedAffinity -0.273621202
REMARK minimizedRMSD -1
REMARK  0 active torsions:
REMARK  status: ('A' for Active; 'I' for Inactive)
ROOT
ATOM      1  C   UNL d   1       0.921  -0.674   2.945  0.00  0.00     0.124 A 
ATOM      2  C1  UNL d   1       1.783  -0.338   1.910  0.00  0.00     0.062 A 
ATOM      3  C2  UNL d   1       1.278  -0.030   0.651  0.00  0.00     0.162 A 
ATOM      4  C3  UNL d   1      -0.097  -0.056   0.418  0.00  0.00    -0.034 A 
ATOM      5  C4  UNL d   1      -0.958  -0.397   1.463  0.00  0.00     0.162 A 
ATOM      6  C5  UNL d   1      -0.448  -0.704   2.720  0.00  0.00     0.062 A 
ATOM      7  F   UNL d   1      -1.282  -1.029   3.719  0.00  0.00    -0.097 F 
ATOM      8  F1  UNL d   1      -2.285  -0.432   1.274  0.00  0.00    -0.096 F 
ATOM      9  I   UNL d   1      -0.857   0.403  -1.464  0.00  0.00    -0.060 I 
ATOM     10  F2  UNL d   1       2.134   0.292  -0.331  0.00  0.00    -0.096 F 
ATOM     11  F3  UNL d   1       3.107  -0.309   2.124  0.00  0.00    -0.097 F 
ATOM     12  F4  UNL d   1       1.410  -0.971   4.156  0.00  0.00    -0.092 F 
ENDROOT
TORSDOF 0
ENDMDL
