MODEL 1
REMARK minimizedAffinity -0.788968921
REMARK minimizedRMSD -1
REMARK  0 active torsions:
REMARK  status: ('A' for Active; 'I' for Inactive)
ROOT
ATOM      1  C   UNL d   1       2.235  -1.590   1.825  0.00  0.00     0.124 A 
ATOM      2  C1  UNL d   1       2.251  -1.861   0.464  0.00  0.00     0.062 A 
ATOM      3  C2  UNL d   1       1.242  -1.370  -0.359  0.00  0.00     0.162 A 
ATOM      4  C3  UNL d   1       0.208  -0.601   0.176  0.00  0.00    -0.034 A 
ATOM      5  C4  UNL d   1       0.199  -0.334   1.546  0.00  0.00     0.162 A 
ATOM      6  C5  UNL d   1       1.209  -0.827   2.365  0.00  0.00     0.062 A 
ATOM      7  F   UNL d   1       1.192  -0.564   3.680  0.00  0.00    -0.097 F 
ATOM      8  F1  UNL d   1      -0.780   0.402   2.094  0.00  0.00    -0.096 F 
ATOM      9  I   UNL d   1      -1.302   0.135  -1.052  0.00  0.00    -0.060 I 
ATOM     10  F2  UNL d   1       1.283  -1.648  -1.671  0.00  0.00    -0.096 F 
ATOM     11  F3  UNL d   1       3.240  -2.599  -0.059  0.00  0.00    -0.097 F 
ATOM     12  F4  UNL d   1       3.207  -2.065   2.616  0.00  0.00    -0.092 F 
ENDROOT
TORSDOF 0
ENDMDL
