MODEL 1
REMARK minimizedAffinity -2.75763559
REMARK minimizedRMSD -1
REMARK  0 active torsions:
REMARK  status: ('A' for Active; 'I' for Inactive)
ROOT
ATOM      1  C   UNL d   1       1.070  -0.758   1.854  0.00  0.00     0.124 A 
ATOM      2  C1  UNL d   1       1.639  -0.566   0.602  0.00  0.00     0.062 A 
ATOM      3  C2  UNL d   1       0.889  -0.010  -0.430  0.00  0.00     0.162 A 
ATOM      4  C3  UNL d   1      -0.439   0.359  -0.215  0.00  0.00    -0.034 A 
ATOM      5  C4  UNL d   1      -1.005   0.162   1.046  0.00  0.00     0.162 A 
ATOM      6  C5  UNL d   1      -0.251  -0.393   2.074  0.00  0.00     0.062 A 
ATOM      7  F   UNL d   1      -0.803  -0.578   3.283  0.00  0.00    -0.097 F 
ATOM      8  F1  UNL d   1      -2.279   0.506   1.287  0.00  0.00    -0.096 F 
ATOM      9  I   UNL d   1      -1.564   1.191  -1.756  0.00  0.00    -0.060 I 
ATOM     10  F2  UNL d   1       1.464   0.163  -1.629  0.00  0.00    -0.096 F 
ATOM     11  F3  UNL d   1       2.914  -0.918   0.386  0.00  0.00    -0.097 F 
ATOM     12  F4  UNL d   1       1.793  -1.294   2.845  0.00  0.00    -0.092 F 
ENDROOT
TORSDOF 0
ENDMDL
