MODEL 1
REMARK minimizedAffinity -3.72523785
REMARK minimizedRMSD -1
REMARK  0 active torsions:
REMARK  status: ('A' for Active; 'I' for Inactive)
ROOT
ATOM      1  C   UNL d   1      -0.383  -0.656  -1.437  0.00  0.00     0.124 A 
ATOM      2  C1  UNL d   1       0.948  -0.935  -1.158  0.00  0.00     0.062 A 
ATOM      3  C2  UNL d   1       1.416  -0.875   0.152  0.00  0.00     0.162 A 
ATOM      4  C3  UNL d   1       0.552  -0.536   1.193  0.00  0.00    -0.034 A 
ATOM      5  C4  UNL d   1      -0.785  -0.257   0.905  0.00  0.00     0.162 A 
ATOM      6  C5  UNL d   1      -1.247  -0.317  -0.406  0.00  0.00     0.062 A 
ATOM      7  F   UNL d   1      -2.534  -0.048  -0.673  0.00  0.00    -0.097 F 
ATOM      8  F1  UNL d   1      -1.642   0.073   1.882  0.00  0.00    -0.096 F 
ATOM      9  I   UNL d   1       1.248  -0.446   3.153  0.00  0.00    -0.060 I 
ATOM     10  F2  UNL d   1       2.707  -1.149   0.392  0.00  0.00    -0.096 F 
ATOM     11  F3  UNL d   1       1.786  -1.261  -2.152  0.00  0.00    -0.097 F 
ATOM     12  F4  UNL d   1      -0.830  -0.713  -2.698  0.00  0.00    -0.092 F 
ENDROOT
TORSDOF 0
ENDMDL
