MODEL 1
REMARK minimizedAffinity 0.540373147
REMARK minimizedRMSD -1
REMARK  0 active torsions:
REMARK  status: ('A' for Active; 'I' for Inactive)
ROOT
ATOM      1  C   UNL d   1      -0.084  -0.664  -1.597  0.00  0.00     0.124 A 
ATOM      2  C1  UNL d   1      -0.893  -0.130  -0.603  0.00  0.00     0.062 A 
ATOM      3  C2  UNL d   1      -0.466  -0.129   0.721  0.00  0.00     0.162 A 
ATOM      4  C3  UNL d   1       0.778  -0.662   1.060  0.00  0.00    -0.034 A 
ATOM      5  C4  UNL d   1       1.585  -1.198   0.056  0.00  0.00     0.162 A 
ATOM      6  C5  UNL d   1       1.154  -1.197  -1.267  0.00  0.00     0.062 A 
ATOM      7  F   UNL d   1       1.936  -1.713  -2.226  0.00  0.00    -0.097 F 
ATOM      8  F1  UNL d   1       2.787  -1.718   0.346  0.00  0.00    -0.096 F 
ATOM      9  I   UNL d   1       1.420  -0.661   3.040  0.00  0.00    -0.060 I 
ATOM     10  F2  UNL d   1      -1.268   0.394   1.661  0.00  0.00    -0.096 F 
ATOM     11  F3  UNL d   1      -2.090   0.385  -0.919  0.00  0.00    -0.097 F 
ATOM     12  F4  UNL d   1      -0.499  -0.665  -2.871  0.00  0.00    -0.092 F 
ENDROOT
TORSDOF 0
ENDMDL
