MODEL 1
REMARK minimizedAffinity -1.30183625
REMARK minimizedRMSD -1
REMARK  0 active torsions:
REMARK  status: ('A' for Active; 'I' for Inactive)
ROOT
ATOM      1  C   UNL d   1       0.817  -0.482   2.020  0.00  0.00     0.124 A 
ATOM      2  C1  UNL d   1       1.474  -0.173   0.837  0.00  0.00     0.062 A 
ATOM      3  C2  UNL d   1       0.767   0.356  -0.239  0.00  0.00     0.162 A 
ATOM      4  C3  UNL d   1      -0.606   0.582  -0.136  0.00  0.00    -0.034 A 
ATOM      5  C4  UNL d   1      -1.260   0.269   1.056  0.00  0.00     0.162 A 
ATOM      6  C5  UNL d   1      -0.549  -0.260   2.129  0.00  0.00     0.062 A 
ATOM      7  F   UNL d   1      -1.185  -0.558   3.271  0.00  0.00    -0.097 F 
ATOM      8  F1  UNL d   1      -2.579   0.473   1.189  0.00  0.00    -0.096 F 
ATOM      9  I   UNL d   1      -1.666   1.374  -1.743  0.00  0.00    -0.060 I 
ATOM     10  F2  UNL d   1       1.428   0.645  -1.370  0.00  0.00    -0.096 F 
ATOM     11  F3  UNL d   1       2.793  -0.387   0.729  0.00  0.00    -0.097 F 
ATOM     12  F4  UNL d   1       1.499  -0.992   3.053  0.00  0.00    -0.092 F 
ENDROOT
TORSDOF 0
ENDMDL
