MODEL 1
REMARK minimizedAffinity -1.36231625
REMARK minimizedRMSD -1
REMARK  0 active torsions:
REMARK  status: ('A' for Active; 'I' for Inactive)
ROOT
ATOM      1  C   UNL d   1       0.824  -0.813   2.290  0.00  0.00     0.124 A 
ATOM      2  C1  UNL d   1      -0.496  -1.098   1.969  0.00  0.00     0.062 A 
ATOM      3  C2  UNL d   1      -1.097  -0.490   0.872  0.00  0.00     0.162 A 
ATOM      4  C3  UNL d   1      -0.378   0.411   0.085  0.00  0.00    -0.034 A 
ATOM      5  C4  UNL d   1       0.949   0.694   0.414  0.00  0.00     0.162 A 
ATOM      6  C5  UNL d   1       1.545   0.083   1.512  0.00  0.00     0.062 A 
ATOM      7  F   UNL d   1       2.820   0.360   1.821  0.00  0.00    -0.097 F 
ATOM      8  F1  UNL d   1       1.669   1.555  -0.321  0.00  0.00    -0.096 F 
ATOM      9  I   UNL d   1      -1.274   1.323  -1.557  0.00  0.00    -0.060 I 
ATOM     10  F2  UNL d   1      -2.374  -0.784   0.585  0.00  0.00    -0.096 F 
ATOM     11  F3  UNL d   1      -1.194  -1.963   2.720  0.00  0.00    -0.097 F 
ATOM     12  F4  UNL d   1       1.400  -1.399   3.347  0.00  0.00    -0.092 F 
ENDROOT
TORSDOF 0
ENDMDL
