MODEL 1
REMARK minimizedAffinity -2.49276614
REMARK minimizedRMSD -1
REMARK  0 active torsions:
REMARK  status: ('A' for Active; 'I' for Inactive)
ROOT
ATOM      1  C   UNL d   1       0.812  -1.657   1.368  0.00  0.00     0.124 A 
ATOM      2  C1  UNL d   1       1.326  -1.748   0.082  0.00  0.00     0.062 A 
ATOM      3  C2  UNL d   1       0.903  -0.863  -0.905  0.00  0.00     0.162 A 
ATOM      4  C3  UNL d   1      -0.038   0.123  -0.610  0.00  0.00    -0.034 A 
ATOM      5  C4  UNL d   1      -0.551   0.208   0.686  0.00  0.00     0.162 A 
ATOM      6  C5  UNL d   1      -0.126  -0.679   1.669  0.00  0.00     0.062 A 
ATOM      7  F   UNL d   1      -0.623  -0.589   2.911  0.00  0.00    -0.097 F 
ATOM      8  F1  UNL d   1      -1.458   1.144   1.004  0.00  0.00    -0.096 F 
ATOM      9  I   UNL d   1      -0.672   1.450  -2.083  0.00  0.00    -0.060 I 
ATOM     10  F2  UNL d   1       1.417  -0.974  -2.139  0.00  0.00    -0.096 F 
ATOM     11  F3  UNL d   1       2.231  -2.693  -0.211  0.00  0.00    -0.097 F 
ATOM     12  F4  UNL d   1       1.220  -2.511   2.316  0.00  0.00    -0.092 F 
ENDROOT
TORSDOF 0
ENDMDL
