MODEL 1
REMARK minimizedAffinity 13.4712896
REMARK minimizedRMSD -1
REMARK  0 active torsions:
REMARK  status: ('A' for Active; 'I' for Inactive)
ROOT
ATOM      1  C1  DEN d   1       4.698  -4.505   4.886  0.00  0.00     0.130 A 
ATOM      2  C2  DEN d   1       5.999  -3.865   5.058  0.00  0.00    -0.031 A 
ATOM      3  C3  DEN d   1       5.823  -2.412   4.865  0.00  0.00     0.027 A 
ATOM      4  C4  DEN d   1       3.672  -1.096   4.323  0.00  0.00     0.027 A 
ATOM      5  C5  DEN d   1       2.322  -1.206   4.072  0.00  0.00    -0.003 A 
ATOM      6  C6  DEN d   1       1.681  -2.416   4.041  0.00  0.00     0.001 A 
ATOM      7  C7  DEN d   1       2.382  -3.562   4.310  0.00  0.00     0.017 A 
ATOM      8  C8  DEN d   1       3.745  -3.460   4.557  0.00  0.00    -0.094 A 
ATOM      9  C9  DEN d   1       4.372  -2.226   4.595  0.00  0.00    -0.072 A 
ENDROOT
TORSDOF 0
ENDMDL
