MODEL 1
REMARK minimizedAffinity 12.0329809
REMARK minimizedRMSD -1
REMARK  0 active torsions:
REMARK  status: ('A' for Active; 'I' for Inactive)
ROOT
ATOM      1  C1  DEN d   1       4.596  -4.033   5.250  0.00  0.00     0.130 A 
ATOM      2  C2  DEN d   1       5.953  -3.573   5.532  0.00  0.00    -0.031 A 
ATOM      3  C3  DEN d   1       5.998  -2.115   5.304  0.00  0.00     0.027 A 
ATOM      4  C4  DEN d   1       4.107  -0.532   4.550  0.00  0.00     0.027 A 
ATOM      5  C5  DEN d   1       2.782  -0.462   4.178  0.00  0.00    -0.003 A 
ATOM      6  C6  DEN d   1       1.985  -1.574   4.104  0.00  0.00     0.001 A 
ATOM      7  C7  DEN d   1       2.493  -2.797   4.452  0.00  0.00     0.017 A 
ATOM      8  C8  DEN d   1       3.830  -2.876   4.821  0.00  0.00    -0.094 A 
ATOM      9  C9  DEN d   1       4.616  -1.740   4.901  0.00  0.00    -0.072 A 
ENDROOT
TORSDOF 0
ENDMDL
