MODEL 1
REMARK minimizedAffinity 8.99048805
REMARK minimizedRMSD -1
REMARK  0 active torsions:
REMARK  status: ('A' for Active; 'I' for Inactive)
ROOT
ATOM      1  C1  DEN d   1      -1.427  -1.946  -3.573  0.00  0.00     0.130 A 
ATOM      2  C2  DEN d   1      -0.881  -1.411  -4.818  0.00  0.00    -0.031 A 
ATOM      3  C3  DEN d   1      -0.632  -2.544  -5.732  0.00  0.00     0.027 A 
ATOM      4  C4  DEN d   1      -1.042  -5.061  -5.345  0.00  0.00     0.027 A 
ATOM      5  C5  DEN d   1      -1.483  -6.000  -4.439  0.00  0.00    -0.003 A 
ATOM      6  C6  DEN d   1      -1.900  -5.660  -3.180  0.00  0.00     0.001 A 
ATOM      7  C7  DEN d   1      -1.928  -4.343  -2.806  0.00  0.00     0.017 A 
ATOM      8  C8  DEN d   1      -1.478  -3.390  -3.712  0.00  0.00    -0.094 A 
ATOM      9  C9  DEN d   1      -1.072  -3.753  -4.985  0.00  0.00    -0.072 A 
ENDROOT
TORSDOF 0
ENDMDL
