MODEL 1
REMARK minimizedAffinity 14.6819925
REMARK minimizedRMSD -1
REMARK  0 active torsions:
REMARK  status: ('A' for Active; 'I' for Inactive)
ROOT
ATOM      1  C1  DEN d   1      -0.335  -2.039  -5.999  0.00  0.00     0.130 A 
ATOM      2  C2  DEN d   1      -0.590  -0.740  -5.383  0.00  0.00    -0.031 A 
ATOM      3  C3  DEN d   1       0.575  -0.395  -4.544  0.00  0.00     0.027 A 
ATOM      4  C4  DEN d   1       2.741  -1.738  -4.144  0.00  0.00     0.027 A 
ATOM      5  C5  DEN d   1       3.409  -2.905  -4.442  0.00  0.00    -0.003 A 
ATOM      6  C6  DEN d   1       2.866  -3.872  -5.246  0.00  0.00     0.001 A 
ATOM      7  C7  DEN d   1       1.638  -3.670  -5.817  0.00  0.00     0.017 A 
ATOM      8  C8  DEN d   1       0.954  -2.499  -5.515  0.00  0.00    -0.094 A 
ATOM      9  C9  DEN d   1       1.525  -1.528  -4.710  0.00  0.00    -0.072 A 
ENDROOT
TORSDOF 0
ENDMDL
