MODEL 1
REMARK minimizedAffinity 13.0351181
REMARK minimizedRMSD -1
REMARK  0 active torsions:
REMARK  status: ('A' for Active; 'I' for Inactive)
ROOT
ATOM      1  C1  DEN d   1       0.276  -1.517  -4.581  0.00  0.00     0.130 A 
ATOM      2  C2  DEN d   1      -0.008  -1.079  -3.218  0.00  0.00    -0.031 A 
ATOM      3  C3  DEN d   1      -1.010  -1.998  -2.642  0.00  0.00     0.027 A 
ATOM      4  C4  DEN d   1      -2.140  -4.049  -3.722  0.00  0.00     0.027 A 
ATOM      5  C5  DEN d   1      -2.228  -4.809  -4.867  0.00  0.00    -0.003 A 
ATOM      6  C6  DEN d   1      -1.520  -4.507  -6.000  0.00  0.00     0.001 A 
ATOM      7  C7  DEN d   1      -0.656  -3.443  -5.997  0.00  0.00     0.017 A 
ATOM      8  C8  DEN d   1      -0.567  -2.669  -4.848  0.00  0.00    -0.094 A 
ATOM      9  C9  DEN d   1      -1.283  -2.997  -3.709  0.00  0.00    -0.072 A 
ENDROOT
TORSDOF 0
ENDMDL
