MODEL 1
REMARK minimizedAffinity 23.6609535
REMARK minimizedRMSD -1
REMARK  0 active torsions:
REMARK  status: ('A' for Active; 'I' for Inactive)
ROOT
ATOM      1  C1  DEN d   1      -2.040  -2.746  -1.712  0.00  0.00     0.130 A 
ATOM      2  C2  DEN d   1      -1.256  -2.752  -0.480  0.00  0.00    -0.031 A 
ATOM      3  C3  DEN d   1       0.028  -2.075  -0.753  0.00  0.00     0.027 A 
ATOM      4  C4  DEN d   1       0.872  -1.022  -2.950  0.00  0.00     0.027 A 
ATOM      5  C5  DEN d   1       0.564  -0.782  -4.271  0.00  0.00    -0.003 A 
ATOM      6  C6  DEN d   1      -0.609  -1.206  -4.836  0.00  0.00     0.001 A 
ATOM      7  C7  DEN d   1      -1.538  -1.854  -4.065  0.00  0.00     0.017 A 
ATOM      8  C8  DEN d   1      -1.232  -2.106  -2.734  0.00  0.00    -0.094 A 
ATOM      9  C9  DEN d   1      -0.045  -1.658  -2.179  0.00  0.00    -0.072 A 
ENDROOT
TORSDOF 0
ENDMDL
