MODEL 1
REMARK minimizedAffinity 17.4903717
REMARK minimizedRMSD -1
REMARK  0 active torsions:
REMARK  status: ('A' for Active; 'I' for Inactive)
ROOT
ATOM      1  C1  DEN d   1      -1.983  -3.001  -5.359  0.00  0.00     0.130 A 
ATOM      2  C2  DEN d   1      -1.500  -4.221  -6.000  0.00  0.00    -0.031 A 
ATOM      3  C3  DEN d   1      -0.024  -4.185  -5.998  0.00  0.00     0.027 A 
ATOM      4  C4  DEN d   1       1.553  -2.369  -5.067  0.00  0.00     0.027 A 
ATOM      5  C5  DEN d   1       1.608  -1.143  -4.442  0.00  0.00    -0.003 A 
ATOM      6  C6  DEN d   1       0.480  -0.441  -4.112  0.00  0.00     0.001 A 
ATOM      7  C7  DEN d   1      -0.754  -0.980  -4.365  0.00  0.00     0.017 A 
ATOM      8  C8  DEN d   1      -0.817  -2.212  -5.002  0.00  0.00    -0.094 A 
ATOM      9  C9  DEN d   1       0.335  -2.913  -5.316  0.00  0.00    -0.072 A 
ENDROOT
TORSDOF 0
ENDMDL
