MODEL 1
REMARK minimizedAffinity 12.9330893
REMARK minimizedRMSD -1
REMARK  0 active torsions:
REMARK  status: ('A' for Active; 'I' for Inactive)
ROOT
ATOM      1  C1  DEN d   1      -2.242   0.146   1.551  0.00  0.00     0.130 A 
ATOM      2  C2  DEN d   1      -2.510   1.545   1.873  0.00  0.00    -0.031 A 
ATOM      3  C3  DEN d   1      -1.308   2.101   2.527  0.00  0.00     0.027 A 
ATOM      4  C4  DEN d   1       0.932   0.939   3.063  0.00  0.00     0.027 A 
ATOM      5  C5  DEN d   1       1.626  -0.248   2.990  0.00  0.00    -0.003 A 
ATOM      6  C6  DEN d   1       1.073  -1.387   2.467  0.00  0.00     0.001 A 
ATOM      7  C7  DEN d   1      -0.198  -1.351   1.956  0.00  0.00     0.017 A 
ATOM      8  C8  DEN d   1      -0.907  -0.159   2.033  0.00  0.00    -0.094 A 
ATOM      9  C9  DEN d   1      -0.325   0.984   2.554  0.00  0.00    -0.072 A 
ENDROOT
TORSDOF 0
ENDMDL
