MODEL 1
REMARK minimizedAffinity 18.9164391
REMARK minimizedRMSD -1
REMARK  0 active torsions:
REMARK  status: ('A' for Active; 'I' for Inactive)
ROOT
ATOM      1  C1  DEN d   1       1.106  -2.118   2.671  0.00  0.00     0.130 A 
ATOM      2  C2  DEN d   1       2.400  -1.526   3.000  0.00  0.00    -0.031 A 
ATOM      3  C3  DEN d   1       2.826  -2.059   4.310  0.00  0.00     0.027 A 
ATOM      4  C4  DEN d   1       1.616  -3.738   5.849  0.00  0.00     0.027 A 
ATOM      5  C5  DEN d   1       0.484  -4.509   6.000  0.00  0.00    -0.003 A 
ATOM      6  C6  DEN d   1      -0.527  -4.510   5.076  0.00  0.00     0.001 A 
ATOM      7  C7  DEN d   1      -0.406  -3.760   3.936  0.00  0.00     0.017 A 
ATOM      8  C8  DEN d   1       0.729  -2.975   3.780  0.00  0.00    -0.094 A 
ATOM      9  C9  DEN d   1       1.746  -2.997   4.720  0.00  0.00    -0.072 A 
ENDROOT
TORSDOF 0
ENDMDL
