MODEL 1
REMARK minimizedAffinity 7.90099287
REMARK minimizedRMSD -1
REMARK  0 active torsions:
REMARK  status: ('A' for Active; 'I' for Inactive)
ROOT
ATOM      1  C1  DEN d   1      -1.296  -3.136  -2.504  0.00  0.00     0.130 A 
ATOM      2  C2  DEN d   1      -0.895  -1.846  -3.061  0.00  0.00    -0.031 A 
ATOM      3  C3  DEN d   1      -0.919  -1.957  -4.533  0.00  0.00     0.027 A 
ATOM      4  C4  DEN d   1      -1.540  -3.988  -5.997  0.00  0.00     0.027 A 
ATOM      5  C5  DEN d   1      -1.934  -5.308  -5.977  0.00  0.00    -0.003 A 
ATOM      6  C6  DEN d   1      -2.110  -6.000  -4.808  0.00  0.00     0.001 A 
ATOM      7  C7  DEN d   1      -1.933  -5.362  -3.609  0.00  0.00     0.017 A 
ATOM      8  C8  DEN d   1      -1.528  -4.034  -3.621  0.00  0.00    -0.094 A 
ATOM      9  C9  DEN d   1      -1.368  -3.348  -4.813  0.00  0.00    -0.072 A 
ENDROOT
TORSDOF 0
ENDMDL
