MODEL 1
REMARK minimizedAffinity 12.7193546
REMARK minimizedRMSD -1
REMARK  0 active torsions:
REMARK  status: ('A' for Active; 'I' for Inactive)
ROOT
ATOM      1  C1  DEN d   1      -1.532  -4.183  -5.996  0.00  0.00     0.130 A 
ATOM      2  C2  DEN d   1      -2.141  -5.336  -5.338  0.00  0.00    -0.031 A 
ATOM      3  C3  DEN d   1      -2.181  -5.064  -3.887  0.00  0.00     0.027 A 
ATOM      4  C4  DEN d   1      -1.366  -2.981  -2.603  0.00  0.00     0.027 A 
ATOM      5  C5  DEN d   1      -0.767  -1.747  -2.730  0.00  0.00    -0.003 A 
ATOM      6  C6  DEN d   1      -0.354  -1.257  -3.940  0.00  0.00     0.001 A 
ATOM      7  C7  DEN d   1      -0.575  -1.987  -5.079  0.00  0.00     0.017 A 
ATOM      8  C8  DEN d   1      -1.171  -3.235  -4.958  0.00  0.00    -0.094 A 
ATOM      9  C9  DEN d   1      -1.593  -3.707  -3.727  0.00  0.00    -0.072 A 
ENDROOT
TORSDOF 0
ENDMDL
