MODEL 1
REMARK minimizedAffinity 23.0596428
REMARK minimizedRMSD -1
REMARK  0 active torsions:
REMARK  status: ('A' for Active; 'I' for Inactive)
ROOT
ATOM      1  C1  DEN d   1      -1.801  -2.857  -3.744  0.00  0.00     0.130 A 
ATOM      2  C2  DEN d   1      -1.533  -3.166  -2.342  0.00  0.00    -0.031 A 
ATOM      3  C3  DEN d   1      -0.481  -2.245  -1.865  0.00  0.00     0.027 A 
ATOM      4  C4  DEN d   1       0.747  -0.378  -3.152  0.00  0.00     0.027 A 
ATOM      5  C5  DEN d   1       0.868   0.253  -4.371  0.00  0.00    -0.003 A 
ATOM      6  C6  DEN d   1       0.139  -0.128  -5.466  0.00  0.00     0.001 A 
ATOM      7  C7  DEN d   1      -0.778  -1.139  -5.352  0.00  0.00     0.017 A 
ATOM      8  C8  DEN d   1      -0.901  -1.785  -4.129  0.00  0.00    -0.094 A 
ATOM      9  C9  DEN d   1      -0.163  -1.377  -3.031  0.00  0.00    -0.072 A 
ENDROOT
TORSDOF 0
ENDMDL
