MODEL 1
REMARK minimizedAffinity 5.69815016
REMARK minimizedRMSD -1
REMARK  0 active torsions:
REMARK  status: ('A' for Active; 'I' for Inactive)
ROOT
ATOM      1  C1  DEN d   1      -0.551  -2.242  -3.099  0.00  0.00     0.130 A 
ATOM      2  C2  DEN d   1      -0.270  -1.219  -4.102  0.00  0.00    -0.031 A 
ATOM      3  C3  DEN d   1      -0.704  -1.736  -5.416  0.00  0.00     0.027 A 
ATOM      4  C4  DEN d   1      -1.782  -4.007  -5.990  0.00  0.00     0.027 A 
ATOM      5  C5  DEN d   1      -2.207  -5.211  -5.473  0.00  0.00    -0.003 A 
ATOM      6  C6  DEN d   1      -2.080  -5.520  -4.145  0.00  0.00     0.001 A 
ATOM      7  C7  DEN d   1      -1.555  -4.597  -3.280  0.00  0.00     0.017 A 
ATOM      8  C8  DEN d   1      -1.117  -3.384  -3.795  0.00  0.00    -0.094 A 
ATOM      9  C9  DEN d   1      -1.266  -3.085  -5.139  0.00  0.00    -0.072 A 
ENDROOT
TORSDOF 0
ENDMDL
