MODEL 1
REMARK minimizedAffinity -4.99602032
REMARK minimizedRMSD -1
REMARK  0 active torsions:
REMARK  status: ('A' for Active; 'I' for Inactive)
ROOT
ATOM      1  C4' PXY d   1      -1.731   0.046   2.719  0.00  0.00     0.077 C 
ATOM      2  C1' PXY d   1       2.770  -2.287  -0.058  0.00  0.00     0.077 C 
ATOM      3  C1  PXY d   1       1.589  -1.666   0.660  0.00  0.00    -0.082 A 
ATOM      4  C2  PXY d   1       1.465  -1.818   1.969  0.00  0.00     0.003 A 
ATOM      5  C3  PXY d   1       0.386  -1.291   2.630  0.00  0.00     0.003 A 
ATOM      6  C4  PXY d   1      -0.549  -0.555   1.953  0.00  0.00    -0.082 A 
ATOM      7  C5  PXY d   1      -0.425  -0.386   0.619  0.00  0.00     0.003 A 
ATOM      8  C6  PXY d   1       0.656  -0.965  -0.040  0.00  0.00     0.003 A 
ENDROOT
TORSDOF 0
ENDMDL
