MODEL 1
REMARK minimizedAffinity -4.3106432
REMARK minimizedRMSD -1
REMARK  0 active torsions:
REMARK  status: ('A' for Active; 'I' for Inactive)
ROOT
ATOM      1  C4' PXY d   1      -2.750  -0.742  -0.756  0.00  0.00     0.077 C 
ATOM      2  C1' PXY d   1       1.824  -0.628   2.777  0.00  0.00     0.077 C 
ATOM      3  C1  PXY d   1       0.619  -0.667   1.858  0.00  0.00    -0.082 A 
ATOM      4  C2  PXY d   1       0.745  -0.287   0.597  0.00  0.00     0.003 A 
ATOM      5  C3  PXY d   1      -0.342  -0.286  -0.239  0.00  0.00     0.003 A 
ATOM      6  C4  PXY d   1      -1.559  -0.729   0.206  0.00  0.00    -0.082 A 
ATOM      7  C5  PXY d   1      -1.693  -1.129   1.488  0.00  0.00     0.003 A 
ATOM      8  C6  PXY d   1      -0.587  -1.083   2.332  0.00  0.00     0.003 A 
ENDROOT
TORSDOF 0
ENDMDL
