MODEL 1
REMARK minimizedAffinity -3.86516452
REMARK minimizedRMSD -1
REMARK  0 active torsions:
REMARK  status: ('A' for Active; 'I' for Inactive)
ROOT
ATOM      1  C4' PXY d   1       1.838  -0.993   3.246  0.00  0.00     0.077 C 
ATOM      2  C1' PXY d   1       0.242   0.578  -2.083  0.00  0.00     0.077 C 
ATOM      3  C1  PXY d   1       0.672   0.161  -0.690  0.00  0.00    -0.082 A 
ATOM      4  C2  PXY d   1      -0.244  -0.043   0.243  0.00  0.00     0.003 A 
ATOM      5  C3  PXY d   1       0.129  -0.389   1.516  0.00  0.00     0.003 A 
ATOM      6  C4  PXY d   1       1.449  -0.580   1.824  0.00  0.00    -0.082 A 
ATOM      7  C5  PXY d   1       2.389  -0.384   0.874  0.00  0.00     0.003 A 
ATOM      8  C6  PXY d   1       1.992   0.007  -0.401  0.00  0.00     0.003 A 
ENDROOT
TORSDOF 0
ENDMDL
