MODEL 1
REMARK minimizedAffinity -3.04672098
REMARK minimizedRMSD -1
REMARK  0 active torsions:
REMARK  status: ('A' for Active; 'I' for Inactive)
ROOT
ATOM      1  C4' PXY d   1      -2.362  -0.266   1.845  0.00  0.00     0.077 C 
ATOM      2  C1' PXY d   1       3.236  -0.809   0.510  0.00  0.00     0.077 C 
ATOM      3  C1  PXY d   1       1.769  -0.676   0.870  0.00  0.00    -0.082 A 
ATOM      4  C2  PXY d   1       0.916  -0.210  -0.028  0.00  0.00     0.003 A 
ATOM      5  C3  PXY d   1      -0.409  -0.053   0.291  0.00  0.00     0.003 A 
ATOM      6  C4  PXY d   1      -0.874  -0.427   1.523  0.00  0.00    -0.082 A 
ATOM      7  C5  PXY d   1      -0.011  -0.913   2.440  0.00  0.00     0.003 A 
ATOM      8  C6  PXY d   1       1.336  -1.026   2.111  0.00  0.00     0.003 A 
ENDROOT
TORSDOF 0
ENDMDL
