MODEL 1
REMARK minimizedAffinity -0.279698431
REMARK minimizedRMSD -1
REMARK  0 active torsions:
REMARK  status: ('A' for Active; 'I' for Inactive)
ROOT
ATOM      1  C4' PXY d   1       3.540  -2.282   1.972  0.00  0.00     0.077 C 
ATOM      2  C1' PXY d   1      -1.908  -4.009   2.836  0.00  0.00     0.077 C 
ATOM      3  C1  PXY d   1      -0.475  -3.565   2.619  0.00  0.00    -0.082 A 
ATOM      4  C2  PXY d   1      -0.231  -2.353   2.147  0.00  0.00     0.003 A 
ATOM      5  C3  PXY d   1       1.058  -1.946   1.914  0.00  0.00     0.003 A 
ATOM      6  C4  PXY d   1       2.110  -2.770   2.216  0.00  0.00    -0.082 A 
ATOM      7  C5  PXY d   1       1.869  -4.004   2.708  0.00  0.00     0.003 A 
ATOM      8  C6  PXY d   1       0.552  -4.412   2.898  0.00  0.00     0.003 A 
ENDROOT
TORSDOF 0
ENDMDL
