MODEL 1
REMARK minimizedAffinity -2.69912481
REMARK minimizedRMSD -1
REMARK  0 active torsions:
REMARK  status: ('A' for Active; 'I' for Inactive)
ROOT
ATOM      1  C4' PXY d   1      -2.501  -0.846  -0.440  0.00  0.00     0.077 C 
ATOM      2  C1' PXY d   1       2.045  -0.598   3.122  0.00  0.00     0.077 C 
ATOM      3  C1  PXY d   1       0.860  -0.656   2.179  0.00  0.00    -0.082 A 
ATOM      4  C2  PXY d   1      -0.357  -0.835   2.668  0.00  0.00     0.003 A 
ATOM      5  C3  PXY d   1      -1.436  -0.922   1.827  0.00  0.00     0.003 A 
ATOM      6  C4  PXY d   1      -1.276  -0.771   0.475  0.00  0.00    -0.082 A 
ATOM      7  C5  PXY d   1      -0.039  -0.578  -0.030  0.00  0.00     0.003 A 
ATOM      8  C6  PXY d   1       1.049  -0.534   0.837  0.00  0.00     0.003 A 
ENDROOT
TORSDOF 0
ENDMDL
