MODEL 1
REMARK minimizedAffinity -4.29662657
REMARK minimizedRMSD -1
REMARK  0 active torsions:
REMARK  status: ('A' for Active; 'I' for Inactive)
ROOT
ATOM      1  C4' PXY d   1       3.297  -0.973   0.825  0.00  0.00     0.077 C 
ATOM      2  C1' PXY d   1      -2.353  -0.148   1.723  0.00  0.00     0.077 C 
ATOM      3  C1  PXY d   1      -0.869  -0.361   1.500  0.00  0.00    -0.082 A 
ATOM      4  C2  PXY d   1      -0.369  -0.253   0.280  0.00  0.00     0.003 A 
ATOM      5  C3  PXY d   1       0.966  -0.474   0.055  0.00  0.00     0.003 A 
ATOM      6  C4  PXY d   1       1.806  -0.757   1.099  0.00  0.00    -0.082 A 
ATOM      7  C5  PXY d   1       1.305  -0.859   2.348  0.00  0.00     0.003 A 
ATOM      8  C6  PXY d   1      -0.059  -0.671   2.549  0.00  0.00     0.003 A 
ENDROOT
TORSDOF 0
ENDMDL
