MODEL 1
REMARK minimizedAffinity -3.25362444
REMARK minimizedRMSD -1
REMARK  0 active torsions:
REMARK  status: ('A' for Active; 'I' for Inactive)
ROOT
ATOM      1  C4' PXY d   1      -0.037  -2.446   3.269  0.00  0.00     0.077 C 
ATOM      2  C1' PXY d   1      -0.221   1.558  -0.896  0.00  0.00     0.077 C 
ATOM      3  C1  PXY d   1      -0.161   0.504   0.192  0.00  0.00    -0.082 A 
ATOM      4  C2  PXY d   1      -1.284   0.041   0.717  0.00  0.00     0.003 A 
ATOM      5  C3  PXY d   1      -1.247  -0.889   1.724  0.00  0.00     0.003 A 
ATOM      6  C4  PXY d   1      -0.050  -1.389   2.162  0.00  0.00    -0.082 A 
ATOM      7  C5  PXY d   1       1.099  -0.929   1.624  0.00  0.00     0.003 A 
ATOM      8  C6  PXY d   1       1.042   0.045   0.632  0.00  0.00     0.003 A 
ENDROOT
TORSDOF 0
ENDMDL
