MODEL 1
REMARK minimizedAffinity -3.52579832
REMARK minimizedRMSD -1
REMARK  0 active torsions:
REMARK  status: ('A' for Active; 'I' for Inactive)
ROOT
ATOM      1  C4' PXY d   1      -1.573   1.541  -0.999  0.00  0.00     0.077 C 
ATOM      2  C1' PXY d   1       1.928  -2.523   1.156  0.00  0.00     0.077 C 
ATOM      3  C1  PXY d   1       1.000  -1.465   0.595  0.00  0.00    -0.082 A 
ATOM      4  C2  PXY d   1       1.437  -0.643  -0.346  0.00  0.00     0.003 A 
ATOM      5  C3  PXY d   1       0.621   0.340  -0.842  0.00  0.00     0.003 A 
ATOM      6  C4  PXY d   1      -0.673   0.451  -0.409  0.00  0.00    -0.082 A 
ATOM      7  C5  PXY d   1      -1.130  -0.390   0.543  0.00  0.00     0.003 A 
ATOM      8  C6  PXY d   1      -0.273  -1.355   1.063  0.00  0.00     0.003 A 
ENDROOT
TORSDOF 0
ENDMDL
