MODEL 1
REMARK minimizedAffinity -2.8828218
REMARK minimizedRMSD -1
REMARK  0 active torsions:
REMARK  status: ('A' for Active; 'I' for Inactive)
ROOT
ATOM      1  C4' PXY d   1       1.463  -2.852   1.247  0.00  0.00     0.077 C 
ATOM      2  C1' PXY d   1      -0.654   2.115  -0.816  0.00  0.00     0.077 C 
ATOM      3  C1  PXY d   1      -0.107   0.813  -0.265  0.00  0.00    -0.082 A 
ATOM      4  C2  PXY d   1       1.111   0.422  -0.601  0.00  0.00     0.003 A 
ATOM      5  C3  PXY d   1       1.610  -0.769  -0.137  0.00  0.00     0.003 A 
ATOM      6  C4  PXY d   1       0.874  -1.540   0.722  0.00  0.00    -0.082 A 
ATOM      7  C5  PXY d   1      -0.366  -1.142   1.078  0.00  0.00     0.003 A 
ATOM      8  C6  PXY d   1      -0.870   0.049   0.563  0.00  0.00     0.003 A 
ENDROOT
TORSDOF 0
ENDMDL
