MODEL 1
REMARK minimizedAffinity -3.81094146
REMARK minimizedRMSD -1
REMARK  0 active torsions:
REMARK  status: ('A' for Active; 'I' for Inactive)
ROOT
ATOM      1  C4' PXY d   1       1.480  -3.408   1.307  0.00  0.00     0.077 C 
ATOM      2  C1' PXY d   1      -1.297   1.522   0.119  0.00  0.00     0.077 C 
ATOM      3  C1  PXY d   1      -0.561   0.230   0.420  0.00  0.00    -0.082 A 
ATOM      4  C2  PXY d   1      -1.138  -0.690   1.176  0.00  0.00     0.003 A 
ATOM      5  C3  PXY d   1      -0.474  -1.849   1.485  0.00  0.00     0.003 A 
ATOM      6  C4  PXY d   1       0.771  -2.093   0.970  0.00  0.00    -0.082 A 
ATOM      7  C5  PXY d   1       1.361  -1.164   0.188  0.00  0.00     0.003 A 
ATOM      8  C6  PXY d   1       0.688   0.025  -0.079  0.00  0.00     0.003 A 
ENDROOT
TORSDOF 0
ENDMDL
