MODEL 1
REMARK minimizedAffinity -4.9560442
REMARK minimizedRMSD -1
REMARK  0 active torsions:
REMARK  status: ('A' for Active; 'I' for Inactive)
ROOT
ATOM      1  C4' PXY d   1      -2.539   0.863  -2.353  0.00  0.00     0.077 C 
ATOM      2  C1' PXY d   1       1.769   3.507   0.451  0.00  0.00     0.077 C 
ATOM      3  C1  PXY d   1       0.643   2.803  -0.279  0.00  0.00    -0.082 A 
ATOM      4  C2  PXY d   1       0.154   3.328  -1.391  0.00  0.00     0.003 A 
ATOM      5  C3  PXY d   1      -0.886   2.720  -2.046  0.00  0.00     0.003 A 
ATOM      6  C4  PXY d   1      -1.396   1.535  -1.588  0.00  0.00    -0.082 A 
ATOM      7  C5  PXY d   1      -0.896   0.988  -0.460  0.00  0.00     0.003 A 
ATOM      8  C6  PXY d   1       0.132   1.641   0.213  0.00  0.00     0.003 A 
ENDROOT
TORSDOF 0
ENDMDL
