MODEL 1
REMARK minimizedAffinity -3.66052413
REMARK minimizedRMSD -1
REMARK  0 active torsions:
REMARK  status: ('A' for Active; 'I' for Inactive)
ROOT
ATOM      1  C4' PXY d   1      -0.591   1.863  -0.764  0.00  0.00     0.077 C 
ATOM      2  C1' PXY d   1       1.771  -3.005   1.270  0.00  0.00     0.077 C 
ATOM      3  C1  PXY d   1       1.140  -1.733   0.740  0.00  0.00    -0.082 A 
ATOM      4  C2  PXY d   1       1.752  -1.045  -0.211  0.00  0.00     0.003 A 
ATOM      5  C3  PXY d   1       1.211   0.124  -0.679  0.00  0.00     0.003 A 
ATOM      6  C4  PXY d   1       0.005   0.568  -0.206  0.00  0.00    -0.082 A 
ATOM      7  C5  PXY d   1      -0.631  -0.133   0.757  0.00  0.00     0.003 A 
ATOM      8  C6  PXY d   1      -0.045  -1.297   1.247  0.00  0.00     0.003 A 
ENDROOT
TORSDOF 0
ENDMDL
