MODEL 1
REMARK minimizedAffinity -2.19731522
REMARK minimizedRMSD -1
REMARK  0 active torsions:
REMARK  status: ('A' for Active; 'I' for Inactive)
ROOT
ATOM      1  C4' PXY d   1       2.642   3.755   0.364  0.00  0.00     0.077 C 
ATOM      2  C1' PXY d   1      -0.625  -1.014   0.391  0.00  0.00     0.077 C 
ATOM      3  C1  PXY d   1       0.221   0.243   0.379  0.00  0.00    -0.082 A 
ATOM      4  C2  PXY d   1       1.540   0.144   0.339  0.00  0.00     0.003 A 
ATOM      5  C3  PXY d   1       2.322   1.270   0.360  0.00  0.00     0.003 A 
ATOM      6  C4  PXY d   1       1.747   2.512   0.368  0.00  0.00    -0.082 A 
ATOM      7  C5  PXY d   1       0.402   2.623   0.397  0.00  0.00     0.003 A 
ATOM      8  C6  PXY d   1      -0.373   1.467   0.417  0.00  0.00     0.003 A 
ENDROOT
TORSDOF 0
ENDMDL
