MODEL 1
REMARK minimizedAffinity -4.23988104
REMARK minimizedRMSD -1
REMARK  0 active torsions:
REMARK  status: ('A' for Active; 'I' for Inactive)
ROOT
ATOM      1  C4' PXY d   1      -0.327   1.517  -0.715  0.00  0.00     0.077 C 
ATOM      2  C1' PXY d   1       1.103  -3.446   1.881  0.00  0.00     0.077 C 
ATOM      3  C1  PXY d   1       0.715  -2.148   1.202  0.00  0.00    -0.082 A 
ATOM      4  C2  PXY d   1       1.577  -1.549   0.396  0.00  0.00     0.003 A 
ATOM      5  C3  PXY d   1       1.255  -0.357  -0.201  0.00  0.00     0.003 A 
ATOM      6  C4  PXY d   1       0.018   0.199  -0.015  0.00  0.00    -0.082 A 
ATOM      7  C5  PXY d   1      -0.871  -0.412   0.797  0.00  0.00     0.003 A 
ATOM      8  C6  PXY d   1      -0.509  -1.599   1.427  0.00  0.00     0.003 A 
ENDROOT
TORSDOF 0
ENDMDL
