MODEL 1
REMARK minimizedAffinity -2.35652113
REMARK minimizedRMSD -1
REMARK  0 active torsions:
REMARK  status: ('A' for Active; 'I' for Inactive)
ROOT
ATOM      1  C4' PXY d   1      -1.439   1.293  -0.560  0.00  0.00     0.077 C 
ATOM      2  C1' PXY d   1       1.455  -3.370   1.257  0.00  0.00     0.077 C 
ATOM      3  C1  PXY d   1       0.685  -2.152   0.785  0.00  0.00    -0.082 A 
ATOM      4  C2  PXY d   1       1.129  -1.458  -0.250  0.00  0.00     0.003 A 
ATOM      5  C3  PXY d   1       0.462  -0.336  -0.670  0.00  0.00     0.003 A 
ATOM      6  C4  PXY d   1      -0.699   0.050  -0.056  0.00  0.00    -0.082 A 
ATOM      7  C5  PXY d   1      -1.164  -0.658   0.995  0.00  0.00     0.003 A 
ATOM      8  C6  PXY d   1      -0.450  -1.771   1.431  0.00  0.00     0.003 A 
ENDROOT
TORSDOF 0
ENDMDL
