MODEL 1
REMARK minimizedAffinity -3.63562727
REMARK minimizedRMSD -1
REMARK  0 active torsions:
REMARK  status: ('A' for Active; 'I' for Inactive)
ROOT
ATOM      1  C4' PXY d   1      -0.985   0.997  -0.324  0.00  0.00     0.077 C 
ATOM      2  C1' PXY d   1       4.065   3.805  -0.180  0.00  0.00     0.077 C 
ATOM      3  C1  PXY d   1       2.735   3.079  -0.212  0.00  0.00    -0.082 A 
ATOM      4  C2  PXY d   1       2.712   1.757  -0.259  0.00  0.00     0.003 A 
ATOM      5  C3  PXY d   1       1.518   1.086  -0.321  0.00  0.00     0.003 A 
ATOM      6  C4  PXY d   1       0.335   1.772  -0.281  0.00  0.00    -0.082 A 
ATOM      7  C5  PXY d   1       0.349   3.121  -0.221  0.00  0.00     0.003 A 
ATOM      8  C6  PXY d   1       1.572   3.785  -0.201  0.00  0.00     0.003 A 
ENDROOT
TORSDOF 0
ENDMDL
