MODEL 1
REMARK minimizedAffinity -2.24499106
REMARK minimizedRMSD -1
REMARK  0 active torsions:
REMARK  status: ('A' for Active; 'I' for Inactive)
ROOT
ATOM      1  C4' PXY d   1       0.904   2.854   0.314  0.00  0.00     0.077 C 
ATOM      2  C1' PXY d   1       0.644  -2.918   0.504  0.00  0.00     0.077 C 
ATOM      3  C1  PXY d   1       0.700  -1.404   0.449  0.00  0.00    -0.082 A 
ATOM      4  C2  PXY d   1       1.873  -0.794   0.380  0.00  0.00     0.003 A 
ATOM      5  C3  PXY d   1       1.943   0.575   0.362  0.00  0.00     0.003 A 
ATOM      6  C4  PXY d   1       0.799   1.327   0.361  0.00  0.00    -0.082 A 
ATOM      7  C5  PXY d   1      -0.402   0.713   0.421  0.00  0.00     0.003 A 
ATOM      8  C6  PXY d   1      -0.450  -0.677   0.480  0.00  0.00     0.003 A 
ENDROOT
TORSDOF 0
ENDMDL
