MODEL 1
REMARK minimizedAffinity -2.18416452
REMARK minimizedRMSD -1
REMARK  0 active torsions:
REMARK  status: ('A' for Active; 'I' for Inactive)
ROOT
ATOM      1  C4' PXY d   1      -0.352   0.554   0.508  0.00  0.00     0.077 C 
ATOM      2  C1' PXY d   1       4.105   4.176  -0.144  0.00  0.00     0.077 C 
ATOM      3  C1  PXY d   1       2.929   3.236   0.032  0.00  0.00    -0.082 A 
ATOM      4  C2  PXY d   1       3.142   1.934   0.134  0.00  0.00     0.003 A 
ATOM      5  C3  PXY d   1       2.087   1.067   0.261  0.00  0.00     0.003 A 
ATOM      6  C4  PXY d   1       0.805   1.541   0.339  0.00  0.00    -0.082 A 
ATOM      7  C5  PXY d   1       0.581   2.869   0.247  0.00  0.00     0.003 A 
ATOM      8  C6  PXY d   1       1.661   3.729   0.076  0.00  0.00     0.003 A 
ENDROOT
TORSDOF 0
ENDMDL
