MODEL 1
REMARK minimizedAffinity -1.98899913
REMARK minimizedRMSD -1
REMARK  0 active torsions:
REMARK  status: ('A' for Active; 'I' for Inactive)
ROOT
ATOM      1  C4' PXY d   1       1.383  -2.615   1.657  0.00  0.00     0.077 C 
ATOM      2  C1' PXY d   1      -1.968   1.280  -0.990  0.00  0.00     0.077 C 
ATOM      3  C1  PXY d   1      -1.090   0.265  -0.285  0.00  0.00    -0.082 A 
ATOM      4  C2  PXY d   1      -0.270  -0.494  -0.993  0.00  0.00     0.003 A 
ATOM      5  C3  PXY d   1       0.507  -1.439  -0.374  0.00  0.00     0.003 A 
ATOM      6  C4  PXY d   1       0.485  -1.571   0.988  0.00  0.00    -0.082 A 
ATOM      7  C5  PXY d   1      -0.341  -0.792   1.718  0.00  0.00     0.003 A 
ATOM      8  C6  PXY d   1      -1.153   0.132   1.068  0.00  0.00     0.003 A 
ENDROOT
TORSDOF 0
ENDMDL
