MODEL 1
REMARK minimizedAffinity -0.855386317
REMARK minimizedRMSD -1
REMARK  0 active torsions:
REMARK  status: ('A' for Active; 'I' for Inactive)
ROOT
ATOM      1  C4' PXY d   1      -0.605   0.423  -0.405  0.00  0.00     0.077 C 
ATOM      2  C1' PXY d   1       3.806   4.074   0.388  0.00  0.00     0.077 C 
ATOM      3  C1  PXY d   1       2.641   3.126   0.182  0.00  0.00    -0.082 A 
ATOM      4  C2  PXY d   1       2.796   1.836   0.427  0.00  0.00     0.003 A 
ATOM      5  C3  PXY d   1       1.763   0.960   0.215  0.00  0.00     0.003 A 
ATOM      6  C4  PXY d   1       0.541   1.418  -0.202  0.00  0.00    -0.082 A 
ATOM      7  C5  PXY d   1       0.372   2.735  -0.444  0.00  0.00     0.003 A 
ATOM      8  C6  PXY d   1       1.445   3.602  -0.262  0.00  0.00     0.003 A 
ENDROOT
TORSDOF 0
ENDMDL
