MODEL 1
REMARK minimizedAffinity 0.966531217
REMARK minimizedRMSD -1
REMARK  0 active torsions:
REMARK  status: ('A' for Active; 'I' for Inactive)
ROOT
ATOM      1  C4' PXY d   1      -1.065   1.939  -1.412  0.00  0.00     0.077 C 
ATOM      2  C1' PXY d   1      -0.119  -2.891   1.621  0.00  0.00     0.077 C 
ATOM      3  C1  PXY d   1      -0.374  -1.620   0.835  0.00  0.00    -0.082 A 
ATOM      4  C2  PXY d   1      -0.322  -1.645  -0.486  0.00  0.00     0.003 A 
ATOM      5  C3  PXY d   1      -0.518  -0.498  -1.211  0.00  0.00     0.003 A 
ATOM      6  C4  PXY d   1      -0.824   0.677  -0.578  0.00  0.00    -0.082 A 
ATOM      7  C5  PXY d   1      -0.890   0.709   0.770  0.00  0.00     0.003 A 
ATOM      8  C6  PXY d   1      -0.647  -0.457   1.489  0.00  0.00     0.003 A 
ENDROOT
TORSDOF 0
ENDMDL
