MODEL 1
REMARK minimizedAffinity -1.51681101
REMARK minimizedRMSD -1
REMARK  0 active torsions:
REMARK  status: ('A' for Active; 'I' for Inactive)
ROOT
ATOM      1  C4' PXY d   1      -1.103   1.485  -0.411  0.00  0.00     0.077 C 
ATOM      2  C1' PXY d   1       1.450  -3.476   1.099  0.00  0.00     0.077 C 
ATOM      3  C1  PXY d   1       0.769  -2.180   0.705  0.00  0.00    -0.082 A 
ATOM      4  C2  PXY d   1       1.426  -1.291  -0.022  0.00  0.00     0.003 A 
ATOM      5  C3  PXY d   1       0.836  -0.100  -0.361  0.00  0.00     0.003 A 
ATOM      6  C4  PXY d   1      -0.458   0.160   0.003  0.00  0.00    -0.082 A 
ATOM      7  C5  PXY d   1      -1.139  -0.747   0.735  0.00  0.00     0.003 A 
ATOM      8  C6  PXY d   1      -0.508  -1.932   1.104  0.00  0.00     0.003 A 
ENDROOT
TORSDOF 0
ENDMDL
