MODEL 1
REMARK minimizedAffinity -1.52001715
REMARK minimizedRMSD -1
REMARK  0 active torsions:
REMARK  status: ('A' for Active; 'I' for Inactive)
ROOT
ATOM      1  C4' PXY d   1      -0.409   1.461  -0.067  0.00  0.00     0.077 C 
ATOM      2  C1' PXY d   1       1.536  -3.699   1.666  0.00  0.00     0.077 C 
ATOM      3  C1  PXY d   1       1.038  -2.341   1.215  0.00  0.00    -0.082 A 
ATOM      4  C2  PXY d   1      -0.260  -2.082   1.229  0.00  0.00     0.003 A 
ATOM      5  C3  PXY d   1      -0.730  -0.870   0.793  0.00  0.00     0.003 A 
ATOM      6  C4  PXY d   1       0.140   0.106   0.389  0.00  0.00    -0.082 A 
ATOM      7  C5  PXY d   1       1.466  -0.146   0.382  0.00  0.00     0.003 A 
ATOM      8  C6  PXY d   1       1.921  -1.397   0.789  0.00  0.00     0.003 A 
ENDROOT
TORSDOF 0
ENDMDL
