MODEL 1
REMARK minimizedAffinity -4.54536295
REMARK minimizedRMSD -1
REMARK  0 active torsions:
REMARK  status: ('A' for Active; 'I' for Inactive)
ROOT
ATOM      1  C4' PXY d   1       0.039   3.194   0.218  0.00  0.00     0.077 C 
ATOM      2  C1' PXY d   1       0.695  -2.535   0.629  0.00  0.00     0.077 C 
ATOM      3  C1  PXY d   1       0.536  -1.031   0.523  0.00  0.00    -0.082 A 
ATOM      4  C2  PXY d   1      -0.627  -0.474   0.819  0.00  0.00     0.003 A 
ATOM      5  C3  PXY d   1      -0.798   0.881   0.697  0.00  0.00     0.003 A 
ATOM      6  C4  PXY d   1       0.248   1.680   0.320  0.00  0.00    -0.082 A 
ATOM      7  C5  PXY d   1       1.441   1.121   0.027  0.00  0.00     0.003 A 
ATOM      8  C6  PXY d   1       1.582  -0.261   0.117  0.00  0.00     0.003 A 
ENDROOT
TORSDOF 0
ENDMDL
