MODEL 1
REMARK minimizedAffinity -4.13890219
REMARK minimizedRMSD -1
REMARK  0 active torsions:
REMARK  status: ('A' for Active; 'I' for Inactive)
ROOT
ATOM      1  C4' PXY d   1       1.642   3.770  -0.079  0.00  0.00     0.077 C 
ATOM      2  C1' PXY d   1       0.331  -1.843  -0.522  0.00  0.00     0.077 C 
ATOM      3  C1  PXY d   1       0.686  -0.374  -0.401  0.00  0.00    -0.082 A 
ATOM      4  C2  PXY d   1      -0.278   0.526  -0.297  0.00  0.00     0.003 A 
ATOM      5  C3  PXY d   1       0.025   1.861  -0.219  0.00  0.00     0.003 A 
ATOM      6  C4  PXY d   1       1.330   2.275  -0.194  0.00  0.00    -0.082 A 
ATOM      7  C5  PXY d   1       2.320   1.362  -0.288  0.00  0.00     0.003 A 
ATOM      8  C6  PXY d   1       1.990   0.015  -0.408  0.00  0.00     0.003 A 
ENDROOT
TORSDOF 0
ENDMDL
