MODEL 1
REMARK minimizedAffinity -2.09565806
REMARK minimizedRMSD -1
REMARK  0 active torsions:
REMARK  status: ('A' for Active; 'I' for Inactive)
ROOT
ATOM      1  C4' PXY d   1      -0.809   1.609  -0.772  0.00  0.00     0.077 C 
ATOM      2  C1' PXY d   1       1.536  -3.236   1.334  0.00  0.00     0.077 C 
ATOM      3  C1  PXY d   1       0.909  -1.971   0.783  0.00  0.00    -0.082 A 
ATOM      4  C2  PXY d   1       1.630  -1.159   0.026  0.00  0.00     0.003 A 
ATOM      5  C3  PXY d   1       1.089   0.005  -0.454  0.00  0.00     0.003 A 
ATOM      6  C4  PXY d   1      -0.221   0.316  -0.202  0.00  0.00    -0.082 A 
ATOM      7  C5  PXY d   1      -0.966  -0.512   0.561  0.00  0.00     0.003 A 
ATOM      8  C6  PXY d   1      -0.385  -1.669   1.073  0.00  0.00     0.003 A 
ENDROOT
TORSDOF 0
ENDMDL
