MODEL 1
REMARK minimizedAffinity -3.40140724
REMARK minimizedRMSD -1
REMARK  1 active torsions:
REMARK  status: ('A' for Active; 'I' for Inactive)
REMARK    1  A    between atoms: C3_4  and  O_7 
ROOT
ATOM      1  C   UNL d   1       1.461   1.331  -0.631  0.00  0.00    -0.033 A 
ATOM      2  C1  UNL d   1       0.693   0.534   0.219  0.00  0.00     0.039 A 
ATOM      3  C2  UNL d   1       0.785  -0.858   0.146  0.00  0.00    -0.080 A 
ATOM      4  C3  UNL d   1       1.649  -1.438  -0.778  0.00  0.00     0.150 A 
ATOM      5  C4  UNL d   1       2.421  -0.649  -1.625  0.00  0.00    -0.007 A 
ATOM      6  C5  UNL d   1       2.327   0.740  -1.552  0.00  0.00     0.039 A 
ENDROOT
BRANCH   4   7
ATOM      7  O   UNL d   1       1.770  -2.791  -0.889  0.00  0.00    -0.526 OA
ATOM      8  H5  UNL d   1       1.156  -3.207  -0.261  0.00  0.00     0.418 HD
ENDBRANCH   4   7
TORSDOF 1
ENDMDL
