MODEL 1
REMARK minimizedAffinity -3.04257894
REMARK minimizedRMSD -1
REMARK  1 active torsions:
REMARK  status: ('A' for Active; 'I' for Inactive)
REMARK    1  A    between atoms: C3_4  and  O_7 
ROOT
ATOM      1  C   UNL d   1      -0.734   0.362   1.517  0.00  0.00    -0.033 A 
ATOM      2  C1  UNL d   1      -0.817   0.829   0.204  0.00  0.00     0.039 A 
ATOM      3  C2  UNL d   1      -2.059   1.151  -0.347  0.00  0.00    -0.080 A 
ATOM      4  C3  UNL d   1      -3.208   1.004   0.426  0.00  0.00     0.150 A 
ATOM      5  C4  UNL d   1      -3.132   0.544   1.736  0.00  0.00    -0.007 A 
ATOM      6  C5  UNL d   1      -1.891   0.221   2.284  0.00  0.00     0.039 A 
ENDROOT
BRANCH   4   7
ATOM      7  O   UNL d   1      -4.443   1.301  -0.070  0.00  0.00    -0.526 OA
ATOM      8  H5  UNL d   1      -4.344   1.580  -0.996  0.00  0.00     0.418 HD
ENDBRANCH   4   7
TORSDOF 1
ENDMDL
