MODEL 1
REMARK minimizedAffinity 0.0998175219
REMARK minimizedRMSD -1
REMARK  1 active torsions:
REMARK  status: ('A' for Active; 'I' for Inactive)
REMARK    1  A    between atoms: C3_4  and  O_7 
ROOT
ATOM      1  C   UNL d   1       2.120   1.937   1.002  0.00  0.00    -0.033 A 
ATOM      2  C1  UNL d   1       3.331   1.718   0.342  0.00  0.00     0.039 A 
ATOM      3  C2  UNL d   1       3.338   1.176  -0.945  0.00  0.00    -0.080 A 
ATOM      4  C3  UNL d   1       2.130   0.860  -1.560  0.00  0.00     0.150 A 
ATOM      5  C4  UNL d   1       0.920   1.079  -0.910  0.00  0.00    -0.007 A 
ATOM      6  C5  UNL d   1       0.915   1.619   0.375  0.00  0.00     0.039 A 
ENDROOT
BRANCH   4   7
ATOM      7  O   UNL d   1       2.087   0.324  -2.813  0.00  0.00    -0.526 OA
ATOM      8  H5  UNL d   1       2.999   0.202  -3.127  0.00  0.00     0.418 HD
ENDBRANCH   4   7
TORSDOF 1
ENDMDL
