MODEL 1
REMARK minimizedAffinity -3.41153812
REMARK minimizedRMSD -1
REMARK  1 active torsions:
REMARK  status: ('A' for Active; 'I' for Inactive)
REMARK    1  A    between atoms: C3_4  and  O_7 
ROOT
ATOM      1  C   UNL d   1       0.778   1.344  -0.551  0.00  0.00    -0.033 A 
ATOM      2  C1  UNL d   1       1.639   0.654  -1.408  0.00  0.00     0.039 A 
ATOM      3  C2  UNL d   1       1.642  -0.743  -1.421  0.00  0.00    -0.080 A 
ATOM      4  C3  UNL d   1       0.780  -1.436  -0.575  0.00  0.00     0.150 A 
ATOM      5  C4  UNL d   1      -0.082  -0.755   0.278  0.00  0.00    -0.007 A 
ATOM      6  C5  UNL d   1      -0.083   0.639   0.290  0.00  0.00     0.039 A 
ENDROOT
BRANCH   4   7
ATOM      7  O   UNL d   1       0.751  -2.798  -0.549  0.00  0.00    -0.526 OA
ATOM      8  H5  UNL d   1       1.420  -3.133  -1.169  0.00  0.00     0.418 HD
ENDBRANCH   4   7
TORSDOF 1
ENDMDL
