MODEL 1
REMARK minimizedAffinity -2.32807446
REMARK minimizedRMSD -1
REMARK  1 active torsions:
REMARK  status: ('A' for Active; 'I' for Inactive)
REMARK    1  A    between atoms: C3_4  and  O_7 
ROOT
ATOM      1  C   UNL d   1      -3.387   0.736   2.290  0.00  0.00    -0.033 A 
ATOM      2  C1  UNL d   1      -3.481   0.597   0.904  0.00  0.00     0.039 A 
ATOM      3  C2  UNL d   1      -2.334   0.355   0.145  0.00  0.00    -0.080 A 
ATOM      4  C3  UNL d   1      -1.102   0.252   0.784  0.00  0.00     0.150 A 
ATOM      5  C4  UNL d   1      -1.001   0.385   2.165  0.00  0.00    -0.007 A 
ATOM      6  C5  UNL d   1      -2.147   0.628   2.921  0.00  0.00     0.039 A 
ENDROOT
BRANCH   4   7
ATOM      7  O   UNL d   1       0.046   0.021   0.085  0.00  0.00    -0.526 OA
ATOM      8  H5  UNL d   1      -0.173  -0.020  -0.861  0.00  0.00     0.418 HD
ENDBRANCH   4   7
TORSDOF 1
ENDMDL
