MODEL 1
REMARK minimizedAffinity -5.65369749
REMARK minimizedRMSD -1
REMARK  1 active torsions:
REMARK  status: ('A' for Active; 'I' for Inactive)
REMARK    1  A    between atoms: C3_4  and  O_7 
ROOT
ATOM      1  C   UNL d   1       1.952  -0.699  -2.695  0.00  0.00    -0.033 A 
ATOM      2  C1  UNL d   1       1.916   0.632  -2.273  0.00  0.00     0.039 A 
ATOM      3  C2  UNL d   1       1.314   0.964  -1.058  0.00  0.00    -0.080 A 
ATOM      4  C3  UNL d   1       0.753  -0.042  -0.275  0.00  0.00     0.150 A 
ATOM      5  C4  UNL d   1       0.789  -1.370  -0.688  0.00  0.00    -0.007 A 
ATOM      6  C5  UNL d   1       1.390  -1.700  -1.902  0.00  0.00     0.039 A 
ENDROOT
BRANCH   4   7
ATOM      7  O   UNL d   1       0.150   0.235   0.916  0.00  0.00    -0.526 OA
ATOM      8  H5  UNL d   1       0.175   1.196   1.057  0.00  0.00     0.418 HD
ENDBRANCH   4   7
TORSDOF 1
ENDMDL
