MODEL 1
REMARK minimizedAffinity -2.3981986
REMARK minimizedRMSD -1
REMARK  1 active torsions:
REMARK  status: ('A' for Active; 'I' for Inactive)
REMARK    1  A    between atoms: C3_4  and  O_7 
ROOT
ATOM      1  C   UNL d   1       2.321   0.226  -1.717  0.00  0.00    -0.033 A 
ATOM      2  C1  UNL d   1       1.683   1.412  -1.347  0.00  0.00     0.039 A 
ATOM      3  C2  UNL d   1       0.624   1.382  -0.437  0.00  0.00    -0.080 A 
ATOM      4  C3  UNL d   1       0.215   0.162   0.096  0.00  0.00     0.150 A 
ATOM      5  C4  UNL d   1       0.849  -1.022  -0.266  0.00  0.00    -0.007 A 
ATOM      6  C5  UNL d   1       1.905  -0.990  -1.175  0.00  0.00     0.039 A 
ENDROOT
BRANCH   4   7
ATOM      7  O   UNL d   1      -0.816   0.082   0.984  0.00  0.00    -0.526 OA
ATOM      8  H5  UNL d   1      -1.177   0.975   1.118  0.00  0.00     0.418 HD
ENDBRANCH   4   7
TORSDOF 1
ENDMDL
