MODEL 1
REMARK minimizedAffinity -2.52810955
REMARK minimizedRMSD -1
REMARK  1 active torsions:
REMARK  status: ('A' for Active; 'I' for Inactive)
REMARK    1  A    between atoms: C3_4  and  O_7 
ROOT
ATOM      1  C   UNL d   1       1.623   0.297  -1.984  0.00  0.00    -0.033 A 
ATOM      2  C1  UNL d   1       1.172  -0.940  -1.522  0.00  0.00     0.039 A 
ATOM      3  C2  UNL d   1       0.365  -1.011  -0.384  0.00  0.00    -0.080 A 
ATOM      4  C3  UNL d   1       0.016   0.162   0.279  0.00  0.00     0.150 A 
ATOM      5  C4  UNL d   1       0.459   1.399  -0.178  0.00  0.00    -0.007 A 
ATOM      6  C5  UNL d   1       1.266   1.467  -1.313  0.00  0.00     0.039 A 
ENDROOT
BRANCH   4   7
ATOM      7  O   UNL d   1      -0.766   0.144   1.396  0.00  0.00    -0.526 OA
ATOM      8  H5  UNL d   1      -0.972  -0.781   1.612  0.00  0.00     0.418 HD
ENDBRANCH   4   7
TORSDOF 1
ENDMDL
