MODEL 1
REMARK minimizedAffinity -4.57829142
REMARK minimizedRMSD -1
REMARK  1 active torsions:
REMARK  status: ('A' for Active; 'I' for Inactive)
REMARK    1  A    between atoms: C3_4  and  O_7 
ROOT
ATOM      1  C   UNL d   1       1.678   1.084  -1.761  0.00  0.00    -0.033 A 
ATOM      2  C1  UNL d   1       0.764   0.075  -2.070  0.00  0.00     0.039 A 
ATOM      3  C2  UNL d   1      -0.051  -0.460  -1.071  0.00  0.00    -0.080 A 
ATOM      4  C3  UNL d   1       0.056   0.023   0.231  0.00  0.00     0.150 A 
ATOM      5  C4  UNL d   1       0.962   1.031   0.544  0.00  0.00    -0.007 A 
ATOM      6  C5  UNL d   1       1.776   1.564  -0.455  0.00  0.00     0.039 A 
ENDROOT
BRANCH   4   7
ATOM      7  O   UNL d   1      -0.715  -0.471   1.240  0.00  0.00    -0.526 OA
ATOM      8  H5  UNL d   1      -1.273  -1.182   0.882  0.00  0.00     0.418 HD
ENDBRANCH   4   7
TORSDOF 1
ENDMDL
