MODEL 1
REMARK minimizedAffinity -0.367869556
REMARK minimizedRMSD -1
REMARK  1 active torsions:
REMARK  status: ('A' for Active; 'I' for Inactive)
REMARK    1  A    between atoms: C3_4  and  O_7 
ROOT
ATOM      1  C   UNL d   1      -3.911   0.849   1.847  0.00  0.00    -0.033 A 
ATOM      2  C1  UNL d   1      -3.819  -0.191   0.919  0.00  0.00     0.039 A 
ATOM      3  C2  UNL d   1      -2.568  -0.671   0.528  0.00  0.00    -0.080 A 
ATOM      4  C3  UNL d   1      -1.418  -0.106   1.073  0.00  0.00     0.150 A 
ATOM      5  C4  UNL d   1      -1.502   0.927   2.000  0.00  0.00    -0.007 A 
ATOM      6  C5  UNL d   1      -2.752   1.407   2.389  0.00  0.00     0.039 A 
ENDROOT
BRANCH   4   7
ATOM      7  O   UNL d   1      -0.175  -0.539   0.719  0.00  0.00    -0.526 OA
ATOM      8  H5  UNL d   1      -0.271  -1.236   0.049  0.00  0.00     0.418 HD
ENDBRANCH   4   7
TORSDOF 1
ENDMDL
