MODEL 1
REMARK minimizedAffinity -2.71252751
REMARK minimizedRMSD -1
REMARK  1 active torsions:
REMARK  status: ('A' for Active; 'I' for Inactive)
REMARK    1  A    between atoms: C3_4  and  O_7 
ROOT
ATOM      1  C   UNL d   1      -1.245  -0.365   1.985  0.00  0.00    -0.033 A 
ATOM      2  C1  UNL d   1      -1.045   0.347   0.801  0.00  0.00     0.039 A 
ATOM      3  C2  UNL d   1      -2.133   0.903   0.126  0.00  0.00    -0.080 A 
ATOM      4  C3  UNL d   1      -3.414   0.742   0.646  0.00  0.00     0.150 A 
ATOM      5  C4  UNL d   1      -3.621   0.037   1.828  0.00  0.00    -0.007 A 
ATOM      6  C5  UNL d   1      -2.533  -0.518   2.500  0.00  0.00     0.039 A 
ENDROOT
BRANCH   4   7
ATOM      7  O   UNL d   1      -4.508   1.263   0.021  0.00  0.00    -0.526 OA
ATOM      8  H5  UNL d   1      -4.216   1.698  -0.798  0.00  0.00     0.418 HD
ENDBRANCH   4   7
TORSDOF 1
ENDMDL
