MODEL 1
REMARK minimizedAffinity -2.69095564
REMARK minimizedRMSD -1
REMARK  1 active torsions:
REMARK  status: ('A' for Active; 'I' for Inactive)
REMARK    1  A    between atoms: C3_4  and  O_7 
ROOT
ATOM      1  C   UNL d   1      -0.747  -0.638   1.111  0.00  0.00    -0.033 A 
ATOM      2  C1  UNL d   1      -0.343   0.688   0.946  0.00  0.00     0.039 A 
ATOM      3  C2  UNL d   1       0.450   1.047  -0.145  0.00  0.00    -0.080 A 
ATOM      4  C3  UNL d   1       0.831   0.073  -1.064  0.00  0.00     0.150 A 
ATOM      5  C4  UNL d   1       0.429  -1.250  -0.908  0.00  0.00    -0.007 A 
ATOM      6  C5  UNL d   1      -0.362  -1.607   0.183  0.00  0.00     0.039 A 
ENDROOT
BRANCH   4   7
ATOM      7  O   UNL d   1       1.608   0.375  -2.142  0.00  0.00    -0.526 OA
ATOM      8  H5  UNL d   1       1.833   1.319  -2.104  0.00  0.00     0.418 HD
ENDBRANCH   4   7
TORSDOF 1
ENDMDL
