MODEL 1
REMARK minimizedAffinity -3.6321044
REMARK minimizedRMSD -1
REMARK  1 active torsions:
REMARK  status: ('A' for Active; 'I' for Inactive)
REMARK    1  A    between atoms: C3_4  and  O_7 
ROOT
ATOM      1  C   UNL d   1       1.222   1.385  -0.208  0.00  0.00    -0.033 A 
ATOM      2  C1  UNL d   1       2.021   0.738  -1.154  0.00  0.00     0.039 A 
ATOM      3  C2  UNL d   1       1.997  -0.654  -1.256  0.00  0.00    -0.080 A 
ATOM      4  C3  UNL d   1       1.170  -1.387  -0.409  0.00  0.00     0.150 A 
ATOM      5  C4  UNL d   1       0.369  -0.749   0.533  0.00  0.00    -0.007 A 
ATOM      6  C5  UNL d   1       0.395   0.641   0.634  0.00  0.00     0.039 A 
ENDROOT
BRANCH   4   7
ATOM      7  O   UNL d   1       1.116  -2.748  -0.468  0.00  0.00    -0.526 OA
ATOM      8  H5  UNL d   1       1.744  -3.052  -1.145  0.00  0.00     0.418 HD
ENDBRANCH   4   7
TORSDOF 1
ENDMDL
