MODEL 1
REMARK minimizedAffinity -3.34948683
REMARK minimizedRMSD -1
REMARK  1 active torsions:
REMARK  status: ('A' for Active; 'I' for Inactive)
REMARK    1  A    between atoms: C3_4  and  O_7 
ROOT
ATOM      1  C   UNL d   1       0.391   1.349   0.240  0.00  0.00    -0.033 A 
ATOM      2  C1  UNL d   1      -0.608   0.654   0.925  0.00  0.00     0.039 A 
ATOM      3  C2  UNL d   1      -0.542  -0.736   1.037  0.00  0.00    -0.080 A 
ATOM      4  C3  UNL d   1       0.527  -1.418   0.462  0.00  0.00     0.150 A 
ATOM      5  C4  UNL d   1       1.527  -0.732  -0.219  0.00  0.00    -0.007 A 
ATOM      6  C5  UNL d   1       1.459   0.656  -0.331  0.00  0.00     0.039 A 
ENDROOT
BRANCH   4   7
ATOM      7  O   UNL d   1       0.631  -2.775   0.541  0.00  0.00    -0.526 OA
ATOM      8  H5  UNL d   1      -0.145  -3.116   1.015  0.00  0.00     0.418 HD
ENDBRANCH   4   7
TORSDOF 1
ENDMDL
