MODEL 1
REMARK minimizedAffinity 11.5835571
REMARK minimizedRMSD -1
REMARK  0 active torsions:
REMARK  status: ('A' for Active; 'I' for Inactive)
ROOT
ATOM      1  C   UNL d   1      -0.845  -0.948   2.553  0.00  0.00     0.078 C 
ATOM      2  C1  UNL d   1      -1.618  -0.044   3.466  0.00  0.00    -0.077 A 
ATOM      3  C2  UNL d   1      -1.582  -0.219   4.855  0.00  0.00    -0.001 A 
ATOM      4  C3  UNL d   1      -2.314   0.624   5.692  0.00  0.00     0.003 A 
ATOM      5  C4  UNL d   1      -3.088   1.648   5.150  0.00  0.00    -0.005 A 
ATOM      6  C5  UNL d   1      -3.132   1.829   3.770  0.00  0.00     0.003 A 
ATOM      7  C6  UNL d   1      -2.400   0.987   2.931  0.00  0.00    -0.001 A 
ENDROOT
TORSDOF 0
ENDMDL
