MODEL 1
REMARK minimizedAffinity 8.5841198
REMARK minimizedRMSD -1
REMARK  0 active torsions:
REMARK  status: ('A' for Active; 'I' for Inactive)
ROOT
ATOM      1  C   UNL d   1      -4.146   3.157   5.927  0.00  0.00     0.078 C 
ATOM      2  C1  UNL d   1      -3.292   2.228   5.118  0.00  0.00    -0.077 A 
ATOM      3  C2  UNL d   1      -2.301   1.446   5.725  0.00  0.00    -0.001 A 
ATOM      4  C3  UNL d   1      -1.507   0.592   4.958  0.00  0.00     0.003 A 
ATOM      5  C4  UNL d   1      -1.695   0.512   3.579  0.00  0.00    -0.005 A 
ATOM      6  C5  UNL d   1      -2.677   1.287   2.966  0.00  0.00     0.003 A 
ATOM      7  C6  UNL d   1      -3.472   2.142   3.732  0.00  0.00    -0.001 A 
ENDROOT
TORSDOF 0
ENDMDL
