MODEL 1
REMARK minimizedAffinity 13.736167
REMARK minimizedRMSD -1
REMARK  0 active torsions:
REMARK  status: ('A' for Active; 'I' for Inactive)
ROOT
ATOM      1  C   UNL d   1      -5.135  -0.371   1.127  0.00  0.00     0.078 C 
ATOM      2  C1  UNL d   1      -3.809  -0.329   1.827  0.00  0.00    -0.077 A 
ATOM      3  C2  UNL d   1      -3.527   0.657   2.780  0.00  0.00    -0.001 A 
ATOM      4  C3  UNL d   1      -2.285   0.690   3.416  0.00  0.00     0.003 A 
ATOM      5  C4  UNL d   1      -1.315  -0.261   3.106  0.00  0.00    -0.005 A 
ATOM      6  C5  UNL d   1      -1.585  -1.245   2.157  0.00  0.00     0.003 A 
ATOM      7  C6  UNL d   1      -2.827  -1.279   1.520  0.00  0.00    -0.001 A 
ENDROOT
TORSDOF 0
ENDMDL
