MODEL 1
REMARK minimizedAffinity 16.257946
REMARK minimizedRMSD -1
REMARK  0 active torsions:
REMARK  status: ('A' for Active; 'I' for Inactive)
ROOT
ATOM      1  C   UNL d   1      -1.896  -4.267  -2.960  0.00  0.00     0.078 C 
ATOM      2  C1  UNL d   1      -0.677  -4.875  -3.587  0.00  0.00    -0.077 A 
ATOM      3  C2  UNL d   1       0.547  -4.902  -2.908  0.00  0.00    -0.001 A 
ATOM      4  C3  UNL d   1       1.675  -5.463  -3.508  0.00  0.00     0.003 A 
ATOM      5  C4  UNL d   1       1.591  -6.000  -4.791  0.00  0.00    -0.005 A 
ATOM      6  C5  UNL d   1       0.378  -5.976  -5.476  0.00  0.00     0.003 A 
ATOM      7  C6  UNL d   1      -0.751  -5.416  -4.877  0.00  0.00    -0.001 A 
ENDROOT
TORSDOF 0
ENDMDL
