MODEL 1
REMARK minimizedAffinity 3.72748756
REMARK minimizedRMSD -1
REMARK  0 active torsions:
REMARK  status: ('A' for Active; 'I' for Inactive)
ROOT
ATOM      1  C   UNL d   1      -1.851   1.199   4.127  0.00  0.00     0.078 C 
ATOM      2  C1  UNL d   1      -0.950   0.078   3.704  0.00  0.00    -0.077 A 
ATOM      3  C2  UNL d   1       0.226  -0.207   4.408  0.00  0.00    -0.001 A 
ATOM      4  C3  UNL d   1       1.061  -1.247   3.997  0.00  0.00     0.003 A 
ATOM      5  C4  UNL d   1       0.729  -2.011   2.880  0.00  0.00    -0.005 A 
ATOM      6  C5  UNL d   1      -0.438  -1.733   2.171  0.00  0.00     0.003 A 
ATOM      7  C6  UNL d   1      -1.274  -0.693   2.581  0.00  0.00    -0.001 A 
ENDROOT
TORSDOF 0
ENDMDL
