MODEL 1
REMARK minimizedAffinity 1.08368993
REMARK minimizedRMSD -1
REMARK  0 active torsions:
REMARK  status: ('A' for Active; 'I' for Inactive)
ROOT
ATOM      1  C   UNL d   1       5.993  -5.999  -0.376  0.00  0.00     0.078 C 
ATOM      2  C1  UNL d   1       5.256  -4.697  -0.480  0.00  0.00    -0.077 A 
ATOM      3  C2  UNL d   1       3.869  -4.637  -0.296  0.00  0.00    -0.001 A 
ATOM      4  C3  UNL d   1       3.195  -3.420  -0.405  0.00  0.00     0.003 A 
ATOM      5  C4  UNL d   1       3.899  -2.254  -0.699  0.00  0.00    -0.005 A 
ATOM      6  C5  UNL d   1       5.279  -2.304  -0.886  0.00  0.00     0.003 A 
ATOM      7  C6  UNL d   1       5.955  -3.521  -0.777  0.00  0.00    -0.001 A 
ENDROOT
TORSDOF 0
ENDMDL
