MODEL 1
REMARK minimizedAffinity 7.76966667
REMARK minimizedRMSD -1
REMARK  0 active torsions:
REMARK  status: ('A' for Active; 'I' for Inactive)
ROOT
ATOM      1  C   UNL d   1      -1.285  -1.773   1.474  0.00  0.00     0.078 C 
ATOM      2  C1  UNL d   1      -2.373  -0.890   2.007  0.00  0.00    -0.077 A 
ATOM      3  C2  UNL d   1      -3.704  -1.066   1.609  0.00  0.00    -0.001 A 
ATOM      4  C3  UNL d   1      -4.706  -0.230   2.105  0.00  0.00     0.003 A 
ATOM      5  C4  UNL d   1      -4.387   0.788   3.001  0.00  0.00    -0.005 A 
ATOM      6  C5  UNL d   1      -3.065   0.973   3.401  0.00  0.00     0.003 A 
ATOM      7  C6  UNL d   1      -2.062   0.138   2.906  0.00  0.00    -0.001 A 
ENDROOT
TORSDOF 0
ENDMDL
