MODEL 1
REMARK minimizedAffinity 12.7951431
REMARK minimizedRMSD -1
REMARK  0 active torsions:
REMARK  status: ('A' for Active; 'I' for Inactive)
ROOT
ATOM      1  C   UNL d   1       4.551  -1.902  -1.207  0.00  0.00     0.078 C 
ATOM      2  C1  UNL d   1       4.673  -3.326  -0.754  0.00  0.00    -0.077 A 
ATOM      3  C2  UNL d   1       5.899  -3.842  -0.317  0.00  0.00    -0.001 A 
ATOM      4  C3  UNL d   1       6.000  -5.173   0.093  0.00  0.00     0.003 A 
ATOM      5  C4  UNL d   1       4.878  -5.999   0.068  0.00  0.00    -0.005 A 
ATOM      6  C5  UNL d   1       3.654  -5.495  -0.367  0.00  0.00     0.003 A 
ATOM      7  C6  UNL d   1       3.551  -4.165  -0.777  0.00  0.00    -0.001 A 
ENDROOT
TORSDOF 0
ENDMDL
