MODEL 1
REMARK minimizedAffinity 3.54653502
REMARK minimizedRMSD -1
REMARK  0 active torsions:
REMARK  status: ('A' for Active; 'I' for Inactive)
ROOT
ATOM      1  C   UNL d   1      -1.636  -1.705   1.308  0.00  0.00     0.078 C 
ATOM      2  C1  UNL d   1      -2.419  -0.665   2.053  0.00  0.00    -0.077 A 
ATOM      3  C2  UNL d   1      -1.814   0.126   3.038  0.00  0.00    -0.001 A 
ATOM      4  C3  UNL d   1      -2.557   1.083   3.730  0.00  0.00     0.003 A 
ATOM      5  C4  UNL d   1      -3.910   1.258   3.446  0.00  0.00    -0.005 A 
ATOM      6  C5  UNL d   1      -4.521   0.475   2.469  0.00  0.00     0.003 A 
ATOM      7  C6  UNL d   1      -3.779  -0.483   1.776  0.00  0.00    -0.001 A 
ENDROOT
TORSDOF 0
ENDMDL
