MODEL 1
REMARK minimizedAffinity 13.5118103
REMARK minimizedRMSD -1
REMARK  0 active torsions:
REMARK  status: ('A' for Active; 'I' for Inactive)
ROOT
ATOM      1  C   UNL d   1      -2.141   0.387   4.450  0.00  0.00     0.078 C 
ATOM      2  C1  UNL d   1      -1.937  -0.518   3.272  0.00  0.00    -0.077 A 
ATOM      3  C2  UNL d   1      -2.935  -1.412   2.868  0.00  0.00    -0.001 A 
ATOM      4  C3  UNL d   1      -2.728  -2.256   1.775  0.00  0.00     0.003 A 
ATOM      5  C4  UNL d   1      -1.521  -2.214   1.079  0.00  0.00    -0.005 A 
ATOM      6  C5  UNL d   1      -0.521  -1.329   1.475  0.00  0.00     0.003 A 
ATOM      7  C6  UNL d   1      -0.727  -0.485   2.567  0.00  0.00    -0.001 A 
ENDROOT
TORSDOF 0
ENDMDL
