MODEL 1
REMARK minimizedAffinity -1.85662603
REMARK minimizedRMSD -1
REMARK  0 active torsions:
REMARK  status: ('A' for Active; 'I' for Inactive)
ROOT
ATOM      1  C   UNL d   1      -5.974   1.538   5.999  0.00  0.00     0.078 C 
ATOM      2  C1  UNL d   1      -5.158   1.184   4.792  0.00  0.00    -0.077 A 
ATOM      3  C2  UNL d   1      -5.773   0.830   3.585  0.00  0.00    -0.001 A 
ATOM      4  C3  UNL d   1      -5.001   0.493   2.472  0.00  0.00     0.003 A 
ATOM      5  C4  UNL d   1      -3.610   0.508   2.554  0.00  0.00    -0.005 A 
ATOM      6  C5  UNL d   1      -2.989   0.857   3.752  0.00  0.00     0.003 A 
ATOM      7  C6  UNL d   1      -3.760   1.193   4.866  0.00  0.00    -0.001 A 
ENDROOT
TORSDOF 0
ENDMDL
