MODEL 1
REMARK minimizedAffinity 6.01647902
REMARK minimizedRMSD -1
REMARK  0 active torsions:
REMARK  status: ('A' for Active; 'I' for Inactive)
ROOT
ATOM      1  C   UNL d   1       2.296   1.526   0.743  0.00  0.00     0.078 C 
ATOM      2  C1  UNL d   1       3.560   2.315   0.906  0.00  0.00    -0.077 A 
ATOM      3  C2  UNL d   1       3.778   3.101   2.045  0.00  0.00    -0.001 A 
ATOM      4  C3  UNL d   1       4.956   3.838   2.178  0.00  0.00     0.003 A 
ATOM      5  C4  UNL d   1       5.923   3.799   1.176  0.00  0.00    -0.005 A 
ATOM      6  C5  UNL d   1       5.714   3.022   0.039  0.00  0.00     0.003 A 
ATOM      7  C6  UNL d   1       4.537   2.284  -0.096  0.00  0.00    -0.001 A 
ENDROOT
TORSDOF 0
ENDMDL
