MODEL 1
REMARK minimizedAffinity 9.77346802
REMARK minimizedRMSD -1
REMARK  0 active torsions:
REMARK  status: ('A' for Active; 'I' for Inactive)
ROOT
ATOM      1  C   UNL d   1       0.342   5.753  -3.043  0.00  0.00     0.078 C 
ATOM      2  C1  UNL d   1      -0.757   5.422  -4.008  0.00  0.00    -0.077 A 
ATOM      3  C2  UNL d   1      -0.528   4.576  -5.100  0.00  0.00    -0.001 A 
ATOM      4  C3  UNL d   1      -1.559   4.284  -5.995  0.00  0.00     0.003 A 
ATOM      5  C4  UNL d   1      -2.825   4.835  -5.808  0.00  0.00    -0.005 A 
ATOM      6  C5  UNL d   1      -3.062   5.680  -4.726  0.00  0.00     0.003 A 
ATOM      7  C6  UNL d   1      -2.033   5.973  -3.830  0.00  0.00    -0.001 A 
ENDROOT
TORSDOF 0
ENDMDL
