MODEL 1
REMARK minimizedAffinity -4.38357258
REMARK minimizedRMSD -1
REMARK  0 active torsions:
REMARK  status: ('A' for Active; 'I' for Inactive)
ROOT
ATOM      1  N1  IND d   1       2.115   0.701   0.477  0.00  0.00    -0.196 N 
ATOM      2  C2  IND d   1       2.741   1.906   0.633  0.00  0.00     0.054 A 
ATOM      3  C3  IND d   1       1.849   2.916   0.520  0.00  0.00    -0.031 A 
ATOM      4  C4  IND d   1      -0.701   2.817   0.182  0.00  0.00     0.051 A 
ATOM      5  C5  IND d   1      -1.723   1.941  -0.052  0.00  0.00    -0.031 A 
ATOM      6  C6  IND d   1      -1.515   0.579  -0.120  0.00  0.00     0.015 A 
ATOM      7  C7  IND d   1      -0.272   0.039   0.056  0.00  0.00    -0.016 A 
ATOM      8  C8  IND d   1       0.770   0.926   0.286  0.00  0.00    -0.047 A 
ATOM      9  C9  IND d   1       0.571   2.313   0.313  0.00  0.00    -0.096 A 
ATOM     10  HN1 IND d   1       2.498  -0.069   0.495  0.00  0.00     0.298 HD
ENDROOT
TORSDOF 0
ENDMDL
