MODEL 1
REMARK minimizedAffinity -4.32597446
REMARK minimizedRMSD -1
REMARK  0 active torsions:
REMARK  status: ('A' for Active; 'I' for Inactive)
ROOT
ATOM      1  N1  IND d   1       0.640  -0.717   0.270  0.00  0.00    -0.196 N 
ATOM      2  C2  IND d   1      -0.707  -0.935   0.350  0.00  0.00     0.054 A 
ATOM      3  C3  IND d   1      -1.369   0.240   0.445  0.00  0.00    -0.031 A 
ATOM      4  C4  IND d   1      -0.451   2.644   0.387  0.00  0.00     0.051 A 
ATOM      5  C5  IND d   1       0.719   3.350   0.362  0.00  0.00    -0.031 A 
ATOM      6  C6  IND d   1       1.947   2.724   0.302  0.00  0.00     0.015 A 
ATOM      7  C7  IND d   1       2.051   1.363   0.252  0.00  0.00    -0.016 A 
ATOM      8  C8  IND d   1       0.866   0.642   0.284  0.00  0.00    -0.047 A 
ATOM      9  C9  IND d   1      -0.382   1.271   0.388  0.00  0.00    -0.096 A 
ATOM     10  HN1 IND d   1       1.245  -1.326   0.220  0.00  0.00     0.298 HD
ENDROOT
TORSDOF 0
ENDMDL
