MODEL 1
REMARK minimizedAffinity -4.78804064
REMARK minimizedRMSD -1
REMARK  0 active torsions:
REMARK  status: ('A' for Active; 'I' for Inactive)
ROOT
ATOM      1  N1  IND d   1      -1.130  -1.045   0.392  0.00  0.00    -0.196 N 
ATOM      2  C2  IND d   1      -0.062  -1.859   0.137  0.00  0.00     0.054 A 
ATOM      3  C3  IND d   1       1.031  -1.122  -0.158  0.00  0.00    -0.031 A 
ATOM      4  C4  IND d   1       1.321   1.436  -0.182  0.00  0.00     0.051 A 
ATOM      5  C5  IND d   1       0.619   2.601  -0.051  0.00  0.00    -0.031 A 
ATOM      6  C6  IND d   1      -0.730   2.610   0.243  0.00  0.00     0.015 A 
ATOM      7  C7  IND d   1      -1.426   1.450   0.429  0.00  0.00    -0.016 A 
ATOM      8  C8  IND d   1      -0.717   0.265   0.290  0.00  0.00    -0.047 A 
ATOM      9  C9  IND d   1       0.641   0.248  -0.050  0.00  0.00    -0.096 A 
ATOM     10  HN1 IND d   1      -1.927  -1.308   0.584  0.00  0.00     0.298 HD
ENDROOT
TORSDOF 0
ENDMDL
