MODEL 1
REMARK minimizedAffinity -5.21330976
REMARK minimizedRMSD -1
REMARK  0 active torsions:
REMARK  status: ('A' for Active; 'I' for Inactive)
ROOT
ATOM      1  N1  IND d   1       1.323  -0.653  -1.249  0.00  0.00    -0.196 N 
ATOM      2  C2  IND d   1       0.627  -1.778  -0.906  0.00  0.00     0.054 A 
ATOM      3  C3  IND d   1      -0.438  -1.456  -0.137  0.00  0.00    -0.031 A 
ATOM      4  C4  IND d   1      -1.286   0.862   0.594  0.00  0.00     0.051 A 
ATOM      5  C5  IND d   1      -0.962   2.189   0.556  0.00  0.00    -0.031 A 
ATOM      6  C6  IND d   1       0.162   2.646  -0.102  0.00  0.00     0.015 A 
ATOM      7  C7  IND d   1       1.001   1.790  -0.758  0.00  0.00    -0.016 A 
ATOM      8  C8  IND d   1       0.678   0.441  -0.715  0.00  0.00    -0.047 A 
ATOM      9  C9  IND d   1      -0.438  -0.033  -0.014  0.00  0.00    -0.096 A 
ATOM     10  HN1 IND d   1       2.042  -0.632  -1.720  0.00  0.00     0.298 HD
ENDROOT
TORSDOF 0
ENDMDL
