MODEL 1
REMARK minimizedAffinity -3.95300531
REMARK minimizedRMSD -1
REMARK  0 active torsions:
REMARK  status: ('A' for Active; 'I' for Inactive)
ROOT
ATOM      1  N1  IND d   1      -0.823  -0.482   0.716  0.00  0.00    -0.196 N 
ATOM      2  C2  IND d   1       0.307  -1.215   0.484  0.00  0.00     0.054 A 
ATOM      3  C3  IND d   1       1.277  -0.432  -0.040  0.00  0.00    -0.031 A 
ATOM      4  C4  IND d   1       1.261   2.100  -0.505  0.00  0.00     0.051 A 
ATOM      5  C5  IND d   1       0.441   3.193  -0.489  0.00  0.00    -0.031 A 
ATOM      6  C6  IND d   1      -0.868   3.116  -0.060  0.00  0.00     0.015 A 
ATOM      7  C7  IND d   1      -1.404   1.940   0.383  0.00  0.00    -0.016 A 
ATOM      8  C8  IND d   1      -0.576   0.827   0.362  0.00  0.00    -0.047 A 
ATOM      9  C9  IND d   1       0.740   0.889  -0.113  0.00  0.00    -0.096 A 
ATOM     10  HN1 IND d   1      -1.562  -0.786   1.031  0.00  0.00     0.298 HD
ENDROOT
TORSDOF 0
ENDMDL
