MODEL 1
REMARK minimizedAffinity -1.55289376
REMARK minimizedRMSD -1
REMARK  0 active torsions:
REMARK  status: ('A' for Active; 'I' for Inactive)
ROOT
ATOM      1  N1  IND d   1      -0.809  -1.121   0.423  0.00  0.00    -0.196 N 
ATOM      2  C2  IND d   1       0.259  -1.792  -0.106  0.00  0.00     0.054 A 
ATOM      3  C3  IND d   1       1.193  -0.918  -0.543  0.00  0.00    -0.031 A 
ATOM      4  C4  IND d   1       1.223   1.652  -0.401  0.00  0.00     0.051 A 
ATOM      5  C5  IND d   1       0.452   2.720  -0.034  0.00  0.00    -0.031 A 
ATOM      6  C6  IND d   1      -0.803   2.558   0.517  0.00  0.00     0.015 A 
ATOM      7  C7  IND d   1      -1.331   1.317   0.733  0.00  0.00    -0.016 A 
ATOM      8  C8  IND d   1      -0.554   0.231   0.356  0.00  0.00    -0.047 A 
ATOM      9  C9  IND d   1       0.702   0.389  -0.243  0.00  0.00    -0.096 A 
ATOM     10  HN1 IND d   1      -1.521  -1.483   0.742  0.00  0.00     0.298 HD
ENDROOT
TORSDOF 0
ENDMDL
