MODEL 1
REMARK minimizedAffinity -5.08143044
REMARK minimizedRMSD -1
REMARK  0 active torsions:
REMARK  status: ('A' for Active; 'I' for Inactive)
ROOT
ATOM      1  N1  IND d   1       0.442  -0.717  -0.082  0.00  0.00    -0.196 N 
ATOM      2  C2  IND d   1      -0.841  -0.941   0.333  0.00  0.00     0.054 A 
ATOM      3  C3  IND d   1      -1.474   0.233   0.555  0.00  0.00    -0.031 A 
ATOM      4  C4  IND d   1      -0.630   2.639   0.203  0.00  0.00     0.051 A 
ATOM      5  C5  IND d   1       0.489   3.351  -0.129  0.00  0.00    -0.031 A 
ATOM      6  C6  IND d   1       1.672   2.730  -0.471  0.00  0.00     0.015 A 
ATOM      7  C7  IND d   1       1.779   1.368  -0.506  0.00  0.00    -0.016 A 
ATOM      8  C8  IND d   1       0.647   0.643  -0.163  0.00  0.00    -0.047 A 
ATOM      9  C9  IND d   1      -0.545   1.267   0.227  0.00  0.00    -0.096 A 
ATOM     10  HN1 IND d   1       1.024  -1.324  -0.262  0.00  0.00     0.298 HD
ENDROOT
TORSDOF 0
ENDMDL
