MODEL 1
REMARK minimizedAffinity -5.58934784
REMARK minimizedRMSD -1
REMARK  0 active torsions:
REMARK  status: ('A' for Active; 'I' for Inactive)
ROOT
ATOM      1  N1  IND d   1       0.865  -0.812   0.094  0.00  0.00    -0.196 N 
ATOM      2  C2  IND d   1      -0.240  -1.553   0.408  0.00  0.00     0.054 A 
ATOM      3  C3  IND d   1      -1.333  -0.759   0.481  0.00  0.00    -0.031 A 
ATOM      4  C4  IND d   1      -1.555   1.764   0.023  0.00  0.00     0.051 A 
ATOM      5  C5  IND d   1      -0.814   2.877  -0.261  0.00  0.00    -0.031 A 
ATOM      6  C6  IND d   1       0.552   2.815  -0.447  0.00  0.00     0.015 A 
ATOM      7  C7  IND d   1       1.229   1.631  -0.367  0.00  0.00    -0.016 A 
ATOM      8  C8  IND d   1       0.481   0.500  -0.073  0.00  0.00    -0.047 A 
ATOM      9  C9  IND d   1      -0.899   0.563   0.159  0.00  0.00    -0.096 A 
ATOM     10  HN1 IND d   1       1.666  -1.115   0.015  0.00  0.00     0.298 HD
ENDROOT
TORSDOF 0
ENDMDL
