MODEL 1
REMARK minimizedAffinity -5.24542093
REMARK minimizedRMSD -1
REMARK  0 active torsions:
REMARK  status: ('A' for Active; 'I' for Inactive)
ROOT
ATOM      1  N1  IND d   1      -1.537   2.344   0.374  0.00  0.00    -0.196 N 
ATOM      2  C2  IND d   1      -2.530   1.407   0.298  0.00  0.00     0.054 A 
ATOM      3  C3  IND d   1      -2.000   0.168   0.197  0.00  0.00    -0.031 A 
ATOM      4  C4  IND d   1       0.467  -0.566   0.238  0.00  0.00     0.051 A 
ATOM      5  C5  IND d   1       1.739  -0.066   0.256  0.00  0.00    -0.031 A 
ATOM      6  C6  IND d   1       1.989   1.290   0.318  0.00  0.00     0.015 A 
ATOM      7  C7  IND d   1       0.972   2.200   0.376  0.00  0.00    -0.016 A 
ATOM      8  C8  IND d   1      -0.321   1.697   0.351  0.00  0.00    -0.047 A 
ATOM      9  C9  IND d   1      -0.581   0.324   0.245  0.00  0.00    -0.096 A 
ATOM     10  HN1 IND d   1      -1.652   3.194   0.426  0.00  0.00     0.298 HD
ENDROOT
TORSDOF 0
ENDMDL
