MODEL 1
REMARK minimizedAffinity 1.08628654
REMARK minimizedRMSD -1
REMARK  0 active torsions:
REMARK  status: ('A' for Active; 'I' for Inactive)
ROOT
ATOM      1  N1  IND d   1       0.120  -0.988   0.280  0.00  0.00    -0.196 N 
ATOM      2  C2  IND d   1      -0.526   0.201   0.085  0.00  0.00     0.054 A 
ATOM      3  C3  IND d   1      -1.505   0.058  -0.836  0.00  0.00    -0.031 A 
ATOM      4  C4  IND d   1      -2.290  -2.058  -2.074  0.00  0.00     0.051 A 
ATOM      5  C5  IND d   1      -1.983  -3.377  -2.253  0.00  0.00    -0.031 A 
ATOM      6  C6  IND d   1      -0.939  -3.981  -1.582  0.00  0.00     0.015 A 
ATOM      7  C7  IND d   1      -0.168  -3.286  -0.693  0.00  0.00    -0.016 A 
ATOM      8  C8  IND d   1      -0.473  -1.945  -0.514  0.00  0.00    -0.047 A 
ATOM      9  C9  IND d   1      -1.504  -1.316  -1.224  0.00  0.00    -0.096 A 
ATOM     10  HN1 IND d   1       0.785  -1.116   0.810  0.00  0.00     0.298 HD
ENDROOT
TORSDOF 0
ENDMDL
