MODEL 1
REMARK minimizedAffinity -3.72304249
REMARK minimizedRMSD -1
REMARK  0 active torsions:
REMARK  status: ('A' for Active; 'I' for Inactive)
ROOT
ATOM      1  N1  IND d   1      -1.266  -0.226   0.540  0.00  0.00    -0.196 N 
ATOM      2  C2  IND d   1      -0.564  -1.366   0.264  0.00  0.00     0.054 A 
ATOM      3  C3  IND d   1       0.670  -1.059  -0.195  0.00  0.00    -0.031 A 
ATOM      4  C4  IND d   1       1.783   1.245  -0.479  0.00  0.00     0.051 A 
ATOM      5  C5  IND d   1       1.525   2.584  -0.392  0.00  0.00    -0.031 A 
ATOM      6  C6  IND d   1       0.299   3.065   0.021  0.00  0.00     0.015 A 
ATOM      7  C7  IND d   1      -0.715   2.220   0.375  0.00  0.00    -0.016 A 
ATOM      8  C8  IND d   1      -0.458   0.860   0.281  0.00  0.00    -0.047 A 
ATOM      9  C9  IND d   1       0.770   0.366  -0.179  0.00  0.00    -0.096 A 
ATOM     10  HN1 IND d   1      -2.076  -0.192   0.826  0.00  0.00     0.298 HD
ENDROOT
TORSDOF 0
ENDMDL
