MODEL 1
REMARK minimizedAffinity -3.25225592
REMARK minimizedRMSD -1
REMARK  0 active torsions:
REMARK  status: ('A' for Active; 'I' for Inactive)
ROOT
ATOM      1  N1  IND d   1      -1.283   1.836   0.000  0.00  0.00    -0.196 N 
ATOM      2  C2  IND d   1      -0.572   3.000  -0.092  0.00  0.00     0.054 A 
ATOM      3  C3  IND d   1       0.755   2.748  -0.024  0.00  0.00    -0.031 A 
ATOM      4  C4  IND d   1       1.985   0.492   0.136  0.00  0.00     0.051 A 
ATOM      5  C5  IND d   1       1.762  -0.848   0.284  0.00  0.00    -0.031 A 
ATOM      6  C6  IND d   1       0.487  -1.373   0.343  0.00  0.00     0.015 A 
ATOM      7  C7  IND d   1      -0.617  -0.575   0.245  0.00  0.00    -0.016 A 
ATOM      8  C8  IND d   1      -0.395   0.788   0.102  0.00  0.00    -0.047 A 
ATOM      9  C9  IND d   1       0.896   1.331   0.084  0.00  0.00    -0.096 A 
ATOM     10  HN1 IND d   1      -2.140   1.770  -0.004  0.00  0.00     0.298 HD
ENDROOT
TORSDOF 0
ENDMDL
