MODEL 1
REMARK minimizedAffinity -1.52349675
REMARK minimizedRMSD -1
REMARK  0 active torsions:
REMARK  status: ('A' for Active; 'I' for Inactive)
ROOT
ATOM      1  N1  IND d   1       0.755   3.050  -0.687  0.00  0.00    -0.196 N 
ATOM      2  C2  IND d   1       0.377   3.777   0.408  0.00  0.00     0.054 A 
ATOM      3  C3  IND d   1      -0.288   2.994   1.286  0.00  0.00    -0.031 A 
ATOM      4  C4  IND d   1      -0.783   0.470   1.179  0.00  0.00     0.051 A 
ATOM      5  C5  IND d   1      -0.668  -0.616   0.357  0.00  0.00    -0.031 A 
ATOM      6  C6  IND d   1      -0.059  -0.535  -0.878  0.00  0.00     0.015 A 
ATOM      7  C7  IND d   1       0.471   0.639  -1.335  0.00  0.00    -0.016 A 
ATOM      8  C8  IND d   1       0.350   1.745  -0.506  0.00  0.00    -0.047 A 
ATOM      9  C9  IND d   1      -0.305   1.678   0.730  0.00  0.00    -0.096 A 
ATOM     10  HN1 IND d   1       1.174   3.356  -1.372  0.00  0.00     0.298 HD
ENDROOT
TORSDOF 0
ENDMDL
