MODEL 1
REMARK minimizedAffinity 16.5589828
REMARK minimizedRMSD -1
REMARK  0 active torsions:
REMARK  status: ('A' for Active; 'I' for Inactive)
ROOT
ATOM      1  N1  IND d   1       0.870  -4.237  -3.728  0.00  0.00    -0.196 N 
ATOM      2  C2  IND d   1       0.182  -5.178  -3.014  0.00  0.00     0.054 A 
ATOM      3  C3  IND d   1       0.765  -5.375  -1.810  0.00  0.00    -0.031 A 
ATOM      4  C4  IND d   1       2.796  -4.188  -0.763  0.00  0.00     0.051 A 
ATOM      5  C5  IND d   1       3.777  -3.281  -1.047  0.00  0.00    -0.031 A 
ATOM      6  C6  IND d   1       3.840  -2.630  -2.262  0.00  0.00     0.015 A 
ATOM      7  C7  IND d   1       2.912  -2.856  -3.239  0.00  0.00    -0.016 A 
ATOM      8  C8  IND d   1       1.918  -3.783  -2.957  0.00  0.00    -0.047 A 
ATOM      9  C9  IND d   1       1.874  -4.477  -1.742  0.00  0.00    -0.096 A 
ATOM     10  HN1 IND d   1       0.681  -3.974  -4.524  0.00  0.00     0.298 HD
ENDROOT
TORSDOF 0
ENDMDL
