MODEL 1
REMARK minimizedAffinity -4.14441729
REMARK minimizedRMSD -1
REMARK  0 active torsions:
REMARK  status: ('A' for Active; 'I' for Inactive)
ROOT
ATOM      1  N1  IND d   1       0.843  -0.546  -0.346  0.00  0.00    -0.196 N 
ATOM      2  C2  IND d   1      -0.071  -1.206   0.428  0.00  0.00     0.054 A 
ATOM      3  C3  IND d   1      -0.972  -0.337   0.937  0.00  0.00    -0.031 A 
ATOM      4  C4  IND d   1      -1.199   2.198   0.549  0.00  0.00     0.051 A 
ATOM      5  C5  IND d   1      -0.576   3.256  -0.052  0.00  0.00    -0.031 A 
ATOM      6  C6  IND d   1       0.573   3.097  -0.799  0.00  0.00     0.015 A 
ATOM      7  C7  IND d   1       1.139   1.867  -0.983  0.00  0.00    -0.016 A 
ATOM      8  C8  IND d   1       0.513   0.792  -0.368  0.00  0.00    -0.047 A 
ATOM      9  C9  IND d   1      -0.629   0.953   0.426  0.00  0.00    -0.096 A 
ATOM     10  HN1 IND d   1       1.511  -0.905  -0.750  0.00  0.00     0.298 HD
ENDROOT
TORSDOF 0
ENDMDL
