MODEL 1
REMARK minimizedAffinity 9.59868717
REMARK minimizedRMSD -1
REMARK  1 active torsions:
REMARK  status: ('A' for Active; 'I' for Inactive)
REMARK    1  A    between atoms: C1_2  and  C2_3 
ROOT
ATOM      1  C2  UNL d   1      -2.298  -0.553  -0.323  0.00  0.00    -0.081 A 
ATOM      2  C3  UNL d   1      -2.526  -1.661  -1.147  0.00  0.00     0.006 A 
ATOM      3  C4  UNL d   1      -2.547  -1.518  -2.537  0.00  0.00     0.002 A 
ATOM      4  C5  UNL d   1      -2.334  -0.266  -3.124  0.00  0.00    -0.080 A 
ATOM      5  C6  UNL d   1      -2.325  -0.104  -4.615  0.00  0.00     0.076 C 
ATOM      6  C7  UNL d   1      -2.124   0.844  -2.300  0.00  0.00     0.002 A 
ATOM      7  C8  UNL d   1      -2.103   0.702  -0.911  0.00  0.00     0.006 A 
ENDROOT
BRANCH   1   8
ATOM      8  C1  UNL d   1      -2.210  -0.716   1.173  0.00  0.00     0.054 C 
ATOM      9  C   UNL d   1      -1.566  -2.043   1.548  0.00  0.00     0.018 C 
ENDBRANCH   1   8
TORSDOF 1
ENDMDL
