MODEL 1
REMARK minimizedAffinity 10.0596027
REMARK minimizedRMSD -1
REMARK  1 active torsions:
REMARK  status: ('A' for Active; 'I' for Inactive)
REMARK    1  A    between atoms: C1_2  and  C2_3 
ROOT
ATOM      1  C2  UNL d   1      -3.765   4.067  -2.175  0.00  0.00    -0.081 A 
ATOM      2  C3  UNL d   1      -3.480   3.825  -3.524  0.00  0.00     0.006 A 
ATOM      3  C4  UNL d   1      -2.894   2.620  -3.919  0.00  0.00     0.002 A 
ATOM      4  C5  UNL d   1      -2.591   1.635  -2.973  0.00  0.00    -0.080 A 
ATOM      5  C6  UNL d   1      -1.990   0.325  -3.388  0.00  0.00     0.076 C 
ATOM      6  C7  UNL d   1      -2.860   1.883  -1.623  0.00  0.00     0.002 A 
ATOM      7  C8  UNL d   1      -3.445   3.088  -1.228  0.00  0.00     0.006 A 
ENDROOT
BRANCH   1   8
ATOM      8  C1  UNL d   1      -4.456   5.339  -1.753  0.00  0.00     0.054 C 
ATOM      9  C   UNL d   1      -5.945   5.114  -1.536  0.00  0.00     0.018 C 
ENDBRANCH   1   8
TORSDOF 1
ENDMDL
