MODEL 1
REMARK minimizedAffinity 7.46753359
REMARK minimizedRMSD -1
REMARK  1 active torsions:
REMARK  status: ('A' for Active; 'I' for Inactive)
REMARK    1  A    between atoms: C1_2  and  C2_3 
ROOT
ATOM      1  C2  UNL d   1      -2.112  -0.077  -0.698  0.00  0.00    -0.081 A 
ATOM      2  C3  UNL d   1      -2.591   1.028  -1.413  0.00  0.00     0.006 A 
ATOM      3  C4  UNL d   1      -2.832   0.932  -2.786  0.00  0.00     0.002 A 
ATOM      4  C5  UNL d   1      -2.607  -0.271  -3.464  0.00  0.00    -0.080 A 
ATOM      5  C6  UNL d   1      -2.891  -0.396  -4.931  0.00  0.00     0.076 C 
ATOM      6  C7  UNL d   1      -2.113  -1.369  -2.752  0.00  0.00     0.002 A 
ATOM      7  C8  UNL d   1      -1.871  -1.274  -1.380  0.00  0.00     0.006 A 
ENDROOT
BRANCH   1   8
ATOM      8  C1  UNL d   1      -1.913   0.005   0.794  0.00  0.00     0.054 C 
ATOM      9  C   UNL d   1      -1.509  -1.344   1.373  0.00  0.00     0.018 C 
ENDBRANCH   1   8
TORSDOF 1
ENDMDL
