MODEL 1
REMARK minimizedAffinity 22.5527763
REMARK minimizedRMSD -1
REMARK  1 active torsions:
REMARK  status: ('A' for Active; 'I' for Inactive)
REMARK    1  A    between atoms: C1_2  and  C2_3 
ROOT
ATOM      1  C2  UNL d   1      -3.689   2.964  -3.002  0.00  0.00    -0.081 A 
ATOM      2  C3  UNL d   1      -2.914   2.483  -4.065  0.00  0.00     0.006 A 
ATOM      3  C4  UNL d   1      -2.439   1.170  -4.058  0.00  0.00     0.002 A 
ATOM      4  C5  UNL d   1      -2.737   0.313  -2.993  0.00  0.00    -0.080 A 
ATOM      5  C6  UNL d   1      -2.258  -1.108  -2.987  0.00  0.00     0.076 C 
ATOM      6  C7  UNL d   1      -3.496   0.798  -1.923  0.00  0.00     0.002 A 
ATOM      7  C8  UNL d   1      -3.971   2.112  -1.929  0.00  0.00     0.006 A 
ENDROOT
BRANCH   1   8
ATOM      8  C1  UNL d   1      -4.257   4.360  -3.038  0.00  0.00     0.054 C 
ATOM      9  C   UNL d   1      -5.728   4.368  -2.648  0.00  0.00     0.018 C 
ENDBRANCH   1   8
TORSDOF 1
ENDMDL
