MODEL 1
REMARK minimizedAffinity 12.6411381
REMARK minimizedRMSD -1
REMARK  1 active torsions:
REMARK  status: ('A' for Active; 'I' for Inactive)
REMARK    1  A    between atoms: C1_2  and  C2_3 
ROOT
ATOM      1  C2  UNL d   1      -2.576  -1.133  -3.380  0.00  0.00    -0.081 A 
ATOM      2  C3  UNL d   1      -2.060  -0.269  -2.406  0.00  0.00     0.006 A 
ATOM      3  C4  UNL d   1      -2.189   1.115  -2.548  0.00  0.00     0.002 A 
ATOM      4  C5  UNL d   1      -2.842   1.657  -3.660  0.00  0.00    -0.080 A 
ATOM      5  C6  UNL d   1      -3.014   3.139  -3.809  0.00  0.00     0.076 C 
ATOM      6  C7  UNL d   1      -3.342   0.794  -4.641  0.00  0.00     0.002 A 
ATOM      7  C8  UNL d   1      -3.213  -0.590  -4.501  0.00  0.00     0.006 A 
ENDROOT
BRANCH   1   8
ATOM      8  C1  UNL d   1      -2.496  -2.627  -3.198  0.00  0.00     0.054 C 
ATOM      9  C   UNL d   1      -3.841  -3.208  -2.787  0.00  0.00     0.018 C 
ENDBRANCH   1   8
TORSDOF 1
ENDMDL
