MODEL 1
REMARK minimizedAffinity 15.1292143
REMARK minimizedRMSD -1
REMARK  1 active torsions:
REMARK  status: ('A' for Active; 'I' for Inactive)
REMARK    1  A    between atoms: C1_2  and  C2_3 
ROOT
ATOM      1  C2  UNL d   1      -2.979   2.659  -3.138  0.00  0.00    -0.081 A 
ATOM      2  C3  UNL d   1      -2.571   1.908  -4.247  0.00  0.00     0.006 A 
ATOM      3  C4  UNL d   1      -2.181   0.575  -4.096  0.00  0.00     0.002 A 
ATOM      4  C5  UNL d   1      -2.200  -0.031  -2.836  0.00  0.00    -0.080 A 
ATOM      5  C6  UNL d   1      -1.813  -1.470  -2.665  0.00  0.00     0.076 C 
ATOM      6  C7  UNL d   1      -2.591   0.723  -1.725  0.00  0.00     0.002 A 
ATOM      7  C8  UNL d   1      -2.980   2.056  -1.875  0.00  0.00     0.006 A 
ENDROOT
BRANCH   1   8
ATOM      8  C1  UNL d   1      -3.461   4.077  -3.307  0.00  0.00     0.054 C 
ATOM      9  C   UNL d   1      -4.789   4.298  -2.596  0.00  0.00     0.018 C 
ENDBRANCH   1   8
TORSDOF 1
ENDMDL
