MODEL 1
REMARK minimizedAffinity 4.53564119
REMARK minimizedRMSD -1
REMARK  1 active torsions:
REMARK  status: ('A' for Active; 'I' for Inactive)
REMARK    1  A    between atoms: C1_2  and  C2_3 
ROOT
ATOM      1  C2  UNL d   1      -1.181  -0.513  -3.007  0.00  0.00    -0.081 A 
ATOM      2  C3  UNL d   1      -2.512  -0.385  -2.590  0.00  0.00     0.006 A 
ATOM      3  C4  UNL d   1      -3.532  -1.065  -3.260  0.00  0.00     0.002 A 
ATOM      4  C5  UNL d   1      -3.239  -1.889  -4.351  0.00  0.00    -0.080 A 
ATOM      5  C6  UNL d   1      -4.321  -2.648  -5.060  0.00  0.00     0.076 C 
ATOM      6  C7  UNL d   1      -1.911  -2.003  -4.779  0.00  0.00     0.002 A 
ATOM      7  C8  UNL d   1      -0.891  -1.323  -4.110  0.00  0.00     0.006 A 
ENDROOT
BRANCH   1   8
ATOM      8  C1  UNL d   1      -0.071   0.168  -2.247  0.00  0.00     0.054 C 
ATOM      9  C   UNL d   1       0.104   1.611  -2.698  0.00  0.00     0.018 C 
ENDBRANCH   1   8
TORSDOF 1
ENDMDL
