MODEL 1
REMARK minimizedAffinity 4.23641729
REMARK minimizedRMSD -1
REMARK  0 active torsions:
REMARK  status: ('A' for Active; 'I' for Inactive)
ROOT
ATOM      1  C4' PXY d   1      -2.127  -2.341   6.000  0.00  0.00     0.077 C 
ATOM      2  C1' PXY d   1       1.591  -0.877   1.823  0.00  0.00     0.077 C 
ATOM      3  C1  PXY d   1       0.623  -1.254   2.927  0.00  0.00    -0.082 A 
ATOM      4  C2  PXY d   1      -0.103  -2.354   2.813  0.00  0.00     0.003 A 
ATOM      5  C3  PXY d   1      -1.007  -2.693   3.787  0.00  0.00     0.003 A 
ATOM      6  C4  PXY d   1      -1.130  -1.926   4.914  0.00  0.00    -0.082 A 
ATOM      7  C5  PXY d   1      -0.385  -0.808   5.043  0.00  0.00     0.003 A 
ATOM      8  C6  PXY d   1       0.497  -0.459   4.024  0.00  0.00     0.003 A 
ENDROOT
TORSDOF 0
ENDMDL
