MODEL 1
REMARK minimizedAffinity 18.263855
REMARK minimizedRMSD -1
REMARK  0 active torsions:
REMARK  status: ('A' for Active; 'I' for Inactive)
ROOT
ATOM      1  C4' PXY d   1      -2.733  -3.377   3.410  0.00  0.00     0.077 C 
ATOM      2  C1' PXY d   1      -4.452  -5.950  -1.473  0.00  0.00     0.077 C 
ATOM      3  C1  PXY d   1      -4.000  -5.287  -0.187  0.00  0.00    -0.082 A 
ATOM      4  C2  PXY d   1      -4.367  -4.042   0.072  0.00  0.00     0.003 A 
ATOM      5  C3  PXY d   1      -3.940  -3.416   1.215  0.00  0.00     0.003 A 
ATOM      6  C4  PXY d   1      -3.174  -4.089   2.128  0.00  0.00    -0.082 A 
ATOM      7  C5  PXY d   1      -2.804  -5.363   1.877  0.00  0.00     0.003 A 
ATOM      8  C6  PXY d   1      -3.213  -5.966   0.691  0.00  0.00     0.003 A 
ENDROOT
TORSDOF 0
ENDMDL
