MODEL 1
REMARK minimizedAffinity 10.0650921
REMARK minimizedRMSD -1
REMARK  0 active torsions:
REMARK  status: ('A' for Active; 'I' for Inactive)
ROOT
ATOM      1  C4' PXY d   1      -0.793  -0.354   3.090  0.00  0.00     0.077 C 
ATOM      2  C1' PXY d   1       0.441  -6.000   2.952  0.00  0.00     0.077 C 
ATOM      3  C1  PXY d   1       0.127  -4.517   2.980  0.00  0.00    -0.082 A 
ATOM      4  C2  PXY d   1      -0.510  -4.003   4.019  0.00  0.00     0.003 A 
ATOM      5  C3  PXY d   1      -0.830  -2.670   4.047  0.00  0.00     0.003 A 
ATOM      6  C4  PXY d   1      -0.447  -1.844   3.023  0.00  0.00    -0.082 A 
ATOM      7  C5  PXY d   1       0.213  -2.359   1.964  0.00  0.00     0.003 A 
ATOM      8  C6  PXY d   1       0.492  -3.723   1.937  0.00  0.00     0.003 A 
ENDROOT
TORSDOF 0
ENDMDL
