MODEL 1
REMARK minimizedAffinity 4.79602528
REMARK minimizedRMSD -1
REMARK  0 active torsions:
REMARK  status: ('A' for Active; 'I' for Inactive)
ROOT
ATOM      1  C4' PXY d   1       1.435  -2.241   1.384  0.00  0.00     0.077 C 
ATOM      2  C1' PXY d   1      -1.443  -0.282   5.999  0.00  0.00     0.077 C 
ATOM      3  C1  PXY d   1      -0.698  -0.804   4.786  0.00  0.00    -0.082 A 
ATOM      4  C2  PXY d   1       0.612  -0.634   4.700  0.00  0.00     0.003 A 
ATOM      5  C3  PXY d   1       1.297  -1.072   3.596  0.00  0.00     0.003 A 
ATOM      6  C4  PXY d   1       0.643  -1.738   2.594  0.00  0.00    -0.082 A 
ATOM      7  C5  PXY d   1      -0.691  -1.925   2.680  0.00  0.00     0.003 A 
ATOM      8  C6  PXY d   1      -1.374  -1.437   3.790  0.00  0.00     0.003 A 
ENDROOT
TORSDOF 0
ENDMDL
