MODEL 1
REMARK minimizedAffinity 12.3282776
REMARK minimizedRMSD -1
REMARK  0 active torsions:
REMARK  status: ('A' for Active; 'I' for Inactive)
ROOT
ATOM      1  C4' PXY d   1      -2.494  -2.902   3.563  0.00  0.00     0.077 C 
ATOM      2  C1' PXY d   1       2.089  -0.004   1.561  0.00  0.00     0.077 C 
ATOM      3  C1  PXY d   1       0.889  -0.758   2.097  0.00  0.00    -0.082 A 
ATOM      4  C2  PXY d   1       0.527  -1.899   1.533  0.00  0.00     0.003 A 
ATOM      5  C3  PXY d   1      -0.575  -2.578   1.985  0.00  0.00     0.003 A 
ATOM      6  C4  PXY d   1      -1.283  -2.112   3.060  0.00  0.00    -0.082 A 
ATOM      7  C5  PXY d   1      -0.914  -0.954   3.649  0.00  0.00     0.003 A 
ATOM      8  C6  PXY d   1       0.183  -0.259   3.148  0.00  0.00     0.003 A 
ENDROOT
TORSDOF 0
ENDMDL
