MODEL 1
REMARK minimizedAffinity 5.02838326
REMARK minimizedRMSD -1
REMARK  0 active torsions:
REMARK  status: ('A' for Active; 'I' for Inactive)
ROOT
ATOM      1  C4' PXY d   1      -4.267   2.137  -1.900  0.00  0.00     0.077 C 
ATOM      2  C1' PXY d   1       1.364   3.440  -2.003  0.00  0.00     0.077 C 
ATOM      3  C1  PXY d   1      -0.115   3.109  -1.982  0.00  0.00    -0.082 A 
ATOM      4  C2  PXY d   1      -0.585   2.271  -1.073  0.00  0.00     0.003 A 
ATOM      5  C3  PXY d   1      -1.915   1.937  -1.059  0.00  0.00     0.003 A 
ATOM      6  C4  PXY d   1      -2.782   2.507  -1.953  0.00  0.00    -0.082 A 
ATOM      7  C5  PXY d   1      -2.312   3.371  -2.877  0.00  0.00     0.003 A 
ATOM      8  C6  PXY d   1      -0.952   3.665  -2.900  0.00  0.00     0.003 A 
ENDROOT
TORSDOF 0
ENDMDL
