MODEL 1
REMARK minimizedAffinity 8.07864857
REMARK minimizedRMSD -1
REMARK  0 active torsions:
REMARK  status: ('A' for Active; 'I' for Inactive)
ROOT
ATOM      1  C4' PXY d   1      -0.839  -0.690   5.973  0.00  0.00     0.077 C 
ATOM      2  C1' PXY d   1       0.944  -2.293   0.713  0.00  0.00     0.077 C 
ATOM      3  C1  PXY d   1       0.488  -1.867   2.095  0.00  0.00    -0.082 A 
ATOM      4  C2  PXY d   1      -0.461  -2.553   2.711  0.00  0.00     0.003 A 
ATOM      5  C3  PXY d   1      -0.908  -2.162   3.947  0.00  0.00     0.003 A 
ATOM      6  C4  PXY d   1      -0.340  -1.090   4.582  0.00  0.00    -0.082 A 
ATOM      7  C5  PXY d   1       0.636  -0.391   3.964  0.00  0.00     0.003 A 
ATOM      8  C6  PXY d   1       1.047  -0.779   2.692  0.00  0.00     0.003 A 
ENDROOT
TORSDOF 0
ENDMDL
