MODEL 1
REMARK minimizedAffinity 12.0536661
REMARK minimizedRMSD -1
REMARK  0 active torsions:
REMARK  status: ('A' for Active; 'I' for Inactive)
ROOT
ATOM      1  C4' PXY d   1      -5.866  -6.000  -1.618  0.00  0.00     0.077 C 
ATOM      2  C1' PXY d   1      -3.527  -3.339   2.950  0.00  0.00     0.077 C 
ATOM      3  C1  PXY d   1      -4.130  -4.034   1.745  0.00  0.00    -0.082 A 
ATOM      4  C2  PXY d   1      -5.441  -4.201   1.674  0.00  0.00     0.003 A 
ATOM      5  C3  PXY d   1      -6.000  -4.855   0.607  0.00  0.00     0.003 A 
ATOM      6  C4  PXY d   1      -5.214  -5.296  -0.424  0.00  0.00    -0.082 A 
ATOM      7  C5  PXY d   1      -3.877  -5.120  -0.365  0.00  0.00     0.003 A 
ATOM      8  C6  PXY d   1      -3.326  -4.490   0.747  0.00  0.00     0.003 A 
ENDROOT
TORSDOF 0
ENDMDL
