MODEL 1
REMARK minimizedAffinity 1.65469909
REMARK minimizedRMSD -1
REMARK  0 active torsions:
REMARK  status: ('A' for Active; 'I' for Inactive)
ROOT
ATOM      1  C4' PXY d   1      -0.709  -0.663   6.000  0.00  0.00     0.077 C 
ATOM      2  C1' PXY d   1       0.896  -2.424   0.733  0.00  0.00     0.077 C 
ATOM      3  C1  PXY d   1       0.484  -1.952   2.114  0.00  0.00    -0.082 A 
ATOM      4  C2  PXY d   1      -0.084  -2.803   2.953  0.00  0.00     0.003 A 
ATOM      5  C3  PXY d   1      -0.492  -2.386   4.194  0.00  0.00     0.003 A 
ATOM      6  C4  PXY d   1      -0.268  -1.097   4.599  0.00  0.00    -0.082 A 
ATOM      7  C5  PXY d   1       0.320  -0.226   3.753  0.00  0.00     0.003 A 
ATOM      8  C6  PXY d   1       0.689  -0.659   2.483  0.00  0.00     0.003 A 
ENDROOT
TORSDOF 0
ENDMDL
