MODEL 1
REMARK minimizedAffinity 11.166194
REMARK minimizedRMSD -1
REMARK  0 active torsions:
REMARK  status: ('A' for Active; 'I' for Inactive)
ROOT
ATOM      1  C4' PXY d   1      -1.018  -0.660   4.761  0.00  0.00     0.077 C 
ATOM      2  C1' PXY d   1       4.336   0.814   3.156  0.00  0.00     0.077 C 
ATOM      3  C1  PXY d   1       2.928   0.429   3.565  0.00  0.00    -0.082 A 
ATOM      4  C2  PXY d   1       2.561   0.541   4.831  0.00  0.00     0.003 A 
ATOM      5  C3  PXY d   1       1.301   0.167   5.224  0.00  0.00     0.003 A 
ATOM      6  C4  PXY d   1       0.391  -0.275   4.301  0.00  0.00    -0.082 A 
ATOM      7  C5  PXY d   1       0.754  -0.381   3.006  0.00  0.00     0.003 A 
ATOM      8  C6  PXY d   1       2.051  -0.036   2.635  0.00  0.00     0.003 A 
ENDROOT
TORSDOF 0
ENDMDL
