MODEL 1
REMARK minimizedAffinity 15.2401972
REMARK minimizedRMSD -1
REMARK  0 active torsions:
REMARK  status: ('A' for Active; 'I' for Inactive)
ROOT
ATOM      1  C4' PXY d   1      -0.847  -1.853   1.463  0.00  0.00     0.077 C 
ATOM      2  C1' PXY d   1       4.805  -0.832   2.113  0.00  0.00     0.077 C 
ATOM      3  C1  PXY d   1       3.325  -1.103   1.930  0.00  0.00    -0.082 A 
ATOM      4  C2  PXY d   1       2.449  -0.513   2.727  0.00  0.00     0.003 A 
ATOM      5  C3  PXY d   1       1.108  -0.771   2.596  0.00  0.00     0.003 A 
ATOM      6  C4  PXY d   1       0.656  -1.601   1.605  0.00  0.00    -0.082 A 
ATOM      7  C5  PXY d   1       1.544  -2.199   0.782  0.00  0.00     0.003 A 
ATOM      8  C6  PXY d   1       2.903  -1.956   0.958  0.00  0.00     0.003 A 
ENDROOT
TORSDOF 0
ENDMDL
