MODEL 1
REMARK minimizedAffinity 2.27813864
REMARK minimizedRMSD -1
REMARK  0 active torsions:
REMARK  status: ('A' for Active; 'I' for Inactive)
ROOT
ATOM      1  C4' PXY d   1      -3.850  -3.781   3.788  0.00  0.00     0.077 C 
ATOM      2  C1' PXY d   1      -4.981  -5.999  -1.428  0.00  0.00     0.077 C 
ATOM      3  C1  PXY d   1      -4.674  -5.412  -0.065  0.00  0.00    -0.082 A 
ATOM      4  C2  PXY d   1      -5.146  -6.000   1.022  0.00  0.00     0.003 A 
ATOM      5  C3  PXY d   1      -4.905  -5.464   2.261  0.00  0.00     0.003 A 
ATOM      6  C4  PXY d   1      -4.127  -4.344   2.392  0.00  0.00    -0.082 A 
ATOM      7  C5  PXY d   1      -3.633  -3.745   1.288  0.00  0.00     0.003 A 
ATOM      8  C6  PXY d   1      -3.923  -4.281   0.037  0.00  0.00     0.003 A 
ENDROOT
TORSDOF 0
ENDMDL
