MODEL 1
REMARK minimizedAffinity 21.4304752
REMARK minimizedRMSD -1
REMARK  0 active torsions:
REMARK  status: ('A' for Active; 'I' for Inactive)
ROOT
ATOM      1  C4' PXY d   1       0.057   3.061  -0.204  0.00  0.00     0.077 C 
ATOM      2  C1' PXY d   1      -2.523   3.810  -5.323  0.00  0.00     0.077 C 
ATOM      3  C1  PXY d   1      -1.854   3.603  -3.978  0.00  0.00    -0.082 A 
ATOM      4  C2  PXY d   1      -1.248   4.619  -3.386  0.00  0.00     0.003 A 
ATOM      5  C3  PXY d   1      -0.611   4.443  -2.185  0.00  0.00     0.003 A 
ATOM      6  C4  PXY d   1      -0.639   3.226  -1.558  0.00  0.00    -0.082 A 
ATOM      7  C5  PXY d   1      -1.264   2.186  -2.151  0.00  0.00     0.003 A 
ATOM      8  C6  PXY d   1      -1.870   2.376  -3.390  0.00  0.00     0.003 A 
ENDROOT
TORSDOF 0
ENDMDL
