MODEL 1
REMARK minimizedAffinity 10.9290104
REMARK minimizedRMSD -1
REMARK  0 active torsions:
REMARK  status: ('A' for Active; 'I' for Inactive)
ROOT
ATOM      1  C4' PXY d   1       3.729  -0.504   1.931  0.00  0.00     0.077 C 
ATOM      2  C1' PXY d   1      -1.429  -3.070   1.461  0.00  0.00     0.077 C 
ATOM      3  C1  PXY d   1      -0.082  -2.386   1.580  0.00  0.00    -0.082 A 
ATOM      4  C2  PXY d   1       1.027  -3.103   1.488  0.00  0.00     0.003 A 
ATOM      5  C3  PXY d   1       2.253  -2.505   1.625  0.00  0.00     0.003 A 
ATOM      6  C4  PXY d   1       2.347  -1.151   1.807  0.00  0.00    -0.082 A 
ATOM      7  C5  PXY d   1       1.222  -0.411   1.892  0.00  0.00     0.003 A 
ATOM      8  C6  PXY d   1      -0.015  -1.043   1.791  0.00  0.00     0.003 A 
ENDROOT
TORSDOF 0
ENDMDL
