MODEL 1
REMARK minimizedAffinity 12.7315741
REMARK minimizedRMSD -1
REMARK  0 active torsions:
REMARK  status: ('A' for Active; 'I' for Inactive)
ROOT
ATOM      1  C4' PXY d   1       3.391  -1.707  -0.156  0.00  0.00     0.077 C 
ATOM      2  C1' PXY d   1       0.351  -0.064   4.478  0.00  0.00     0.077 C 
ATOM      3  C1  PXY d   1       1.153  -0.483   3.262  0.00  0.00    -0.082 A 
ATOM      4  C2  PXY d   1       0.711  -1.464   2.493  0.00  0.00     0.003 A 
ATOM      5  C3  PXY d   1       1.441  -1.877   1.408  0.00  0.00     0.003 A 
ATOM      6  C4  PXY d   1       2.608  -1.244   1.076  0.00  0.00    -0.082 A 
ATOM      7  C5  PXY d   1       3.061  -0.235   1.850  0.00  0.00     0.003 A 
ATOM      8  C6  PXY d   1       2.326   0.142   2.971  0.00  0.00     0.003 A 
ENDROOT
TORSDOF 0
ENDMDL
