MODEL 1
REMARK minimizedAffinity 15.8779993
REMARK minimizedRMSD -1
REMARK  0 active torsions:
REMARK  status: ('A' for Active; 'I' for Inactive)
ROOT
ATOM      1  C4' PXY d   1      -5.165   4.301  -0.317  0.00  0.00     0.077 C 
ATOM      2  C1' PXY d   1      -1.034   4.071  -4.354  0.00  0.00     0.077 C 
ATOM      3  C1  PXY d   1      -2.112   4.142  -3.290  0.00  0.00    -0.082 A 
ATOM      4  C2  PXY d   1      -2.752   3.041  -2.933  0.00  0.00     0.003 A 
ATOM      5  C3  PXY d   1      -3.752   3.092  -1.996  0.00  0.00     0.003 A 
ATOM      6  C4  PXY d   1      -4.063   4.275  -1.380  0.00  0.00    -0.082 A 
ATOM      7  C5  PXY d   1      -3.407   5.401  -1.731  0.00  0.00     0.003 A 
ATOM      8  C6  PXY d   1      -2.424   5.335  -2.714  0.00  0.00     0.003 A 
ENDROOT
TORSDOF 0
ENDMDL
