MODEL 1
REMARK minimizedAffinity 4.31314754
REMARK minimizedRMSD -1
REMARK  0 active torsions:
REMARK  status: ('A' for Active; 'I' for Inactive)
ROOT
ATOM      1  C4' PXY d   1      -3.346  -3.752   3.856  0.00  0.00     0.077 C 
ATOM      2  C1' PXY d   1      -4.509  -5.696  -1.462  0.00  0.00     0.077 C 
ATOM      3  C1  PXY d   1      -4.203  -5.174  -0.072  0.00  0.00    -0.082 A 
ATOM      4  C2  PXY d   1      -3.729  -6.000   0.847  0.00  0.00     0.003 A 
ATOM      5  C3  PXY d   1      -3.476  -5.552   2.118  0.00  0.00     0.003 A 
ATOM      6  C4  PXY d   1      -3.661  -4.233   2.437  0.00  0.00    -0.082 A 
ATOM      7  C5  PXY d   1      -4.133  -3.382   1.501  0.00  0.00     0.003 A 
ATOM      8  C6  PXY d   1      -4.422  -3.866   0.229  0.00  0.00     0.003 A 
ENDROOT
TORSDOF 0
ENDMDL
