MODEL 1
REMARK minimizedAffinity 16.3908043
REMARK minimizedRMSD -1
REMARK  0 active torsions:
REMARK  status: ('A' for Active; 'I' for Inactive)
ROOT
ATOM      1  C4' PXY d   1      -5.656   1.059  -3.495  0.00  0.00     0.077 C 
ATOM      2  C1' PXY d   1      -1.589   4.319  -5.993  0.00  0.00     0.077 C 
ATOM      3  C1  PXY d   1      -2.646   3.459  -5.330  0.00  0.00    -0.082 A 
ATOM      4  C2  PXY d   1      -3.745   3.143  -5.997  0.00  0.00     0.003 A 
ATOM      5  C3  PXY d   1      -4.726   2.393  -5.401  0.00  0.00     0.003 A 
ATOM      6  C4  PXY d   1      -4.557   1.917  -4.128  0.00  0.00    -0.082 A 
ATOM      7  C5  PXY d   1      -3.435   2.227  -3.445  0.00  0.00     0.003 A 
ATOM      8  C6  PXY d   1      -2.469   3.024  -4.053  0.00  0.00     0.003 A 
ENDROOT
TORSDOF 0
ENDMDL
