MODEL 1
REMARK minimizedAffinity 4.81536055
REMARK minimizedRMSD -1
REMARK  0 active torsions:
REMARK  status: ('A' for Active; 'I' for Inactive)
ROOT
ATOM      1  C4' PXY d   1       3.753  -2.633  -0.500  0.00  0.00     0.077 C 
ATOM      2  C1' PXY d   1       0.079  -0.362   3.342  0.00  0.00     0.077 C 
ATOM      3  C1  PXY d   1       1.042  -0.969   2.341  0.00  0.00    -0.082 A 
ATOM      4  C2  PXY d   1       1.842  -0.180   1.642  0.00  0.00     0.003 A 
ATOM      5  C3  PXY d   1       2.696  -0.709   0.709  0.00  0.00     0.003 A 
ATOM      6  C4  PXY d   1       2.771  -2.065   0.528  0.00  0.00    -0.082 A 
ATOM      7  C5  PXY d   1       1.966  -2.877   1.246  0.00  0.00     0.003 A 
ATOM      8  C6  PXY d   1       1.076  -2.317   2.158  0.00  0.00     0.003 A 
ENDROOT
TORSDOF 0
ENDMDL
