MODEL 1
REMARK minimizedAffinity 18.539259
REMARK minimizedRMSD -1
REMARK  0 active torsions:
REMARK  status: ('A' for Active; 'I' for Inactive)
ROOT
ATOM      1  C4' PXY d   1      -5.287   1.145  -2.433  0.00  0.00     0.077 C 
ATOM      2  C1' PXY d   1      -1.657   5.636  -2.700  0.00  0.00     0.077 C 
ATOM      3  C1  PXY d   1      -2.604   4.454  -2.641  0.00  0.00    -0.082 A 
ATOM      4  C2  PXY d   1      -3.699   4.529  -1.902  0.00  0.00     0.003 A 
ATOM      5  C3  PXY d   1      -4.551   3.458  -1.812  0.00  0.00     0.003 A 
ATOM      6  C4  PXY d   1      -4.306   2.317  -2.529  0.00  0.00    -0.082 A 
ATOM      7  C5  PXY d   1      -3.197   2.236  -3.294  0.00  0.00     0.003 A 
ATOM      8  C6  PXY d   1      -2.324   3.320  -3.339  0.00  0.00     0.003 A 
ENDROOT
TORSDOF 0
ENDMDL
