MODEL 1
REMARK minimizedAffinity 2.99917126
REMARK minimizedRMSD -1
REMARK  0 active torsions:
REMARK  status: ('A' for Active; 'I' for Inactive)
ROOT
ATOM      1  N1  IND d   1       1.214  -4.280  -2.265  0.00  0.00    -0.196 N 
ATOM      2  C2  IND d   1       2.248  -5.174  -2.277  0.00  0.00     0.054 A 
ATOM      3  C3  IND d   1       2.144  -6.000  -3.342  0.00  0.00    -0.031 A 
ATOM      4  C4  IND d   1       0.415  -5.999  -5.249  0.00  0.00     0.051 A 
ATOM      5  C5  IND d   1      -0.742  -5.394  -5.654  0.00  0.00    -0.031 A 
ATOM      6  C6  IND d   1      -1.315  -4.364  -4.938  0.00  0.00     0.015 A 
ATOM      7  C7  IND d   1      -0.745  -3.891  -3.790  0.00  0.00    -0.016 A 
ATOM      8  C8  IND d   1       0.425  -4.508  -3.371  0.00  0.00    -0.047 A 
ATOM      9  C9  IND d   1       0.989  -5.582  -4.071  0.00  0.00    -0.096 A 
ATOM     10  HN1 IND d   1       1.079  -3.677  -1.667  0.00  0.00     0.298 HD
ENDROOT
TORSDOF 0
ENDMDL
