MODEL 1
REMARK minimizedAffinity 16.9561043
REMARK minimizedRMSD -1
REMARK  0 active torsions:
REMARK  status: ('A' for Active; 'I' for Inactive)
ROOT
ATOM      1  N1  IND d   1      -0.290   1.812  -5.744  0.00  0.00    -0.196 N 
ATOM      2  C2  IND d   1       1.051   1.747  -5.999  0.00  0.00     0.054 A 
ATOM      3  C3  IND d   1       1.469   0.461  -5.999  0.00  0.00    -0.031 A 
ATOM      4  C4  IND d   1       0.103  -1.701  -5.706  0.00  0.00     0.051 A 
ATOM      5  C5  IND d   1      -1.154  -2.150  -5.413  0.00  0.00    -0.031 A 
ATOM      6  C6  IND d   1      -2.209  -1.284  -5.214  0.00  0.00     0.015 A 
ATOM      7  C7  IND d   1      -2.049   0.069  -5.313  0.00  0.00    -0.016 A 
ATOM      8  C8  IND d   1      -0.772   0.529  -5.603  0.00  0.00    -0.047 A 
ATOM      9  C9  IND d   1       0.312  -0.344  -5.764  0.00  0.00    -0.096 A 
ATOM     10  HN1 IND d   1      -0.755   2.532  -5.683  0.00  0.00     0.298 HD
ENDROOT
TORSDOF 0
ENDMDL
