MODEL 1
REMARK minimizedAffinity 5.93638659
REMARK minimizedRMSD -1
REMARK  0 active torsions:
REMARK  status: ('A' for Active; 'I' for Inactive)
ROOT
ATOM      1  N1  IND d   1       0.028   0.869  -5.416  0.00  0.00    -0.196 N 
ATOM      2  C2  IND d   1      -0.113  -0.359  -6.000  0.00  0.00     0.054 A 
ATOM      3  C3  IND d   1      -0.951  -1.132  -5.273  0.00  0.00    -0.031 A 
ATOM      4  C4  IND d   1      -2.282  -0.550  -3.148  0.00  0.00     0.051 A 
ATOM      5  C5  IND d   1      -2.453   0.439  -2.221  0.00  0.00    -0.031 A 
ATOM      6  C6  IND d   1      -1.794   1.648  -2.315  0.00  0.00     0.015 A 
ATOM      7  C7  IND d   1      -0.945   1.918  -3.350  0.00  0.00    -0.016 A 
ATOM      8  C8  IND d   1      -0.764   0.913  -4.290  0.00  0.00    -0.047 A 
ATOM      9  C9  IND d   1      -1.397  -0.332  -4.177  0.00  0.00    -0.096 A 
ATOM     10  HN1 IND d   1       0.528   1.507  -5.704  0.00  0.00     0.298 HD
ENDROOT
TORSDOF 0
ENDMDL
