MODEL 1
REMARK minimizedAffinity 17.1999187
REMARK minimizedRMSD -1
REMARK  0 active torsions:
REMARK  status: ('A' for Active; 'I' for Inactive)
ROOT
ATOM      1  N1  IND d   1       0.348  -1.872   2.529  0.00  0.00    -0.196 N 
ATOM      2  C2  IND d   1      -0.268  -0.711   2.156  0.00  0.00     0.054 A 
ATOM      3  C3  IND d   1      -0.050   0.254   3.077  0.00  0.00    -0.031 A 
ATOM      4  C4  IND d   1       1.375   0.177   5.220  0.00  0.00     0.051 A 
ATOM      5  C5  IND d   1       2.102  -0.678   6.000  0.00  0.00    -0.031 A 
ATOM      6  C6  IND d   1       2.288  -2.001   5.654  0.00  0.00     0.015 A 
ATOM      7  C7  IND d   1       1.761  -2.517   4.504  0.00  0.00    -0.016 A 
ATOM      8  C8  IND d   1       1.016  -1.654   3.714  0.00  0.00    -0.047 A 
ATOM      9  C9  IND d   1       0.788  -0.321   4.081  0.00  0.00    -0.096 A 
ATOM     10  HN1 IND d   1       0.324  -2.615   2.096  0.00  0.00     0.298 HD
ENDROOT
TORSDOF 0
ENDMDL
