MODEL 1
REMARK minimizedAffinity -0.0155457519
REMARK minimizedRMSD -1
REMARK  0 active torsions:
REMARK  status: ('A' for Active; 'I' for Inactive)
ROOT
ATOM      1  N1  IND d   1      -2.772  -0.937   2.463  0.00  0.00    -0.196 N 
ATOM      2  C2  IND d   1      -3.406  -1.854   3.254  0.00  0.00     0.054 A 
ATOM      3  C3  IND d   1      -2.525  -2.433   4.101  0.00  0.00    -0.031 A 
ATOM      4  C4  IND d   1      -0.017  -1.956   4.429  0.00  0.00     0.051 A 
ATOM      5  C5  IND d   1       1.018  -1.228   3.913  0.00  0.00    -0.031 A 
ATOM      6  C6  IND d   1       0.838  -0.346   2.867  0.00  0.00     0.015 A 
ATOM      7  C7  IND d   1      -0.391  -0.149   2.304  0.00  0.00    -0.016 A 
ATOM      8  C8  IND d   1      -1.443  -0.892   2.821  0.00  0.00    -0.047 A 
ATOM      9  C9  IND d   1      -1.258  -1.820   3.854  0.00  0.00    -0.096 A 
ATOM     10  HN1 IND d   1      -3.142  -0.467   1.845  0.00  0.00     0.298 HD
ENDROOT
TORSDOF 0
ENDMDL
