MODEL 1
REMARK minimizedAffinity 11.1641579
REMARK minimizedRMSD -1
REMARK  0 active torsions:
REMARK  status: ('A' for Active; 'I' for Inactive)
ROOT
ATOM      1  N1  IND d   1       0.155  -2.061   3.090  0.00  0.00    -0.196 N 
ATOM      2  C2  IND d   1       1.261  -1.274   3.249  0.00  0.00     0.054 A 
ATOM      3  C3  IND d   1       1.019  -0.025   2.790  0.00  0.00    -0.031 A 
ATOM      4  C4  IND d   1      -1.152   0.973   1.833  0.00  0.00     0.051 A 
ATOM      5  C5  IND d   1      -2.421   0.632   1.459  0.00  0.00    -0.031 A 
ATOM      6  C6  IND d   1      -2.908  -0.650   1.615  0.00  0.00     0.015 A 
ATOM      7  C7  IND d   1      -2.143  -1.640   2.164  0.00  0.00    -0.016 A 
ATOM      8  C8  IND d   1      -0.851  -1.299   2.539  0.00  0.00    -0.047 A 
ATOM      9  C9  IND d   1      -0.338  -0.010   2.343  0.00  0.00    -0.096 A 
ATOM     10  HN1 IND d   1       0.097  -2.893   3.299  0.00  0.00     0.298 HD
ENDROOT
TORSDOF 0
ENDMDL
