MODEL 1
REMARK minimizedAffinity 10.7054558
REMARK minimizedRMSD -1
REMARK  0 active torsions:
REMARK  status: ('A' for Active; 'I' for Inactive)
ROOT
ATOM      1  N1  IND d   1       0.799   5.996   0.297  0.00  0.00    -0.196 N 
ATOM      2  C2  IND d   1       1.854   5.142   0.462  0.00  0.00     0.054 A 
ATOM      3  C3  IND d   1       1.750   4.098  -0.391  0.00  0.00    -0.031 A 
ATOM      4  C4  IND d   1      -0.012   3.641  -2.212  0.00  0.00     0.051 A 
ATOM      5  C5  IND d   1      -1.189   4.120  -2.716  0.00  0.00    -0.031 A 
ATOM      6  C6  IND d   1      -1.773   5.273  -2.233  0.00  0.00     0.015 A 
ATOM      7  C7  IND d   1      -1.194   6.000  -1.232  0.00  0.00    -0.016 A 
ATOM      8  C8  IND d   1      -0.003   5.513  -0.713  0.00  0.00    -0.047 A 
ATOM      9  C9  IND d   1       0.573   4.321  -1.169  0.00  0.00    -0.096 A 
ATOM     10  HN1 IND d   1       0.661   6.715   0.749  0.00  0.00     0.298 HD
ENDROOT
TORSDOF 0
ENDMDL
