MODEL 1
REMARK minimizedAffinity 2.45455599
REMARK minimizedRMSD -1
REMARK  0 active torsions:
REMARK  status: ('A' for Active; 'I' for Inactive)
ROOT
ATOM      1  N1  IND d   1      -0.112  -2.650   3.919  0.00  0.00    -0.196 N 
ATOM      2  C2  IND d   1       1.107  -2.080   4.161  0.00  0.00     0.054 A 
ATOM      3  C3  IND d   1       1.151  -0.830   3.649  0.00  0.00    -0.031 A 
ATOM      4  C4  IND d   1      -0.695   0.519   2.465  0.00  0.00     0.051 A 
ATOM      5  C5  IND d   1      -1.968   0.408   1.983  0.00  0.00    -0.031 A 
ATOM      6  C6  IND d   1      -2.704  -0.750   2.126  0.00  0.00     0.015 A 
ATOM      7  C7  IND d   1      -2.195  -1.842   2.770  0.00  0.00    -0.016 A 
ATOM      8  C8  IND d   1      -0.900  -1.736   3.256  0.00  0.00    -0.047 A 
ATOM      9  C9  IND d   1      -0.133  -0.577   3.076  0.00  0.00    -0.096 A 
ATOM     10  HN1 IND d   1      -0.347  -3.446   4.144  0.00  0.00     0.298 HD
ENDROOT
TORSDOF 0
ENDMDL
