MODEL 1
REMARK minimizedAffinity 4.14227962
REMARK minimizedRMSD -1
REMARK  0 active torsions:
REMARK  status: ('A' for Active; 'I' for Inactive)
ROOT
ATOM      1  N1  IND d   1      -1.869  -5.101  -1.670  0.00  0.00    -0.196 N 
ATOM      2  C2  IND d   1      -2.362  -3.980  -1.062  0.00  0.00     0.054 A 
ATOM      3  C3  IND d   1      -1.451  -2.982  -1.106  0.00  0.00    -0.031 A 
ATOM      4  C4  IND d   1       0.872  -2.936  -2.214  0.00  0.00     0.051 A 
ATOM      5  C5  IND d   1       1.774  -3.734  -2.860  0.00  0.00    -0.031 A 
ATOM      6  C6  IND d   1       1.501  -5.055  -3.151  0.00  0.00     0.015 A 
ATOM      7  C7  IND d   1       0.306  -5.626  -2.814  0.00  0.00    -0.016 A 
ATOM      8  C8  IND d   1      -0.609  -4.820  -2.152  0.00  0.00    -0.047 A 
ATOM      9  C9  IND d   1      -0.321  -3.491  -1.817  0.00  0.00    -0.096 A 
ATOM     10  HN1 IND d   1      -2.276  -5.855  -1.739  0.00  0.00     0.298 HD
ENDROOT
TORSDOF 0
ENDMDL
