MODEL 1
REMARK minimizedAffinity 1.75239038
REMARK minimizedRMSD -1
REMARK  1 active torsions:
REMARK  status: ('A' for Active; 'I' for Inactive)
REMARK    1  A    between atoms: C1_2  and  C2_3 
ROOT
ATOM      1  C2  UNL d   1      -4.645   0.680   3.665  0.00  0.00    -0.076 A 
ATOM      2  C3  UNL d   1      -3.900  -0.284   2.963  0.00  0.00     0.004 A 
ATOM      3  C4  UNL d   1      -3.429  -0.029   1.677  0.00  0.00    -0.003 A 
ATOM      4  C5  UNL d   1      -3.695   1.194   1.071  0.00  0.00     0.000 A 
ATOM      5  C6  UNL d   1      -4.417   2.168   1.759  0.00  0.00     0.000 A 
ATOM      6  C7  UNL d   1      -4.885   1.933   3.063  0.00  0.00    -0.073 A 
ATOM      7  C8  UNL d   1      -5.664   3.017   3.757  0.00  0.00     0.078 C 
ENDROOT
BRANCH   1   8
ATOM      8  C1  UNL d   1      -5.153   0.337   5.048  0.00  0.00     0.053 C 
ATOM      9  C   UNL d   1      -4.518  -0.928   5.605  0.00  0.00     0.018 C 
ENDBRANCH   1   8
TORSDOF 1
ENDMDL
