MODEL 1
REMARK minimizedAffinity 3.10183334
REMARK minimizedRMSD -1
REMARK  1 active torsions:
REMARK  status: ('A' for Active; 'I' for Inactive)
REMARK    1  A    between atoms: C1_2  and  C2_3 
ROOT
ATOM      1  C2  UNL d   1      -2.904  -2.443  -5.964  0.00  0.00    -0.076 A 
ATOM      2  C3  UNL d   1      -3.848  -3.485  -5.983  0.00  0.00     0.004 A 
ATOM      3  C4  UNL d   1      -5.215  -3.214  -5.998  0.00  0.00    -0.003 A 
ATOM      4  C5  UNL d   1      -5.661  -1.897  -5.996  0.00  0.00     0.000 A 
ATOM      5  C6  UNL d   1      -4.738  -0.851  -5.995  0.00  0.00     0.000 A 
ATOM      6  C7  UNL d   1      -3.356  -1.106  -5.996  0.00  0.00    -0.073 A 
ATOM      7  C8  UNL d   1      -2.406   0.060  -5.990  0.00  0.00     0.078 C 
ENDROOT
BRANCH   1   8
ATOM      8  C1  UNL d   1      -1.435  -2.798  -5.920  0.00  0.00     0.053 C 
ATOM      9  C   UNL d   1      -0.601  -1.740  -5.214  0.00  0.00     0.018 C 
ENDBRANCH   1   8
TORSDOF 1
ENDMDL
