MODEL 1
REMARK minimizedAffinity 4.02670765
REMARK minimizedRMSD -1
REMARK  1 active torsions:
REMARK  status: ('A' for Active; 'I' for Inactive)
REMARK    1  A    between atoms: C1_2  and  C2_3 
ROOT
ATOM      1  C2  UNL d   1      -2.936  -1.164  -5.941  0.00  0.00    -0.076 A 
ATOM      2  C3  UNL d   1      -4.261  -0.698  -5.900  0.00  0.00     0.004 A 
ATOM      3  C4  UNL d   1      -5.335  -1.586  -5.917  0.00  0.00    -0.003 A 
ATOM      4  C5  UNL d   1      -5.100  -2.956  -5.974  0.00  0.00     0.000 A 
ATOM      5  C6  UNL d   1      -3.792  -3.436  -5.998  0.00  0.00     0.000 A 
ATOM      6  C7  UNL d   1      -2.698  -2.555  -5.965  0.00  0.00    -0.073 A 
ATOM      7  C8  UNL d   1      -1.307  -3.128  -5.999  0.00  0.00     0.078 C 
ENDROOT
BRANCH   1   8
ATOM      8  C1  UNL d   1      -1.812  -0.152  -5.948  0.00  0.00     0.053 C 
ATOM      9  C   UNL d   1      -0.812  -0.384  -4.826  0.00  0.00     0.018 C 
ENDBRANCH   1   8
TORSDOF 1
ENDMDL
