MODEL 1
REMARK minimizedAffinity 11.1380196
REMARK minimizedRMSD -1
REMARK  1 active torsions:
REMARK  status: ('A' for Active; 'I' for Inactive)
REMARK    1  A    between atoms: C1_2  and  C2_3 
ROOT
ATOM      1  C2  UNL d   1      -3.981  -1.898  -5.273  0.00  0.00    -0.076 A 
ATOM      2  C3  UNL d   1      -3.206  -0.740  -5.084  0.00  0.00     0.004 A 
ATOM      3  C4  UNL d   1      -1.836  -0.745  -5.340  0.00  0.00    -0.003 A 
ATOM      4  C5  UNL d   1      -1.219  -1.907  -5.790  0.00  0.00     0.000 A 
ATOM      5  C6  UNL d   1      -1.975  -3.059  -6.000  0.00  0.00     0.000 A 
ATOM      6  C7  UNL d   1      -3.360  -3.067  -5.762  0.00  0.00    -0.073 A 
ATOM      7  C8  UNL d   1      -4.126  -4.340  -5.999  0.00  0.00     0.078 C 
ENDROOT
BRANCH   1   8
ATOM      8  C1  UNL d   1      -5.458  -1.841  -4.953  0.00  0.00     0.053 C 
ATOM      9  C   UNL d   1      -5.809  -2.603  -3.685  0.00  0.00     0.018 C 
ENDBRANCH   1   8
TORSDOF 1
ENDMDL
