MODEL 1
REMARK minimizedAffinity 3.53234267
REMARK minimizedRMSD -1
REMARK  1 active torsions:
REMARK  status: ('A' for Active; 'I' for Inactive)
REMARK    1  A    between atoms: C1_2  and  C2_3 
ROOT
ATOM      1  C2  UNL d   1      -5.051   2.044   4.440  0.00  0.00    -0.076 A 
ATOM      2  C3  UNL d   1      -5.049   2.916   3.338  0.00  0.00     0.004 A 
ATOM      3  C4  UNL d   1      -4.253   2.661   2.223  0.00  0.00    -0.003 A 
ATOM      4  C5  UNL d   1      -3.445   1.530   2.192  0.00  0.00     0.000 A 
ATOM      5  C6  UNL d   1      -3.448   0.644   3.269  0.00  0.00     0.000 A 
ATOM      6  C7  UNL d   1      -4.258   0.878   4.394  0.00  0.00    -0.073 A 
ATOM      7  C8  UNL d   1      -4.217  -0.107   5.530  0.00  0.00     0.078 C 
ENDROOT
BRANCH   1   8
ATOM      8  C1  UNL d   1      -5.915   2.387   5.633  0.00  0.00     0.053 C 
ATOM      9  C   UNL d   1      -5.849   3.862   5.996  0.00  0.00     0.018 C 
ENDBRANCH   1   8
TORSDOF 1
ENDMDL
