MODEL 1
REMARK minimizedAffinity 14.6877966
REMARK minimizedRMSD -1
REMARK  1 active torsions:
REMARK  status: ('A' for Active; 'I' for Inactive)
REMARK    1  A    between atoms: C1_2  and  C2_3 
ROOT
ATOM      1  C2  UNL d   1      -5.597   2.914   4.752  0.00  0.00    -0.076 A 
ATOM      2  C3  UNL d   1      -5.998   2.174   5.877  0.00  0.00     0.004 A 
ATOM      3  C4  UNL d   1      -5.676   0.823   6.000  0.00  0.00    -0.003 A 
ATOM      4  C5  UNL d   1      -4.946   0.191   4.999  0.00  0.00     0.000 A 
ATOM      5  C6  UNL d   1      -4.525   0.915   3.883  0.00  0.00     0.000 A 
ATOM      6  C7  UNL d   1      -4.828   2.281   3.752  0.00  0.00    -0.073 A 
ATOM      7  C8  UNL d   1      -4.354   3.011   2.525  0.00  0.00     0.078 C 
ENDROOT
BRANCH   1   8
ATOM      8  C1  UNL d   1      -6.000   4.369   4.661  0.00  0.00     0.053 C 
ATOM      9  C   UNL d   1      -5.851   5.098   5.987  0.00  0.00     0.018 C 
ENDBRANCH   1   8
TORSDOF 1
ENDMDL
