MODEL 1
REMARK minimizedAffinity 2.23545146
REMARK minimizedRMSD -1
REMARK  1 active torsions:
REMARK  status: ('A' for Active; 'I' for Inactive)
REMARK    1  A    between atoms: C1_2  and  C2_3 
ROOT
ATOM      1  C2  UNL d   1      -5.312   2.783   3.747  0.00  0.00    -0.076 A 
ATOM      2  C3  UNL d   1      -4.690   3.028   2.510  0.00  0.00     0.004 A 
ATOM      3  C4  UNL d   1      -4.021   2.011   1.830  0.00  0.00    -0.003 A 
ATOM      4  C5  UNL d   1      -3.963   0.734   2.376  0.00  0.00     0.000 A 
ATOM      5  C6  UNL d   1      -4.589   0.469   3.594  0.00  0.00     0.000 A 
ATOM      6  C7  UNL d   1      -5.282   1.479   4.284  0.00  0.00    -0.073 A 
ATOM      7  C8  UNL d   1      -5.934   1.139   5.597  0.00  0.00     0.078 C 
ENDROOT
BRANCH   1   8
ATOM      8  C1  UNL d   1      -6.000   3.931   4.451  0.00  0.00     0.053 C 
ATOM      9  C   UNL d   1      -5.204   4.446   5.640  0.00  0.00     0.018 C 
ENDBRANCH   1   8
TORSDOF 1
ENDMDL
