MODEL 1
REMARK minimizedAffinity 7.58828449
REMARK minimizedRMSD -1
REMARK  1 active torsions:
REMARK  status: ('A' for Active; 'I' for Inactive)
REMARK    1  A    between atoms: C1_2  and  C2_3 
ROOT
ATOM      1  C2  UNL d   1      -3.032  -2.693  -5.862  0.00  0.00    -0.076 A 
ATOM      2  C3  UNL d   1      -1.822  -3.396  -5.999  0.00  0.00     0.004 A 
ATOM      3  C4  UNL d   1      -0.597  -2.735  -5.934  0.00  0.00    -0.003 A 
ATOM      4  C5  UNL d   1      -0.561  -1.360  -5.730  0.00  0.00     0.000 A 
ATOM      5  C6  UNL d   1      -1.751  -0.649  -5.574  0.00  0.00     0.000 A 
ATOM      6  C7  UNL d   1      -2.994  -1.303  -5.621  0.00  0.00    -0.073 A 
ATOM      7  C8  UNL d   1      -4.246  -0.487  -5.453  0.00  0.00     0.078 C 
ENDROOT
BRANCH   1   8
ATOM      8  C1  UNL d   1      -4.331  -3.460  -5.968  0.00  0.00     0.053 C 
ATOM      9  C   UNL d   1      -4.118  -4.966  -5.999  0.00  0.00     0.018 C 
ENDBRANCH   1   8
TORSDOF 1
ENDMDL
