MODEL 1
REMARK minimizedAffinity 8.52171135
REMARK minimizedRMSD -1
REMARK  1 active torsions:
REMARK  status: ('A' for Active; 'I' for Inactive)
REMARK    1  A    between atoms: C1_2  and  C2_3 
ROOT
ATOM      1  C2  UNL d   1      -5.074   3.772   3.758  0.00  0.00    -0.076 A 
ATOM      2  C3  UNL d   1      -4.759   5.140   3.681  0.00  0.00     0.004 A 
ATOM      3  C4  UNL d   1      -5.033   6.000   4.743  0.00  0.00    -0.003 A 
ATOM      4  C5  UNL d   1      -5.627   5.506   5.900  0.00  0.00     0.000 A 
ATOM      5  C6  UNL d   1      -5.930   4.149   6.000  0.00  0.00     0.000 A 
ATOM      6  C7  UNL d   1      -5.646   3.265   4.945  0.00  0.00    -0.073 A 
ATOM      7  C8  UNL d   1      -6.000   1.812   5.104  0.00  0.00     0.078 C 
ENDROOT
BRANCH   1   8
ATOM      8  C1  UNL d   1      -4.779   2.893   2.564  0.00  0.00     0.053 C 
ATOM      9  C   UNL d   1      -4.152   1.565   2.960  0.00  0.00     0.018 C 
ENDBRANCH   1   8
TORSDOF 1
ENDMDL
