MODEL 1
REMARK minimizedAffinity 2.76070333
REMARK minimizedRMSD -1
REMARK  1 active torsions:
REMARK  status: ('A' for Active; 'I' for Inactive)
REMARK    1  A    between atoms: C1_2  and  C2_3 
ROOT
ATOM      1  C2  UNL d   1      -3.347   0.622   3.041  0.00  0.00    -0.076 A 
ATOM      2  C3  UNL d   1      -3.975   0.070   4.172  0.00  0.00     0.004 A 
ATOM      3  C4  UNL d   1      -5.066   0.701   4.765  0.00  0.00    -0.003 A 
ATOM      4  C5  UNL d   1      -5.550   1.894   4.237  0.00  0.00     0.000 A 
ATOM      5  C6  UNL d   1      -4.951   2.445   3.105  0.00  0.00     0.000 A 
ATOM      6  C7  UNL d   1      -3.859   1.814   2.485  0.00  0.00    -0.073 A 
ATOM      7  C8  UNL d   1      -3.248   2.456   1.270  0.00  0.00     0.078 C 
ENDROOT
BRANCH   1   8
ATOM      8  C1  UNL d   1      -2.150  -0.093   2.456  0.00  0.00     0.053 C 
ATOM      9  C   UNL d   1      -0.874   0.727   2.561  0.00  0.00     0.018 C 
ENDBRANCH   1   8
TORSDOF 1
ENDMDL
