MODEL 1
REMARK minimizedAffinity 3.34283519
REMARK minimizedRMSD -1
REMARK  1 active torsions:
REMARK  status: ('A' for Active; 'I' for Inactive)
REMARK    1  A    between atoms: C1_2  and  C2_3 
ROOT
ATOM      1  C2  UNL d   1       5.686  -2.230   4.661  0.00  0.00    -0.076 A 
ATOM      2  C3  UNL d   1       5.379  -1.531   3.481  0.00  0.00     0.004 A 
ATOM      3  C4  UNL d   1       5.114  -2.211   2.293  0.00  0.00    -0.003 A 
ATOM      4  C5  UNL d   1       5.151  -3.600   2.267  0.00  0.00     0.000 A 
ATOM      5  C6  UNL d   1       5.436  -4.311   3.432  0.00  0.00     0.000 A 
ATOM      6  C7  UNL d   1       5.689  -3.641   4.642  0.00  0.00    -0.073 A 
ATOM      7  C8  UNL d   1       5.997  -4.457   5.867  0.00  0.00     0.078 C 
ENDROOT
BRANCH   1   8
ATOM      8  C1  UNL d   1       5.991  -1.439   5.913  0.00  0.00     0.053 C 
ATOM      9  C   UNL d   1       5.992   0.062   5.668  0.00  0.00     0.018 C 
ENDBRANCH   1   8
TORSDOF 1
ENDMDL
