MODEL 1
REMARK minimizedAffinity 5.96744108
REMARK minimizedRMSD -1
REMARK  1 active torsions:
REMARK  status: ('A' for Active; 'I' for Inactive)
REMARK    1  A    between atoms: C1_2  and  C2_3 
ROOT
ATOM      1  C2  UNL d   1      -0.318  -0.943  -4.542  0.00  0.00    -0.076 A 
ATOM      2  C3  UNL d   1      -0.564  -2.116  -5.277  0.00  0.00     0.004 A 
ATOM      3  C4  UNL d   1      -1.746  -2.275  -5.998  0.00  0.00    -0.003 A 
ATOM      4  C5  UNL d   1      -2.700  -1.264  -5.997  0.00  0.00     0.000 A 
ATOM      5  C6  UNL d   1      -2.465  -0.087  -5.287  0.00  0.00     0.000 A 
ATOM      6  C7  UNL d   1      -1.272   0.097  -4.568  0.00  0.00    -0.073 A 
ATOM      7  C8  UNL d   1      -1.073   1.384  -3.816  0.00  0.00     0.078 C 
ENDROOT
BRANCH   1   8
ATOM      8  C1  UNL d   1       0.970  -0.838  -3.756  0.00  0.00     0.053 C 
ATOM      9  C   UNL d   1       2.059  -0.098  -4.518  0.00  0.00     0.018 C 
ENDBRANCH   1   8
TORSDOF 1
ENDMDL
