MODEL 1
REMARK minimizedAffinity 5.88836241
REMARK minimizedRMSD -1
REMARK  1 active torsions:
REMARK  status: ('A' for Active; 'I' for Inactive)
REMARK    1  A    between atoms: C1_2  and  C2_3 
ROOT
ATOM      1  C2  UNL d   1      -3.763  -1.741  -5.423  0.00  0.00    -0.076 A 
ATOM      2  C3  UNL d   1      -3.237  -0.457  -5.196  0.00  0.00     0.004 A 
ATOM      3  C4  UNL d   1      -1.863  -0.227  -5.238  0.00  0.00    -0.003 A 
ATOM      4  C5  UNL d   1      -0.992  -1.278  -5.508  0.00  0.00     0.000 A 
ATOM      5  C6  UNL d   1      -1.498  -2.554  -5.753  0.00  0.00     0.000 A 
ATOM      6  C7  UNL d   1      -2.882  -2.799  -5.730  0.00  0.00    -0.073 A 
ATOM      7  C8  UNL d   1      -3.372  -4.196  -5.995  0.00  0.00     0.078 C 
ENDROOT
BRANCH   1   8
ATOM      8  C1  UNL d   1      -5.260  -1.935  -5.338  0.00  0.00     0.053 C 
ATOM      9  C   UNL d   1      -5.719  -2.325  -3.941  0.00  0.00     0.018 C 
ENDBRANCH   1   8
TORSDOF 1
ENDMDL
