MODEL 1
REMARK minimizedAffinity 8.31078815
REMARK minimizedRMSD -1
REMARK  1 active torsions:
REMARK  status: ('A' for Active; 'I' for Inactive)
REMARK    1  A    between atoms: C1_2  and  C2_3 
ROOT
ATOM      1  C2  UNL d   1      -2.233  -2.165  -5.987  0.00  0.00    -0.076 A 
ATOM      2  C3  UNL d   1      -3.071  -3.294  -5.999  0.00  0.00     0.004 A 
ATOM      3  C4  UNL d   1      -4.458  -3.158  -5.990  0.00  0.00    -0.003 A 
ATOM      4  C5  UNL d   1      -5.030  -1.891  -5.969  0.00  0.00     0.000 A 
ATOM      5  C6  UNL d   1      -4.215  -0.760  -5.974  0.00  0.00     0.000 A 
ATOM      6  C7  UNL d   1      -2.814  -0.879  -6.000  0.00  0.00    -0.073 A 
ATOM      7  C8  UNL d   1      -1.983   0.374  -5.998  0.00  0.00     0.078 C 
ENDROOT
BRANCH   1   8
ATOM      8  C1  UNL d   1      -0.736  -2.375  -5.970  0.00  0.00     0.053 C 
ATOM      9  C   UNL d   1      -0.040  -1.520  -4.922  0.00  0.00     0.018 C 
ENDBRANCH   1   8
TORSDOF 1
ENDMDL
