MODEL 1
REMARK minimizedAffinity -2.17499757
REMARK minimizedRMSD -1
REMARK  0 active torsions:
REMARK  status: ('A' for Active; 'I' for Inactive)
ROOT
ATOM      1  C   UNL d   1      -2.373   0.760   0.398  0.00  0.00     0.020 A 
ATOM      2  C1  UNL d   1      -1.831   1.123   1.630  0.00  0.00     0.020 A 
ATOM      3  C2  UNL d   1      -0.508   0.794   1.934  0.00  0.00     0.034 A 
ATOM      4  C3  UNL d   1       0.276   0.101   1.006  0.00  0.00     0.017 A 
ATOM      5  C4  UNL d   1      -0.269  -0.263  -0.231  0.00  0.00     0.017 A 
ATOM      6  C5  UNL d   1      -1.594   0.069  -0.531  0.00  0.00     0.034 A 
ATOM      7 Cl   UNL d   1       0.637  -1.119  -1.428  0.00  0.00    -0.070 Cl
ATOM      8 Cl1  UNL d   1       1.904  -0.273   1.449  0.00  0.00    -0.070 Cl
ENDROOT
TORSDOF 0
ENDMDL
