MODEL 1
REMARK minimizedAffinity -1.91506028
REMARK minimizedRMSD -1
REMARK  0 active torsions:
REMARK  status: ('A' for Active; 'I' for Inactive)
ROOT
ATOM      1  C   UNL d   1      -1.238  -0.489  -0.289  0.00  0.00     0.020 A 
ATOM      2  C1  UNL d   1       0.013  -1.019  -0.603  0.00  0.00     0.020 A 
ATOM      3  C2  UNL d   1       1.110  -0.750   0.218  0.00  0.00     0.034 A 
ATOM      4  C3  UNL d   1       0.959   0.050   1.356  0.00  0.00     0.017 A 
ATOM      5  C4  UNL d   1      -0.298   0.581   1.670  0.00  0.00     0.017 A 
ATOM      6  C5  UNL d   1      -1.393   0.309   0.845  0.00  0.00     0.034 A 
ATOM      7 Cl   UNL d   1      -0.563   1.577   3.058  0.00  0.00    -0.070 Cl
ATOM      8 Cl1  UNL d   1       2.359   0.341   2.326  0.00  0.00    -0.070 Cl
ENDROOT
TORSDOF 0
ENDMDL
