MODEL 1
REMARK minimizedAffinity -2.80659008
REMARK minimizedRMSD -1
REMARK  0 active torsions:
REMARK  status: ('A' for Active; 'I' for Inactive)
ROOT
ATOM      1  C   UNL d   1       1.621  -0.474   0.425  0.00  0.00     0.020 A 
ATOM      2  C1  UNL d   1       0.781  -1.082  -0.508  0.00  0.00     0.020 A 
ATOM      3  C2  UNL d   1      -0.580  -0.772  -0.528  0.00  0.00     0.034 A 
ATOM      4  C3  UNL d   1      -1.106   0.148   0.387  0.00  0.00     0.017 A 
ATOM      5  C4  UNL d   1      -0.262   0.757   1.322  0.00  0.00     0.017 A 
ATOM      6  C5  UNL d   1       1.100   0.443   1.338  0.00  0.00     0.034 A 
ATOM      7 Cl   UNL d   1      -0.838   1.902   2.482  0.00  0.00    -0.070 Cl
ATOM      8 Cl1  UNL d   1      -2.799   0.484   0.305  0.00  0.00    -0.070 Cl
ENDROOT
TORSDOF 0
ENDMDL
