MODEL 1
REMARK minimizedAffinity -2.87264609
REMARK minimizedRMSD -1
REMARK  0 active torsions:
REMARK  status: ('A' for Active; 'I' for Inactive)
ROOT
ATOM      1  C   UNL d   1      -0.797   1.317   2.723  0.00  0.00     0.020 A 
ATOM      2  C1  UNL d   1       0.421   1.604   2.107  0.00  0.00     0.020 A 
ATOM      3  C2  UNL d   1       0.694   1.102   0.833  0.00  0.00     0.034 A 
ATOM      4  C3  UNL d   1      -0.251   0.309   0.172  0.00  0.00     0.017 A 
ATOM      5  C4  UNL d   1      -1.472   0.021   0.791  0.00  0.00     0.017 A 
ATOM      6  C5  UNL d   1      -1.741   0.526   2.067  0.00  0.00     0.034 A 
ATOM      7 Cl   UNL d   1      -2.687  -0.950   0.038  0.00  0.00    -0.070 Cl
ATOM      8 Cl1  UNL d   1       0.154  -0.279  -1.402  0.00  0.00    -0.070 Cl
ENDROOT
TORSDOF 0
ENDMDL
