MODEL 1
REMARK minimizedAffinity 0.0803605765
REMARK minimizedRMSD -1
REMARK  0 active torsions:
REMARK  status: ('A' for Active; 'I' for Inactive)
ROOT
ATOM      1  C   UNL d   1       0.166  -0.599  -1.893  0.00  0.00     0.020 A 
ATOM      2  C1  UNL d   1      -1.176  -0.328  -1.632  0.00  0.00     0.020 A 
ATOM      3  C2  UNL d   1      -1.583   0.005  -0.339  0.00  0.00     0.034 A 
ATOM      4  C3  UNL d   1      -0.647   0.068   0.700  0.00  0.00     0.017 A 
ATOM      5  C4  UNL d   1       0.701  -0.205   0.437  0.00  0.00     0.017 A 
ATOM      6  C5  UNL d   1       1.103  -0.538  -0.860  0.00  0.00     0.034 A 
ATOM      7 Cl   UNL d   1       1.914  -0.148   1.667  0.00  0.00    -0.070 Cl
ATOM      8 Cl1  UNL d   1      -1.220   0.486   2.275  0.00  0.00    -0.070 Cl
ENDROOT
TORSDOF 0
ENDMDL
