MODEL 1
REMARK minimizedAffinity -4.16425848
REMARK minimizedRMSD -1
REMARK  0 active torsions:
REMARK  status: ('A' for Active; 'I' for Inactive)
ROOT
ATOM      1  C   UNL d   1      -0.011  -0.655  -0.872  0.00  0.00     0.020 A 
ATOM      2  C1  UNL d   1      -1.284  -0.215  -0.510  0.00  0.00     0.020 A 
ATOM      3  C2  UNL d   1      -1.537   0.186   0.804  0.00  0.00     0.034 A 
ATOM      4  C3  UNL d   1      -0.515   0.150   1.760  0.00  0.00     0.017 A 
ATOM      5  C4  UNL d   1       0.762  -0.291   1.395  0.00  0.00     0.017 A 
ATOM      6  C5  UNL d   1       1.010  -0.692   0.079  0.00  0.00     0.034 A 
ATOM      7 Cl   UNL d   1       2.073  -0.364   2.519  0.00  0.00    -0.070 Cl
ATOM      8 Cl1  UNL d   1      -0.898   0.661   3.365  0.00  0.00    -0.070 Cl
ENDROOT
TORSDOF 0
ENDMDL
