MODEL 1
REMARK minimizedAffinity -2.17211294
REMARK minimizedRMSD -1
REMARK  0 active torsions:
REMARK  status: ('A' for Active; 'I' for Inactive)
ROOT
ATOM      1  C   UNL d   1      -2.218   0.664   1.552  0.00  0.00     0.020 A 
ATOM      2  C1  UNL d   1      -1.503   0.800   2.741  0.00  0.00     0.020 A 
ATOM      3  C2  UNL d   1      -0.127   0.559   2.760  0.00  0.00     0.034 A 
ATOM      4  C3  UNL d   1       0.537   0.181   1.588  0.00  0.00     0.017 A 
ATOM      5  C4  UNL d   1      -0.182   0.045   0.395  0.00  0.00     0.017 A 
ATOM      6  C5  UNL d   1      -1.559   0.287   0.382  0.00  0.00     0.034 A 
ATOM      7 Cl   UNL d   1       0.568  -0.419  -1.092  0.00  0.00    -0.070 Cl
ATOM      8 Cl1  UNL d   1       2.239  -0.101   1.684  0.00  0.00    -0.070 Cl
ENDROOT
TORSDOF 0
ENDMDL
