MODEL 1
REMARK minimizedAffinity -2.58462358
REMARK minimizedRMSD -1
REMARK  0 active torsions:
REMARK  status: ('A' for Active; 'I' for Inactive)
ROOT
ATOM      1  C   UNL d   1      -1.047   0.227  -0.757  0.00  0.00     0.020 A 
ATOM      2  C1  UNL d   1       0.201  -0.244  -1.162  0.00  0.00     0.020 A 
ATOM      3  C2  UNL d   1       1.223  -0.408  -0.225  0.00  0.00     0.034 A 
ATOM      4  C3  UNL d   1       1.000  -0.100   1.122  0.00  0.00     0.017 A 
ATOM      5  C4  UNL d   1      -0.253   0.373   1.528  0.00  0.00     0.017 A 
ATOM      6  C5  UNL d   1      -1.274   0.535   0.585  0.00  0.00     0.034 A 
ATOM      7 Cl   UNL d   1      -0.604   0.774   3.172  0.00  0.00    -0.070 Cl
ATOM      8 Cl1  UNL d   1       2.310  -0.326   2.226  0.00  0.00    -0.070 Cl
ENDROOT
TORSDOF 0
ENDMDL
