MODEL 1
REMARK minimizedAffinity -5.4254837
REMARK minimizedRMSD -1
REMARK  0 active torsions:
REMARK  status: ('A' for Active; 'I' for Inactive)
ROOT
ATOM      1  C   UNL d   1       1.440   0.862   3.134  0.00  0.00     0.020 A 
ATOM      2  C1  UNL d   1       0.135   1.177   3.511  0.00  0.00     0.020 A 
ATOM      3  C2  UNL d   1      -0.931   0.866   2.664  0.00  0.00     0.034 A 
ATOM      4  C3  UNL d   1      -0.694   0.240   1.435  0.00  0.00     0.017 A 
ATOM      5  C4  UNL d   1       0.616  -0.075   1.057  0.00  0.00     0.017 A 
ATOM      6  C5  UNL d   1       1.680   0.238   1.909  0.00  0.00     0.034 A 
ATOM      7 Cl   UNL d   1       0.987  -0.848  -0.443  0.00  0.00    -0.070 Cl
ATOM      8 Cl1  UNL d   1      -2.059  -0.115   0.438  0.00  0.00    -0.070 Cl
ENDROOT
TORSDOF 0
ENDMDL
