MODEL 1
REMARK minimizedAffinity -4.74492216
REMARK minimizedRMSD -1
REMARK  0 active torsions:
REMARK  status: ('A' for Active; 'I' for Inactive)
ROOT
ATOM      1  C   UNL d   1      -0.733  -1.035  -0.413  0.00  0.00     0.020 A 
ATOM      2  C1  UNL d   1      -1.857  -0.488   0.206  0.00  0.00     0.020 A 
ATOM      3  C2  UNL d   1      -1.707   0.335   1.324  0.00  0.00     0.034 A 
ATOM      4  C3  UNL d   1      -0.431   0.613   1.827  0.00  0.00     0.017 A 
ATOM      5  C4  UNL d   1       0.696   0.064   1.205  0.00  0.00     0.017 A 
ATOM      6  C5  UNL d   1       0.541  -0.759   0.086  0.00  0.00     0.034 A 
ATOM      7 Cl   UNL d   1       2.303   0.362   1.768  0.00  0.00    -0.070 Cl
ATOM      8 Cl1  UNL d   1      -0.320   1.640   3.213  0.00  0.00    -0.070 Cl
ENDROOT
TORSDOF 0
ENDMDL
