MODEL 1
REMARK minimizedAffinity 3.12065196
REMARK minimizedRMSD -1
REMARK  3 active torsions:
REMARK  status: ('A' for Active; 'I' for Inactive)
REMARK    1  A    between atoms: C3'_2  and  C2'_3 
REMARK    2  A    between atoms: C2'_3  and  C1'_4 
REMARK    3  A    between atoms: C1'_4  and  C1_5 
ROOT
ATOM      1  C1  N4B d   1      -1.615   1.546   2.903  0.00  0.00    -0.075 A 
ATOM      2  C2  N4B d   1      -1.121   2.291   3.995  0.00  0.00     0.002 A 
ATOM      3  C3  N4B d   1       0.226   2.533   4.108  0.00  0.00     0.002 A 
ATOM      4  C4  N4B d   1       1.096   2.026   3.155  0.00  0.00    -0.004 A 
ATOM      5  C5  N4B d   1       0.608   1.329   2.089  0.00  0.00     0.002 A 
ATOM      6  C6  N4B d   1      -0.744   1.081   1.961  0.00  0.00     0.002 A 
ENDROOT
BRANCH   1   7
ATOM      7  C1' N4B d   1      -3.070   1.183   2.782  0.00  0.00     0.057 C 
BRANCH   7   8
ATOM      8  C2' N4B d   1      -3.481   0.353   3.995  0.00  0.00     0.009 C 
BRANCH   8   9
ATOM      9  C3' N4B d   1      -4.124  -0.963   3.591  0.00  0.00     0.004 C 
ATOM     10  C4' N4B d   1      -3.859  -2.065   4.574  0.00  0.00     0.003 C 
ENDBRANCH   8   9
ENDBRANCH   7   8
ENDBRANCH   1   7
TORSDOF 3
ENDMDL
