MODEL 1
REMARK minimizedAffinity 12.6216087
REMARK minimizedRMSD -1
REMARK  3 active torsions:
REMARK  status: ('A' for Active; 'I' for Inactive)
REMARK    1  A    between atoms: C3'_2  and  C2'_3 
REMARK    2  A    between atoms: C2'_3  and  C1'_4 
REMARK    3  A    between atoms: C1'_4  and  C1_5 
ROOT
ATOM      1  C1  N4B d   1      -1.103   2.391  -4.065  0.00  0.00    -0.075 A 
ATOM      2  C2  N4B d   1      -1.484   3.619  -3.481  0.00  0.00     0.002 A 
ATOM      3  C3  N4B d   1      -2.294   4.487  -4.172  0.00  0.00     0.002 A 
ATOM      4  C4  N4B d   1      -2.717   4.158  -5.451  0.00  0.00    -0.004 A 
ATOM      5  C5  N4B d   1      -2.365   2.959  -5.998  0.00  0.00     0.002 A 
ATOM      6  C6  N4B d   1      -1.555   2.076  -5.314  0.00  0.00     0.002 A 
ENDROOT
BRANCH   1   7
ATOM      7  C1' N4B d   1      -0.149   1.449  -3.383  0.00  0.00     0.057 C 
BRANCH   7   8
ATOM      8  C2' N4B d   1       1.280   1.809  -3.779  0.00  0.00     0.009 C 
BRANCH   8   9
ATOM      9  C3' N4B d   1       2.270   1.511  -2.666  0.00  0.00     0.004 C 
ATOM     10  C4' N4B d   1       2.205   0.088  -2.197  0.00  0.00     0.003 C 
ENDBRANCH   8   9
ENDBRANCH   7   8
ENDBRANCH   1   7
TORSDOF 3
ENDMDL
