MODEL 1
REMARK minimizedAffinity 14.4833431
REMARK minimizedRMSD -1
REMARK  3 active torsions:
REMARK  status: ('A' for Active; 'I' for Inactive)
REMARK    1  A    between atoms: C3'_2  and  C2'_3 
REMARK    2  A    between atoms: C2'_3  and  C1'_4 
REMARK    3  A    between atoms: C1'_4  and  C1_5 
ROOT
ATOM      1  C1  N4B d   1      -3.027  -3.550  -3.754  0.00  0.00    -0.075 A 
ATOM      2  C2  N4B d   1      -1.687  -3.115  -3.659  0.00  0.00     0.002 A 
ATOM      3  C3  N4B d   1      -0.822  -3.741  -2.796  0.00  0.00     0.002 A 
ATOM      4  C4  N4B d   1      -1.276  -4.787  -2.008  0.00  0.00    -0.004 A 
ATOM      5  C5  N4B d   1      -2.566  -5.218  -2.124  0.00  0.00     0.002 A 
ATOM      6  C6  N4B d   1      -3.445  -4.601  -2.990  0.00  0.00     0.002 A 
ENDROOT
BRANCH   1   7
ATOM      7  C1' N4B d   1      -4.033  -2.841  -4.620  0.00  0.00     0.057 C 
BRANCH   7   8
ATOM      8  C2' N4B d   1      -4.250  -3.647  -5.897  0.00  0.00     0.009 C 
BRANCH   8   9
ATOM      9  C3' N4B d   1      -5.548  -4.435  -5.859  0.00  0.00     0.004 C 
ATOM     10  C4' N4B d   1      -5.335  -5.913  -5.999  0.00  0.00     0.003 C 
ENDBRANCH   8   9
ENDBRANCH   7   8
ENDBRANCH   1   7
TORSDOF 3
ENDMDL
