MODEL 1
REMARK minimizedAffinity 9.20461082
REMARK minimizedRMSD -1
REMARK  3 active torsions:
REMARK  status: ('A' for Active; 'I' for Inactive)
REMARK    1  A    between atoms: C3'_2  and  C2'_3 
REMARK    2  A    between atoms: C2'_3  and  C1'_4 
REMARK    3  A    between atoms: C1'_4  and  C1_5 
ROOT
ATOM      1  C1  N4B d   1       1.294   1.016   0.942  0.00  0.00    -0.075 A 
ATOM      2  C2  N4B d   1       2.611   1.460   0.694  0.00  0.00     0.002 A 
ATOM      3  C3  N4B d   1       3.246   1.109  -0.472  0.00  0.00     0.002 A 
ATOM      4  C4  N4B d   1       2.594   0.302  -1.392  0.00  0.00    -0.004 A 
ATOM      5  C5  N4B d   1       1.312  -0.102  -1.156  0.00  0.00     0.002 A 
ATOM      6  C6  N4B d   1       0.660   0.248   0.009  0.00  0.00     0.002 A 
ENDROOT
BRANCH   1   7
ATOM      7  C1' N4B d   1       0.590   1.304   2.240  0.00  0.00     0.057 C 
BRANCH   7   8
ATOM      8  C2' N4B d   1      -0.899   1.498   1.970  0.00  0.00     0.009 C 
BRANCH   8   9
ATOM      9  C3' N4B d   1      -1.746   1.157   3.184  0.00  0.00     0.004 C 
ATOM     10  C4' N4B d   1      -3.217   1.197   2.896  0.00  0.00     0.003 C 
ENDBRANCH   8   9
ENDBRANCH   7   8
ENDBRANCH   1   7
TORSDOF 3
ENDMDL
