MODEL 1
REMARK minimizedAffinity 13.8561096
REMARK minimizedRMSD -1
REMARK  3 active torsions:
REMARK  status: ('A' for Active; 'I' for Inactive)
REMARK    1  A    between atoms: C3'_2  and  C2'_3 
REMARK    2  A    between atoms: C2'_3  and  C1'_4 
REMARK    3  A    between atoms: C1'_4  and  C1_5 
ROOT
ATOM      1  C1  N4B d   1      -0.152   4.895  -2.669  0.00  0.00    -0.075 A 
ATOM      2  C2  N4B d   1       1.029   4.132  -2.807  0.00  0.00     0.002 A 
ATOM      3  C3  N4B d   1       2.056   4.288  -1.909  0.00  0.00     0.002 A 
ATOM      4  C4  N4B d   1       1.933   5.210  -0.880  0.00  0.00    -0.004 A 
ATOM      5  C5  N4B d   1       0.780   5.924  -0.739  0.00  0.00     0.002 A 
ATOM      6  C6  N4B d   1      -0.263   5.775  -1.631  0.00  0.00     0.002 A 
ENDROOT
BRANCH   1   7
ATOM      7  C1' N4B d   1      -1.267   4.821  -3.675  0.00  0.00     0.057 C 
BRANCH   7   8
ATOM      8  C2' N4B d   1      -1.812   3.396  -3.716  0.00  0.00     0.009 C 
BRANCH   8   9
ATOM      9  C3' N4B d   1      -2.059   2.922  -5.138  0.00  0.00     0.004 C 
ATOM     10  C4' N4B d   1      -0.832   3.000  -5.997  0.00  0.00     0.003 C 
ENDBRANCH   8   9
ENDBRANCH   7   8
ENDBRANCH   1   7
TORSDOF 3
ENDMDL
