MODEL 1
REMARK minimizedAffinity 10.5460443
REMARK minimizedRMSD -1
REMARK  3 active torsions:
REMARK  status: ('A' for Active; 'I' for Inactive)
REMARK    1  A    between atoms: C3'_2  and  C2'_3 
REMARK    2  A    between atoms: C2'_3  and  C1'_4 
REMARK    3  A    between atoms: C1'_4  and  C1_5 
ROOT
ATOM      1  C1  N4B d   1      -3.588   1.469   3.904  0.00  0.00    -0.075 A 
ATOM      2  C2  N4B d   1      -3.292   1.779   5.250  0.00  0.00     0.002 A 
ATOM      3  C3  N4B d   1      -4.186   2.505   5.999  0.00  0.00     0.002 A 
ATOM      4  C4  N4B d   1      -5.367   2.945   5.422  0.00  0.00    -0.004 A 
ATOM      5  C5  N4B d   1      -5.657   2.619   4.129  0.00  0.00     0.002 A 
ATOM      6  C6  N4B d   1      -4.770   1.887   3.365  0.00  0.00     0.002 A 
ENDROOT
BRANCH   1   7
ATOM      7  C1' N4B d   1      -2.604   0.752   3.020  0.00  0.00     0.057 C 
BRANCH   7   8
ATOM      8  C2' N4B d   1      -1.689   1.776   2.356  0.00  0.00     0.009 C 
BRANCH   8   9
ATOM      9  C3' N4B d   1      -0.246   1.306   2.313  0.00  0.00     0.004 C 
ATOM     10  C4' N4B d   1       0.369   1.195   3.676  0.00  0.00     0.003 C 
ENDBRANCH   8   9
ENDBRANCH   7   8
ENDBRANCH   1   7
TORSDOF 3
ENDMDL
