MODEL 1
REMARK minimizedAffinity 24.1463299
REMARK minimizedRMSD -1
REMARK  3 active torsions:
REMARK  status: ('A' for Active; 'I' for Inactive)
REMARK    1  A    between atoms: C3'_2  and  C2'_3 
REMARK    2  A    between atoms: C2'_3  and  C1'_4 
REMARK    3  A    between atoms: C1'_4  and  C1_5 
ROOT
ATOM      1  C1  N4B d   1      -1.437   4.820  -4.209  0.00  0.00    -0.075 A 
ATOM      2  C2  N4B d   1      -2.244   4.977  -5.358  0.00  0.00     0.002 A 
ATOM      3  C3  N4B d   1      -2.748   3.873  -5.999  0.00  0.00     0.002 A 
ATOM      4  C4  N4B d   1      -2.444   2.606  -5.524  0.00  0.00    -0.004 A 
ATOM      5  C5  N4B d   1      -1.685   2.463  -4.400  0.00  0.00     0.002 A 
ATOM      6  C6  N4B d   1      -1.175   3.565  -3.742  0.00  0.00     0.002 A 
ENDROOT
BRANCH   1   7
ATOM      7  C1' N4B d   1      -0.794   5.994  -3.524  0.00  0.00     0.057 C 
BRANCH   7   8
ATOM      8  C2' N4B d   1      -0.407   5.595  -2.103  0.00  0.00     0.009 C 
BRANCH   8   9
ATOM      9  C3' N4B d   1       1.097   5.624  -1.894  0.00  0.00     0.004 C 
ATOM     10  C4' N4B d   1       1.491   5.358  -0.472  0.00  0.00     0.003 C 
ENDBRANCH   8   9
ENDBRANCH   7   8
ENDBRANCH   1   7
TORSDOF 3
ENDMDL
