MODEL 1
REMARK minimizedAffinity 11.129447
REMARK minimizedRMSD -1
REMARK  3 active torsions:
REMARK  status: ('A' for Active; 'I' for Inactive)
REMARK    1  A    between atoms: C3'_2  and  C2'_3 
REMARK    2  A    between atoms: C2'_3  and  C1'_4 
REMARK    3  A    between atoms: C1'_4  and  C1_5 
ROOT
ATOM      1  C1  N4B d   1      -3.740   0.846   4.447  0.00  0.00    -0.075 A 
ATOM      2  C2  N4B d   1      -4.571   1.490   3.505  0.00  0.00     0.002 A 
ATOM      3  C3  N4B d   1      -5.203   2.663   3.836  0.00  0.00     0.002 A 
ATOM      4  C4  N4B d   1      -5.035   3.199   5.104  0.00  0.00    -0.004 A 
ATOM      5  C5  N4B d   1      -4.210   2.583   6.000  0.00  0.00     0.002 A 
ATOM      6  C6  N4B d   1      -3.565   1.406   5.679  0.00  0.00     0.002 A 
ENDROOT
BRANCH   1   7
ATOM      7  C1' N4B d   1      -3.096  -0.483   4.160  0.00  0.00     0.057 C 
BRANCH   7   8
ATOM      8  C2' N4B d   1      -3.413  -1.450   5.298  0.00  0.00     0.009 C 
BRANCH   8   9
ATOM      9  C3' N4B d   1      -4.213  -2.649   4.818  0.00  0.00     0.004 C 
ATOM     10  C4' N4B d   1      -3.894  -3.901   5.579  0.00  0.00     0.003 C 
ENDBRANCH   8   9
ENDBRANCH   7   8
ENDBRANCH   1   7
TORSDOF 3
ENDMDL
