MODEL 1
REMARK minimizedAffinity 9.97830963
REMARK minimizedRMSD -1
REMARK  3 active torsions:
REMARK  status: ('A' for Active; 'I' for Inactive)
REMARK    1  A    between atoms: C3'_2  and  C2'_3 
REMARK    2  A    between atoms: C2'_3  and  C1'_4 
REMARK    3  A    between atoms: C1'_4  and  C1_5 
ROOT
ATOM      1  C1  N4B d   1      -2.241   5.173  -4.235  0.00  0.00    -0.075 A 
ATOM      2  C2  N4B d   1      -2.195   3.762  -4.247  0.00  0.00     0.002 A 
ATOM      3  C3  N4B d   1      -2.973   3.058  -5.133  0.00  0.00     0.002 A 
ATOM      4  C4  N4B d   1      -3.815   3.740  -6.000  0.00  0.00    -0.004 A 
ATOM      5  C5  N4B d   1      -3.833   5.104  -5.998  0.00  0.00     0.002 A 
ATOM      6  C6  N4B d   1      -3.054   5.824  -5.116  0.00  0.00     0.002 A 
ENDROOT
BRANCH   1   7
ATOM      7  C1' N4B d   1      -1.473   5.983  -3.226  0.00  0.00     0.057 C 
BRANCH   7   8
ATOM      8  C2' N4B d   1      -0.299   5.157  -2.709  0.00  0.00     0.009 C 
BRANCH   8   9
ATOM      9  C3' N4B d   1       0.552   5.936  -1.721  0.00  0.00     0.004 C 
ATOM     10  C4' N4B d   1       1.795   5.200  -1.319  0.00  0.00     0.003 C 
ENDBRANCH   8   9
ENDBRANCH   7   8
ENDBRANCH   1   7
TORSDOF 3
ENDMDL
