MODEL 1
REMARK minimizedAffinity 19.9952755
REMARK minimizedRMSD -1
REMARK  3 active torsions:
REMARK  status: ('A' for Active; 'I' for Inactive)
REMARK    1  A    between atoms: C3'_2  and  C2'_3 
REMARK    2  A    between atoms: C2'_3  and  C1'_4 
REMARK    3  A    between atoms: C1'_4  and  C1_5 
ROOT
ATOM      1  C1  N4B d   1      -3.496   1.225   3.907  0.00  0.00    -0.075 A 
ATOM      2  C2  N4B d   1      -3.163   1.564   5.237  0.00  0.00     0.002 A 
ATOM      3  C3  N4B d   1      -4.041   2.294   6.000  0.00  0.00     0.002 A 
ATOM      4  C4  N4B d   1      -5.245   2.711   5.451  0.00  0.00    -0.004 A 
ATOM      5  C5  N4B d   1      -5.570   2.357   4.174  0.00  0.00     0.002 A 
ATOM      6  C6  N4B d   1      -4.699   1.621   3.397  0.00  0.00     0.002 A 
ENDROOT
BRANCH   1   7
ATOM      7  C1' N4B d   1      -2.532   0.502   3.006  0.00  0.00     0.057 C 
BRANCH   7   8
ATOM      8  C2' N4B d   1      -1.443   1.472   2.557  0.00  0.00     0.009 C 
BRANCH   8   9
ATOM      9  C3' N4B d   1      -0.059   0.853   2.646  0.00  0.00     0.004 C 
ATOM     10  C4' N4B d   1       0.808   1.515   3.675  0.00  0.00     0.003 C 
ENDBRANCH   8   9
ENDBRANCH   7   8
ENDBRANCH   1   7
TORSDOF 3
ENDMDL
