MODEL 1
REMARK minimizedAffinity 8.15854168
REMARK minimizedRMSD -1
REMARK  3 active torsions:
REMARK  status: ('A' for Active; 'I' for Inactive)
REMARK    1  A    between atoms: C3'_2  and  C2'_3 
REMARK    2  A    between atoms: C2'_3  and  C1'_4 
REMARK    3  A    between atoms: C1'_4  and  C1_5 
ROOT
ATOM      1  C1  N4B d   1      -1.665   0.495   2.766  0.00  0.00    -0.075 A 
ATOM      2  C2  N4B d   1      -2.055  -0.851   2.589  0.00  0.00     0.002 A 
ATOM      3  C3  N4B d   1      -3.363  -1.218   2.790  0.00  0.00     0.002 A 
ATOM      4  C4  N4B d   1      -4.290  -0.265   3.184  0.00  0.00    -0.004 A 
ATOM      5  C5  N4B d   1      -3.910   1.037   3.328  0.00  0.00     0.002 A 
ATOM      6  C6  N4B d   1      -2.600   1.421   3.126  0.00  0.00     0.002 A 
ENDROOT
BRANCH   1   7
ATOM      7  C1' N4B d   1      -0.229   0.928   2.642  0.00  0.00     0.057 C 
BRANCH   7   8
ATOM      8  C2' N4B d   1       0.064   1.995   3.693  0.00  0.00     0.009 C 
BRANCH   8   9
ATOM      9  C3' N4B d   1       1.288   1.651   4.524  0.00  0.00     0.004 C 
ATOM     10  C4' N4B d   1       1.028   1.726   5.999  0.00  0.00     0.003 C 
ENDBRANCH   8   9
ENDBRANCH   7   8
ENDBRANCH   1   7
TORSDOF 3
ENDMDL
