MODEL 1
REMARK minimizedAffinity -2.1464684
REMARK minimizedRMSD -1
REMARK  1 active torsions:
REMARK  status: ('A' for Active; 'I' for Inactive)
REMARK    1  A    between atoms: C1_2  and  C2_3 
ROOT
ATOM      1  C2  UNL d   1       0.374   0.042  -1.314  0.00  0.00    -0.073 A 
ATOM      2  C3  UNL d   1       1.563   0.765  -1.465  0.00  0.00    -0.002 A 
ATOM      3  C4  UNL d   1       1.959   1.215  -2.725  0.00  0.00     0.004 A 
ATOM      4  C5  UNL d   1       1.168   0.953  -3.844  0.00  0.00    -0.004 A 
ATOM      5  C6  UNL d   1      -0.029   0.242  -3.712  0.00  0.00    -0.075 A 
ATOM      6  C7  UNL d   1      -0.889  -0.049  -4.906  0.00  0.00     0.076 C 
ATOM      7  C8  UNL d   1      -0.418  -0.209  -2.443  0.00  0.00     0.001 A 
ENDROOT
BRANCH   1   8
ATOM      8  C1  UNL d   1      -0.060  -0.441   0.046  0.00  0.00     0.053 C 
ATOM      9  C   UNL d   1      -0.547   0.699   0.927  0.00  0.00     0.018 C 
ENDBRANCH   1   8
TORSDOF 1
ENDMDL
