MODEL 1
REMARK minimizedAffinity -1.84933233
REMARK minimizedRMSD -1
REMARK  1 active torsions:
REMARK  status: ('A' for Active; 'I' for Inactive)
REMARK    1  A    between atoms: C1_2  and  C2_3 
ROOT
ATOM      1  C2  UNL d   1       0.455   0.080  -0.896  0.00  0.00    -0.073 A 
ATOM      2  C3  UNL d   1      -0.663  -0.739  -1.090  0.00  0.00    -0.002 A 
ATOM      3  C4  UNL d   1      -1.699  -0.750  -0.154  0.00  0.00     0.004 A 
ATOM      4  C5  UNL d   1      -1.630   0.061   0.978  0.00  0.00    -0.004 A 
ATOM      5  C6  UNL d   1      -0.526   0.895   1.183  0.00  0.00    -0.075 A 
ATOM      6  C7  UNL d   1      -0.437   1.772   2.397  0.00  0.00     0.076 C 
ATOM      7  C8  UNL d   1       0.511   0.898   0.241  0.00  0.00     0.001 A 
ENDROOT
BRANCH   1   8
ATOM      8  C1  UNL d   1       1.573   0.100  -1.907  0.00  0.00     0.053 C 
ATOM      9  C   UNL d   1       1.051   0.091  -3.335  0.00  0.00     0.018 C 
ENDBRANCH   1   8
TORSDOF 1
ENDMDL
