MODEL 1
REMARK minimizedAffinity -4.80151033
REMARK minimizedRMSD -1
REMARK  1 active torsions:
REMARK  status: ('A' for Active; 'I' for Inactive)
REMARK    1  A    between atoms: C1_2  and  C2_3 
ROOT
ATOM      1  C2  UNL d   1      -0.088  -0.223  -0.325  0.00  0.00    -0.073 A 
ATOM      2  C3  UNL d   1      -1.422  -0.645  -0.372  0.00  0.00    -0.002 A 
ATOM      3  C4  UNL d   1      -2.337  -0.197   0.582  0.00  0.00     0.004 A 
ATOM      4  C5  UNL d   1      -1.931   0.680   1.587  0.00  0.00    -0.004 A 
ATOM      5  C6  UNL d   1      -0.605   1.123   1.644  0.00  0.00    -0.075 A 
ATOM      6  C7  UNL d   1      -0.152   2.066   2.719  0.00  0.00     0.076 C 
ATOM      7  C8  UNL d   1       0.308   0.667   0.684  0.00  0.00     0.001 A 
ENDROOT
BRANCH   1   8
ATOM      8  C1  UNL d   1       0.902  -0.698  -1.357  0.00  0.00     0.053 C 
ATOM      9  C   UNL d   1       0.640  -0.084  -2.723  0.00  0.00     0.018 C 
ENDBRANCH   1   8
TORSDOF 1
ENDMDL
