MODEL 1
REMARK minimizedAffinity -4.6554265
REMARK minimizedRMSD -1
REMARK  1 active torsions:
REMARK  status: ('A' for Active; 'I' for Inactive)
REMARK    1  A    between atoms: C1_2  and  C2_3 
ROOT
ATOM      1  C2  UNL d   1      -1.536   0.084   2.483  0.00  0.00    -0.073 A 
ATOM      2  C3  UNL d   1      -0.652   0.954   3.131  0.00  0.00    -0.002 A 
ATOM      3  C4  UNL d   1       0.591   1.244   2.567  0.00  0.00     0.004 A 
ATOM      4  C5  UNL d   1       0.960   0.674   1.349  0.00  0.00    -0.004 A 
ATOM      5  C6  UNL d   1       0.085  -0.189   0.680  0.00  0.00    -0.075 A 
ATOM      6  C7  UNL d   1       0.467  -0.812  -0.630  0.00  0.00     0.076 C 
ATOM      7  C8  UNL d   1      -1.161  -0.477   1.254  0.00  0.00     0.001 A 
ENDROOT
BRANCH   1   8
ATOM      8  C1  UNL d   1      -2.882  -0.227   3.085  0.00  0.00     0.053 C 
ATOM      9  C   UNL d   1      -2.874  -1.541   3.850  0.00  0.00     0.018 C 
ENDBRANCH   1   8
TORSDOF 1
ENDMDL
