MODEL 1
REMARK minimizedAffinity -4.16719246
REMARK minimizedRMSD -1
REMARK  1 active torsions:
REMARK  status: ('A' for Active; 'I' for Inactive)
REMARK    1  A    between atoms: C1_2  and  C2_3 
ROOT
ATOM      1  C2  UNL d   1      -0.510   0.499   0.858  0.00  0.00    -0.073 A 
ATOM      2  C3  UNL d   1      -1.878   0.291   0.645  0.00  0.00    -0.002 A 
ATOM      3  C4  UNL d   1      -2.328  -0.266  -0.553  0.00  0.00     0.004 A 
ATOM      4  C5  UNL d   1      -1.417  -0.628  -1.545  0.00  0.00    -0.004 A 
ATOM      5  C6  UNL d   1      -0.045  -0.439  -1.346  0.00  0.00    -0.075 A 
ATOM      6  C7  UNL d   1       0.948  -0.821  -2.404  0.00  0.00     0.076 C 
ATOM      7  C8  UNL d   1       0.399   0.124  -0.142  0.00  0.00     0.001 A 
ENDROOT
BRANCH   1   8
ATOM      8  C1  UNL d   1      -0.019   1.095   2.152  0.00  0.00     0.053 C 
ATOM      9  C   UNL d   1      -1.165   1.472   3.077  0.00  0.00     0.018 C 
ENDBRANCH   1   8
TORSDOF 1
ENDMDL
