MODEL 1
REMARK minimizedAffinity -1.49502432
REMARK minimizedRMSD -1
REMARK  0 active torsions:
REMARK  status: ('A' for Active; 'I' for Inactive)
ROOT
ATOM      1  C4' PXY d   1       1.130  -1.097  -0.727  0.00  0.00     0.077 C 
ATOM      2  C1' PXY d   1      -3.818  -1.653  -3.662  0.00  0.00     0.077 C 
ATOM      3  C1  PXY d   1      -2.514  -1.505  -2.904  0.00  0.00    -0.082 A 
ATOM      4  C2  PXY d   1      -2.391  -2.047  -1.703  0.00  0.00     0.003 A 
ATOM      5  C3  PXY d   1      -1.230  -1.896  -0.989  0.00  0.00     0.003 A 
ATOM      6  C4  PXY d   1      -0.165  -1.229  -1.533  0.00  0.00    -0.082 A 
ATOM      7  C5  PXY d   1      -0.279  -0.682  -2.762  0.00  0.00     0.003 A 
ATOM      8  C6  PXY d   1      -1.480  -0.812  -3.453  0.00  0.00     0.003 A 
ENDROOT
TORSDOF 0
ENDMDL
