MODEL 1
REMARK minimizedAffinity 0.102682084
REMARK minimizedRMSD -1
REMARK  0 active torsions:
REMARK  status: ('A' for Active; 'I' for Inactive)
ROOT
ATOM      1  C4' PXY d   1      -1.728  -2.347  -1.366  0.00  0.00     0.077 C 
ATOM      2  C1' PXY d   1       1.036   1.458   1.995  0.00  0.00     0.077 C 
ATOM      3  C1  PXY d   1       0.320   0.462   1.104  0.00  0.00    -0.082 A 
ATOM      4  C2  PXY d   1      -0.972   0.237   1.280  0.00  0.00     0.003 A 
ATOM      5  C3  PXY d   1      -1.628  -0.684   0.505  0.00  0.00     0.003 A 
ATOM      6  C4  PXY d   1      -0.967  -1.343  -0.497  0.00  0.00    -0.082 A 
ATOM      7  C5  PXY d   1       0.349  -1.111  -0.690  0.00  0.00     0.003 A 
ATOM      8  C6  PXY d   1       1.006  -0.203   0.135  0.00  0.00     0.003 A 
ENDROOT
TORSDOF 0
ENDMDL
