MODEL 1
REMARK minimizedAffinity -2.70748401
REMARK minimizedRMSD -1
REMARK  0 active torsions:
REMARK  status: ('A' for Active; 'I' for Inactive)
ROOT
ATOM      1  C4' PXY d   1      -0.419   0.826   0.689  0.00  0.00     0.077 C 
ATOM      2  C1' PXY d   1       4.737   2.160   2.937  0.00  0.00     0.077 C 
ATOM      3  C1  PXY d   1       3.379   1.811   2.359  0.00  0.00    -0.082 A 
ATOM      4  C2  PXY d   1       3.305   1.100   1.246  0.00  0.00     0.003 A 
ATOM      5  C3  PXY d   1       2.086   0.803   0.693  0.00  0.00     0.003 A 
ATOM      6  C4  PXY d   1       0.930   1.193   1.314  0.00  0.00    -0.082 A 
ATOM      7  C5  PXY d   1       0.997   1.910   2.455  0.00  0.00     0.003 A 
ATOM      8  C6  PXY d   1       2.245   2.236   2.979  0.00  0.00     0.003 A 
ENDROOT
TORSDOF 0
ENDMDL
