MODEL 1
REMARK minimizedAffinity 3.60965371
REMARK minimizedRMSD -1
REMARK  0 active torsions:
REMARK  status: ('A' for Active; 'I' for Inactive)
ROOT
ATOM      1  C4' PXY d   1       2.565  -0.347  -1.300  0.00  0.00     0.077 C 
ATOM      2  C1' PXY d   1      -1.650   1.085   2.388  0.00  0.00     0.077 C 
ATOM      3  C1  PXY d   1      -0.543   0.722   1.417  0.00  0.00    -0.082 A 
ATOM      4  C2  PXY d   1      -0.471  -0.509   0.939  0.00  0.00     0.003 A 
ATOM      5  C3  PXY d   1       0.542  -0.863   0.085  0.00  0.00     0.003 A 
ATOM      6  C4  PXY d   1       1.459   0.067  -0.325  0.00  0.00    -0.082 A 
ATOM      7  C5  PXY d   1       1.386   1.328   0.151  0.00  0.00     0.003 A 
ATOM      8  C6  PXY d   1       0.374   1.657   1.049  0.00  0.00     0.003 A 
ENDROOT
TORSDOF 0
ENDMDL
