MODEL 1
REMARK minimizedAffinity 2.61769152
REMARK minimizedRMSD -1
REMARK  0 active torsions:
REMARK  status: ('A' for Active; 'I' for Inactive)
ROOT
ATOM      1  C4' PXY d   1      -0.343  -1.771   2.241  0.00  0.00     0.077 C 
ATOM      2  C1' PXY d   1      -3.358  -6.000  -0.297  0.00  0.00     0.077 C 
ATOM      3  C1  PXY d   1      -2.563  -4.899   0.378  0.00  0.00    -0.082 A 
ATOM      4  C2  PXY d   1      -2.907  -3.635   0.190  0.00  0.00     0.003 A 
ATOM      5  C3  PXY d   1      -2.180  -2.626   0.767  0.00  0.00     0.003 A 
ATOM      6  C4  PXY d   1      -1.122  -2.916   1.587  0.00  0.00    -0.082 A 
ATOM      7  C5  PXY d   1      -0.772  -4.203   1.791  0.00  0.00     0.003 A 
ATOM      8  C6  PXY d   1      -1.498  -5.211   1.164  0.00  0.00     0.003 A 
ENDROOT
TORSDOF 0
ENDMDL
