MODEL 1
REMARK minimizedAffinity -0.716908157
REMARK minimizedRMSD -1
REMARK  0 active torsions:
REMARK  status: ('A' for Active; 'I' for Inactive)
ROOT
ATOM      1  C4' PXY d   1      -1.227  -1.852  -3.508  0.00  0.00     0.077 C 
ATOM      2  C1' PXY d   1       2.288   1.984  -0.991  0.00  0.00     0.077 C 
ATOM      3  C1  PXY d   1       1.358   0.988  -1.654  0.00  0.00    -0.082 A 
ATOM      4  C2  PXY d   1       1.392  -0.283  -1.287  0.00  0.00     0.003 A 
ATOM      5  C3  PXY d   1       0.580  -1.203  -1.899  0.00  0.00     0.003 A 
ATOM      6  C4  PXY d   1      -0.313  -0.810  -2.859  0.00  0.00    -0.082 A 
ATOM      7  C5  PXY d   1      -0.361   0.487  -3.231  0.00  0.00     0.003 A 
ATOM      8  C6  PXY d   1       0.500   1.398  -2.627  0.00  0.00     0.003 A 
ENDROOT
TORSDOF 0
ENDMDL
