MODEL 1
REMARK minimizedAffinity 0.99322176
REMARK minimizedRMSD -1
REMARK  0 active torsions:
REMARK  status: ('A' for Active; 'I' for Inactive)
ROOT
ATOM      1  C4' PXY d   1      -0.910   3.579  -0.214  0.00  0.00     0.077 C 
ATOM      2  C1' PXY d   1       0.924   0.481   4.309  0.00  0.00     0.077 C 
ATOM      3  C1  PXY d   1       0.455   1.298   3.121  0.00  0.00    -0.082 A 
ATOM      4  C2  PXY d   1      -0.823   1.621   3.013  0.00  0.00     0.003 A 
ATOM      5  C3  PXY d   1      -1.270   2.333   1.929  0.00  0.00     0.003 A 
ATOM      6  C4  PXY d   1      -0.390   2.763   0.973  0.00  0.00    -0.082 A 
ATOM      7  C5  PXY d   1       0.918   2.447   1.081  0.00  0.00     0.003 A 
ATOM      8  C6  PXY d   1       1.344   1.689   2.168  0.00  0.00     0.003 A 
ENDROOT
TORSDOF 0
ENDMDL
