MODEL 1
REMARK minimizedAffinity 6.10748625
REMARK minimizedRMSD -1
REMARK  0 active torsions:
REMARK  status: ('A' for Active; 'I' for Inactive)
ROOT
ATOM      1  C4' PXY d   1      -2.510  -1.470  -0.783  0.00  0.00     0.077 C 
ATOM      2  C1' PXY d   1       0.564   2.049   2.620  0.00  0.00     0.077 C 
ATOM      3  C1  PXY d   1      -0.253   1.130   1.734  0.00  0.00    -0.082 A 
ATOM      4  C2  PXY d   1       0.329   0.094   1.152  0.00  0.00     0.003 A 
ATOM      5  C3  PXY d   1      -0.387  -0.729   0.322  0.00  0.00     0.003 A 
ATOM      6  C4  PXY d   1      -1.727  -0.521   0.128  0.00  0.00    -0.082 A 
ATOM      7  C5  PXY d   1      -2.331   0.527   0.726  0.00  0.00     0.003 A 
ATOM      8  C6  PXY d   1      -1.577   1.375   1.532  0.00  0.00     0.003 A 
ENDROOT
TORSDOF 0
ENDMDL
