MODEL 1
REMARK minimizedAffinity 3.60946703
REMARK minimizedRMSD -1
REMARK  0 active torsions:
REMARK  status: ('A' for Active; 'I' for Inactive)
ROOT
ATOM      1  C4' PXY d   1       4.415  -0.985  -0.951  0.00  0.00     0.077 C 
ATOM      2  C1' PXY d   1      -0.765   0.780  -2.813  0.00  0.00     0.077 C 
ATOM      3  C1  PXY d   1       0.592   0.323  -2.313  0.00  0.00    -0.082 A 
ATOM      4  C2  PXY d   1       1.531  -0.010  -3.184  0.00  0.00     0.003 A 
ATOM      5  C3  PXY d   1       2.753  -0.455  -2.749  0.00  0.00     0.003 A 
ATOM      6  C4  PXY d   1       3.034  -0.510  -1.410  0.00  0.00    -0.082 A 
ATOM      7  C5  PXY d   1       2.085  -0.162  -0.516  0.00  0.00     0.003 A 
ATOM      8  C6  PXY d   1       0.837   0.249  -0.977  0.00  0.00     0.003 A 
ENDROOT
TORSDOF 0
ENDMDL
