MODEL 1
REMARK minimizedAffinity 0.751093686
REMARK minimizedRMSD -1
REMARK  0 active torsions:
REMARK  status: ('A' for Active; 'I' for Inactive)
ROOT
ATOM      1  C4' PXY d   1      -0.959  -3.747   0.646  0.00  0.00     0.077 C 
ATOM      2  C1' PXY d   1      -5.731  -4.570  -2.511  0.00  0.00     0.077 C 
ATOM      3  C1  PXY d   1      -4.481  -4.366  -1.677  0.00  0.00    -0.082 A 
ATOM      4  C2  PXY d   1      -4.066  -3.138  -1.410  0.00  0.00     0.003 A 
ATOM      5  C3  PXY d   1      -2.920  -2.936  -0.685  0.00  0.00     0.003 A 
ATOM      6  C4  PXY d   1      -2.221  -4.000  -0.183  0.00  0.00    -0.082 A 
ATOM      7  C5  PXY d   1      -2.644  -5.256  -0.442  0.00  0.00     0.003 A 
ATOM      8  C6  PXY d   1      -3.787  -5.441  -1.215  0.00  0.00     0.003 A 
ENDROOT
TORSDOF 0
ENDMDL
