MODEL 1
REMARK minimizedAffinity 12.7535086
REMARK minimizedRMSD -1
REMARK  0 active torsions:
REMARK  status: ('A' for Active; 'I' for Inactive)
ROOT
ATOM      1  C4' PXY d   1      -2.315   3.388  -0.036  0.00  0.00     0.077 C 
ATOM      2  C1' PXY d   1       0.984   0.942   4.033  0.00  0.00     0.077 C 
ATOM      3  C1  PXY d   1       0.113   1.572   2.964  0.00  0.00    -0.082 A 
ATOM      4  C2  PXY d   1       0.519   2.674   2.355  0.00  0.00     0.003 A 
ATOM      5  C3  PXY d   1      -0.270   3.275   1.408  0.00  0.00     0.003 A 
ATOM      6  C4  PXY d   1      -1.464   2.712   1.043  0.00  0.00    -0.082 A 
ATOM      7  C5  PXY d   1      -1.880   1.582   1.652  0.00  0.00     0.003 A 
ATOM      8  C6  PXY d   1      -1.083   1.010   2.640  0.00  0.00     0.003 A 
ENDROOT
TORSDOF 0
ENDMDL
