MODEL 1
REMARK minimizedAffinity 2.7351532
REMARK minimizedRMSD -1
REMARK  0 active torsions:
REMARK  status: ('A' for Active; 'I' for Inactive)
ROOT
ATOM      1  C4' PXY d   1       2.516   0.727   1.175  0.00  0.00     0.077 C 
ATOM      2  C1' PXY d   1      -2.924   1.565   2.940  0.00  0.00     0.077 C 
ATOM      3  C1  PXY d   1      -1.498   1.333   2.481  0.00  0.00    -0.082 A 
ATOM      4  C2  PXY d   1      -0.674   2.361   2.360  0.00  0.00     0.003 A 
ATOM      5  C3  PXY d   1       0.610   2.173   1.916  0.00  0.00     0.003 A 
ATOM      6  C4  PXY d   1       1.071   0.913   1.643  0.00  0.00    -0.082 A 
ATOM      7  C5  PXY d   1       0.240  -0.142   1.774  0.00  0.00     0.003 A 
ATOM      8  C6  PXY d   1      -1.072   0.075   2.187  0.00  0.00     0.003 A 
ENDROOT
TORSDOF 0
ENDMDL
