MODEL 1
REMARK minimizedAffinity 9.60884857
REMARK minimizedRMSD -1
REMARK  0 active torsions:
REMARK  status: ('A' for Active; 'I' for Inactive)
ROOT
ATOM      1  C4' PXY d   1       2.548   1.143   1.132  0.00  0.00     0.077 C 
ATOM      2  C1' PXY d   1      -2.901   2.399   2.598  0.00  0.00     0.077 C 
ATOM      3  C1  PXY d   1      -1.471   2.061   2.223  0.00  0.00    -0.082 A 
ATOM      4  C2  PXY d   1      -0.745   2.942   1.555  0.00  0.00     0.003 A 
ATOM      5  C3  PXY d   1       0.539   2.640   1.180  0.00  0.00     0.003 A 
ATOM      6  C4  PXY d   1       1.103   1.445   1.539  0.00  0.00    -0.082 A 
ATOM      7  C5  PXY d   1       0.372   0.546   2.231  0.00  0.00     0.003 A 
ATOM      8  C6  PXY d   1      -0.943   0.855   2.566  0.00  0.00     0.003 A 
ENDROOT
TORSDOF 0
ENDMDL
