MODEL 1
REMARK minimizedAffinity 13.3076468
REMARK minimizedRMSD -1
REMARK  0 active torsions:
REMARK  status: ('A' for Active; 'I' for Inactive)
ROOT
ATOM      1  C4' PXY d   1      -3.686  -0.176   2.810  0.00  0.00     0.077 C 
ATOM      2  C1' PXY d   1       1.472   2.402   2.406  0.00  0.00     0.077 C 
ATOM      3  C1  PXY d   1       0.125   1.714   2.512  0.00  0.00    -0.082 A 
ATOM      4  C2  PXY d   1      -0.963   2.339   2.093  0.00  0.00     0.003 A 
ATOM      5  C3  PXY d   1      -2.193   1.745   2.211  0.00  0.00     0.003 A 
ATOM      6  C4  PXY d   1      -2.304   0.476   2.714  0.00  0.00    -0.082 A 
ATOM      7  C5  PXY d   1      -1.197  -0.172   3.134  0.00  0.00     0.003 A 
ATOM      8  C6  PXY d   1       0.037   0.465   3.044  0.00  0.00     0.003 A 
ENDROOT
TORSDOF 0
ENDMDL
