MODEL 1
REMARK minimizedAffinity -3.45775032
REMARK minimizedRMSD -1
REMARK  0 active torsions:
REMARK  status: ('A' for Active; 'I' for Inactive)
ROOT
ATOM      1  C4' PXY d   1       2.333   1.936   0.831  0.00  0.00     0.077 C 
ATOM      2  C1' PXY d   1      -3.131   1.050   2.497  0.00  0.00     0.077 C 
ATOM      3  C1  PXY d   1      -1.701   1.295   2.057  0.00  0.00    -0.082 A 
ATOM      4  C2  PXY d   1      -0.946   0.272   1.690  0.00  0.00     0.003 A 
ATOM      5  C3  PXY d   1       0.359   0.472   1.319  0.00  0.00     0.003 A 
ATOM      6  C4  PXY d   1       0.881   1.737   1.273  0.00  0.00    -0.082 A 
ATOM      7  C5  PXY d   1       0.113   2.787   1.636  0.00  0.00     0.003 A 
ATOM      8  C6  PXY d   1      -1.197   2.558   2.048  0.00  0.00     0.003 A 
ENDROOT
TORSDOF 0
ENDMDL
