MODEL 1
REMARK minimizedAffinity 1.09943879
REMARK minimizedRMSD -1
REMARK  0 active torsions:
REMARK  status: ('A' for Active; 'I' for Inactive)
ROOT
ATOM      1  C4' PXY d   1      -3.418   3.429  -0.083  0.00  0.00     0.077 C 
ATOM      2  C1' PXY d   1      -5.999   5.999   4.405  0.00  0.00     0.077 C 
ATOM      3  C1  PXY d   1      -5.330   5.332   3.220  0.00  0.00    -0.082 A 
ATOM      4  C2  PXY d   1      -4.766   4.144   3.370  0.00  0.00     0.003 A 
ATOM      5  C3  PXY d   1      -4.129   3.541   2.317  0.00  0.00     0.003 A 
ATOM      6  C4  PXY d   1      -4.113   4.135   1.083  0.00  0.00    -0.082 A 
ATOM      7  C5  PXY d   1      -4.695   5.342   0.919  0.00  0.00     0.003 A 
ATOM      8  C6  PXY d   1      -5.302   5.957   2.011  0.00  0.00     0.003 A 
ENDROOT
TORSDOF 0
ENDMDL
