MODEL 1
REMARK minimizedAffinity 4.84815502
REMARK minimizedRMSD -1
REMARK  0 active torsions:
REMARK  status: ('A' for Active; 'I' for Inactive)
ROOT
ATOM      1  C4' PXY d   1      -3.149   1.723   2.996  0.00  0.00     0.077 C 
ATOM      2  C1' PXY d   1       2.184   1.006   0.882  0.00  0.00     0.077 C 
ATOM      3  C1  PXY d   1       0.782   1.181   1.434  0.00  0.00    -0.082 A 
ATOM      4  C2  PXY d   1       0.244   2.389   1.480  0.00  0.00     0.003 A 
ATOM      5  C3  PXY d   1      -1.009   2.571   2.005  0.00  0.00     0.003 A 
ATOM      6  C4  PXY d   1      -1.740   1.497   2.439  0.00  0.00    -0.082 A 
ATOM      7  C5  PXY d   1      -1.203   0.260   2.385  0.00  0.00     0.003 A 
ATOM      8  C6  PXY d   1       0.087   0.103   1.887  0.00  0.00     0.003 A 
ENDROOT
TORSDOF 0
ENDMDL
