MODEL 1
REMARK minimizedAffinity 8.42953491
REMARK minimizedRMSD -1
REMARK  0 active torsions:
REMARK  status: ('A' for Active; 'I' for Inactive)
ROOT
ATOM      1  C4' PXY d   1       3.858   0.387  -0.290  0.00  0.00     0.077 C 
ATOM      2  C1' PXY d   1      -1.086   2.302   2.013  0.00  0.00     0.077 C 
ATOM      3  C1  PXY d   1       0.205   1.788   1.407  0.00  0.00    -0.082 A 
ATOM      4  C2  PXY d   1       1.353   2.363   1.728  0.00  0.00     0.003 A 
ATOM      5  C3  PXY d   1       2.526   1.932   1.165  0.00  0.00     0.003 A 
ATOM      6  C4  PXY d   1       2.531   0.866   0.305  0.00  0.00    -0.082 A 
ATOM      7  C5  PXY d   1       1.365   0.267  -0.019  0.00  0.00     0.003 A 
ATOM      8  C6  PXY d   1       0.181   0.747   0.531  0.00  0.00     0.003 A 
ENDROOT
TORSDOF 0
ENDMDL
