MODEL 1
REMARK minimizedAffinity -1.16462362
REMARK minimizedRMSD -1
REMARK  0 active torsions:
REMARK  status: ('A' for Active; 'I' for Inactive)
ROOT
ATOM      1  C4' PXY d   1       1.018   3.590   1.529  0.00  0.00     0.077 C 
ATOM      2  C1' PXY d   1       0.126  -1.749  -0.501  0.00  0.00     0.077 C 
ATOM      3  C1  PXY d   1       0.347  -0.347   0.033  0.00  0.00    -0.082 A 
ATOM      4  C2  PXY d   1       1.443   0.315  -0.302  0.00  0.00     0.003 A 
ATOM      5  C3  PXY d   1       1.674   1.571   0.198  0.00  0.00     0.003 A 
ATOM      6  C4  PXY d   1       0.748   2.176   1.006  0.00  0.00    -0.082 A 
ATOM      7  C5  PXY d   1      -0.377   1.511   1.343  0.00  0.00     0.003 A 
ATOM      8  C6  PXY d   1      -0.573   0.221   0.858  0.00  0.00     0.003 A 
ENDROOT
TORSDOF 0
ENDMDL
