MODEL 1
REMARK minimizedAffinity -2.14490724
REMARK minimizedRMSD -1
REMARK  0 active torsions:
REMARK  status: ('A' for Active; 'I' for Inactive)
ROOT
ATOM      1  C4' PXY d   1       2.177  -0.024  -0.074  0.00  0.00     0.077 C 
ATOM      2  C1' PXY d   1      -2.350   1.816   3.014  0.00  0.00     0.077 C 
ATOM      3  C1  PXY d   1      -1.158   1.345   2.206  0.00  0.00    -0.082 A 
ATOM      4  C2  PXY d   1      -1.298   0.340   1.357  0.00  0.00     0.003 A 
ATOM      5  C3  PXY d   1      -0.223  -0.119   0.641  0.00  0.00     0.003 A 
ATOM      6  C4  PXY d   1       0.998   0.491   0.756  0.00  0.00    -0.082 A 
ATOM      7  C5  PXY d   1       1.147   1.524   1.612  0.00  0.00     0.003 A 
ATOM      8  C6  PXY d   1       0.052   1.948   2.360  0.00  0.00     0.003 A 
ENDROOT
TORSDOF 0
ENDMDL
