MODEL 1
REMARK minimizedAffinity 18.3773499
REMARK minimizedRMSD -1
REMARK  1 active torsions:
REMARK  status: ('A' for Active; 'I' for Inactive)
REMARK    1  A    between atoms: C1_2  and  C2_3 
ROOT
ATOM      1  C2  UNL d   1      -5.048  -2.434  -4.001  0.00  0.00    -0.076 A 
ATOM      2  C3  UNL d   1      -4.648  -3.653  -3.426  0.00  0.00     0.004 A 
ATOM      3  C4  UNL d   1      -4.782  -4.853  -4.123  0.00  0.00    -0.003 A 
ATOM      4  C5  UNL d   1      -5.318  -4.853  -5.406  0.00  0.00     0.000 A 
ATOM      5  C6  UNL d   1      -5.704  -3.651  -5.998  0.00  0.00     0.000 A 
ATOM      6  C7  UNL d   1      -5.561  -2.431  -5.316  0.00  0.00    -0.073 A 
ATOM      7  C8  UNL d   1      -6.000  -1.165  -6.000  0.00  0.00     0.078 C 
ENDROOT
BRANCH   1   8
ATOM      8  C1  UNL d   1      -4.904  -1.168  -3.187  0.00  0.00     0.053 C 
ATOM      9  C   UNL d   1      -3.542  -0.514  -3.363  0.00  0.00     0.018 C 
ENDBRANCH   1   8
TORSDOF 1
ENDMDL
