MODEL 1
REMARK minimizedAffinity 5.39201117
REMARK minimizedRMSD -1
REMARK  1 active torsions:
REMARK  status: ('A' for Active; 'I' for Inactive)
REMARK    1  A    between atoms: C1_2  and  C2_3 
ROOT
ATOM      1  C2  UNL d   1      -5.392  -3.622  -4.817  0.00  0.00    -0.076 A 
ATOM      2  C3  UNL d   1      -4.975  -2.882  -3.696  0.00  0.00     0.004 A 
ATOM      3  C4  UNL d   1      -4.431  -3.515  -2.580  0.00  0.00    -0.003 A 
ATOM      4  C5  UNL d   1      -4.294  -4.898  -2.566  0.00  0.00     0.000 A 
ATOM      5  C6  UNL d   1      -4.685  -5.647  -3.676  0.00  0.00     0.000 A 
ATOM      6  C7  UNL d   1      -5.221  -5.023  -4.816  0.00  0.00    -0.073 A 
ATOM      7  C8  UNL d   1      -5.632  -5.879  -5.982  0.00  0.00     0.078 C 
ENDROOT
BRANCH   1   8
ATOM      8  C1  UNL d   1      -6.000  -2.883  -5.987  0.00  0.00     0.053 C 
ATOM      9  C   UNL d   1      -5.639  -1.406  -5.995  0.00  0.00     0.018 C 
ENDBRANCH   1   8
TORSDOF 1
ENDMDL
