MODEL 1
REMARK minimizedAffinity -0.0746609122
REMARK minimizedRMSD -1
REMARK  1 active torsions:
REMARK  status: ('A' for Active; 'I' for Inactive)
REMARK    1  A    between atoms: C1_2  and  C2_3 
ROOT
ATOM      1  C2  UNL d   1      -4.097   1.587  -0.932  0.00  0.00    -0.076 A 
ATOM      2  C3  UNL d   1      -5.394   1.047  -0.891  0.00  0.00     0.004 A 
ATOM      3  C4  UNL d   1      -5.996   0.719   0.322  0.00  0.00    -0.003 A 
ATOM      4  C5  UNL d   1      -5.312   0.928   1.515  0.00  0.00     0.000 A 
ATOM      5  C6  UNL d   1      -4.031   1.480   1.494  0.00  0.00     0.000 A 
ATOM      6  C7  UNL d   1      -3.416   1.831   0.280  0.00  0.00    -0.073 A 
ATOM      7  C8  UNL d   1      -2.031   2.417   0.316  0.00  0.00     0.078 C 
ENDROOT
BRANCH   1   8
ATOM      8  C1  UNL d   1      -3.484   1.897  -2.279  0.00  0.00     0.053 C 
ATOM      9  C   UNL d   1      -4.190   1.181  -3.419  0.00  0.00     0.018 C 
ENDBRANCH   1   8
TORSDOF 1
ENDMDL
