MODEL 1
REMARK minimizedAffinity 8.88367462
REMARK minimizedRMSD -1
REMARK  1 active torsions:
REMARK  status: ('A' for Active; 'I' for Inactive)
REMARK    1  A    between atoms: C1_2  and  C2_3 
ROOT
ATOM      1  C2  UNL d   1       3.512  -3.355   2.600  0.00  0.00    -0.076 A 
ATOM      2  C3  UNL d   1       4.666  -2.553   2.556  0.00  0.00     0.004 A 
ATOM      3  C4  UNL d   1       5.900  -3.091   2.193  0.00  0.00    -0.003 A 
ATOM      4  C5  UNL d   1       5.999  -4.440   1.868  0.00  0.00     0.000 A 
ATOM      5  C6  UNL d   1       4.861  -5.245   1.889  0.00  0.00     0.000 A 
ATOM      6  C7  UNL d   1       3.607  -4.715   2.237  0.00  0.00    -0.073 A 
ATOM      7  C8  UNL d   1       2.414  -5.631   2.249  0.00  0.00     0.078 C 
ENDROOT
BRANCH   1   8
ATOM      8  C1  UNL d   1       2.207  -2.722   3.027  0.00  0.00     0.053 C 
ATOM      9  C   UNL d   1       1.498  -2.018   1.880  0.00  0.00     0.018 C 
ENDBRANCH   1   8
TORSDOF 1
ENDMDL
