MODEL 1
REMARK minimizedAffinity 15.0180092
REMARK minimizedRMSD -1
REMARK  1 active torsions:
REMARK  status: ('A' for Active; 'I' for Inactive)
REMARK    1  A    between atoms: C1_2  and  C2_3 
ROOT
ATOM      1  C2  UNL d   1       3.661  -3.002   3.607  0.00  0.00    -0.076 A 
ATOM      2  C3  UNL d   1       3.339  -2.259   2.458  0.00  0.00     0.004 A 
ATOM      3  C4  UNL d   1       2.022  -1.889   2.188  0.00  0.00    -0.003 A 
ATOM      4  C5  UNL d   1       1.006  -2.257   3.063  0.00  0.00     0.000 A 
ATOM      5  C6  UNL d   1       1.309  -2.980   4.216  0.00  0.00     0.000 A 
ATOM      6  C7  UNL d   1       2.634  -3.346   4.512  0.00  0.00    -0.073 A 
ATOM      7  C8  UNL d   1       2.903  -4.131   5.766  0.00  0.00     0.078 C 
ENDROOT
BRANCH   1   8
ATOM      8  C1  UNL d   1       5.102  -3.398   3.834  0.00  0.00     0.053 C 
ATOM      9  C   UNL d   1       5.999  -3.027   2.663  0.00  0.00     0.018 C 
ENDBRANCH   1   8
TORSDOF 1
ENDMDL
