MODEL 1
REMARK minimizedAffinity 9.29799175
REMARK minimizedRMSD -1
REMARK  1 active torsions:
REMARK  status: ('A' for Active; 'I' for Inactive)
REMARK    1  A    between atoms: C1_2  and  C2_3 
ROOT
ATOM      1  C2  UNL d   1       2.988  -3.467   3.547  0.00  0.00    -0.076 A 
ATOM      2  C3  UNL d   1       3.118  -3.644   4.936  0.00  0.00     0.004 A 
ATOM      3  C4  UNL d   1       2.160  -3.144   5.816  0.00  0.00    -0.003 A 
ATOM      4  C5  UNL d   1       1.055  -2.459   5.321  0.00  0.00     0.000 A 
ATOM      5  C6  UNL d   1       0.902  -2.289   3.945  0.00  0.00     0.000 A 
ATOM      6  C7  UNL d   1       1.850  -2.802   3.044  0.00  0.00    -0.073 A 
ATOM      7  C8  UNL d   1       1.638  -2.584   1.571  0.00  0.00     0.078 C 
ENDROOT
BRANCH   1   8
ATOM      8  C1  UNL d   1       4.073  -4.009   2.644  0.00  0.00     0.053 C 
ATOM      9  C   UNL d   1       5.368  -3.219   2.751  0.00  0.00     0.018 C 
ENDBRANCH   1   8
TORSDOF 1
ENDMDL
