MODEL 1
REMARK minimizedAffinity 9.54073715
REMARK minimizedRMSD -1
REMARK  1 active torsions:
REMARK  status: ('A' for Active; 'I' for Inactive)
REMARK    1  A    between atoms: C1_2  and  C2_3 
ROOT
ATOM      1  C2  UNL d   1       3.392  -3.034   2.737  0.00  0.00    -0.076 A 
ATOM      2  C3  UNL d   1       4.454  -2.115   2.660  0.00  0.00     0.004 A 
ATOM      3  C4  UNL d   1       5.735  -2.528   2.298  0.00  0.00    -0.003 A 
ATOM      4  C5  UNL d   1       5.975  -3.866   2.006  0.00  0.00     0.000 A 
ATOM      5  C6  UNL d   1       4.930  -4.788   2.060  0.00  0.00     0.000 A 
ATOM      6  C7  UNL d   1       3.629  -4.385   2.407  0.00  0.00    -0.073 A 
ATOM      7  C8  UNL d   1       2.541  -5.423   2.455  0.00  0.00     0.078 C 
ENDROOT
BRANCH   1   8
ATOM      8  C1  UNL d   1       2.030  -2.533   3.161  0.00  0.00     0.053 C 
ATOM      9  C   UNL d   1       1.417  -1.580   2.146  0.00  0.00     0.018 C 
ENDBRANCH   1   8
TORSDOF 1
ENDMDL
