MODEL 1
REMARK minimizedAffinity 12.0004387
REMARK minimizedRMSD -1
REMARK  2 active torsions:
REMARK  status: ('A' for Active; 'I' for Inactive)
REMARK    1  A    between atoms: C1_2  and  C2_3 
REMARK    2  A    between atoms: C2_3  and  C3_4 
ROOT
ATOM      1  C3  UNL d   1      -1.097  -3.801   3.609  0.00  0.00    -0.075 A 
ATOM      2  C4  UNL d   1      -0.183  -2.768   3.861  0.00  0.00     0.002 A 
ATOM      3  C5  UNL d   1      -0.595  -1.435   3.830  0.00  0.00     0.002 A 
ATOM      4  C6  UNL d   1      -1.920  -1.119   3.538  0.00  0.00    -0.004 A 
ATOM      5  C7  UNL d   1      -2.832  -2.137   3.269  0.00  0.00     0.002 A 
ATOM      6  C8  UNL d   1      -2.424  -3.471   3.304  0.00  0.00     0.002 A 
ENDROOT
BRANCH   1   7
ATOM      7  C2  UNL d   1      -0.664  -5.247   3.669  0.00  0.00     0.056 C 
BRANCH   7   8
ATOM      8  C1  UNL d   1       0.847  -5.453   3.518  0.00  0.00     0.007 C 
ATOM      9  C   UNL d   1       1.507  -5.998   4.777  0.00  0.00     0.009 C 
ENDBRANCH   7   8
ENDBRANCH   1   7
TORSDOF 2
ENDMDL
