MODEL 1
REMARK minimizedAffinity 4.79721737
REMARK minimizedRMSD -1
REMARK  2 active torsions:
REMARK  status: ('A' for Active; 'I' for Inactive)
REMARK    1  A    between atoms: C1_2  and  C2_3 
REMARK    2  A    between atoms: C2_3  and  C3_4 
ROOT
ATOM      1  C3  UNL d   1      -1.407  -2.644   2.650  0.00  0.00    -0.075 A 
ATOM      2  C4  UNL d   1      -0.471  -2.738   1.610  0.00  0.00     0.002 A 
ATOM      3  C5  UNL d   1       0.716  -2.006   1.655  0.00  0.00     0.002 A 
ATOM      4  C6  UNL d   1       0.977  -1.164   2.734  0.00  0.00    -0.004 A 
ATOM      5  C7  UNL d   1       0.048  -1.050   3.765  0.00  0.00     0.002 A 
ATOM      6  C8  UNL d   1      -1.139  -1.785   3.725  0.00  0.00     0.002 A 
ENDROOT
BRANCH   1   7
ATOM      7  C2  UNL d   1      -2.679  -3.456   2.621  0.00  0.00     0.056 C 
BRANCH   7   8
ATOM      8  C1  UNL d   1      -3.705  -2.971   1.591  0.00  0.00     0.007 C 
ATOM      9  C   UNL d   1      -3.729  -3.816   0.325  0.00  0.00     0.009 C 
ENDBRANCH   7   8
ENDBRANCH   1   7
TORSDOF 2
ENDMDL
