MODEL 1
REMARK minimizedAffinity 16.2014294
REMARK minimizedRMSD -1
REMARK  2 active torsions:
REMARK  status: ('A' for Active; 'I' for Inactive)
REMARK    1  A    between atoms: C1_2  and  C2_3 
REMARK    2  A    between atoms: C2_3  and  C3_4 
ROOT
ATOM      1  C3  UNL d   1       1.573   1.704   0.272  0.00  0.00    -0.075 A 
ATOM      2  C4  UNL d   1       2.915   1.795   0.667  0.00  0.00     0.002 A 
ATOM      3  C5  UNL d   1       3.551   0.711   1.273  0.00  0.00     0.002 A 
ATOM      4  C6  UNL d   1       2.852  -0.472   1.499  0.00  0.00    -0.004 A 
ATOM      5  C7  UNL d   1       1.513  -0.569   1.126  0.00  0.00     0.002 A 
ATOM      6  C8  UNL d   1       0.876   0.513   0.516  0.00  0.00     0.002 A 
ENDROOT
BRANCH   1   7
ATOM      7  C2  UNL d   1       0.888   2.864  -0.410  0.00  0.00     0.056 C 
BRANCH   7   8
ATOM      8  C1  UNL d   1       0.831   2.744  -1.937  0.00  0.00     0.007 C 
ATOM      9  C   UNL d   1      -0.582   2.559  -2.473  0.00  0.00     0.009 C 
ENDBRANCH   7   8
ENDBRANCH   1   7
TORSDOF 2
ENDMDL
