MODEL 1
REMARK minimizedAffinity 10.1545906
REMARK minimizedRMSD -1
REMARK  2 active torsions:
REMARK  status: ('A' for Active; 'I' for Inactive)
REMARK    1  A    between atoms: C1_2  and  C2_3 
REMARK    2  A    between atoms: C2_3  and  C3_4 
ROOT
ATOM      1  C3  UNL d   1       2.169   2.408   0.396  0.00  0.00    -0.075 A 
ATOM      2  C4  UNL d   1       1.029   1.788  -0.137  0.00  0.00     0.002 A 
ATOM      3  C5  UNL d   1      -0.081   2.547  -0.509  0.00  0.00     0.002 A 
ATOM      4  C6  UNL d   1      -0.071   3.930  -0.344  0.00  0.00    -0.004 A 
ATOM      5  C7  UNL d   1       1.050   4.555   0.201  0.00  0.00     0.002 A 
ATOM      6  C8  UNL d   1       2.164   3.798   0.569  0.00  0.00     0.002 A 
ENDROOT
BRANCH   1   7
ATOM      7  C2  UNL d   1       3.385   1.596   0.773  0.00  0.00     0.056 C 
BRANCH   7   8
ATOM      8  C1  UNL d   1       3.067   0.338   1.588  0.00  0.00     0.007 C 
ATOM      9  C   UNL d   1       4.236  -0.634   1.672  0.00  0.00     0.009 C 
ENDBRANCH   7   8
ENDBRANCH   1   7
TORSDOF 2
ENDMDL
