MODEL 1
REMARK minimizedAffinity 13.4949541
REMARK minimizedRMSD -1
REMARK  2 active torsions:
REMARK  status: ('A' for Active; 'I' for Inactive)
REMARK    1  A    between atoms: C1_2  and  C2_3 
REMARK    2  A    between atoms: C2_3  and  C3_4 
ROOT
ATOM      1  C3  UNL d   1       0.070  -3.121   1.896  0.00  0.00    -0.075 A 
ATOM      2  C4  UNL d   1       0.791  -1.919   1.851  0.00  0.00     0.002 A 
ATOM      3  C5  UNL d   1       0.177  -0.711   2.182  0.00  0.00     0.002 A 
ATOM      4  C6  UNL d   1      -1.167  -0.687   2.550  0.00  0.00    -0.004 A 
ATOM      5  C7  UNL d   1      -1.897  -1.873   2.583  0.00  0.00     0.002 A 
ATOM      6  C8  UNL d   1      -1.284  -3.084   2.257  0.00  0.00     0.002 A 
ENDROOT
BRANCH   1   7
ATOM      7  C2  UNL d   1       0.737  -4.435   1.569  0.00  0.00     0.056 C 
BRANCH   7   8
ATOM      8  C1  UNL d   1       0.323  -5.591   2.486  0.00  0.00     0.007 C 
ATOM      9  C   UNL d   1       1.413  -5.998   3.468  0.00  0.00     0.009 C 
ENDBRANCH   7   8
ENDBRANCH   1   7
TORSDOF 2
ENDMDL
