MODEL 1
REMARK minimizedAffinity 10.5426559
REMARK minimizedRMSD -1
REMARK  2 active torsions:
REMARK  status: ('A' for Active; 'I' for Inactive)
REMARK    1  A    between atoms: C1_2  and  C2_3 
REMARK    2  A    between atoms: C2_3  and  C3_4 
ROOT
ATOM      1  C3  UNL d   1      -4.046  -3.852   4.549  0.00  0.00    -0.075 A 
ATOM      2  C4  UNL d   1      -4.921  -3.566   5.607  0.00  0.00     0.002 A 
ATOM      3  C5  UNL d   1      -5.888  -4.493   5.997  0.00  0.00     0.002 A 
ATOM      4  C6  UNL d   1      -6.000  -5.710   5.329  0.00  0.00    -0.004 A 
ATOM      5  C7  UNL d   1      -5.147  -5.998   4.266  0.00  0.00     0.002 A 
ATOM      6  C8  UNL d   1      -4.176  -5.075   3.876  0.00  0.00     0.002 A 
ENDROOT
BRANCH   1   7
ATOM      7  C2  UNL d   1      -2.978  -2.866   4.141  0.00  0.00     0.056 C 
BRANCH   7   8
ATOM      8  C1  UNL d   1      -2.775  -2.757   2.626  0.00  0.00     0.007 C 
ATOM      9  C   UNL d   1      -1.631  -1.830   2.239  0.00  0.00     0.009 C 
ENDBRANCH   7   8
ENDBRANCH   1   7
TORSDOF 2
ENDMDL
