MODEL 1
REMARK minimizedAffinity 17.0432796
REMARK minimizedRMSD -1
REMARK  2 active torsions:
REMARK  status: ('A' for Active; 'I' for Inactive)
REMARK    1  A    between atoms: C1_2  and  C2_3 
REMARK    2  A    between atoms: C2_3  and  C3_4 
ROOT
ATOM      1  C3  UNL d   1       1.636  -0.443   2.094  0.00  0.00    -0.075 A 
ATOM      2  C4  UNL d   1       1.682  -1.593   1.292  0.00  0.00     0.002 A 
ATOM      3  C5  UNL d   1       0.620  -2.499   1.292  0.00  0.00     0.002 A 
ATOM      4  C6  UNL d   1      -0.493  -2.273   2.099  0.00  0.00    -0.004 A 
ATOM      5  C7  UNL d   1      -0.541  -1.143   2.912  0.00  0.00     0.002 A 
ATOM      6  C8  UNL d   1       0.517  -0.232   2.911  0.00  0.00     0.002 A 
ENDROOT
BRANCH   1   7
ATOM      7  C2  UNL d   1       2.768   0.556   2.077  0.00  0.00     0.056 C 
BRANCH   7   8
ATOM      8  C1  UNL d   1       2.970   1.246   0.724  0.00  0.00     0.007 C 
ATOM      9  C   UNL d   1       1.822   2.173   0.345  0.00  0.00     0.009 C 
ENDBRANCH   7   8
ENDBRANCH   1   7
TORSDOF 2
ENDMDL
