MODEL 1
REMARK minimizedAffinity 14.4450312
REMARK minimizedRMSD -1
REMARK  2 active torsions:
REMARK  status: ('A' for Active; 'I' for Inactive)
REMARK    1  A    between atoms: C1_2  and  C2_3 
REMARK    2  A    between atoms: C2_3  and  C3_4 
ROOT
ATOM      1  C3  UNL d   1      -0.066   3.770  -1.716  0.00  0.00    -0.075 A 
ATOM      2  C4  UNL d   1       0.386   3.052  -0.599  0.00  0.00     0.002 A 
ATOM      3  C5  UNL d   1       1.060   3.701   0.435  0.00  0.00     0.002 A 
ATOM      4  C6  UNL d   1       1.301   5.071   0.361  0.00  0.00    -0.004 A 
ATOM      5  C7  UNL d   1       0.871   5.792  -0.751  0.00  0.00     0.002 A 
ATOM      6  C8  UNL d   1       0.192   5.145  -1.785  0.00  0.00     0.002 A 
ENDROOT
BRANCH   1   7
ATOM      7  C2  UNL d   1      -0.823   3.078  -2.825  0.00  0.00     0.056 C 
BRANCH   7   8
ATOM      8  C1  UNL d   1      -2.115   3.791  -3.237  0.00  0.00     0.007 C 
ATOM      9  C   UNL d   1      -2.187   4.089  -4.728  0.00  0.00     0.009 C 
ENDBRANCH   7   8
ENDBRANCH   1   7
TORSDOF 2
ENDMDL
