MODEL 1
REMARK minimizedAffinity 12.1494799
REMARK minimizedRMSD -1
REMARK  2 active torsions:
REMARK  status: ('A' for Active; 'I' for Inactive)
REMARK    1  A    between atoms: C1_2  and  C2_3 
REMARK    2  A    between atoms: C2_3  and  C3_4 
ROOT
ATOM      1  C3  UNL d   1       0.846  -1.895   1.388  0.00  0.00    -0.075 A 
ATOM      2  C4  UNL d   1       1.003  -3.023   0.571  0.00  0.00     0.002 A 
ATOM      3  C5  UNL d   1       2.156  -3.187  -0.198  0.00  0.00     0.002 A 
ATOM      4  C6  UNL d   1       3.159  -2.221  -0.167  0.00  0.00    -0.004 A 
ATOM      5  C7  UNL d   1       3.007  -1.088   0.629  0.00  0.00     0.002 A 
ATOM      6  C8  UNL d   1       1.857  -0.924   1.402  0.00  0.00     0.002 A 
ENDROOT
BRANCH   1   7
ATOM      7  C2  UNL d   1      -0.386  -1.727   2.245  0.00  0.00     0.056 C 
BRANCH   7   8
ATOM      8  C1  UNL d   1      -0.523  -0.336   2.874  0.00  0.00     0.007 C 
ATOM      9  C   UNL d   1      -0.340  -0.340   4.386  0.00  0.00     0.009 C 
ENDBRANCH   7   8
ENDBRANCH   1   7
TORSDOF 2
ENDMDL
