MODEL 1
REMARK minimizedAffinity 11.2926064
REMARK minimizedRMSD -1
REMARK  2 active torsions:
REMARK  status: ('A' for Active; 'I' for Inactive)
REMARK    1  A    between atoms: C1_2  and  C2_3 
REMARK    2  A    between atoms: C2_3  and  C3_4 
ROOT
ATOM      1  C3  UNL d   1      -2.058  -2.391   2.612  0.00  0.00    -0.075 A 
ATOM      2  C4  UNL d   1      -0.971  -3.002   1.971  0.00  0.00     0.002 A 
ATOM      3  C5  UNL d   1       0.287  -2.399   1.980  0.00  0.00     0.002 A 
ATOM      4  C6  UNL d   1       0.472  -1.175   2.621  0.00  0.00    -0.004 A 
ATOM      5  C7  UNL d   1      -0.605  -0.551   3.246  0.00  0.00     0.002 A 
ATOM      6  C8  UNL d   1      -1.864  -1.154   3.242  0.00  0.00     0.002 A 
ENDROOT
BRANCH   1   7
ATOM      7  C2  UNL d   1      -3.415  -3.052   2.631  0.00  0.00     0.056 C 
BRANCH   7   8
ATOM      8  C1  UNL d   1      -3.929  -3.383   4.036  0.00  0.00     0.007 C 
ATOM      9  C   UNL d   1      -5.448  -3.445   4.121  0.00  0.00     0.009 C 
ENDBRANCH   7   8
ENDBRANCH   1   7
TORSDOF 2
ENDMDL
