MODEL 1
REMARK minimizedAffinity 11.7868509
REMARK minimizedRMSD -1
REMARK  2 active torsions:
REMARK  status: ('A' for Active; 'I' for Inactive)
REMARK    1  A    between atoms: C1_2  and  C2_3 
REMARK    2  A    between atoms: C2_3  and  C3_4 
ROOT
ATOM      1  C3  UNL d   1      -2.489   4.349  -3.252  0.00  0.00    -0.075 A 
ATOM      2  C4  UNL d   1      -3.550   3.533  -2.834  0.00  0.00     0.002 A 
ATOM      3  C5  UNL d   1      -4.408   3.953  -1.818  0.00  0.00     0.002 A 
ATOM      4  C6  UNL d   1      -4.211   5.186  -1.200  0.00  0.00    -0.004 A 
ATOM      5  C7  UNL d   1      -3.150   5.998  -1.596  0.00  0.00     0.002 A 
ATOM      6  C8  UNL d   1      -2.292   5.582  -2.615  0.00  0.00     0.002 A 
ENDROOT
BRANCH   1   7
ATOM      7  C2  UNL d   1      -1.574   3.914  -4.372  0.00  0.00     0.056 C 
BRANCH   7   8
ATOM      8  C1  UNL d   1      -1.919   4.527  -5.733  0.00  0.00     0.007 C 
ATOM      9  C   UNL d   1      -2.298   5.999  -5.650  0.00  0.00     0.009 C 
ENDBRANCH   7   8
ENDBRANCH   1   7
TORSDOF 2
ENDMDL
