MODEL 1
REMARK minimizedAffinity 12.2853975
REMARK minimizedRMSD -1
REMARK  2 active torsions:
REMARK  status: ('A' for Active; 'I' for Inactive)
REMARK    1  A    between atoms: C1_2  and  C2_3 
REMARK    2  A    between atoms: C2_3  and  C3_4 
ROOT
ATOM      1  C3  UNL d   1       2.548   0.848  -0.476  0.00  0.00    -0.075 A 
ATOM      2  C4  UNL d   1       1.471   1.745  -0.523  0.00  0.00     0.002 A 
ATOM      3  C5  UNL d   1       1.187   2.452  -1.692  0.00  0.00     0.002 A 
ATOM      4  C6  UNL d   1       1.981   2.279  -2.823  0.00  0.00    -0.004 A 
ATOM      5  C7  UNL d   1       3.064   1.403  -2.783  0.00  0.00     0.002 A 
ATOM      6  C8  UNL d   1       3.347   0.692  -1.616  0.00  0.00     0.002 A 
ENDROOT
BRANCH   1   7
ATOM      7  C2  UNL d   1       2.842   0.059   0.777  0.00  0.00     0.056 C 
BRANCH   7   8
ATOM      8  C1  UNL d   1       2.557  -1.441   0.650  0.00  0.00     0.007 C 
ATOM      9  C   UNL d   1       1.085  -1.790   0.824  0.00  0.00     0.009 C 
ENDBRANCH   7   8
ENDBRANCH   1   7
TORSDOF 2
ENDMDL
