MODEL 1
REMARK minimizedAffinity 13.9027681
REMARK minimizedRMSD -1
REMARK  2 active torsions:
REMARK  status: ('A' for Active; 'I' for Inactive)
REMARK    1  A    between atoms: C1_2  and  C2_3 
REMARK    2  A    between atoms: C2_3  and  C3_4 
ROOT
ATOM      1  C3  UNL d   1      -1.491   3.730  -3.393  0.00  0.00    -0.075 A 
ATOM      2  C4  UNL d   1      -1.504   3.735  -4.795  0.00  0.00     0.002 A 
ATOM      3  C5  UNL d   1      -1.925   4.866  -5.495  0.00  0.00     0.002 A 
ATOM      4  C6  UNL d   1      -2.347   6.000  -4.804  0.00  0.00    -0.004 A 
ATOM      5  C7  UNL d   1      -2.354   6.000  -3.411  0.00  0.00     0.002 A 
ATOM      6  C8  UNL d   1      -1.929   4.871  -2.708  0.00  0.00     0.002 A 
ENDROOT
BRANCH   1   7
ATOM      7  C2  UNL d   1      -1.008   2.520  -2.629  0.00  0.00     0.056 C 
BRANCH   7   8
ATOM      8  C1  UNL d   1       0.448   2.616  -2.162  0.00  0.00     0.007 C 
ATOM      9  C   UNL d   1       0.583   2.968  -0.687  0.00  0.00     0.009 C 
ENDBRANCH   7   8
ENDBRANCH   1   7
TORSDOF 2
ENDMDL
