MODEL 1
REMARK minimizedAffinity 1.58456409
REMARK minimizedRMSD -1
REMARK  2 active torsions:
REMARK  status: ('A' for Active; 'I' for Inactive)
REMARK    1  A    between atoms: C1_2  and  C2_3 
REMARK    2  A    between atoms: C2_3  and  C3_4 
ROOT
ATOM      1  C3  UNL d   1      -5.267  -5.292   0.483  0.00  0.00    -0.075 A 
ATOM      2  C4  UNL d   1      -3.984  -5.723   0.852  0.00  0.00     0.002 A 
ATOM      3  C5  UNL d   1      -3.455  -5.387   2.098  0.00  0.00     0.002 A 
ATOM      4  C6  UNL d   1      -4.196  -4.610   2.986  0.00  0.00    -0.004 A 
ATOM      5  C7  UNL d   1      -5.464  -4.163   2.624  0.00  0.00     0.002 A 
ATOM      6  C8  UNL d   1      -5.998  -4.501   1.379  0.00  0.00     0.002 A 
ENDROOT
BRANCH   1   7
ATOM      7  C2  UNL d   1      -5.857  -5.677  -0.853  0.00  0.00     0.056 C 
BRANCH   7   8
ATOM      8  C1  UNL d   1      -4.812  -5.999  -1.927  0.00  0.00     0.007 C 
ATOM      9  C   UNL d   1      -5.185  -5.469  -3.305  0.00  0.00     0.009 C 
ENDBRANCH   7   8
ENDBRANCH   1   7
TORSDOF 2
ENDMDL
