MODEL 1
REMARK minimizedAffinity -2.35525799
REMARK minimizedRMSD -1
REMARK  0 active torsions:
REMARK  status: ('A' for Active; 'I' for Inactive)
ROOT
ATOM      1  O1  BZF d   1       1.785  -1.250   1.385  0.00  0.00    -0.204 OA
ATOM      2  C2  BZF d   1       2.741  -0.258   1.492  0.00  0.00     0.174 A 
ATOM      3  C3  BZF d   1       2.305   0.887   0.929  0.00  0.00    -0.012 A 
ATOM      4  C3A BZF d   1       0.960   0.619   0.522  0.00  0.00    -0.107 A 
ATOM      5  C4  BZF d   1      -0.005   1.372  -0.084  0.00  0.00     0.055 A 
ATOM      6  C5  BZF d   1      -1.189   0.790  -0.410  0.00  0.00    -0.016 A 
ATOM      7  C6  BZF d   1      -1.439  -0.542  -0.150  0.00  0.00     0.022 A 
ATOM      8  C7  BZF d   1      -0.514  -1.327   0.454  0.00  0.00     0.029 A 
ATOM      9  C7A BZF d   1       0.670  -0.733   0.815  0.00  0.00     0.058 A 
ENDROOT
TORSDOF 0
ENDMDL
