MODEL 1
REMARK minimizedAffinity -3.42708635
REMARK minimizedRMSD -1
REMARK  0 active torsions:
REMARK  status: ('A' for Active; 'I' for Inactive)
ROOT
ATOM      1  O1  BZF d   1       0.849   0.906  -2.089  0.00  0.00    -0.204 OA
ATOM      2  C2  BZF d   1      -0.401   1.111  -1.537  0.00  0.00     0.174 A 
ATOM      3  C3  BZF d   1      -0.393   0.830  -0.218  0.00  0.00    -0.012 A 
ATOM      4  C3A BZF d   1       0.968   0.512   0.091  0.00  0.00    -0.107 A 
ATOM      5  C4  BZF d   1       1.612   0.163   1.243  0.00  0.00     0.055 A 
ATOM      6  C5  BZF d   1       2.933  -0.154   1.191  0.00  0.00    -0.016 A 
ATOM      7  C6  BZF d   1       3.637  -0.137   0.005  0.00  0.00     0.022 A 
ATOM      8  C7  BZF d   1       3.042   0.207  -1.163  0.00  0.00     0.029 A 
ATOM      9  C7A BZF d   1       1.716   0.560  -1.108  0.00  0.00     0.058 A 
ENDROOT
TORSDOF 0
ENDMDL
