MODEL 1
REMARK minimizedAffinity -4.50136328
REMARK minimizedRMSD -1
REMARK  0 active torsions:
REMARK  status: ('A' for Active; 'I' for Inactive)
ROOT
ATOM      1  O1  BZF d   1       0.960  -1.859   1.412  0.00  0.00    -0.204 OA
ATOM      2  C2  BZF d   1      -0.378  -2.175   1.279  0.00  0.00     0.174 A 
ATOM      3  C3  BZF d   1      -1.065  -1.136   0.760  0.00  0.00    -0.012 A 
ATOM      4  C3A BZF d   1      -0.080  -0.140   0.470  0.00  0.00    -0.107 A 
ATOM      5  C4  BZF d   1      -0.141   1.111  -0.074  0.00  0.00     0.055 A 
ATOM      6  C5  BZF d   1       0.995   1.853  -0.152  0.00  0.00    -0.016 A 
ATOM      7  C6  BZF d   1       2.205   1.379   0.308  0.00  0.00     0.022 A 
ATOM      8  C7  BZF d   1       2.317   0.142   0.850  0.00  0.00     0.029 A 
ATOM      9  C7A BZF d   1       1.177  -0.624   0.901  0.00  0.00     0.058 A 
ENDROOT
TORSDOF 0
ENDMDL
