MODEL 1
REMARK minimizedAffinity -5.31463671
REMARK minimizedRMSD -1
REMARK  0 active torsions:
REMARK  status: ('A' for Active; 'I' for Inactive)
ROOT
ATOM      1  O1  BZF d   1      -0.492  -1.346   1.048  0.00  0.00    -0.204 OA
ATOM      2  C2  BZF d   1      -1.093  -0.377   0.268  0.00  0.00     0.174 A 
ATOM      3  C3  BZF d   1      -0.214   0.596  -0.049  0.00  0.00    -0.012 A 
ATOM      4  C3A BZF d   1       1.037   0.164   0.496  0.00  0.00    -0.107 A 
ATOM      5  C4  BZF d   1       2.295   0.697   0.496  0.00  0.00     0.055 A 
ATOM      6  C5  BZF d   1       3.281   0.060   1.181  0.00  0.00    -0.016 A 
ATOM      7  C6  BZF d   1       3.045  -1.106   1.878  0.00  0.00     0.022 A 
ATOM      8  C7  BZF d   1       1.815  -1.675   1.903  0.00  0.00     0.029 A 
ATOM      9  C7A BZF d   1       0.823  -1.052   1.185  0.00  0.00     0.058 A 
ENDROOT
TORSDOF 0
ENDMDL
