MODEL 1
REMARK minimizedAffinity -4.46809244
REMARK minimizedRMSD -1
REMARK  0 active torsions:
REMARK  status: ('A' for Active; 'I' for Inactive)
ROOT
ATOM      1  O1  BZF d   1      -0.025  -1.683   0.847  0.00  0.00    -0.204 OA
ATOM      2  C2  BZF d   1      -1.288  -1.285   0.451  0.00  0.00     0.174 A 
ATOM      3  C3  BZF d   1      -1.286   0.010   0.075  0.00  0.00    -0.012 A 
ATOM      4  C3A BZF d   1       0.082   0.424   0.159  0.00  0.00    -0.107 A 
ATOM      5  C4  BZF d   1       0.724   1.600  -0.103  0.00  0.00     0.055 A 
ATOM      6  C5  BZF d   1       2.055   1.696   0.152  0.00  0.00    -0.016 A 
ATOM      7  C6  BZF d   1       2.773   0.639   0.671  0.00  0.00     0.022 A 
ATOM      8  C7  BZF d   1       2.181  -0.549   0.942  0.00  0.00     0.029 A 
ATOM      9  C7A BZF d   1       0.842  -0.660   0.656  0.00  0.00     0.058 A 
ENDROOT
TORSDOF 0
ENDMDL
