MODEL 1
REMARK minimizedAffinity -3.61134505
REMARK minimizedRMSD -1
REMARK  0 active torsions:
REMARK  status: ('A' for Active; 'I' for Inactive)
ROOT
ATOM      1  O1  BZF d   1      -0.598   1.113   0.491  0.00  0.00    -0.204 OA
ATOM      2  C2  BZF d   1      -0.193   2.405   0.216  0.00  0.00     0.174 A 
ATOM      3  C3  BZF d   1       1.153   2.487   0.179  0.00  0.00    -0.012 A 
ATOM      4  C3A BZF d   1       1.617   1.145   0.357  0.00  0.00    -0.107 A 
ATOM      5  C4  BZF d   1       2.859   0.579   0.398  0.00  0.00     0.055 A 
ATOM      6  C5  BZF d   1       2.970  -0.750   0.661  0.00  0.00    -0.016 A 
ATOM      7  C6  BZF d   1       1.863  -1.540   0.893  0.00  0.00     0.022 A 
ATOM      8  C7  BZF d   1       0.610  -1.024   0.858  0.00  0.00     0.029 A 
ATOM      9  C7A BZF d   1       0.492   0.312   0.560  0.00  0.00     0.058 A 
ENDROOT
TORSDOF 0
ENDMDL
