MODEL 1
REMARK minimizedAffinity 0.503950715
REMARK minimizedRMSD -1
REMARK  0 active torsions:
REMARK  status: ('A' for Active; 'I' for Inactive)
ROOT
ATOM      1  O1  BZF d   1      -1.418  -0.657   0.793  0.00  0.00    -0.204 OA
ATOM      2  C2  BZF d   1      -2.105  -0.552  -0.401  0.00  0.00     0.174 A 
ATOM      3  C3  BZF d   1      -1.413   0.194  -1.287  0.00  0.00    -0.012 A 
ATOM      4  C3A BZF d   1      -0.178   0.503  -0.635  0.00  0.00    -0.107 A 
ATOM      5  C4  BZF d   1       0.933   1.204  -1.011  0.00  0.00     0.055 A 
ATOM      6  C5  BZF d   1       1.937   1.381  -0.113  0.00  0.00    -0.016 A 
ATOM      7  C6  BZF d   1       1.862   0.877   1.169  0.00  0.00     0.022 A 
ATOM      8  C7  BZF d   1       0.784   0.171   1.586  0.00  0.00     0.029 A 
ATOM      9  C7A BZF d   1      -0.219  -0.038   0.671  0.00  0.00     0.058 A 
ENDROOT
TORSDOF 0
ENDMDL
