MODEL 1
REMARK minimizedAffinity -4.85149717
REMARK minimizedRMSD -1
REMARK  0 active torsions:
REMARK  status: ('A' for Active; 'I' for Inactive)
ROOT
ATOM      1  O1  BZF d   1      -0.537  -0.567   0.324  0.00  0.00    -0.204 OA
ATOM      2  C2  BZF d   1      -0.459   0.615  -0.387  0.00  0.00     0.174 A 
ATOM      3  C3  BZF d   1       0.776   1.149  -0.293  0.00  0.00    -0.012 A 
ATOM      4  C3A BZF d   1       1.542   0.198   0.452  0.00  0.00    -0.107 A 
ATOM      5  C4  BZF d   1       2.845   0.153   0.858  0.00  0.00     0.055 A 
ATOM      6  C5  BZF d   1       3.260  -0.883   1.634  0.00  0.00    -0.016 A 
ATOM      7  C6  BZF d   1       2.399  -1.888   2.024  0.00  0.00     0.022 A 
ATOM      8  C7  BZF d   1       1.099  -1.890   1.641  0.00  0.00     0.029 A 
ATOM      9  C7A BZF d   1       0.685  -0.861   0.831  0.00  0.00     0.058 A 
ENDROOT
TORSDOF 0
ENDMDL
