MODEL 1
REMARK minimizedAffinity -5.4156661
REMARK minimizedRMSD -1
REMARK  0 active torsions:
REMARK  status: ('A' for Active; 'I' for Inactive)
ROOT
ATOM      1  O1  BZF d   1      -0.223  -0.678  -0.755  0.00  0.00    -0.204 OA
ATOM      2  C2  BZF d   1      -0.644   0.623  -0.951  0.00  0.00     0.174 A 
ATOM      3  C3  BZF d   1       0.059   1.476  -0.177  0.00  0.00    -0.012 A 
ATOM      4  C3A BZF d   1       1.040   0.666   0.479  0.00  0.00    -0.107 A 
ATOM      5  C4  BZF d   1       2.043   0.940   1.364  0.00  0.00     0.055 A 
ATOM      6  C5  BZF d   1       2.776  -0.087   1.870  0.00  0.00    -0.016 A 
ATOM      7  C6  BZF d   1       2.529  -1.398   1.518  0.00  0.00     0.022 A 
ATOM      8  C7  BZF d   1       1.548  -1.718   0.639  0.00  0.00     0.029 A 
ATOM      9  C7A BZF d   1       0.827  -0.680   0.101  0.00  0.00     0.058 A 
ENDROOT
TORSDOF 0
ENDMDL
