MODEL 1
REMARK minimizedAffinity -4.71881199
REMARK minimizedRMSD -1
REMARK  0 active torsions:
REMARK  status: ('A' for Active; 'I' for Inactive)
ROOT
ATOM      1  O1  BZF d   1      -0.787   0.246   0.300  0.00  0.00    -0.204 OA
ATOM      2  C2  BZF d   1       0.533   0.382  -0.082  0.00  0.00     0.174 A 
ATOM      3  C3  BZF d   1       0.661   0.250  -1.418  0.00  0.00    -0.012 A 
ATOM      4  C3A BZF d   1      -0.675   0.109  -1.911  0.00  0.00    -0.107 A 
ATOM      5  C4  BZF d   1      -1.203  -0.043  -3.161  0.00  0.00     0.055 A 
ATOM      6  C5  BZF d   1      -2.543  -0.227  -3.294  0.00  0.00    -0.016 A 
ATOM      7  C6  BZF d   1      -3.382  -0.269  -2.200  0.00  0.00     0.022 A 
ATOM      8  C7  BZF d   1      -2.905  -0.118  -0.941  0.00  0.00     0.029 A 
ATOM      9  C7A BZF d   1      -1.556   0.101  -0.805  0.00  0.00     0.058 A 
ENDROOT
TORSDOF 0
ENDMDL
