MODEL 1
REMARK minimizedAffinity -4.51132107
REMARK minimizedRMSD -1
REMARK  0 active torsions:
REMARK  status: ('A' for Active; 'I' for Inactive)
ROOT
ATOM      1  O1  BZF d   1      -1.465   0.439  -3.680  0.00  0.00    -0.204 OA
ATOM      2  C2  BZF d   1      -2.749  -0.069  -3.731  0.00  0.00     0.174 A 
ATOM      3  C3  BZF d   1      -3.159  -0.455  -2.506  0.00  0.00    -0.012 A 
ATOM      4  C3A BZF d   1      -2.099  -0.084  -1.620  0.00  0.00    -0.107 A 
ATOM      5  C4  BZF d   1      -1.922  -0.192  -0.270  0.00  0.00     0.055 A 
ATOM      6  C5  BZF d   1      -0.741   0.199   0.275  0.00  0.00    -0.016 A 
ATOM      7  C6  BZF d   1       0.286   0.698  -0.499  0.00  0.00     0.022 A 
ATOM      8  C7  BZF d   1       0.156   0.828  -1.842  0.00  0.00     0.029 A 
ATOM      9  C7A BZF d   1      -1.049   0.464  -2.392  0.00  0.00     0.058 A 
ENDROOT
TORSDOF 0
ENDMDL
