MODEL 1
REMARK minimizedAffinity -4.96905994
REMARK minimizedRMSD -1
REMARK  0 active torsions:
REMARK  status: ('A' for Active; 'I' for Inactive)
ROOT
ATOM      1  C1  DEN d   1      -0.497   0.717   3.602  0.00  0.00     0.130 A 
ATOM      2  C2  DEN d   1       0.733  -0.006   3.913  0.00  0.00    -0.031 A 
ATOM      3  C3  DEN d   1       1.313  -0.488   2.643  0.00  0.00     0.027 A 
ATOM      4  C4  DEN d   1       0.432  -0.181   0.238  0.00  0.00     0.027 A 
ATOM      5  C5  DEN d   1      -0.582   0.352  -0.527  0.00  0.00    -0.003 A 
ATOM      6  C6  DEN d   1      -1.647   1.009   0.029  0.00  0.00     0.001 A 
ATOM      7  C7  DEN d   1      -1.701   1.190   1.386  0.00  0.00     0.017 A 
ATOM      8  C8  DEN d   1      -0.686   0.649   2.164  0.00  0.00    -0.094 A 
ATOM      9  C9  DEN d   1       0.389  -0.001   1.582  0.00  0.00    -0.072 A 
ENDROOT
TORSDOF 0
ENDMDL
