MODEL 1
REMARK minimizedAffinity -2.99990749
REMARK minimizedRMSD -1
REMARK  0 active torsions:
REMARK  status: ('A' for Active; 'I' for Inactive)
ROOT
ATOM      1  C1  DEN d   1       0.134   0.739   2.517  0.00  0.00     0.130 A 
ATOM      2  C2  DEN d   1      -1.133   0.618   3.233  0.00  0.00    -0.031 A 
ATOM      3  C3  DEN d   1      -2.176   0.245   2.257  0.00  0.00     0.027 A 
ATOM      4  C4  DEN d   1      -1.952  -0.162  -0.280  0.00  0.00     0.027 A 
ATOM      5  C5  DEN d   1      -1.076  -0.167  -1.343  0.00  0.00    -0.003 A 
ATOM      6  C6  DEN d   1       0.247   0.160  -1.201  0.00  0.00     0.001 A 
ATOM      7  C7  DEN d   1       0.742   0.462   0.040  0.00  0.00     0.017 A 
ATOM      8  C8  DEN d   1      -0.137   0.476   1.115  0.00  0.00    -0.094 A 
ATOM      9  C9  DEN d   1      -1.468   0.131   0.953  0.00  0.00    -0.072 A 
ENDROOT
TORSDOF 0
ENDMDL
