MODEL 1
REMARK minimizedAffinity 2.00537372
REMARK minimizedRMSD -1
REMARK  0 active torsions:
REMARK  status: ('A' for Active; 'I' for Inactive)
ROOT
ATOM      1  C1  DEN d   1      -0.368   0.690  -3.379  0.00  0.00     0.130 A 
ATOM      2  C2  DEN d   1       0.905   0.003  -3.578  0.00  0.00    -0.031 A 
ATOM      3  C3  DEN d   1       1.321  -0.573  -2.283  0.00  0.00     0.027 A 
ATOM      4  C4  DEN d   1       0.120  -0.471  -0.003  0.00  0.00     0.027 A 
ATOM      5  C5  DEN d   1      -0.985   0.011   0.664  0.00  0.00    -0.003 A 
ATOM      6  C6  DEN d   1      -1.936   0.775   0.042  0.00  0.00     0.001 A 
ATOM      7  C7  DEN d   1      -1.825   1.042  -1.297  0.00  0.00     0.017 A 
ATOM      8  C8  DEN d   1      -0.709   0.566  -1.974  0.00  0.00    -0.094 A 
ATOM      9  C9  DEN d   1       0.236  -0.215  -1.330  0.00  0.00    -0.072 A 
ENDROOT
TORSDOF 0
ENDMDL
