MODEL 1
REMARK minimizedAffinity -0.828967512
REMARK minimizedRMSD -1
REMARK  0 active torsions:
REMARK  status: ('A' for Active; 'I' for Inactive)
ROOT
ATOM      1  C1  DEN d   1      -0.731   0.262  -1.808  0.00  0.00     0.130 A 
ATOM      2  C2  DEN d   1       0.484  -0.539  -1.936  0.00  0.00    -0.031 A 
ATOM      3  C3  DEN d   1       0.899  -0.959  -0.583  0.00  0.00     0.027 A 
ATOM      4  C4  DEN d   1      -0.219  -0.456   1.687  0.00  0.00     0.027 A 
ATOM      5  C5  DEN d   1      -1.266   0.194   2.303  0.00  0.00    -0.003 A 
ATOM      6  C6  DEN d   1      -2.181   0.933   1.601  0.00  0.00     0.001 A 
ATOM      7  C7  DEN d   1      -2.092   1.005   0.236  0.00  0.00     0.017 A 
ATOM      8  C8  DEN d   1      -1.035   0.359  -0.392  0.00  0.00    -0.094 A 
ATOM      9  C9  DEN d   1      -0.128  -0.394   0.334  0.00  0.00    -0.072 A 
ENDROOT
TORSDOF 0
ENDMDL
