MODEL 1
REMARK minimizedAffinity -2.64916849
REMARK minimizedRMSD -1
REMARK  0 active torsions:
REMARK  status: ('A' for Active; 'I' for Inactive)
ROOT
ATOM      1  C1  DEN d   1       1.959  -1.047   2.348  0.00  0.00     0.130 A 
ATOM      2  C2  DEN d   1       1.776  -0.889   3.788  0.00  0.00    -0.031 A 
ATOM      3  C3  DEN d   1       0.403  -0.399   4.023  0.00  0.00     0.027 A 
ATOM      4  C4  DEN d   1      -1.449   0.124   2.305  0.00  0.00     0.027 A 
ATOM      5  C5  DEN d   1      -1.760   0.155   0.964  0.00  0.00    -0.003 A 
ATOM      6  C6  DEN d   1      -0.850  -0.177  -0.004  0.00  0.00     0.001 A 
ATOM      7  C7  DEN d   1       0.403  -0.599   0.358  0.00  0.00     0.017 A 
ATOM      8  C8  DEN d   1       0.726  -0.625   1.708  0.00  0.00    -0.094 A 
ATOM      9  C9  DEN d   1      -0.213  -0.297   2.672  0.00  0.00    -0.072 A 
ENDROOT
TORSDOF 0
ENDMDL
