MODEL 1
REMARK minimizedAffinity -3.92755866
REMARK minimizedRMSD -1
REMARK  0 active torsions:
REMARK  status: ('A' for Active; 'I' for Inactive)
ROOT
ATOM      1  C1  DEN d   1      -1.347   1.932   0.045  0.00  0.00     0.130 A 
ATOM      2  C2  DEN d   1      -2.025   1.134   1.063  0.00  0.00    -0.031 A 
ATOM      3  C3  DEN d   1      -1.512  -0.248   0.976  0.00  0.00     0.027 A 
ATOM      4  C4  DEN d   1       0.257  -1.224  -0.626  0.00  0.00     0.027 A 
ATOM      5  C5  DEN d   1       1.104  -0.936  -1.674  0.00  0.00    -0.003 A 
ATOM      6  C6  DEN d   1       1.168   0.310  -2.239  0.00  0.00     0.001 A 
ATOM      7  C7  DEN d   1       0.403   1.326  -1.731  0.00  0.00     0.017 A 
ATOM      8  C8  DEN d   1      -0.459   1.041  -0.680  0.00  0.00    -0.094 A 
ATOM      9  C9  DEN d   1      -0.500  -0.221  -0.114  0.00  0.00    -0.072 A 
ENDROOT
TORSDOF 0
ENDMDL
