MODEL 1
REMARK minimizedAffinity -0.354051411
REMARK minimizedRMSD -1
REMARK  0 active torsions:
REMARK  status: ('A' for Active; 'I' for Inactive)
ROOT
ATOM      1  C1  DEN d   1      -0.794  -0.544  -0.888  0.00  0.00     0.130 A 
ATOM      2  C2  DEN d   1       0.233  -0.406   0.142  0.00  0.00    -0.031 A 
ATOM      3  C3  DEN d   1       1.499  -0.036  -0.522  0.00  0.00     0.027 A 
ATOM      4  C4  DEN d   1       1.965   0.341  -3.031  0.00  0.00     0.027 A 
ATOM      5  C5  DEN d   1       1.408   0.328  -4.291  0.00  0.00    -0.003 A 
ATOM      6  C6  DEN d   1       0.098  -0.007  -4.506  0.00  0.00     0.001 A 
ATOM      7  C7  DEN d   1      -0.712  -0.299  -3.440  0.00  0.00     0.017 A 
ATOM      8  C8  DEN d   1      -0.156  -0.295  -2.168  0.00  0.00    -0.094 A 
ATOM      9  C9  DEN d   1       1.168   0.058  -1.970  0.00  0.00    -0.072 A 
ENDROOT
TORSDOF 0
ENDMDL
