MODEL 1
REMARK minimizedAffinity -5.19721556
REMARK minimizedRMSD -1
REMARK  0 active torsions:
REMARK  status: ('A' for Active; 'I' for Inactive)
ROOT
ATOM      1  C1  DEN d   1      -0.095  -0.183   3.312  0.00  0.00     0.130 A 
ATOM      2  C2  DEN d   1       1.239  -0.773   3.237  0.00  0.00    -0.031 A 
ATOM      3  C3  DEN d   1       1.608  -0.886   1.812  0.00  0.00     0.027 A 
ATOM      4  C4  DEN d   1       0.254  -0.204  -0.275  0.00  0.00     0.027 A 
ATOM      5  C5  DEN d   1      -0.937   0.330  -0.715  0.00  0.00    -0.003 A 
ATOM      6  C6  DEN d   1      -1.936   0.695   0.148  0.00  0.00     0.001 A 
ATOM      7  C7  DEN d   1      -1.745   0.573   1.499  0.00  0.00     0.017 A 
ATOM      8  C8  DEN d   1      -0.550   0.030   1.950  0.00  0.00    -0.094 A 
ATOM      9  C9  DEN d   1       0.453  -0.322   1.062  0.00  0.00    -0.072 A 
ENDROOT
TORSDOF 0
ENDMDL
