MODEL 1
REMARK minimizedAffinity -4.2930088
REMARK minimizedRMSD -1
REMARK  0 active torsions:
REMARK  status: ('A' for Active; 'I' for Inactive)
ROOT
ATOM      1  C1  DEN d   1       0.705  -1.500  -0.624  0.00  0.00     0.130 A 
ATOM      2  C2  DEN d   1       0.809  -0.956  -1.976  0.00  0.00    -0.031 A 
ATOM      3  C3  DEN d   1       0.103   0.340  -2.001  0.00  0.00     0.027 A 
ATOM      4  C4  DEN d   1      -1.131   1.554  -0.089  0.00  0.00     0.027 A 
ATOM      5  C5  DEN d   1      -1.498   1.478   1.236  0.00  0.00    -0.003 A 
ATOM      6  C6  DEN d   1      -1.188   0.397   2.019  0.00  0.00     0.001 A 
ATOM      7  C7  DEN d   1      -0.452  -0.632   1.495  0.00  0.00     0.017 A 
ATOM      8  C8  DEN d   1      -0.084  -0.566   0.157  0.00  0.00    -0.094 A 
ATOM      9  C9  DEN d   1      -0.396   0.541  -0.614  0.00  0.00    -0.072 A 
ENDROOT
TORSDOF 0
ENDMDL
