MODEL 1
REMARK minimizedAffinity -4.0771718
REMARK minimizedRMSD -1
REMARK  0 active torsions:
REMARK  status: ('A' for Active; 'I' for Inactive)
ROOT
ATOM      1  C1  DEN d   1       1.661  -0.883   1.856  0.00  0.00     0.130 A 
ATOM      2  C2  DEN d   1       1.594  -0.915   3.314  0.00  0.00    -0.031 A 
ATOM      3  C3  DEN d   1       0.297  -0.342   3.725  0.00  0.00     0.027 A 
ATOM      4  C4  DEN d   1      -1.607   0.584   2.251  0.00  0.00     0.027 A 
ATOM      5  C5  DEN d   1      -2.004   0.832   0.956  0.00  0.00    -0.003 A 
ATOM      6  C6  DEN d   1      -1.201   0.560  -0.120  0.00  0.00     0.001 A 
ATOM      7  C7  DEN d   1       0.025  -0.020   0.078  0.00  0.00     0.017 A 
ATOM      8  C8  DEN d   1       0.435  -0.266   1.382  0.00  0.00    -0.094 A 
ATOM      9  C9  DEN d   1      -0.397   0.005   2.455  0.00  0.00    -0.072 A 
ENDROOT
TORSDOF 0
ENDMDL
