MODEL 1
REMARK minimizedAffinity 6.23745012
REMARK minimizedRMSD -1
REMARK  1 active torsions:
REMARK  status: ('A' for Active; 'I' for Inactive)
REMARK    1  A    between atoms: C1_2  and  C2_3 
ROOT
ATOM      1  C2  UNL d   1       2.119   0.042   2.167  0.00  0.00    -0.076 A 
ATOM      2  C3  UNL d   1       1.857  -1.041   3.024  0.00  0.00     0.004 A 
ATOM      3  C4  UNL d   1       0.739  -1.043   3.857  0.00  0.00    -0.003 A 
ATOM      4  C5  UNL d   1      -0.136   0.038   3.846  0.00  0.00     0.000 A 
ATOM      5  C6  UNL d   1       0.099   1.113   2.989  0.00  0.00     0.000 A 
ATOM      6  C7  UNL d   1       1.213   1.123   2.131  0.00  0.00    -0.073 A 
ATOM      7  C8  UNL d   1       1.421   2.311   1.233  0.00  0.00     0.078 C 
ENDROOT
BRANCH   1   8
ATOM      8  C1  UNL d   1       3.361   0.000   1.307  0.00  0.00     0.053 C 
ATOM      9  C   UNL d   1       4.182  -1.261   1.529  0.00  0.00     0.018 C 
ENDBRANCH   1   8
TORSDOF 1
ENDMDL
