MODEL 1
REMARK minimizedAffinity 11.6105795
REMARK minimizedRMSD -1
REMARK  1 active torsions:
REMARK  status: ('A' for Active; 'I' for Inactive)
REMARK    1  A    between atoms: C1_2  and  C2_3 
ROOT
ATOM      1  C2  UNL d   1       3.330  -1.138   2.451  0.00  0.00    -0.076 A 
ATOM      2  C3  UNL d   1       2.612  -1.627   3.556  0.00  0.00     0.004 A 
ATOM      3  C4  UNL d   1       1.240  -1.410   3.673  0.00  0.00    -0.003 A 
ATOM      4  C5  UNL d   1       0.564  -0.701   2.686  0.00  0.00     0.000 A 
ATOM      5  C6  UNL d   1       1.257  -0.224   1.574  0.00  0.00     0.000 A 
ATOM      6  C7  UNL d   1       2.637  -0.449   1.433  0.00  0.00    -0.073 A 
ATOM      7  C8  UNL d   1       3.336   0.093   0.216  0.00  0.00     0.078 C 
ENDROOT
BRANCH   1   8
ATOM      8  C1  UNL d   1       4.821  -1.381   2.391  0.00  0.00     0.053 C 
ATOM      9  C   UNL d   1       5.464  -1.397   3.770  0.00  0.00     0.018 C 
ENDBRANCH   1   8
TORSDOF 1
ENDMDL
