MODEL 1
REMARK minimizedAffinity 9.80839634
REMARK minimizedRMSD -1
REMARK  1 active torsions:
REMARK  status: ('A' for Active; 'I' for Inactive)
REMARK    1  A    between atoms: C1_2  and  C2_3 
ROOT
ATOM      1  C2  UNL d   1      -3.308  -3.934  -0.745  0.00  0.00    -0.076 A 
ATOM      2  C3  UNL d   1      -2.556  -3.493   0.358  0.00  0.00     0.004 A 
ATOM      3  C4  UNL d   1      -2.416  -4.288   1.494  0.00  0.00    -0.003 A 
ATOM      4  C5  UNL d   1      -3.025  -5.537   1.547  0.00  0.00     0.000 A 
ATOM      5  C6  UNL d   1      -3.760  -5.998   0.455  0.00  0.00     0.000 A 
ATOM      6  C7  UNL d   1      -3.897  -5.216  -0.705  0.00  0.00    -0.073 A 
ATOM      7  C8  UNL d   1      -4.706  -5.761  -1.851  0.00  0.00     0.078 C 
ENDROOT
BRANCH   1   8
ATOM      8  C1  UNL d   1      -3.448  -3.018  -1.940  0.00  0.00     0.053 C 
ATOM      9  C   UNL d   1      -2.152  -2.297  -2.275  0.00  0.00     0.018 C 
ENDBRANCH   1   8
TORSDOF 1
ENDMDL
