MODEL 1
REMARK minimizedAffinity 11.9699697
REMARK minimizedRMSD -1
REMARK  1 active torsions:
REMARK  status: ('A' for Active; 'I' for Inactive)
REMARK    1  A    between atoms: C1_2  and  C2_3 
ROOT
ATOM      1  C2  UNL d   1      -3.626   3.987   2.386  0.00  0.00    -0.076 A 
ATOM      2  C3  UNL d   1      -2.243   4.164   2.214  0.00  0.00     0.004 A 
ATOM      3  C4  UNL d   1      -1.733   4.753   1.058  0.00  0.00    -0.003 A 
ATOM      4  C5  UNL d   1      -2.599   5.176   0.056  0.00  0.00     0.000 A 
ATOM      5  C6  UNL d   1      -3.976   5.025   0.218  0.00  0.00     0.000 A 
ATOM      6  C7  UNL d   1      -4.507   4.448   1.384  0.00  0.00    -0.073 A 
ATOM      7  C8  UNL d   1      -5.999   4.304   1.503  0.00  0.00     0.078 C 
ENDROOT
BRANCH   1   8
ATOM      8  C1  UNL d   1      -4.120   3.318   3.649  0.00  0.00     0.053 C 
ATOM      9  C   UNL d   1      -4.419   1.840   3.446  0.00  0.00     0.018 C 
ENDBRANCH   1   8
TORSDOF 1
ENDMDL
