MODEL 1
REMARK minimizedAffinity 10.6239271
REMARK minimizedRMSD -1
REMARK  1 active torsions:
REMARK  status: ('A' for Active; 'I' for Inactive)
REMARK    1  A    between atoms: C1_2  and  C2_3 
ROOT
ATOM      1  C2  UNL d   1       3.854  -0.805  -4.644  0.00  0.00    -0.076 A 
ATOM      2  C3  UNL d   1       3.227   0.244  -3.949  0.00  0.00     0.004 A 
ATOM      3  C4  UNL d   1       3.975   1.260  -3.356  0.00  0.00    -0.003 A 
ATOM      4  C5  UNL d   1       5.362   1.244  -3.450  0.00  0.00     0.000 A 
ATOM      5  C6  UNL d   1       6.000   0.221  -4.150  0.00  0.00     0.000 A 
ATOM      6  C7  UNL d   1       5.260  -0.802  -4.768  0.00  0.00    -0.073 A 
ATOM      7  C8  UNL d   1       5.999  -1.884  -5.505  0.00  0.00     0.078 C 
ENDROOT
BRANCH   1   8
ATOM      8  C1  UNL d   1       2.992  -1.893  -5.243  0.00  0.00     0.053 C 
ATOM      9  C   UNL d   1       2.304  -2.741  -4.184  0.00  0.00     0.018 C 
ENDBRANCH   1   8
TORSDOF 1
ENDMDL
