MODEL 1
REMARK minimizedAffinity 7.44927597
REMARK minimizedRMSD -1
REMARK  1 active torsions:
REMARK  status: ('A' for Active; 'I' for Inactive)
REMARK    1  A    between atoms: C1_2  and  C2_3 
ROOT
ATOM      1  C2  UNL d   1       4.060   1.743   0.637  0.00  0.00    -0.076 A 
ATOM      2  C3  UNL d   1       4.207   0.683   1.549  0.00  0.00     0.004 A 
ATOM      3  C4  UNL d   1       5.156  -0.316   1.340  0.00  0.00    -0.003 A 
ATOM      4  C5  UNL d   1       5.974  -0.272   0.217  0.00  0.00     0.000 A 
ATOM      5  C6  UNL d   1       5.854   0.781  -0.689  0.00  0.00     0.000 A 
ATOM      6  C7  UNL d   1       4.914   1.806  -0.486  0.00  0.00    -0.073 A 
ATOM      7  C8  UNL d   1       4.823   2.914  -1.498  0.00  0.00     0.078 C 
ENDROOT
BRANCH   1   8
ATOM      8  C1  UNL d   1       2.995   2.783   0.901  0.00  0.00     0.053 C 
ATOM      9  C   UNL d   1       1.762   2.198   1.570  0.00  0.00     0.018 C 
ENDBRANCH   1   8
TORSDOF 1
ENDMDL
