MODEL 1
REMARK minimizedAffinity 18.8461895
REMARK minimizedRMSD -1
REMARK  1 active torsions:
REMARK  status: ('A' for Active; 'I' for Inactive)
REMARK    1  A    between atoms: C1_2  and  C2_3 
ROOT
ATOM      1  C2  UNL d   1       1.047   1.709   2.395  0.00  0.00    -0.076 A 
ATOM      2  C3  UNL d   1       1.803   1.774   1.212  0.00  0.00     0.004 A 
ATOM      3  C4  UNL d   1       2.979   1.038   1.071  0.00  0.00    -0.003 A 
ATOM      4  C5  UNL d   1       3.416   0.224   2.110  0.00  0.00     0.000 A 
ATOM      5  C6  UNL d   1       2.669   0.134   3.284  0.00  0.00     0.000 A 
ATOM      6  C7  UNL d   1       1.473   0.857   3.436  0.00  0.00    -0.073 A 
ATOM      7  C8  UNL d   1       0.710   0.726   4.726  0.00  0.00     0.078 C 
ENDROOT
BRANCH   1   8
ATOM      8  C1  UNL d   1      -0.205   2.551   2.502  0.00  0.00     0.053 C 
ATOM      9  C   UNL d   1      -0.298   3.598   1.403  0.00  0.00     0.018 C 
ENDBRANCH   1   8
TORSDOF 1
ENDMDL
