MODEL 1
REMARK minimizedAffinity 17.0572433
REMARK minimizedRMSD -1
REMARK  1 active torsions:
REMARK  status: ('A' for Active; 'I' for Inactive)
REMARK    1  A    between atoms: C1_2  and  C2_3 
ROOT
ATOM      1  C2  UNL d   1      -2.150  -2.994  -2.463  0.00  0.00    -0.076 A 
ATOM      2  C3  UNL d   1      -1.119  -2.653  -1.571  0.00  0.00     0.004 A 
ATOM      3  C4  UNL d   1      -1.399  -2.307  -0.250  0.00  0.00    -0.003 A 
ATOM      4  C5  UNL d   1      -2.714  -2.296   0.200  0.00  0.00     0.000 A 
ATOM      5  C6  UNL d   1      -3.748  -2.648  -0.667  0.00  0.00     0.000 A 
ATOM      6  C7  UNL d   1      -3.482  -3.016  -1.997  0.00  0.00    -0.073 A 
ATOM      7  C8  UNL d   1      -4.637  -3.380  -2.890  0.00  0.00     0.078 C 
ENDROOT
BRANCH   1   8
ATOM      8  C1  UNL d   1      -1.789  -3.335  -3.892  0.00  0.00     0.053 C 
ATOM      9  C   UNL d   1      -0.833  -4.513  -3.985  0.00  0.00     0.018 C 
ENDBRANCH   1   8
TORSDOF 1
ENDMDL
