MODEL 1
REMARK minimizedAffinity 18.0888519
REMARK minimizedRMSD -1
REMARK  1 active torsions:
REMARK  status: ('A' for Active; 'I' for Inactive)
REMARK    1  A    between atoms: C1_2  and  C2_3 
ROOT
ATOM      1  C2  UNL d   1       2.497   3.226  -4.875  0.00  0.00    -0.076 A 
ATOM      2  C3  UNL d   1       1.965   3.880  -6.000  0.00  0.00     0.004 A 
ATOM      3  C4  UNL d   1       1.739   5.256  -5.990  0.00  0.00    -0.003 A 
ATOM      4  C5  UNL d   1       2.043   5.999  -4.855  0.00  0.00     0.000 A 
ATOM      5  C6  UNL d   1       2.588   5.369  -3.736  0.00  0.00     0.000 A 
ATOM      6  C7  UNL d   1       2.837   3.986  -3.736  0.00  0.00    -0.073 A 
ATOM      7  C8  UNL d   1       3.420   3.358  -2.500  0.00  0.00     0.078 C 
ENDROOT
BRANCH   1   8
ATOM      8  C1  UNL d   1       2.695   1.728  -4.935  0.00  0.00     0.053 C 
ATOM      9  C   UNL d   1       4.164   1.334  -4.940  0.00  0.00     0.018 C 
ENDBRANCH   1   8
TORSDOF 1
ENDMDL
