MODEL 1
REMARK minimizedAffinity 13.161643
REMARK minimizedRMSD -1
REMARK  1 active torsions:
REMARK  status: ('A' for Active; 'I' for Inactive)
REMARK    1  A    between atoms: C1_2  and  C2_3 
ROOT
ATOM      1  C2  UNL d   1       3.287   1.385  -0.068  0.00  0.00    -0.076 A 
ATOM      2  C3  UNL d   1       2.110   2.147   0.030  0.00  0.00     0.004 A 
ATOM      3  C4  UNL d   1       1.091   1.783   0.908  0.00  0.00    -0.003 A 
ATOM      4  C5  UNL d   1       1.232   0.650   1.703  0.00  0.00     0.000 A 
ATOM      5  C6  UNL d   1       2.400  -0.108   1.631  0.00  0.00     0.000 A 
ATOM      6  C7  UNL d   1       3.445   0.255   0.763  0.00  0.00    -0.073 A 
ATOM      7  C8  UNL d   1       4.680  -0.603   0.722  0.00  0.00     0.078 C 
ENDROOT
BRANCH   1   8
ATOM      8  C1  UNL d   1       4.347   1.813  -1.058  0.00  0.00     0.053 C 
ATOM      9  C   UNL d   1       3.759   2.504  -2.278  0.00  0.00     0.018 C 
ENDBRANCH   1   8
TORSDOF 1
ENDMDL
