MODEL 1
REMARK minimizedAffinity 16.1197834
REMARK minimizedRMSD -1
REMARK  1 active torsions:
REMARK  status: ('A' for Active; 'I' for Inactive)
REMARK    1  A    between atoms: C1_2  and  C2_3 
ROOT
ATOM      1  C2  UNL d   1       3.596   1.732  -2.875  0.00  0.00    -0.076 A 
ATOM      2  C3  UNL d   1       4.680   1.374  -2.055  0.00  0.00     0.004 A 
ATOM      3  C4  UNL d   1       5.870   0.901  -2.605  0.00  0.00    -0.003 A 
ATOM      4  C5  UNL d   1       5.996   0.779  -3.985  0.00  0.00     0.000 A 
ATOM      5  C6  UNL d   1       4.937   1.147  -4.814  0.00  0.00     0.000 A 
ATOM      6  C7  UNL d   1       3.736   1.641  -4.276  0.00  0.00    -0.073 A 
ATOM      7  C8  UNL d   1       2.624   2.016  -5.217  0.00  0.00     0.078 C 
ENDROOT
BRANCH   1   8
ATOM      8  C1  UNL d   1       2.321   2.213  -2.220  0.00  0.00     0.053 C 
ATOM      9  C   UNL d   1       2.583   3.138  -1.042  0.00  0.00     0.018 C 
ENDBRANCH   1   8
TORSDOF 1
ENDMDL
