MODEL 1
REMARK minimizedAffinity -3.82962132
REMARK minimizedRMSD -1
REMARK  2 active torsions:
REMARK  status: ('A' for Active; 'I' for Inactive)
REMARK    1  A    between atoms: C2'_3  and  C1'_4 
REMARK    2  A    between atoms: C1'_4  and  C1_5 
ROOT
ATOM      1  C1  I4B d   1       0.559  -0.183  -0.344  0.00  0.00    -0.075 A 
ATOM      2  C2  I4B d   1       0.151   0.305  -1.561  0.00  0.00     0.003 A 
ATOM      3  C3  I4B d   1      -1.176   0.091  -2.005  0.00  0.00     0.002 A 
ATOM      4  C4  I4B d   1      -2.041  -0.653  -1.230  0.00  0.00    -0.004 A 
ATOM      5  C5  I4B d   1      -1.633  -1.127   0.013  0.00  0.00     0.002 A 
ATOM      6  C6  I4B d   1      -0.328  -0.881   0.465  0.00  0.00     0.003 A 
ENDROOT
BRANCH   1   7
ATOM      7  C1' I4B d   1       1.978   0.032   0.079  0.00  0.00     0.060 C 
BRANCH   7   8
ATOM      8  C2' I4B d   1       2.271   1.516  -0.008  0.00  0.00    -0.013 C 
ATOM      9  C4' I4B d   1       2.347   2.138   1.362  0.00  0.00     0.013 C 
ATOM     10  C3' I4B d   1       3.560   1.690  -0.755  0.00  0.00     0.013 C 
ENDBRANCH   7   8
ENDBRANCH   1   7
TORSDOF 2
ENDMDL
