MODEL 1
REMARK minimizedAffinity -3.1096437
REMARK minimizedRMSD -1
REMARK  2 active torsions:
REMARK  status: ('A' for Active; 'I' for Inactive)
REMARK    1  A    between atoms: C2'_3  and  C1'_4 
REMARK    2  A    between atoms: C1'_4  and  C1_5 
ROOT
ATOM      1  C1  I4B d   1       0.353   0.327  -0.055  0.00  0.00    -0.075 A 
ATOM      2  C2  I4B d   1      -0.032   1.323  -0.916  0.00  0.00     0.003 A 
ATOM      3  C3  I4B d   1      -1.097   1.108  -1.824  0.00  0.00     0.002 A 
ATOM      4  C4  I4B d   1      -1.711  -0.127  -1.871  0.00  0.00    -0.004 A 
ATOM      5  C5  I4B d   1      -1.335  -1.128  -0.981  0.00  0.00     0.002 A 
ATOM      6  C6  I4B d   1      -0.304  -0.897  -0.058  0.00  0.00     0.003 A 
ENDROOT
BRANCH   1   7
ATOM      7  C1' I4B d   1       1.504   0.577   0.868  0.00  0.00     0.060 C 
BRANCH   7   8
ATOM      8  C2' I4B d   1       1.920   2.026   0.714  0.00  0.00    -0.013 C 
ATOM      9  C4' I4B d   1       2.230   2.649   2.049  0.00  0.00     0.013 C 
ATOM     10  C3' I4B d   1       3.111   2.071  -0.195  0.00  0.00     0.013 C 
ENDBRANCH   7   8
ENDBRANCH   1   7
TORSDOF 2
ENDMDL
