MODEL 1
REMARK minimizedAffinity 9.7185936
REMARK minimizedRMSD -1
REMARK  2 active torsions:
REMARK  status: ('A' for Active; 'I' for Inactive)
REMARK    1  A    between atoms: C2'_3  and  C1'_4 
REMARK    2  A    between atoms: C1'_4  and  C1_5 
ROOT
ATOM      1  C1  I4B d   1      -2.178  -0.105  -1.852  0.00  0.00    -0.075 A 
ATOM      2  C2  I4B d   1      -1.615  -0.961  -2.765  0.00  0.00     0.003 A 
ATOM      3  C3  I4B d   1      -1.567  -2.351  -2.504  0.00  0.00     0.002 A 
ATOM      4  C4  I4B d   1      -2.046  -2.834  -1.303  0.00  0.00    -0.004 A 
ATOM      5  C5  I4B d   1      -2.637  -1.968  -0.388  0.00  0.00     0.002 A 
ATOM      6  C6  I4B d   1      -2.716  -0.596  -0.669  0.00  0.00     0.003 A 
ENDROOT
BRANCH   1   7
ATOM      7  C1' I4B d   1      -2.182   1.362  -2.145  0.00  0.00     0.060 C 
BRANCH   7   8
ATOM      8  C2' I4B d   1      -1.846   1.545  -3.611  0.00  0.00    -0.013 C 
ATOM      9  C4' I4B d   1      -2.887   2.381  -4.308  0.00  0.00     0.013 C 
ATOM     10  C3' I4B d   1      -0.492   2.183  -3.699  0.00  0.00     0.013 C 
ENDBRANCH   7   8
ENDBRANCH   1   7
TORSDOF 2
ENDMDL
