MODEL 1
REMARK minimizedAffinity -3.45236969
REMARK minimizedRMSD -1
REMARK  2 active torsions:
REMARK  status: ('A' for Active; 'I' for Inactive)
REMARK    1  A    between atoms: C2'_3  and  C1'_4 
REMARK    2  A    between atoms: C1'_4  and  C1_5 
ROOT
ATOM      1  C1  I4B d   1       2.503   1.338   1.053  0.00  0.00    -0.075 A 
ATOM      2  C2  I4B d   1       3.201   1.841  -0.016  0.00  0.00     0.003 A 
ATOM      3  C3  I4B d   1       3.597   3.201  -0.033  0.00  0.00     0.002 A 
ATOM      4  C4  I4B d   1       3.232   4.027   1.010  0.00  0.00    -0.004 A 
ATOM      5  C5  I4B d   1       2.545   3.510   2.104  0.00  0.00     0.002 A 
ATOM      6  C6  I4B d   1       2.188   2.153   2.132  0.00  0.00     0.003 A 
ENDROOT
BRANCH   1   7
ATOM      7  C1' I4B d   1       2.073  -0.095   1.022  0.00  0.00     0.060 C 
BRANCH   7   8
ATOM      8  C2' I4B d   1       0.560  -0.126   0.936  0.00  0.00    -0.013 C 
ATOM      9  C4' I4B d   1       0.092   0.060  -0.483  0.00  0.00     0.013 C 
ATOM     10  C3' I4B d   1       0.091  -1.436   1.494  0.00  0.00     0.013 C 
ENDBRANCH   7   8
ENDBRANCH   1   7
TORSDOF 2
ENDMDL
