MODEL 1
REMARK minimizedAffinity -2.88611269
REMARK minimizedRMSD -1
REMARK  2 active torsions:
REMARK  status: ('A' for Active; 'I' for Inactive)
REMARK    1  A    between atoms: C2'_3  and  C1'_4 
REMARK    2  A    between atoms: C1'_4  and  C1_5 
ROOT
ATOM      1  C1  I4B d   1       1.251   0.803   0.052  0.00  0.00    -0.075 A 
ATOM      2  C2  I4B d   1       2.274   1.470  -0.575  0.00  0.00     0.003 A 
ATOM      3  C3  I4B d   1       2.989   2.483   0.109  0.00  0.00     0.002 A 
ATOM      4  C4  I4B d   1       2.617   2.829   1.392  0.00  0.00    -0.004 A 
ATOM      5  C5  I4B d   1       1.595   2.136   2.034  0.00  0.00     0.002 A 
ATOM      6  C6  I4B d   1       0.916   1.107   1.364  0.00  0.00     0.003 A 
ENDROOT
BRANCH   1   7
ATOM      7  C1' I4B d   1       0.496  -0.239  -0.711  0.00  0.00     0.060 C 
BRANCH   7   8
ATOM      8  C2' I4B d   1      -0.796   0.385  -1.198  0.00  0.00    -0.013 C 
ATOM      9  C4' I4B d   1      -0.626   0.996  -2.564  0.00  0.00     0.013 C 
ATOM     10  C3' I4B d   1      -1.850  -0.683  -1.210  0.00  0.00     0.013 C 
ENDBRANCH   7   8
ENDBRANCH   1   7
TORSDOF 2
ENDMDL
