MODEL 1
REMARK minimizedAffinity -3.24775434
REMARK minimizedRMSD -1
REMARK  2 active torsions:
REMARK  status: ('A' for Active; 'I' for Inactive)
REMARK    1  A    between atoms: C2'_3  and  C1'_4 
REMARK    2  A    between atoms: C1'_4  and  C1_5 
ROOT
ATOM      1  C1  I4B d   1       0.408   0.081  -0.137  0.00  0.00    -0.075 A 
ATOM      2  C2  I4B d   1       0.091   0.958  -1.144  0.00  0.00     0.003 A 
ATOM      3  C3  I4B d   1      -1.096   0.781  -1.895  0.00  0.00     0.002 A 
ATOM      4  C4  I4B d   1      -1.906  -0.306  -1.641  0.00  0.00    -0.004 A 
ATOM      5  C5  I4B d   1      -1.595  -1.181  -0.604  0.00  0.00     0.002 A 
ATOM      6  C6  I4B d   1      -0.437  -0.980   0.161  0.00  0.00     0.003 A 
ENDROOT
BRANCH   1   7
ATOM      7  C1' I4B d   1       1.687   0.278   0.614  0.00  0.00     0.060 C 
BRANCH   7   8
ATOM      8  C2' I4B d   1       1.986   1.763   0.645  0.00  0.00    -0.013 C 
ATOM      9  C4' I4B d   1       2.270   2.233   2.047  0.00  0.00     0.013 C 
ATOM     10  C3' I4B d   1       3.156   2.017  -0.259  0.00  0.00     0.013 C 
ENDBRANCH   7   8
ENDBRANCH   1   7
TORSDOF 2
ENDMDL
