MODEL 1
REMARK minimizedAffinity -0.169461042
REMARK minimizedRMSD -1
REMARK  2 active torsions:
REMARK  status: ('A' for Active; 'I' for Inactive)
REMARK    1  A    between atoms: C2'_3  and  C1'_4 
REMARK    2  A    between atoms: C1'_4  and  C1_5 
ROOT
ATOM      1  C1  I4B d   1       1.237   0.792  -0.105  0.00  0.00    -0.075 A 
ATOM      2  C2  I4B d   1       0.840  -0.262   0.680  0.00  0.00     0.003 A 
ATOM      3  C3  I4B d   1      -0.422  -0.869   0.473  0.00  0.00     0.002 A 
ATOM      4  C4  I4B d   1      -1.271  -0.363  -0.491  0.00  0.00    -0.004 A 
ATOM      5  C5  I4B d   1      -0.857   0.690  -1.301  0.00  0.00     0.002 A 
ATOM      6  C6  I4B d   1       0.409   1.264  -1.116  0.00  0.00     0.003 A 
ENDROOT
BRANCH   1   7
ATOM      7  C1' I4B d   1       2.562   1.431   0.163  0.00  0.00     0.060 C 
BRANCH   7   8
ATOM      8  C2' I4B d   1       2.386   2.410   1.305  0.00  0.00    -0.013 C 
ATOM      9  C4' I4B d   1       3.278   2.059   2.467  0.00  0.00     0.013 C 
ATOM     10  C3' I4B d   1       2.687   3.785   0.787  0.00  0.00     0.013 C 
ENDBRANCH   7   8
ENDBRANCH   1   7
TORSDOF 2
ENDMDL
