MODEL 1
REMARK minimizedAffinity -2.68827629
REMARK minimizedRMSD -1
REMARK  2 active torsions:
REMARK  status: ('A' for Active; 'I' for Inactive)
REMARK    1  A    between atoms: C2'_3  and  C1'_4 
REMARK    2  A    between atoms: C1'_4  and  C1_5 
ROOT
ATOM      1  C1  I4B d   1       1.135   0.861  -0.635  0.00  0.00    -0.075 A 
ATOM      2  C2  I4B d   1       0.662  -0.353  -0.204  0.00  0.00     0.003 A 
ATOM      3  C3  I4B d   1      -0.628  -0.793  -0.588  0.00  0.00     0.002 A 
ATOM      4  C4  I4B d   1      -1.425   0.030  -1.357  0.00  0.00    -0.004 A 
ATOM      5  C5  I4B d   1      -0.935   1.250  -1.813  0.00  0.00     0.002 A 
ATOM      6  C6  I4B d   1       0.358   1.664  -1.460  0.00  0.00     0.003 A 
ENDROOT
BRANCH   1   7
ATOM      7  C1' I4B d   1       2.489   1.309  -0.183  0.00  0.00     0.060 C 
BRANCH   7   8
ATOM      8  C2' I4B d   1       2.301   2.451   0.794  0.00  0.00    -0.013 C 
ATOM      9  C4' I4B d   1       2.942   2.143   2.122  0.00  0.00     0.013 C 
ATOM     10  C3' I4B d   1       2.890   3.686   0.182  0.00  0.00     0.013 C 
ENDBRANCH   7   8
ENDBRANCH   1   7
TORSDOF 2
ENDMDL
