MODEL 1
REMARK minimizedAffinity -3.97455859
REMARK minimizedRMSD -1
REMARK  1 active torsions:
REMARK  status: ('A' for Active; 'I' for Inactive)
REMARK    1  A    between atoms: C1_2  and  C2_3 
ROOT
ATOM      1  C2  UNL d   1      -0.289   0.324  -0.861  0.00  0.00    -0.077 A 
ATOM      2  C3  UNL d   1      -0.140   1.141  -1.991  0.00  0.00     0.002 A 
ATOM      3  C4  UNL d   1      -0.014   2.524  -1.850  0.00  0.00     0.002 A 
ATOM      4  C5  UNL d   1      -0.031   3.102  -0.583  0.00  0.00    -0.004 A 
ATOM      5  C6  UNL d   1      -0.181   2.298   0.547  0.00  0.00     0.002 A 
ATOM      6  C7  UNL d   1      -0.309   0.916   0.408  0.00  0.00     0.002 A 
ENDROOT
BRANCH   1   7
ATOM      7  C1  UNL d   1      -0.376  -1.173  -1.008  0.00  0.00     0.055 C 
ATOM      8  C   UNL d   1      -1.426  -1.568  -2.036  0.00  0.00     0.019 C 
ENDBRANCH   1   7
TORSDOF 1
ENDMDL
