MODEL 1
REMARK minimizedAffinity -3.95857048
REMARK minimizedRMSD -1
REMARK  1 active torsions:
REMARK  status: ('A' for Active; 'I' for Inactive)
REMARK    1  A    between atoms: C1_2  and  C2_3 
ROOT
ATOM      1  C2  UNL d   1      -0.323   0.092  -0.005  0.00  0.00    -0.077 A 
ATOM      2  C3  UNL d   1       0.433   1.015  -0.742  0.00  0.00     0.002 A 
ATOM      3  C4  UNL d   1       0.209   2.386  -0.599  0.00  0.00     0.002 A 
ATOM      4  C5  UNL d   1      -0.767   2.846   0.282  0.00  0.00    -0.004 A 
ATOM      5  C6  UNL d   1      -1.525   1.936   1.018  0.00  0.00     0.002 A 
ATOM      6  C7  UNL d   1      -1.304   0.566   0.876  0.00  0.00     0.002 A 
ENDROOT
BRANCH   1   7
ATOM      7  C1  UNL d   1      -0.049  -1.385  -0.120  0.00  0.00     0.055 C 
ATOM      8  C   UNL d   1      -0.161  -1.857  -1.563  0.00  0.00     0.019 C 
ENDBRANCH   1   7
TORSDOF 1
ENDMDL
