MODEL 1
REMARK minimizedAffinity -1.96667588
REMARK minimizedRMSD -1
REMARK  1 active torsions:
REMARK  status: ('A' for Active; 'I' for Inactive)
REMARK    1  A    between atoms: C1_2  and  C2_3 
ROOT
ATOM      1  C2  UNL d   1       0.825   1.543  -0.152  0.00  0.00    -0.077 A 
ATOM      2  C3  UNL d   1       0.131   2.600   0.454  0.00  0.00     0.002 A 
ATOM      3  C4  UNL d   1      -1.128   2.386   1.019  0.00  0.00     0.002 A 
ATOM      4  C5  UNL d   1      -1.701   1.116   0.987  0.00  0.00    -0.004 A 
ATOM      5  C6  UNL d   1      -1.019   0.059   0.386  0.00  0.00     0.002 A 
ATOM      6  C7  UNL d   1       0.238   0.271  -0.180  0.00  0.00     0.002 A 
ENDROOT
BRANCH   1   7
ATOM      7  C1  UNL d   1       2.204   1.761  -0.718  0.00  0.00     0.055 C 
ATOM      8  C   UNL d   1       3.250   0.966   0.051  0.00  0.00     0.019 C 
ENDBRANCH   1   7
TORSDOF 1
ENDMDL
