MODEL 1
REMARK minimizedAffinity -5.46817493
REMARK minimizedRMSD -1
REMARK  1 active torsions:
REMARK  status: ('A' for Active; 'I' for Inactive)
REMARK    1  A    between atoms: C1_2  and  C2_3 
ROOT
ATOM      1  C2  UNL d   1       0.013   0.197   0.468  0.00  0.00    -0.077 A 
ATOM      2  C3  UNL d   1      -1.162   0.908   0.751  0.00  0.00     0.002 A 
ATOM      3  C4  UNL d   1      -1.222   2.286   0.535  0.00  0.00     0.002 A 
ATOM      4  C5  UNL d   1      -0.114   2.964   0.033  0.00  0.00    -0.004 A 
ATOM      5  C6  UNL d   1       1.060   2.266  -0.249  0.00  0.00     0.002 A 
ATOM      6  C7  UNL d   1       1.123   0.889  -0.033  0.00  0.00     0.002 A 
ENDROOT
BRANCH   1   7
ATOM      7  C1  UNL d   1       0.065  -1.297   0.654  0.00  0.00     0.055 C 
ATOM      8  C   UNL d   1      -0.065  -2.025  -0.677  0.00  0.00     0.019 C 
ENDBRANCH   1   7
TORSDOF 1
ENDMDL
