MODEL 1
REMARK minimizedAffinity -4.20396042
REMARK minimizedRMSD -1
REMARK  1 active torsions:
REMARK  status: ('A' for Active; 'I' for Inactive)
REMARK    1  A    between atoms: C1_2  and  C2_3 
ROOT
ATOM      1  C2  UNL d   1      -0.243  -0.361  -0.181  0.00  0.00    -0.077 A 
ATOM      2  C3  UNL d   1      -0.253  -0.370  -1.583  0.00  0.00     0.002 A 
ATOM      3  C4  UNL d   1      -0.217  -1.578  -2.282  0.00  0.00     0.002 A 
ATOM      4  C5  UNL d   1      -0.173  -2.785  -1.588  0.00  0.00    -0.004 A 
ATOM      5  C6  UNL d   1      -0.160  -2.787  -0.194  0.00  0.00     0.002 A 
ATOM      6  C7  UNL d   1      -0.196  -1.581   0.507  0.00  0.00     0.002 A 
ENDROOT
BRANCH   1   7
ATOM      7  C1  UNL d   1      -0.332   0.939   0.575  0.00  0.00     0.055 C 
ATOM      8  C   UNL d   1      -1.566   1.731   0.170  0.00  0.00     0.019 C 
ENDBRANCH   1   7
TORSDOF 1
ENDMDL
