MODEL 1
REMARK minimizedAffinity -4.01078463
REMARK minimizedRMSD -1
REMARK  1 active torsions:
REMARK  status: ('A' for Active; 'I' for Inactive)
REMARK    1  A    between atoms: C1_2  and  C2_3 
ROOT
ATOM      1  C2  UNL d   1      -0.003   0.115  -0.037  0.00  0.00    -0.077 A 
ATOM      2  C3  UNL d   1       1.026   0.792  -0.705  0.00  0.00     0.002 A 
ATOM      3  C4  UNL d   1       1.180   2.172  -0.553  0.00  0.00     0.002 A 
ATOM      4  C5  UNL d   1       0.310   2.884   0.270  0.00  0.00    -0.004 A 
ATOM      5  C6  UNL d   1      -0.719   2.220   0.937  0.00  0.00     0.002 A 
ATOM      6  C7  UNL d   1      -0.874   0.842   0.785  0.00  0.00     0.002 A 
ENDROOT
BRANCH   1   7
ATOM      7  C1  UNL d   1      -0.140  -1.380  -0.161  0.00  0.00     0.055 C 
ATOM      8  C   UNL d   1      -0.373  -1.796  -1.606  0.00  0.00     0.019 C 
ENDBRANCH   1   7
TORSDOF 1
ENDMDL
