MODEL 1
REMARK minimizedAffinity -5.94608784
REMARK minimizedRMSD -1
REMARK  1 active torsions:
REMARK  status: ('A' for Active; 'I' for Inactive)
REMARK    1  A    between atoms: C1_2  and  C2_3 
ROOT
ATOM      1  C2  UNL d   1       0.490   1.314  -0.551  0.00  0.00    -0.077 A 
ATOM      2  C3  UNL d   1      -0.530   0.351  -0.547  0.00  0.00     0.002 A 
ATOM      3  C4  UNL d   1      -0.254  -0.968  -0.181  0.00  0.00     0.002 A 
ATOM      4  C5  UNL d   1       1.038  -1.335   0.188  0.00  0.00    -0.004 A 
ATOM      5  C6  UNL d   1       2.059  -0.385   0.186  0.00  0.00     0.002 A 
ATOM      6  C7  UNL d   1       1.786   0.933  -0.181  0.00  0.00     0.002 A 
ENDROOT
BRANCH   1   7
ATOM      7  C1  UNL d   1       0.184   2.747  -0.898  0.00  0.00     0.055 C 
ATOM      8  C   UNL d   1      -0.148   3.559   0.346  0.00  0.00     0.019 C 
ENDBRANCH   1   7
TORSDOF 1
ENDMDL
