MODEL 1
REMARK minimizedAffinity -4.40671825
REMARK minimizedRMSD -1
REMARK  1 active torsions:
REMARK  status: ('A' for Active; 'I' for Inactive)
REMARK    1  A    between atoms: C1_2  and  C2_3 
ROOT
ATOM      1  C2  UNL d   1       0.412   0.063   0.259  0.00  0.00    -0.077 A 
ATOM      2  C3  UNL d   1      -0.852   0.625   0.488  0.00  0.00     0.002 A 
ATOM      3  C4  UNL d   1      -1.050   2.000   0.345  0.00  0.00     0.002 A 
ATOM      4  C5  UNL d   1       0.009   2.823  -0.031  0.00  0.00    -0.004 A 
ATOM      5  C6  UNL d   1       1.271   2.273  -0.259  0.00  0.00     0.002 A 
ATOM      6  C7  UNL d   1       1.471   0.900  -0.116  0.00  0.00     0.002 A 
ENDROOT
BRANCH   1   7
ATOM      7  C1  UNL d   1       0.616  -1.426   0.365  0.00  0.00     0.055 C 
ATOM      8  C   UNL d   1       0.007  -2.154  -0.825  0.00  0.00     0.019 C 
ENDBRANCH   1   7
TORSDOF 1
ENDMDL
