MODEL 1
REMARK minimizedAffinity -4.75582075
REMARK minimizedRMSD -1
REMARK  1 active torsions:
REMARK  status: ('A' for Active; 'I' for Inactive)
REMARK    1  A    between atoms: C1_2  and  C2_3 
ROOT
ATOM      1  C2  UNL d   1       0.021   0.395   0.049  0.00  0.00    -0.077 A 
ATOM      2  C3  UNL d   1      -0.990   1.180   0.621  0.00  0.00     0.002 A 
ATOM      3  C4  UNL d   1      -0.961   2.570   0.496  0.00  0.00     0.002 A 
ATOM      4  C5  UNL d   1       0.074   3.187  -0.204  0.00  0.00    -0.004 A 
ATOM      5  C6  UNL d   1       1.086   2.415  -0.774  0.00  0.00     0.002 A 
ATOM      6  C7  UNL d   1       1.059   1.025  -0.649  0.00  0.00     0.002 A 
ENDROOT
BRANCH   1   7
ATOM      7  C1  UNL d   1      -0.035  -1.108   0.141  0.00  0.00     0.055 C 
ATOM      8  C   UNL d   1      -0.098  -1.744  -1.239  0.00  0.00     0.019 C 
ENDBRANCH   1   7
TORSDOF 1
ENDMDL
