MODEL 1
REMARK minimizedAffinity -4.24874687
REMARK minimizedRMSD -1
REMARK  1 active torsions:
REMARK  status: ('A' for Active; 'I' for Inactive)
REMARK    1  A    between atoms: C1_2  and  C2_3 
ROOT
ATOM      1  C2  UNL d   1      -0.674  -1.311  -0.146  0.00  0.00    -0.077 A 
ATOM      2  C3  UNL d   1      -1.442  -0.382   0.570  0.00  0.00     0.002 A 
ATOM      3  C4  UNL d   1      -1.000   0.934   0.720  0.00  0.00     0.002 A 
ATOM      4  C5  UNL d   1       0.209   1.333   0.153  0.00  0.00    -0.004 A 
ATOM      5  C6  UNL d   1       0.981   0.416  -0.559  0.00  0.00     0.002 A 
ATOM      6  C7  UNL d   1       0.541  -0.900  -0.708  0.00  0.00     0.002 A 
ENDROOT
BRANCH   1   7
ATOM      7  C1  UNL d   1      -1.173  -2.718  -0.350  0.00  0.00     0.055 C 
ATOM      8  C   UNL d   1      -1.146  -3.106  -1.821  0.00  0.00     0.019 C 
ENDBRANCH   1   7
TORSDOF 1
ENDMDL
