MODEL 1
REMARK minimizedAffinity -4.74667501
REMARK minimizedRMSD -1
REMARK  1 active torsions:
REMARK  status: ('A' for Active; 'I' for Inactive)
REMARK    1  A    between atoms: C1_2  and  C2_3 
ROOT
ATOM      1  C2  UNL d   1      -0.192  -1.853  -0.993  0.00  0.00    -0.077 A 
ATOM      2  C3  UNL d   1      -0.008  -1.286  -2.262  0.00  0.00     0.002 A 
ATOM      3  C4  UNL d   1      -0.433  -1.963  -3.407  0.00  0.00     0.002 A 
ATOM      4  C5  UNL d   1      -1.048  -3.208  -3.294  0.00  0.00    -0.004 A 
ATOM      5  C6  UNL d   1      -1.234  -3.782  -2.036  0.00  0.00     0.002 A 
ATOM      6  C7  UNL d   1      -0.809  -3.107  -0.891  0.00  0.00     0.002 A 
ENDROOT
BRANCH   1   7
ATOM      7  C1  UNL d   1       0.221  -1.102   0.246  0.00  0.00     0.055 C 
ATOM      8  C   UNL d   1      -0.028   0.392   0.096  0.00  0.00     0.019 C 
ENDBRANCH   1   7
TORSDOF 1
ENDMDL
