MODEL 1
REMARK minimizedAffinity 1.02798367
REMARK minimizedRMSD -1
REMARK  1 active torsions:
REMARK  status: ('A' for Active; 'I' for Inactive)
REMARK    1  A    between atoms: C1_2  and  C2_3 
ROOT
ATOM      1  C2  UNL d   1       0.862   1.968   0.876  0.00  0.00    -0.077 A 
ATOM      2  C3  UNL d   1      -0.372   2.599   1.088  0.00  0.00     0.002 A 
ATOM      3  C4  UNL d   1      -1.565   1.930   0.807  0.00  0.00     0.002 A 
ATOM      4  C5  UNL d   1      -1.536   0.627   0.317  0.00  0.00    -0.004 A 
ATOM      5  C6  UNL d   1      -0.313  -0.009   0.100  0.00  0.00     0.002 A 
ATOM      6  C7  UNL d   1       0.880   0.659   0.379  0.00  0.00     0.002 A 
ENDROOT
BRANCH   1   7
ATOM      7  C1  UNL d   1       2.148   2.670   1.225  0.00  0.00     0.055 C 
ATOM      8  C   UNL d   1       3.359   1.842   0.819  0.00  0.00     0.019 C 
ENDBRANCH   1   7
TORSDOF 1
ENDMDL
