MODEL 1
REMARK minimizedAffinity -5.61096287
REMARK minimizedRMSD -1
REMARK  1 active torsions:
REMARK  status: ('A' for Active; 'I' for Inactive)
REMARK    1  A    between atoms: C1_2  and  C2_3 
ROOT
ATOM      1  C2  UNL d   1      -0.823   0.931   0.392  0.00  0.00    -0.077 A 
ATOM      2  C3  UNL d   1      -0.350   2.129   0.947  0.00  0.00     0.002 A 
ATOM      3  C4  UNL d   1       0.039   3.185   0.120  0.00  0.00     0.002 A 
ATOM      4  C5  UNL d   1      -0.046   3.056  -1.264  0.00  0.00    -0.004 A 
ATOM      5  C6  UNL d   1      -0.514   1.869  -1.826  0.00  0.00     0.002 A 
ATOM      6  C7  UNL d   1      -0.901   0.811  -1.002  0.00  0.00     0.002 A 
ENDROOT
BRANCH   1   7
ATOM      7  C1  UNL d   1      -1.288  -0.191   1.282  0.00  0.00     0.055 C 
ATOM      8  C   UNL d   1      -0.456  -1.447   1.070  0.00  0.00     0.019 C 
ENDBRANCH   1   7
TORSDOF 1
ENDMDL
