MODEL 1
REMARK minimizedAffinity -4.47060156
REMARK minimizedRMSD -1
REMARK  1 active torsions:
REMARK  status: ('A' for Active; 'I' for Inactive)
REMARK    1  A    between atoms: C1_2  and  C2_3 
ROOT
ATOM      1  C2  UNL d   1       1.131   0.932   0.694  0.00  0.00    -0.077 A 
ATOM      2  C3  UNL d   1       0.262   2.027   0.799  0.00  0.00     0.002 A 
ATOM      3  C4  UNL d   1      -1.119   1.845   0.703  0.00  0.00     0.002 A 
ATOM      4  C5  UNL d   1      -1.643   0.569   0.507  0.00  0.00    -0.004 A 
ATOM      5  C6  UNL d   1      -0.787  -0.527   0.399  0.00  0.00     0.002 A 
ATOM      6  C7  UNL d   1       0.593  -0.346   0.493  0.00  0.00     0.002 A 
ENDROOT
BRANCH   1   7
ATOM      7  C1  UNL d   1       2.618   1.120   0.845  0.00  0.00     0.055 C 
ATOM      8  C   UNL d   1       2.942   2.442   1.525  0.00  0.00     0.019 C 
ENDBRANCH   1   7
TORSDOF 1
ENDMDL
