MODEL 1
REMARK minimizedAffinity 10.4168367
REMARK minimizedRMSD -1
REMARK  1 active torsions:
REMARK  status: ('A' for Active; 'I' for Inactive)
REMARK    1  A    between atoms: N_2  and  C1_3 
ROOT
ATOM      1  C1  UNL d   1       1.307   0.740   2.037  0.00  0.00     0.143 A 
ATOM      2  C2  UNL d   1       2.344   0.197   1.272  0.00  0.00    -0.057 A 
ATOM      3  C3  UNL d   1       2.523  -1.188   1.171  0.00  0.00     0.033 A 
ATOM      4  C4  UNL d   1       1.683  -2.056   1.860  0.00  0.00    -0.042 A 
ATOM      5  C5  UNL d   1       0.661  -1.538   2.647  0.00  0.00     0.033 A 
ATOM      6  C6  UNL d   1       0.482  -0.154   2.738  0.00  0.00    -0.057 A 
ENDROOT
BRANCH   1   7
ATOM      7  N   UNL d   1       1.136   2.109   2.256  0.00  0.00    -0.732 N 
ATOM      8  C   UNL d   1       1.819   2.772   3.347  0.00  0.00     0.284 C 
ATOM      9  H3  UNL d   1       1.123   2.642   1.389  0.00  0.00     0.395 HD
ENDBRANCH   1   7
TORSDOF 1
ENDMDL
