MODEL 1
REMARK minimizedAffinity 5.93711805
REMARK minimizedRMSD -1
REMARK  1 active torsions:
REMARK  status: ('A' for Active; 'I' for Inactive)
REMARK    1  A    between atoms: N_2  and  C1_3 
ROOT
ATOM      1  C1  UNL d   1      -3.887  -1.054  -3.231  0.00  0.00     0.143 A 
ATOM      2  C2  UNL d   1      -3.330   0.217  -3.407  0.00  0.00    -0.057 A 
ATOM      3  C3  UNL d   1      -3.692   1.290  -2.583  0.00  0.00     0.033 A 
ATOM      4  C4  UNL d   1      -4.642   1.115  -1.582  0.00  0.00    -0.042 A 
ATOM      5  C5  UNL d   1      -5.227  -0.133  -1.404  0.00  0.00     0.033 A 
ATOM      6  C6  UNL d   1      -4.857  -1.202  -2.227  0.00  0.00    -0.057 A 
ENDROOT
BRANCH   1   7
ATOM      7  N   UNL d   1      -3.642  -2.135  -4.081  0.00  0.00    -0.732 N 
ATOM      8  C   UNL d   1      -4.739  -2.872  -4.671  0.00  0.00     0.284 C 
ATOM      9  H3  UNL d   1      -2.868  -1.961  -4.717  0.00  0.00     0.395 HD
ENDBRANCH   1   7
TORSDOF 1
ENDMDL
