MODEL 1
REMARK minimizedAffinity 2.70967007
REMARK minimizedRMSD -1
REMARK  1 active torsions:
REMARK  status: ('A' for Active; 'I' for Inactive)
REMARK    1  A    between atoms: N_2  and  C1_3 
ROOT
ATOM      1  C1  UNL d   1      -5.372  -3.444  -5.161  0.00  0.00     0.143 A 
ATOM      2  C2  UNL d   1      -4.139  -3.597  -5.803  0.00  0.00    -0.057 A 
ATOM      3  C3  UNL d   1      -3.573  -4.863  -5.998  0.00  0.00     0.033 A 
ATOM      4  C4  UNL d   1      -4.221  -6.000  -5.526  0.00  0.00    -0.042 A 
ATOM      5  C5  UNL d   1      -5.436  -5.870  -4.862  0.00  0.00     0.033 A 
ATOM      6  C6  UNL d   1      -5.998  -4.603  -4.677  0.00  0.00    -0.057 A 
ENDROOT
BRANCH   1   7
ATOM      7  N   UNL d   1      -5.939  -2.205  -4.851  0.00  0.00    -0.732 N 
ATOM      8  C   UNL d   1      -5.220  -1.249  -4.037  0.00  0.00     0.284 C 
ATOM      9  H3  UNL d   1      -6.428  -1.793  -5.642  0.00  0.00     0.395 HD
ENDBRANCH   1   7
TORSDOF 1
ENDMDL
