MODEL 1
REMARK minimizedAffinity 4.25006008
REMARK minimizedRMSD -1
REMARK  1 active torsions:
REMARK  status: ('A' for Active; 'I' for Inactive)
REMARK    1  A    between atoms: N_2  and  C1_3 
ROOT
ATOM      1  C1  UNL d   1       1.427  -1.178   2.738  0.00  0.00     0.143 A 
ATOM      2  C2  UNL d   1       1.364   0.178   2.403  0.00  0.00    -0.057 A 
ATOM      3  C3  UNL d   1       2.073   0.690   1.310  0.00  0.00     0.033 A 
ATOM      4  C4  UNL d   1       2.884  -0.144   0.547  0.00  0.00    -0.042 A 
ATOM      5  C5  UNL d   1       2.982  -1.491   0.877  0.00  0.00     0.033 A 
ATOM      6  C6  UNL d   1       2.266  -1.997   1.966  0.00  0.00    -0.057 A 
ENDROOT
BRANCH   1   7
ATOM      7  N   UNL d   1       0.824  -1.728   3.872  0.00  0.00    -0.732 N 
ATOM      8  C   UNL d   1       1.591  -1.957   5.078  0.00  0.00     0.284 C 
ATOM      9  H3  UNL d   1      -0.108  -1.354   4.036  0.00  0.00     0.395 HD
ENDBRANCH   1   7
TORSDOF 1
ENDMDL
