MODEL 1
REMARK minimizedAffinity 12.1592751
REMARK minimizedRMSD -1
REMARK  1 active torsions:
REMARK  status: ('A' for Active; 'I' for Inactive)
REMARK    1  A    between atoms: N_2  and  C1_3 
ROOT
ATOM      1  C1  UNL d   1      -5.011   1.496  -3.581  0.00  0.00     0.143 A 
ATOM      2  C2  UNL d   1      -5.821   1.765  -2.473  0.00  0.00    -0.057 A 
ATOM      3  C3  UNL d   1      -5.994   0.820  -1.454  0.00  0.00     0.033 A 
ATOM      4  C4  UNL d   1      -5.382  -0.426  -1.542  0.00  0.00    -0.042 A 
ATOM      5  C5  UNL d   1      -4.592  -0.724  -2.646  0.00  0.00     0.033 A 
ATOM      6  C6  UNL d   1      -4.417   0.226  -3.657  0.00  0.00    -0.057 A 
ENDROOT
BRANCH   1   7
ATOM      7  N   UNL d   1      -4.877   2.357  -4.674  0.00  0.00    -0.732 N 
ATOM      8  C   UNL d   1      -5.273   1.932  -5.999  0.00  0.00     0.284 C 
ATOM      9  H3  UNL d   1      -5.138   3.314  -4.449  0.00  0.00     0.395 HD
ENDBRANCH   1   7
TORSDOF 1
ENDMDL
