MODEL 1
REMARK minimizedAffinity 2.81437898
REMARK minimizedRMSD -1
REMARK  1 active torsions:
REMARK  status: ('A' for Active; 'I' for Inactive)
REMARK    1  A    between atoms: N_2  and  C1_3 
ROOT
ATOM      1  C1  UNL d   1       1.375  -1.485   1.065  0.00  0.00     0.143 A 
ATOM      2  C2  UNL d   1       1.338  -2.833   1.441  0.00  0.00    -0.057 A 
ATOM      3  C3  UNL d   1       0.138  -3.554   1.438  0.00  0.00     0.033 A 
ATOM      4  C4  UNL d   1      -1.055  -2.931   1.087  0.00  0.00    -0.042 A 
ATOM      5  C5  UNL d   1      -1.046  -1.586   0.734  0.00  0.00     0.033 A 
ATOM      6  C6  UNL d   1       0.156  -0.873   0.732  0.00  0.00    -0.057 A 
ENDROOT
BRANCH   1   7
ATOM      7  N   UNL d   1       2.519  -0.688   1.142  0.00  0.00    -0.732 N 
ATOM      8  C   UNL d   1       2.574   0.437   2.050  0.00  0.00     0.284 C 
ATOM      9  H3  UNL d   1       3.376  -1.234   1.104  0.00  0.00     0.395 HD
ENDBRANCH   1   7
TORSDOF 1
ENDMDL
