MODEL 1
REMARK minimizedAffinity -0.412151754
REMARK minimizedRMSD -1
REMARK  0 active torsions:
REMARK  status: ('A' for Active; 'I' for Inactive)
ROOT
ATOM      1  C4' PXY d   1       1.858  -5.976  -5.926  0.00  0.00     0.077 C 
ATOM      2  C1' PXY d   1      -3.151  -5.987  -3.041  0.00  0.00     0.077 C 
ATOM      3  C1  PXY d   1      -1.843  -5.989  -3.808  0.00  0.00    -0.082 A 
ATOM      4  C2  PXY d   1      -0.697  -6.000  -3.147  0.00  0.00     0.003 A 
ATOM      5  C3  PXY d   1       0.494  -5.970  -3.824  0.00  0.00     0.003 A 
ATOM      6  C4  PXY d   1       0.514  -5.983  -5.193  0.00  0.00    -0.082 A 
ATOM      7  C5  PXY d   1      -0.651  -5.982  -5.875  0.00  0.00     0.003 A 
ATOM      8  C6  PXY d   1      -1.850  -5.971  -5.168  0.00  0.00     0.003 A 
ENDROOT
TORSDOF 0
ENDMDL
