MODEL 1
REMARK minimizedAffinity -0.0801624358
REMARK minimizedRMSD -1
REMARK  0 active torsions:
REMARK  status: ('A' for Active; 'I' for Inactive)
ROOT
ATOM      1  C4' PXY d   1       1.077  -5.974  -5.918  0.00  0.00     0.077 C 
ATOM      2  C1' PXY d   1      -3.863  -6.000  -2.916  0.00  0.00     0.077 C 
ATOM      3  C1  PXY d   1      -2.574  -5.998  -3.713  0.00  0.00    -0.082 A 
ATOM      4  C2  PXY d   1      -1.413  -6.000  -3.079  0.00  0.00     0.003 A 
ATOM      5  C3  PXY d   1      -0.237  -5.967  -3.784  0.00  0.00     0.003 A 
ATOM      6  C4  PXY d   1      -0.250  -5.985  -5.153  0.00  0.00    -0.082 A 
ATOM      7  C5  PXY d   1      -1.431  -5.994  -5.808  0.00  0.00     0.003 A 
ATOM      8  C6  PXY d   1      -2.613  -5.986  -5.073  0.00  0.00     0.003 A 
ENDROOT
TORSDOF 0
ENDMDL
