MODEL 1
REMARK minimizedAffinity 4.11659431
REMARK minimizedRMSD -1
REMARK  0 active torsions:
REMARK  status: ('A' for Active; 'I' for Inactive)
ROOT
ATOM      1  C4' PXY d   1       5.998   1.215  -2.075  0.00  0.00     0.077 C 
ATOM      2  C1' PXY d   1       1.822   4.162   0.624  0.00  0.00     0.077 C 
ATOM      3  C1  PXY d   1       2.921   3.400  -0.090  0.00  0.00    -0.082 A 
ATOM      4  C2  PXY d   1       2.800   2.095  -0.273  0.00  0.00     0.003 A 
ATOM      5  C3  PXY d   1       3.799   1.385  -0.888  0.00  0.00     0.003 A 
ATOM      6  C4  PXY d   1       4.909   2.026  -1.368  0.00  0.00    -0.082 A 
ATOM      7  C5  PXY d   1       5.035   3.359  -1.195  0.00  0.00     0.003 A 
ATOM      8  C6  PXY d   1       4.029   4.055  -0.531  0.00  0.00     0.003 A 
ENDROOT
TORSDOF 0
ENDMDL
