MODEL 1
REMARK minimizedAffinity -1.85316682
REMARK minimizedRMSD -1
REMARK  0 active torsions:
REMARK  status: ('A' for Active; 'I' for Inactive)
ROOT
ATOM      1  C4' PXY d   1      -3.735  -6.000  -2.349  0.00  0.00     0.077 C 
ATOM      2  C1' PXY d   1       1.289  -5.968  -5.207  0.00  0.00     0.077 C 
ATOM      3  C1  PXY d   1      -0.023  -5.982  -4.447  0.00  0.00    -0.082 A 
ATOM      4  C2  PXY d   1      -1.165  -5.988  -5.115  0.00  0.00     0.003 A 
ATOM      5  C3  PXY d   1      -2.361  -5.968  -4.443  0.00  0.00     0.003 A 
ATOM      6  C4  PXY d   1      -2.387  -5.996  -3.075  0.00  0.00    -0.082 A 
ATOM      7  C5  PXY d   1      -1.226  -6.000  -2.387  0.00  0.00     0.003 A 
ATOM      8  C6  PXY d   1      -0.023  -5.978  -3.087  0.00  0.00     0.003 A 
ENDROOT
TORSDOF 0
ENDMDL
