MODEL 1
REMARK minimizedAffinity 5.03750801
REMARK minimizedRMSD -1
REMARK  0 active torsions:
REMARK  status: ('A' for Active; 'I' for Inactive)
ROOT
ATOM      1  C4' PXY d   1       0.332  -3.353   1.315  0.00  0.00     0.077 C 
ATOM      2  C1' PXY d   1       1.879   1.996  -0.238  0.00  0.00     0.077 C 
ATOM      3  C1  PXY d   1       1.486   0.591   0.172  0.00  0.00    -0.082 A 
ATOM      4  C2  PXY d   1       0.383   0.050  -0.320  0.00  0.00     0.003 A 
ATOM      5  C3  PXY d   1      -0.005  -1.207   0.065  0.00  0.00     0.003 A 
ATOM      6  C4  PXY d   1       0.773  -1.940   0.921  0.00  0.00    -0.082 A 
ATOM      7  C5  PXY d   1       1.906  -1.400   1.419  0.00  0.00     0.003 A 
ATOM      8  C6  PXY d   1       2.260  -0.106   1.047  0.00  0.00     0.003 A 
ENDROOT
TORSDOF 0
ENDMDL
