MODEL 1
REMARK minimizedAffinity 1.1517117
REMARK minimizedRMSD -1
REMARK  0 active torsions:
REMARK  status: ('A' for Active; 'I' for Inactive)
ROOT
ATOM      1  C4' PXY d   1       2.116  -5.991  -5.768  0.00  0.00     0.077 C 
ATOM      2  C1' PXY d   1      -2.459  -5.923  -2.235  0.00  0.00     0.077 C 
ATOM      3  C1  PXY d   1      -1.251  -5.936  -3.152  0.00  0.00    -0.082 A 
ATOM      4  C2  PXY d   1      -1.425  -5.897  -4.463  0.00  0.00     0.003 A 
ATOM      5  C3  PXY d   1      -0.346  -5.940  -5.307  0.00  0.00     0.003 A 
ATOM      6  C4  PXY d   1       0.927  -5.970  -4.804  0.00  0.00    -0.082 A 
ATOM      7  C5  PXY d   1       1.113  -6.000  -3.467  0.00  0.00     0.003 A 
ATOM      8  C6  PXY d   1       0.003  -5.997  -2.628  0.00  0.00     0.003 A 
ENDROOT
TORSDOF 0
ENDMDL
