MODEL 1
REMARK minimizedAffinity 1.03093743
REMARK minimizedRMSD -1
REMARK  0 active torsions:
REMARK  status: ('A' for Active; 'I' for Inactive)
ROOT
ATOM      1  C4' PXY d   1      -3.505  -5.867  -2.526  0.00  0.00     0.077 C 
ATOM      2  C1' PXY d   1       1.349  -6.000  -5.663  0.00  0.00     0.077 C 
ATOM      3  C1  PXY d   1       0.083  -5.970  -4.830  0.00  0.00    -0.082 A 
ATOM      4  C2  PXY d   1      -1.096  -5.976  -5.431  0.00  0.00     0.003 A 
ATOM      5  C3  PXY d   1      -2.251  -5.917  -4.694  0.00  0.00     0.003 A 
ATOM      6  C4  PXY d   1      -2.200  -5.906  -3.326  0.00  0.00    -0.082 A 
ATOM      7  C5  PXY d   1      -1.001  -5.911  -2.705  0.00  0.00     0.003 A 
ATOM      8  C6  PXY d   1       0.160  -5.929  -3.472  0.00  0.00     0.003 A 
ENDROOT
TORSDOF 0
ENDMDL
