MODEL 1
REMARK minimizedAffinity -2.11373568
REMARK minimizedRMSD -1
REMARK  0 active torsions:
REMARK  status: ('A' for Active; 'I' for Inactive)
ROOT
ATOM      1  C4' PXY d   1      -3.173  -5.996  -2.627  0.00  0.00     0.077 C 
ATOM      2  C1' PXY d   1       1.523  -5.984  -5.999  0.00  0.00     0.077 C 
ATOM      3  C1  PXY d   1       0.298  -5.992  -5.105  0.00  0.00    -0.082 A 
ATOM      4  C2  PXY d   1      -0.908  -6.000  -5.649  0.00  0.00     0.003 A 
ATOM      5  C3  PXY d   1      -2.026  -5.975  -4.855  0.00  0.00     0.003 A 
ATOM      6  C4  PXY d   1      -1.908  -5.997  -3.491  0.00  0.00    -0.082 A 
ATOM      7  C5  PXY d   1      -0.681  -6.000  -2.929  0.00  0.00     0.003 A 
ATOM      8  C6  PXY d   1       0.441  -5.983  -3.752  0.00  0.00     0.003 A 
ENDROOT
TORSDOF 0
ENDMDL
