MODEL 1
REMARK minimizedAffinity 0.107591882
REMARK minimizedRMSD -1
REMARK  0 active torsions:
REMARK  status: ('A' for Active; 'I' for Inactive)
ROOT
ATOM      1  C4' PXY d   1      -2.512  -5.823  -4.985  0.00  0.00     0.077 C 
ATOM      2  C1' PXY d   1       3.247  -5.969  -4.501  0.00  0.00     0.077 C 
ATOM      3  C1  PXY d   1       1.738  -5.924  -4.640  0.00  0.00    -0.082 A 
ATOM      4  C2  PXY d   1       0.979  -6.000  -3.558  0.00  0.00     0.003 A 
ATOM      5  C3  PXY d   1      -0.387  -5.993  -3.668  0.00  0.00     0.003 A 
ATOM      6  C4  PXY d   1      -0.984  -5.855  -4.892  0.00  0.00    -0.082 A 
ATOM      7  C5  PXY d   1      -0.216  -5.766  -6.000  0.00  0.00     0.003 A 
ATOM      8  C6  PXY d   1       1.169  -5.816  -5.871  0.00  0.00     0.003 A 
ENDROOT
TORSDOF 0
ENDMDL
