MODEL 1
REMARK minimizedAffinity 2.85328603
REMARK minimizedRMSD -1
REMARK  0 active torsions:
REMARK  status: ('A' for Active; 'I' for Inactive)
ROOT
ATOM      1  C4' PXY d   1       1.118  -2.852   5.595  0.00  0.00     0.077 C 
ATOM      2  C1' PXY d   1       2.458   0.085   0.800  0.00  0.00     0.077 C 
ATOM      3  C1  PXY d   1       2.095  -0.689   2.052  0.00  0.00    -0.082 A 
ATOM      4  C2  PXY d   1       2.608  -0.327   3.216  0.00  0.00     0.003 A 
ATOM      5  C3  PXY d   1       2.316  -1.035   4.354  0.00  0.00     0.003 A 
ATOM      6  C4  PXY d   1       1.449  -2.093   4.307  0.00  0.00    -0.082 A 
ATOM      7  C5  PXY d   1       0.913  -2.463   3.124  0.00  0.00     0.003 A 
ATOM      8  C6  PXY d   1       1.254  -1.756   1.975  0.00  0.00     0.003 A 
ENDROOT
TORSDOF 0
ENDMDL
