MODEL 1
REMARK minimizedAffinity 0.55112958
REMARK minimizedRMSD -1
REMARK  0 active torsions:
REMARK  status: ('A' for Active; 'I' for Inactive)
ROOT
ATOM      1  C4' PXY d   1       0.327  -5.954  -6.000  0.00  0.00     0.077 C 
ATOM      2  C1' PXY d   1      -3.756  -5.999  -1.909  0.00  0.00     0.077 C 
ATOM      3  C1  PXY d   1      -2.694  -5.993  -2.990  0.00  0.00    -0.082 A 
ATOM      4  C2  PXY d   1      -1.415  -5.975  -2.651  0.00  0.00     0.003 A 
ATOM      5  C3  PXY d   1      -0.442  -5.937  -3.616  0.00  0.00     0.003 A 
ATOM      6  C4  PXY d   1      -0.779  -5.970  -4.942  0.00  0.00    -0.082 A 
ATOM      7  C5  PXY d   1      -2.081  -5.999  -5.297  0.00  0.00     0.003 A 
ATOM      8  C6  PXY d   1      -3.055  -5.996  -4.302  0.00  0.00     0.003 A 
ENDROOT
TORSDOF 0
ENDMDL
