MODEL 1
REMARK minimizedAffinity -3.55808854
REMARK minimizedRMSD -1
REMARK  0 active torsions:
REMARK  status: ('A' for Active; 'I' for Inactive)
ROOT
ATOM      1  C4' PXY d   1       1.905  -5.974  -4.834  0.00  0.00     0.077 C 
ATOM      2  C1' PXY d   1      -3.777  -5.999  -3.775  0.00  0.00     0.077 C 
ATOM      3  C1  PXY d   1      -2.285  -5.987  -4.041  0.00  0.00    -0.082 A 
ATOM      4  C2  PXY d   1      -1.843  -5.974  -5.288  0.00  0.00     0.003 A 
ATOM      5  C3  PXY d   1      -0.496  -5.995  -5.547  0.00  0.00     0.003 A 
ATOM      6  C4  PXY d   1       0.407  -5.977  -4.518  0.00  0.00    -0.082 A 
ATOM      7  C5  PXY d   1      -0.036  -5.979  -3.243  0.00  0.00     0.003 A 
ATOM      8  C6  PXY d   1      -1.407  -5.999  -3.002  0.00  0.00     0.003 A 
ENDROOT
TORSDOF 0
ENDMDL
