MODEL 1
REMARK minimizedAffinity -1.58886433
REMARK minimizedRMSD -1
REMARK  0 active torsions:
REMARK  status: ('A' for Active; 'I' for Inactive)
ROOT
ATOM      1  C4' PXY d   1      -0.438  -5.763  -6.000  0.00  0.00     0.077 C 
ATOM      2  C1' PXY d   1      -2.791  -6.000  -0.725  0.00  0.00     0.077 C 
ATOM      3  C1  PXY d   1      -2.163  -5.933  -2.103  0.00  0.00    -0.082 A 
ATOM      4  C2  PXY d   1      -2.938  -5.842  -3.172  0.00  0.00     0.003 A 
ATOM      5  C3  PXY d   1      -2.388  -5.812  -4.427  0.00  0.00     0.003 A 
ATOM      6  C4  PXY d   1      -1.028  -5.823  -4.588  0.00  0.00    -0.082 A 
ATOM      7  C5  PXY d   1      -0.230  -5.905  -3.503  0.00  0.00     0.003 A 
ATOM      8  C6  PXY d   1      -0.809  -5.975  -2.239  0.00  0.00     0.003 A 
ENDROOT
TORSDOF 0
ENDMDL
