MODEL 1
REMARK minimizedAffinity 0.538757384
REMARK minimizedRMSD -1
REMARK  0 active torsions:
REMARK  status: ('A' for Active; 'I' for Inactive)
ROOT
ATOM      1  C4' PXY d   1      -2.771  -5.999  -2.558  0.00  0.00     0.077 C 
ATOM      2  C1' PXY d   1      -5.979  -5.981   2.251  0.00  0.00     0.077 C 
ATOM      3  C1  PXY d   1      -5.148  -5.991   0.983  0.00  0.00    -0.082 A 
ATOM      4  C2  PXY d   1      -3.827  -6.000   1.067  0.00  0.00     0.003 A 
ATOM      5  C3  PXY d   1      -3.060  -5.977  -0.069  0.00  0.00     0.003 A 
ATOM      6  C4  PXY d   1      -3.650  -5.998  -1.304  0.00  0.00    -0.082 A 
ATOM      7  C5  PXY d   1      -4.997  -6.000  -1.398  0.00  0.00     0.003 A 
ATOM      8  C6  PXY d   1      -5.758  -5.982  -0.233  0.00  0.00     0.003 A 
ENDROOT
TORSDOF 0
ENDMDL
