MODEL 1
REMARK minimizedAffinity -2.79517746
REMARK minimizedRMSD -1
REMARK  0 active torsions:
REMARK  status: ('A' for Active; 'I' for Inactive)
ROOT
ATOM      1  C4' PXY d   1       0.520  -5.968  -5.980  0.00  0.00     0.077 C 
ATOM      2  C1' PXY d   1      -3.631  -6.000  -1.957  0.00  0.00     0.077 C 
ATOM      3  C1  PXY d   1      -2.534  -5.986  -3.003  0.00  0.00    -0.082 A 
ATOM      4  C2  PXY d   1      -2.855  -5.979  -4.287  0.00  0.00     0.003 A 
ATOM      5  C3  PXY d   1      -1.875  -5.999  -5.246  0.00  0.00     0.003 A 
ATOM      6  C4  PXY d   1      -0.554  -5.972  -4.889  0.00  0.00    -0.082 A 
ATOM      7  C5  PXY d   1      -0.219  -5.969  -3.581  0.00  0.00     0.003 A 
ATOM      8  C6  PXY d   1      -1.228  -5.990  -2.622  0.00  0.00     0.003 A 
ENDROOT
TORSDOF 0
ENDMDL
