MODEL 1
REMARK minimizedAffinity -0.650381982
REMARK minimizedRMSD -1
REMARK  0 active torsions:
REMARK  status: ('A' for Active; 'I' for Inactive)
ROOT
ATOM      1  C4' PXY d   1       0.393  -5.942  -5.987  0.00  0.00     0.077 C 
ATOM      2  C1' PXY d   1      -3.222  -6.000  -1.477  0.00  0.00     0.077 C 
ATOM      3  C1  PXY d   1      -2.265  -5.980  -2.652  0.00  0.00    -0.082 A 
ATOM      4  C2  PXY d   1      -2.744  -5.958  -3.885  0.00  0.00     0.003 A 
ATOM      5  C3  PXY d   1      -1.892  -5.972  -4.960  0.00  0.00     0.003 A 
ATOM      6  C4  PXY d   1      -0.537  -5.953  -4.770  0.00  0.00    -0.082 A 
ATOM      7  C5  PXY d   1      -0.040  -5.964  -3.515  0.00  0.00     0.003 A 
ATOM      8  C6  PXY d   1      -0.921  -5.992  -2.438  0.00  0.00     0.003 A 
ENDROOT
TORSDOF 0
ENDMDL
