MODEL 1
REMARK minimizedAffinity -2.48274279
REMARK minimizedRMSD -1
REMARK  0 active torsions:
REMARK  status: ('A' for Active; 'I' for Inactive)
ROOT
ATOM      1  C4' PXY d   1      -3.136  -5.997  -2.080  0.00  0.00     0.077 C 
ATOM      2  C1' PXY d   1       1.111  -5.928  -6.000  0.00  0.00     0.077 C 
ATOM      3  C1  PXY d   1       0.006  -5.952  -4.963  0.00  0.00    -0.082 A 
ATOM      4  C2  PXY d   1      -1.258  -5.947  -5.355  0.00  0.00     0.003 A 
ATOM      5  C3  PXY d   1      -2.271  -5.936  -4.430  0.00  0.00     0.003 A 
ATOM      6  C4  PXY d   1      -1.987  -5.984  -3.091  0.00  0.00    -0.082 A 
ATOM      7  C5  PXY d   1      -0.700  -6.000  -2.684  0.00  0.00     0.003 A 
ATOM      8  C6  PXY d   1       0.313  -5.969  -3.638  0.00  0.00     0.003 A 
ENDROOT
TORSDOF 0
ENDMDL
