MODEL 1
REMARK minimizedAffinity -1.59762824
REMARK minimizedRMSD -1
REMARK  0 active torsions:
REMARK  status: ('A' for Active; 'I' for Inactive)
ROOT
ATOM      1  C4' PXY d   1      -4.329  -5.999  -4.392  0.00  0.00     0.077 C 
ATOM      2  C1' PXY d   1       1.405  -5.932  -5.119  0.00  0.00     0.077 C 
ATOM      3  C1  PXY d   1      -0.097  -5.955  -4.916  0.00  0.00    -0.082 A 
ATOM      4  C2  PXY d   1      -0.899  -5.952  -5.969  0.00  0.00     0.003 A 
ATOM      5  C3  PXY d   1      -2.260  -5.941  -5.803  0.00  0.00     0.003 A 
ATOM      6  C4  PXY d   1      -2.806  -5.986  -4.549  0.00  0.00    -0.082 A 
ATOM      7  C5  PXY d   1      -1.995  -5.999  -3.470  0.00  0.00     0.003 A 
ATOM      8  C6  PXY d   1      -0.616  -5.969  -3.658  0.00  0.00     0.003 A 
ENDROOT
TORSDOF 0
ENDMDL
