MODEL 1
REMARK minimizedAffinity -5.16198778
REMARK minimizedRMSD -1
REMARK  0 active torsions:
REMARK  status: ('A' for Active; 'I' for Inactive)
ROOT
ATOM      1  C   UNL d   1       2.937   0.020   1.486  0.00  0.00     0.077 C 
ATOM      2  C1  UNL d   1       1.511   0.370   1.788  0.00  0.00    -0.074 A 
ATOM      3  C2  UNL d   1       1.181   1.145   2.905  0.00  0.00    -0.005 A 
ATOM      4  C3  UNL d   1      -0.149   1.471   3.167  0.00  0.00     0.006 A 
ATOM      5  C4  UNL d   1      -1.162   1.026   2.317  0.00  0.00    -0.005 A 
ATOM      6  C5  UNL d   1      -0.852   0.251   1.195  0.00  0.00    -0.074 A 
ATOM      7  C6  UNL d   1      -1.928  -0.227   0.265  0.00  0.00     0.077 C 
ATOM      8  C7  UNL d   1       0.488  -0.066   0.934  0.00  0.00    -0.001 A 
ENDROOT
TORSDOF 0
ENDMDL
