MODEL 1
REMARK minimizedAffinity 0.0733857751
REMARK minimizedRMSD -1
REMARK  0 active torsions:
REMARK  status: ('A' for Active; 'I' for Inactive)
ROOT
ATOM      1  C   UNL d   1      -1.951  -0.853   0.236  0.00  0.00     0.077 C 
ATOM      2  C1  UNL d   1      -1.116   0.009   1.136  0.00  0.00    -0.074 A 
ATOM      3  C2  UNL d   1      -1.535   0.308   2.437  0.00  0.00    -0.005 A 
ATOM      4  C3  UNL d   1      -0.744   1.104   3.265  0.00  0.00     0.006 A 
ATOM      5  C4  UNL d   1       0.471   1.608   2.802  0.00  0.00    -0.005 A 
ATOM      6  C5  UNL d   1       0.907   1.320   1.505  0.00  0.00    -0.074 A 
ATOM      7  C6  UNL d   1       2.216   1.846   0.996  0.00  0.00     0.077 C 
ATOM      8  C7  UNL d   1       0.110   0.514   0.681  0.00  0.00    -0.001 A 
ENDROOT
TORSDOF 0
ENDMDL
