MODEL 1
REMARK minimizedAffinity 0.169288352
REMARK minimizedRMSD -1
REMARK  0 active torsions:
REMARK  status: ('A' for Active; 'I' for Inactive)
ROOT
ATOM      1  C   UNL d   1      -1.243  -0.398  -1.397  0.00  0.00     0.077 C 
ATOM      2  C1  UNL d   1      -1.294  -0.036   0.058  0.00  0.00    -0.074 A 
ATOM      3  C2  UNL d   1      -2.186  -0.674   0.927  0.00  0.00    -0.005 A 
ATOM      4  C3  UNL d   1      -2.215  -0.333   2.279  0.00  0.00     0.006 A 
ATOM      5  C4  UNL d   1      -1.355   0.646   2.776  0.00  0.00    -0.005 A 
ATOM      6  C5  UNL d   1      -0.456   1.294   1.922  0.00  0.00    -0.074 A 
ATOM      7  C6  UNL d   1       0.483   2.342   2.442  0.00  0.00     0.077 C 
ATOM      8  C7  UNL d   1      -0.427   0.942   0.566  0.00  0.00    -0.001 A 
ENDROOT
TORSDOF 0
ENDMDL
