MODEL 1
REMARK minimizedAffinity -2.9230082
REMARK minimizedRMSD -1
REMARK  0 active torsions:
REMARK  status: ('A' for Active; 'I' for Inactive)
ROOT
ATOM      1  C   UNL d   1      -2.339  -0.795  -0.046  0.00  0.00     0.077 C 
ATOM      2  C1  UNL d   1      -1.387  -0.057   0.848  0.00  0.00    -0.074 A 
ATOM      3  C2  UNL d   1      -1.738   0.262   2.164  0.00  0.00    -0.005 A 
ATOM      4  C3  UNL d   1      -0.839   0.940   2.987  0.00  0.00     0.006 A 
ATOM      5  C4  UNL d   1       0.418   1.305   2.503  0.00  0.00    -0.005 A 
ATOM      6  C5  UNL d   1       0.787   0.994   1.191  0.00  0.00    -0.074 A 
ATOM      7  C6  UNL d   1       2.137   1.371   0.658  0.00  0.00     0.077 C 
ATOM      8  C7  UNL d   1      -0.120   0.306   0.372  0.00  0.00    -0.001 A 
ENDROOT
TORSDOF 0
ENDMDL
