MODEL 1
REMARK minimizedAffinity -1.53328478
REMARK minimizedRMSD -1
REMARK  0 active torsions:
REMARK  status: ('A' for Active; 'I' for Inactive)
ROOT
ATOM      1  C   UNL d   1       2.350   1.389   0.639  0.00  0.00     0.077 C 
ATOM      2  C1  UNL d   1       1.019   1.065   1.250  0.00  0.00    -0.074 A 
ATOM      3  C2  UNL d   1       0.708   1.469   2.552  0.00  0.00    -0.005 A 
ATOM      4  C3  UNL d   1      -0.537   1.169   3.104  0.00  0.00     0.006 A 
ATOM      5  C4  UNL d   1      -1.483   0.463   2.360  0.00  0.00    -0.005 A 
ATOM      6  C5  UNL d   1      -1.191   0.051   1.056  0.00  0.00    -0.074 A 
ATOM      7  C6  UNL d   1      -2.200  -0.701   0.240  0.00  0.00     0.077 C 
ATOM      8  C7  UNL d   1       0.060   0.362   0.506  0.00  0.00    -0.001 A 
ENDROOT
TORSDOF 0
ENDMDL
