MODEL 1
REMARK minimizedAffinity -3.34945512
REMARK minimizedRMSD -1
REMARK  0 active torsions:
REMARK  status: ('A' for Active; 'I' for Inactive)
ROOT
ATOM      1  C   UNL d   1       2.614   1.436   1.483  0.00  0.00     0.077 C 
ATOM      2  C1  UNL d   1       1.150   1.163   1.655  0.00  0.00    -0.074 A 
ATOM      3  C2  UNL d   1       0.393   1.868   2.597  0.00  0.00    -0.005 A 
ATOM      4  C3  UNL d   1      -0.970   1.610   2.740  0.00  0.00     0.006 A 
ATOM      5  C4  UNL d   1      -1.590   0.645   1.944  0.00  0.00    -0.005 A 
ATOM      6  C5  UNL d   1      -0.849  -0.069   0.997  0.00  0.00    -0.074 A 
ATOM      7  C6  UNL d   1      -1.502  -1.102   0.127  0.00  0.00     0.077 C 
ATOM      8  C7  UNL d   1       0.518   0.201   0.854  0.00  0.00    -0.001 A 
ENDROOT
TORSDOF 0
ENDMDL
