MODEL 1
REMARK minimizedAffinity 2.68879986
REMARK minimizedRMSD -1
REMARK  0 active torsions:
REMARK  status: ('A' for Active; 'I' for Inactive)
ROOT
ATOM      1  C   UNL d   1       1.514   2.370   1.270  0.00  0.00     0.077 C 
ATOM      2  C1  UNL d   1       0.429   1.360   1.038  0.00  0.00    -0.074 A 
ATOM      3  C2  UNL d   1       0.075   0.971  -0.257  0.00  0.00    -0.005 A 
ATOM      4  C3  UNL d   1      -0.930   0.024  -0.457  0.00  0.00     0.006 A 
ATOM      5  C4  UNL d   1      -1.588  -0.543   0.635  0.00  0.00    -0.005 A 
ATOM      6  C5  UNL d   1      -1.246  -0.167   1.938  0.00  0.00    -0.074 A 
ATOM      7  C6  UNL d   1      -1.937  -0.774   3.122  0.00  0.00     0.077 C 
ATOM      8  C7  UNL d   1      -0.231   0.780   2.130  0.00  0.00    -0.001 A 
ENDROOT
TORSDOF 0
ENDMDL
