MODEL 1
REMARK minimizedAffinity 2.61670542
REMARK minimizedRMSD -1
REMARK  0 active torsions:
REMARK  status: ('A' for Active; 'I' for Inactive)
ROOT
ATOM      1  C   UNL d   1       0.009   0.753  -0.493  0.00  0.00     0.077 C 
ATOM      2  C1  UNL d   1      -0.671   0.112   0.680  0.00  0.00    -0.074 A 
ATOM      3  C2  UNL d   1      -2.025  -0.237   0.623  0.00  0.00    -0.005 A 
ATOM      4  C3  UNL d   1      -2.642  -0.841   1.718  0.00  0.00     0.006 A 
ATOM      5  C4  UNL d   1      -1.914  -1.102   2.879  0.00  0.00    -0.005 A 
ATOM      6  C5  UNL d   1      -0.559  -0.761   2.954  0.00  0.00    -0.074 A 
ATOM      7  C6  UNL d   1       0.240  -1.043   4.191  0.00  0.00     0.077 C 
ATOM      8  C7  UNL d   1       0.055  -0.161   1.847  0.00  0.00    -0.001 A 
ENDROOT
TORSDOF 0
ENDMDL
