MODEL 1
REMARK minimizedAffinity 10.6971531
REMARK minimizedRMSD -1
REMARK  2 active torsions:
REMARK  status: ('A' for Active; 'I' for Inactive)
REMARK    1  A    between atoms: C1_2  and  C2_3 
REMARK    2  A    between atoms: C2_3  and  C3_4 
ROOT
ATOM      1  C3  UNL d   1       2.842   5.498   5.326  0.00  0.00    -0.075 A 
ATOM      2  C4  UNL d   1       2.960   4.578   4.275  0.00  0.00     0.002 A 
ATOM      3  C5  UNL d   1       4.212   4.098   3.891  0.00  0.00     0.002 A 
ATOM      4  C6  UNL d   1       5.361   4.537   4.545  0.00  0.00    -0.004 A 
ATOM      5  C7  UNL d   1       5.257   5.464   5.580  0.00  0.00     0.002 A 
ATOM      6  C8  UNL d   1       4.005   5.943   5.969  0.00  0.00     0.002 A 
ENDROOT
BRANCH   1   7
ATOM      7  C2  UNL d   1       1.488   6.000   5.766  0.00  0.00     0.056 C 
BRANCH   7   8
ATOM      8  C1  UNL d   1       0.325   5.487   4.910  0.00  0.00     0.007 C 
ATOM      9  C   UNL d   1      -0.815   4.901   5.734  0.00  0.00     0.009 C 
ENDBRANCH   7   8
ENDBRANCH   1   7
TORSDOF 2
ENDMDL
