MODEL 1
REMARK minimizedAffinity -3.92066073
REMARK minimizedRMSD -1
REMARK  2 active torsions:
REMARK  status: ('A' for Active; 'I' for Inactive)
REMARK    1  A    between atoms: C1_2  and  C2_3 
REMARK    2  A    between atoms: C2_3  and  C3_4 
ROOT
ATOM      1  C3  UNL d   1       0.727  -1.702   0.813  0.00  0.00    -0.075 A 
ATOM      2  C4  UNL d   1       1.242  -0.458   1.208  0.00  0.00     0.002 A 
ATOM      3  C5  UNL d   1       0.436   0.461   1.880  0.00  0.00     0.002 A 
ATOM      4  C6  UNL d   1      -0.895   0.154   2.157  0.00  0.00    -0.004 A 
ATOM      5  C7  UNL d   1      -1.421  -1.072   1.756  0.00  0.00     0.002 A 
ATOM      6  C8  UNL d   1      -0.615  -1.995   1.087  0.00  0.00     0.002 A 
ENDROOT
BRANCH   1   7
ATOM      7  C2  UNL d   1       1.603  -2.712   0.112  0.00  0.00     0.056 C 
BRANCH   7   8
ATOM      8  C1  UNL d   1       2.658  -3.358   1.016  0.00  0.00     0.007 C 
ATOM      9  C   UNL d   1       3.480  -4.428   0.309  0.00  0.00     0.009 C 
ENDBRANCH   7   8
ENDBRANCH   1   7
TORSDOF 2
ENDMDL
