MODEL 1
REMARK minimizedAffinity 3.69682312
REMARK minimizedRMSD -1
REMARK  2 active torsions:
REMARK  status: ('A' for Active; 'I' for Inactive)
REMARK    1  A    between atoms: C1_2  and  C2_3 
REMARK    2  A    between atoms: C2_3  and  C3_4 
ROOT
ATOM      1  C3  UNL d   1       2.680  -3.042   0.416  0.00  0.00    -0.075 A 
ATOM      2  C4  UNL d   1       1.916  -3.417   1.531  0.00  0.00     0.002 A 
ATOM      3  C5  UNL d   1       0.541  -3.183   1.560  0.00  0.00     0.002 A 
ATOM      4  C6  UNL d   1      -0.085  -2.562   0.481  0.00  0.00    -0.004 A 
ATOM      5  C7  UNL d   1       0.667  -2.170  -0.625  0.00  0.00     0.002 A 
ATOM      6  C8  UNL d   1       2.042  -2.408  -0.658  0.00  0.00     0.002 A 
ENDROOT
BRANCH   1   7
ATOM      7  C2  UNL d   1       4.163  -3.320   0.367  0.00  0.00     0.056 C 
BRANCH   7   8
ATOM      8  C1  UNL d   1       4.531  -4.620  -0.357  0.00  0.00     0.007 C 
ATOM      9  C   UNL d   1       6.000  -4.994  -0.211  0.00  0.00     0.009 C 
ENDBRANCH   7   8
ENDBRANCH   1   7
TORSDOF 2
ENDMDL
