MODEL 1
REMARK minimizedAffinity 3.83543611
REMARK minimizedRMSD -1
REMARK  2 active torsions:
REMARK  status: ('A' for Active; 'I' for Inactive)
REMARK    1  A    between atoms: C1_2  and  C2_3 
REMARK    2  A    between atoms: C2_3  and  C3_4 
ROOT
ATOM      1  C3  UNL d   1       2.490  -3.609   0.972  0.00  0.00    -0.075 A 
ATOM      2  C4  UNL d   1       3.560  -3.191   0.169  0.00  0.00     0.002 A 
ATOM      3  C5  UNL d   1       4.817  -3.784   0.298  0.00  0.00     0.002 A 
ATOM      4  C6  UNL d   1       5.021  -4.793   1.236  0.00  0.00    -0.004 A 
ATOM      5  C7  UNL d   1       3.969  -5.205   2.052  0.00  0.00     0.002 A 
ATOM      6  C8  UNL d   1       2.710  -4.616   1.922  0.00  0.00     0.002 A 
ENDROOT
BRANCH   1   7
ATOM      7  C2  UNL d   1       1.120  -2.993   0.817  0.00  0.00     0.056 C 
BRANCH   7   8
ATOM      8  C1  UNL d   1      -0.023  -3.876   1.326  0.00  0.00     0.007 C 
ATOM      9  C   UNL d   1      -1.083  -3.101   2.099  0.00  0.00     0.009 C 
ENDBRANCH   7   8
ENDBRANCH   1   7
TORSDOF 2
ENDMDL
