MODEL 1
REMARK minimizedAffinity 2.26701593
REMARK minimizedRMSD -1
REMARK  2 active torsions:
REMARK  status: ('A' for Active; 'I' for Inactive)
REMARK    1  A    between atoms: C1_2  and  C2_3 
REMARK    2  A    between atoms: C2_3  and  C3_4 
ROOT
ATOM      1  C3  UNL d   1      -1.918   2.991  -4.315  0.00  0.00    -0.075 A 
ATOM      2  C4  UNL d   1      -1.294   3.857  -5.224  0.00  0.00     0.002 A 
ATOM      3  C5  UNL d   1      -0.064   3.522  -5.791  0.00  0.00     0.002 A 
ATOM      4  C6  UNL d   1       0.561   2.324  -5.450  0.00  0.00    -0.004 A 
ATOM      5  C7  UNL d   1      -0.042   1.464  -4.535  0.00  0.00     0.002 A 
ATOM      6  C8  UNL d   1      -1.275   1.795  -3.969  0.00  0.00     0.002 A 
ENDROOT
BRANCH   1   7
ATOM      7  C2  UNL d   1      -3.263   3.334  -3.720  0.00  0.00     0.056 C 
BRANCH   7   8
ATOM      8  C1  UNL d   1      -4.021   2.129  -3.154  0.00  0.00     0.007 C 
ATOM      9  C   UNL d   1      -4.421   2.301  -1.695  0.00  0.00     0.009 C 
ENDBRANCH   7   8
ENDBRANCH   1   7
TORSDOF 2
ENDMDL
