MODEL 1
REMARK minimizedAffinity 12.7585115
REMARK minimizedRMSD -1
REMARK  2 active torsions:
REMARK  status: ('A' for Active; 'I' for Inactive)
REMARK    1  A    between atoms: C1_2  and  C2_3 
REMARK    2  A    between atoms: C2_3  and  C3_4 
ROOT
ATOM      1  C3  UNL d   1       3.673  -3.892   2.006  0.00  0.00    -0.075 A 
ATOM      2  C4  UNL d   1       2.529  -3.120   1.755  0.00  0.00     0.002 A 
ATOM      3  C5  UNL d   1       2.076  -2.929   0.450  0.00  0.00     0.002 A 
ATOM      4  C6  UNL d   1       2.763  -3.496  -0.620  0.00  0.00    -0.004 A 
ATOM      5  C7  UNL d   1       3.910  -4.252  -0.384  0.00  0.00     0.002 A 
ATOM      6  C8  UNL d   1       4.364  -4.448   0.921  0.00  0.00     0.002 A 
ENDROOT
BRANCH   1   7
ATOM      7  C2  UNL d   1       4.152  -4.128   3.418  0.00  0.00     0.056 C 
BRANCH   7   8
ATOM      8  C1  UNL d   1       4.157  -2.870   4.293  0.00  0.00     0.007 C 
ATOM      9  C   UNL d   1       4.845  -3.075   5.636  0.00  0.00     0.009 C 
ENDBRANCH   7   8
ENDBRANCH   1   7
TORSDOF 2
ENDMDL
