MODEL 1
REMARK minimizedAffinity 4.97061396
REMARK minimizedRMSD -1
REMARK  2 active torsions:
REMARK  status: ('A' for Active; 'I' for Inactive)
REMARK    1  A    between atoms: C1_2  and  C2_3 
REMARK    2  A    between atoms: C2_3  and  C3_4 
ROOT
ATOM      1  C3  UNL d   1      -1.073   3.591  -4.393  0.00  0.00    -0.075 A 
ATOM      2  C4  UNL d   1      -0.580   4.589  -5.246  0.00  0.00     0.002 A 
ATOM      3  C5  UNL d   1       0.574   4.371  -5.999  0.00  0.00     0.002 A 
ATOM      4  C6  UNL d   1       1.254   3.159  -5.902  0.00  0.00    -0.004 A 
ATOM      5  C7  UNL d   1       0.783   2.167  -5.045  0.00  0.00     0.002 A 
ATOM      6  C8  UNL d   1      -0.374   2.381  -4.294  0.00  0.00     0.002 A 
ENDROOT
BRANCH   1   7
ATOM      7  C2  UNL d   1      -2.338   3.810  -3.597  0.00  0.00     0.056 C 
BRANCH   7   8
ATOM      8  C1  UNL d   1      -3.062   2.517  -3.209  0.00  0.00     0.007 C 
ATOM      9  C   UNL d   1      -4.002   2.688  -2.023  0.00  0.00     0.009 C 
ENDBRANCH   7   8
ENDBRANCH   1   7
TORSDOF 2
ENDMDL
