MODEL 1
REMARK minimizedAffinity 1.48702848
REMARK minimizedRMSD -1
REMARK  2 active torsions:
REMARK  status: ('A' for Active; 'I' for Inactive)
REMARK    1  A    between atoms: C1_2  and  C2_3 
REMARK    2  A    between atoms: C2_3  and  C3_4 
ROOT
ATOM      1  C3  UNL d   1       1.272  -2.495   0.625  0.00  0.00    -0.075 A 
ATOM      2  C4  UNL d   1       0.284  -3.491   0.591  0.00  0.00     0.002 A 
ATOM      3  C5  UNL d   1      -0.908  -3.331   1.298  0.00  0.00     0.002 A 
ATOM      4  C6  UNL d   1      -1.123  -2.181   2.054  0.00  0.00    -0.004 A 
ATOM      5  C7  UNL d   1      -0.142  -1.193   2.109  0.00  0.00     0.002 A 
ATOM      6  C8  UNL d   1       1.049  -1.349   1.399  0.00  0.00     0.002 A 
ENDROOT
BRANCH   1   7
ATOM      7  C2  UNL d   1       2.551  -2.650  -0.162  0.00  0.00     0.056 C 
BRANCH   7   8
ATOM      8  C1  UNL d   1       3.297  -3.960   0.111  0.00  0.00     0.007 C 
ATOM      9  C   UNL d   1       3.563  -4.203   1.591  0.00  0.00     0.009 C 
ENDBRANCH   7   8
ENDBRANCH   1   7
TORSDOF 2
ENDMDL
