MODEL 1
REMARK minimizedAffinity 4.44558764
REMARK minimizedRMSD -1
REMARK  2 active torsions:
REMARK  status: ('A' for Active; 'I' for Inactive)
REMARK    1  A    between atoms: C1_2  and  C2_3 
REMARK    2  A    between atoms: C2_3  and  C3_4 
ROOT
ATOM      1  C3  UNL d   1      -1.732   3.018  -3.974  0.00  0.00    -0.075 A 
ATOM      2  C4  UNL d   1      -0.585   2.272  -4.279  0.00  0.00     0.002 A 
ATOM      3  C5  UNL d   1       0.288   2.693  -5.282  0.00  0.00     0.002 A 
ATOM      4  C6  UNL d   1       0.021   3.858  -5.998  0.00  0.00    -0.004 A 
ATOM      5  C7  UNL d   1      -1.125   4.598  -5.714  0.00  0.00     0.002 A 
ATOM      6  C8  UNL d   1      -1.998   4.181  -4.708  0.00  0.00     0.002 A 
ENDROOT
BRANCH   1   7
ATOM      7  C2  UNL d   1      -2.666   2.582  -2.870  0.00  0.00     0.056 C 
BRANCH   7   8
ATOM      8  C1  UNL d   1      -4.148   2.620  -3.255  0.00  0.00     0.007 C 
ATOM      9  C   UNL d   1      -4.524   1.579  -4.301  0.00  0.00     0.009 C 
ENDBRANCH   7   8
ENDBRANCH   1   7
TORSDOF 2
ENDMDL
