MODEL 1
REMARK minimizedAffinity 2.84748101
REMARK minimizedRMSD -1
REMARK  2 active torsions:
REMARK  status: ('A' for Active; 'I' for Inactive)
REMARK    1  A    between atoms: C1_2  and  C2_3 
REMARK    2  A    between atoms: C2_3  and  C3_4 
ROOT
ATOM      1  C3  UNL d   1      -0.800   2.721  -4.877  0.00  0.00    -0.075 A 
ATOM      2  C4  UNL d   1      -0.368   1.469  -4.415  0.00  0.00     0.002 A 
ATOM      3  C5  UNL d   1       0.906   0.999  -4.732  0.00  0.00     0.002 A 
ATOM      4  C6  UNL d   1       1.759   1.767  -5.522  0.00  0.00    -0.004 A 
ATOM      5  C7  UNL d   1       1.334   3.004  -6.000  0.00  0.00     0.002 A 
ATOM      6  C8  UNL d   1       0.061   3.480  -5.681  0.00  0.00     0.002 A 
ENDROOT
BRANCH   1   7
ATOM      7  C2  UNL d   1      -2.168   3.249  -4.513  0.00  0.00     0.056 C 
BRANCH   7   8
ATOM      8  C1  UNL d   1      -3.044   2.244  -3.758  0.00  0.00     0.007 C 
ATOM      9  C   UNL d   1      -4.117   2.905  -2.905  0.00  0.00     0.009 C 
ENDBRANCH   7   8
ENDBRANCH   1   7
TORSDOF 2
ENDMDL
