MODEL 1
REMARK minimizedAffinity -4.23370123
REMARK minimizedRMSD -1
REMARK  3 active torsions:
REMARK  status: ('A' for Active; 'I' for Inactive)
REMARK    1  A    between atoms: C3'_2  and  C2'_3 
REMARK    2  A    between atoms: C2'_3  and  C1'_4 
REMARK    3  A    between atoms: C1'_4  and  C1_5 
ROOT
ATOM      1  C1  N4B d   1       2.109   1.148   0.471  0.00  0.00    -0.075 A 
ATOM      2  C2  N4B d   1       2.373   1.267   1.853  0.00  0.00     0.002 A 
ATOM      3  C3  N4B d   1       3.312   2.166   2.298  0.00  0.00     0.002 A 
ATOM      4  C4  N4B d   1       4.010   2.938   1.382  0.00  0.00    -0.004 A 
ATOM      5  C5  N4B d   1       3.730   2.836   0.050  0.00  0.00     0.002 A 
ATOM      6  C6  N4B d   1       2.786   1.940  -0.410  0.00  0.00     0.002 A 
ENDROOT
BRANCH   1   7
ATOM      7  C1' N4B d   1       1.153   0.120  -0.069  0.00  0.00     0.057 C 
BRANCH   7   8
ATOM      8  C2' N4B d   1      -0.232   0.745  -0.202  0.00  0.00     0.009 C 
BRANCH   8   9
ATOM      9  C3' N4B d   1      -1.063   0.063  -1.276  0.00  0.00     0.004 C 
ATOM     10  C4' N4B d   1      -2.069  -0.894  -0.711  0.00  0.00     0.003 C 
ENDBRANCH   8   9
ENDBRANCH   7   8
ENDBRANCH   1   7
TORSDOF 3
ENDMDL
