MODEL 1
REMARK minimizedAffinity 6.867033
REMARK minimizedRMSD -1
REMARK  3 active torsions:
REMARK  status: ('A' for Active; 'I' for Inactive)
REMARK    1  A    between atoms: C3'_2  and  C2'_3 
REMARK    2  A    between atoms: C2'_3  and  C1'_4 
REMARK    3  A    between atoms: C1'_4  and  C1_5 
ROOT
ATOM      1  C1  N4B d   1      -2.262  -1.012  -1.004  0.00  0.00    -0.075 A 
ATOM      2  C2  N4B d   1      -2.773   0.304  -0.965  0.00  0.00     0.002 A 
ATOM      3  C3  N4B d   1      -2.510   1.173  -1.995  0.00  0.00     0.002 A 
ATOM      4  C4  N4B d   1      -1.727   0.757  -3.061  0.00  0.00    -0.004 A 
ATOM      5  C5  N4B d   1      -1.258  -0.524  -3.104  0.00  0.00     0.002 A 
ATOM      6  C6  N4B d   1      -1.518  -1.410  -2.077  0.00  0.00     0.002 A 
ENDROOT
BRANCH   1   7
ATOM      7  C1' N4B d   1      -2.450  -1.972   0.139  0.00  0.00     0.057 C 
BRANCH   7   8
ATOM      8  C2' N4B d   1      -1.086  -2.471   0.604  0.00  0.00     0.009 C 
BRANCH   8   9
ATOM      9  C3' N4B d   1      -0.720  -1.929   1.976  0.00  0.00     0.004 C 
ATOM     10  C4' N4B d   1       0.741  -1.618   2.107  0.00  0.00     0.003 C 
ENDBRANCH   8   9
ENDBRANCH   7   8
ENDBRANCH   1   7
TORSDOF 3
ENDMDL
