MODEL 1
REMARK minimizedAffinity -4.25588465
REMARK minimizedRMSD -1
REMARK  3 active torsions:
REMARK  status: ('A' for Active; 'I' for Inactive)
REMARK    1  A    between atoms: C3'_2  and  C2'_3 
REMARK    2  A    between atoms: C2'_3  and  C1'_4 
REMARK    3  A    between atoms: C1'_4  and  C1_5 
ROOT
ATOM      1  C1  N4B d   1       2.709   2.416   0.771  0.00  0.00    -0.075 A 
ATOM      2  C2  N4B d   1       2.317   1.265   0.054  0.00  0.00     0.002 A 
ATOM      3  C3  N4B d   1       1.896   0.146   0.729  0.00  0.00     0.002 A 
ATOM      4  C4  N4B d   1       1.876   0.148   2.116  0.00  0.00    -0.004 A 
ATOM      5  C5  N4B d   1       2.232   1.273   2.801  0.00  0.00     0.002 A 
ATOM      6  C6  N4B d   1       2.654   2.406   2.135  0.00  0.00     0.002 A 
ENDROOT
BRANCH   1   7
ATOM      7  C1' N4B d   1       3.258   3.634   0.080  0.00  0.00     0.057 C 
BRANCH   7   8
ATOM      8  C2' N4B d   1       4.219   3.195  -1.021  0.00  0.00     0.009 C 
BRANCH   8   9
ATOM      9  C3' N4B d   1       4.644   4.357  -1.902  0.00  0.00     0.004 C 
ATOM     10  C4' N4B d   1       5.413   3.917  -3.112  0.00  0.00     0.003 C 
ENDBRANCH   8   9
ENDBRANCH   7   8
ENDBRANCH   1   7
TORSDOF 3
ENDMDL
