MODEL 1
REMARK minimizedAffinity -2.09241605
REMARK minimizedRMSD -1
REMARK  3 active torsions:
REMARK  status: ('A' for Active; 'I' for Inactive)
REMARK    1  A    between atoms: C3'_2  and  C2'_3 
REMARK    2  A    between atoms: C2'_3  and  C1'_4 
REMARK    3  A    between atoms: C1'_4  and  C1_5 
ROOT
ATOM      1  C1  N4B d   1      -0.660  -0.472  -0.054  0.00  0.00    -0.075 A 
ATOM      2  C2  N4B d   1      -1.818  -0.682  -0.835  0.00  0.00     0.002 A 
ATOM      3  C3  N4B d   1      -2.625  -1.766  -0.590  0.00  0.00     0.002 A 
ATOM      4  C4  N4B d   1      -2.284  -2.661   0.414  0.00  0.00    -0.004 A 
ATOM      5  C5  N4B d   1      -1.178  -2.438   1.180  0.00  0.00     0.002 A 
ATOM      6  C6  N4B d   1      -0.360  -1.350   0.947  0.00  0.00     0.002 A 
ENDROOT
BRANCH   1   7
ATOM      7  C1' N4B d   1       0.298   0.651  -0.341  0.00  0.00     0.057 C 
BRANCH   7   8
ATOM      8  C2' N4B d   1       1.624   0.369   0.358  0.00  0.00     0.009 C 
BRANCH   8   9
ATOM      9  C3' N4B d   1       2.557   1.567   0.312  0.00  0.00     0.004 C 
ATOM     10  C4' N4B d   1       2.871   2.112   1.674  0.00  0.00     0.003 C 
ENDBRANCH   8   9
ENDBRANCH   7   8
ENDBRANCH   1   7
TORSDOF 3
ENDMDL
