MODEL 1
REMARK minimizedAffinity -3.67591333
REMARK minimizedRMSD -1
REMARK  0 active torsions:
REMARK  status: ('A' for Active; 'I' for Inactive)
ROOT
ATOM      1  C   UNL d   1       1.882   3.952  -1.238  0.00  0.00     0.172 C 
ATOM      2  N   UNL d   1       1.491   2.562  -1.254  0.00  0.00    -0.070 N 
ATOM      3  C1  UNL d   1       1.029   1.874  -2.344  0.00  0.00    -0.004 A 
ATOM      4  C2  UNL d   1       0.767   0.580  -1.947  0.00  0.00    -0.047 A 
ATOM      5  C3  UNL d   1       1.082   0.487  -0.571  0.00  0.00    -0.047 A 
ATOM      6  C4  UNL d   1       1.528   1.728  -0.167  0.00  0.00    -0.004 A 
ENDROOT
TORSDOF 0
ENDMDL
