MODEL 1
REMARK minimizedAffinity -1.76038468
REMARK minimizedRMSD -1
REMARK  0 active torsions:
REMARK  status: ('A' for Active; 'I' for Inactive)
ROOT
ATOM      1  C   UNL d   1       1.164   1.835   1.479  0.00  0.00     0.172 C 
ATOM      2  N   UNL d   1       1.162   0.996   0.304  0.00  0.00    -0.070 N 
ATOM      3  C1  UNL d   1       1.595  -0.302   0.249  0.00  0.00    -0.004 A 
ATOM      4  C2  UNL d   1       1.427  -0.748  -1.044  0.00  0.00    -0.047 A 
ATOM      5  C3  UNL d   1       0.875   0.319  -1.792  0.00  0.00    -0.047 A 
ATOM      6  C4  UNL d   1       0.720   1.386  -0.933  0.00  0.00    -0.004 A 
ENDROOT
TORSDOF 0
ENDMDL
