MODEL 1
REMARK minimizedAffinity -0.278316081
REMARK minimizedRMSD -1
REMARK  0 active torsions:
REMARK  status: ('A' for Active; 'I' for Inactive)
ROOT
ATOM      1  C   UNL d   1       2.077   3.170  -1.535  0.00  0.00     0.172 C 
ATOM      2  N   UNL d   1       1.592   1.827  -1.322  0.00  0.00    -0.070 N 
ATOM      3  C1  UNL d   1       1.603   1.154  -0.130  0.00  0.00    -0.004 A 
ATOM      4  C2  UNL d   1       1.056  -0.093  -0.344  0.00  0.00    -0.047 A 
ATOM      5  C3  UNL d   1       0.705  -0.172  -1.712  0.00  0.00    -0.047 A 
ATOM      6  C4  UNL d   1       1.048   1.030  -2.294  0.00  0.00    -0.004 A 
ENDROOT
TORSDOF 0
ENDMDL
