MODEL 1
REMARK minimizedAffinity -2.58814192
REMARK minimizedRMSD -1
REMARK  0 active torsions:
REMARK  status: ('A' for Active; 'I' for Inactive)
ROOT
ATOM      1  C   UNL d   1       2.336   3.688  -1.444  0.00  0.00     0.172 C 
ATOM      2  N   UNL d   1       1.796   2.405  -1.061  0.00  0.00    -0.070 N 
ATOM      3  C1  UNL d   1       1.564   1.987   0.222  0.00  0.00    -0.004 A 
ATOM      4  C2  UNL d   1       1.048   0.710   0.163  0.00  0.00    -0.047 A 
ATOM      5  C3  UNL d   1       0.968   0.348  -1.202  0.00  0.00    -0.047 A 
ATOM      6  C4  UNL d   1       1.438   1.415  -1.938  0.00  0.00    -0.004 A 
ENDROOT
TORSDOF 0
ENDMDL
