MODEL 1
REMARK minimizedAffinity 3.19621181
REMARK minimizedRMSD -1
REMARK  0 active torsions:
REMARK  status: ('A' for Active; 'I' for Inactive)
ROOT
ATOM      1  C   UNL d   1      -2.854   1.628   4.632  0.00  0.00     0.172 C 
ATOM      2  N   UNL d   1      -3.156   1.913   3.249  0.00  0.00    -0.070 N 
ATOM      3  C1  UNL d   1      -4.049   1.227   2.469  0.00  0.00    -0.004 A 
ATOM      4  C2  UNL d   1      -4.048   1.806   1.218  0.00  0.00    -0.047 A 
ATOM      5  C3  UNL d   1      -3.121   2.875   1.247  0.00  0.00    -0.047 A 
ATOM      6  C4  UNL d   1      -2.583   2.919   2.516  0.00  0.00    -0.004 A 
ENDROOT
TORSDOF 0
ENDMDL
