MODEL 1
REMARK minimizedAffinity 0.75291872
REMARK minimizedRMSD -1
REMARK  0 active torsions:
REMARK  status: ('A' for Active; 'I' for Inactive)
ROOT
ATOM      1  C   UNL d   1       1.693   1.486   1.296  0.00  0.00     0.172 C 
ATOM      2  N   UNL d   1       1.389   0.956  -0.012  0.00  0.00    -0.070 N 
ATOM      3  C1  UNL d   1       1.391   1.667  -1.182  0.00  0.00    -0.004 A 
ATOM      4  C2  UNL d   1       1.051   0.804  -2.202  0.00  0.00    -0.047 A 
ATOM      5  C3  UNL d   1       0.836  -0.470  -1.624  0.00  0.00    -0.047 A 
ATOM      6  C4  UNL d   1       1.052  -0.347  -0.268  0.00  0.00    -0.004 A 
ENDROOT
TORSDOF 0
ENDMDL
