MODEL 1
REMARK minimizedAffinity -2.96925688
REMARK minimizedRMSD -1
REMARK  0 active torsions:
REMARK  status: ('A' for Active; 'I' for Inactive)
ROOT
ATOM      1  C   UNL d   1       1.679   3.067  -1.936  0.00  0.00     0.172 C 
ATOM      2  N   UNL d   1       1.361   1.933  -1.101  0.00  0.00    -0.070 N 
ATOM      3  C1  UNL d   1       1.279   0.631  -1.519  0.00  0.00    -0.004 A 
ATOM      4  C2  UNL d   1       0.956  -0.144  -0.426  0.00  0.00    -0.047 A 
ATOM      5  C3  UNL d   1       0.838   0.722   0.687  0.00  0.00    -0.047 A 
ATOM      6  C4  UNL d   1       1.094   2.001   0.241  0.00  0.00    -0.004 A 
ENDROOT
TORSDOF 0
ENDMDL
