MODEL 1
REMARK minimizedAffinity -3.60420942
REMARK minimizedRMSD -1
REMARK  0 active torsions:
REMARK  status: ('A' for Active; 'I' for Inactive)
ROOT
ATOM      1  C   UNL d   1      -0.505   0.346   0.948  0.00  0.00     0.172 C 
ATOM      2  N   UNL d   1       0.432   0.426  -0.148  0.00  0.00    -0.070 N 
ATOM      3  C1  UNL d   1       0.301  -0.203  -1.357  0.00  0.00    -0.004 A 
ATOM      4  C2  UNL d   1       1.397   0.126  -2.125  0.00  0.00    -0.047 A 
ATOM      5  C3  UNL d   1       2.216   0.982  -1.350  0.00  0.00    -0.047 A 
ATOM      6  C4  UNL d   1       1.594   1.151  -0.130  0.00  0.00    -0.004 A 
ENDROOT
TORSDOF 0
ENDMDL
