MODEL 1
REMARK minimizedAffinity 6.10151911
REMARK minimizedRMSD -1
REMARK  0 active torsions:
REMARK  status: ('A' for Active; 'I' for Inactive)
ROOT
ATOM      1  C   UNL d   1       0.129   3.097  -3.714  0.00  0.00     0.172 C 
ATOM      2  N   UNL d   1       0.627   2.604  -2.452  0.00  0.00    -0.070 N 
ATOM      3  C1  UNL d   1       1.697   3.110  -1.763  0.00  0.00    -0.004 A 
ATOM      4  C2  UNL d   1       1.847   2.368  -0.612  0.00  0.00    -0.047 A 
ATOM      5  C3  UNL d   1       0.833   1.381  -0.609  0.00  0.00    -0.047 A 
ATOM      6  C4  UNL d   1       0.092   1.550  -1.759  0.00  0.00    -0.004 A 
ENDROOT
TORSDOF 0
ENDMDL
