MODEL 1
REMARK minimizedAffinity -1.54238033
REMARK minimizedRMSD -1
REMARK  0 active torsions:
REMARK  status: ('A' for Active; 'I' for Inactive)
ROOT
ATOM      1  C   UNL d   1      -2.198   1.122   4.776  0.00  0.00     0.172 C 
ATOM      2  N   UNL d   1      -2.908   1.475   3.569  0.00  0.00    -0.070 N 
ATOM      3  C1  UNL d   1      -3.985   0.807   3.051  0.00  0.00    -0.004 A 
ATOM      4  C2  UNL d   1      -4.370   1.456   1.898  0.00  0.00    -0.047 A 
ATOM      5  C3  UNL d   1      -3.494   2.552   1.716  0.00  0.00    -0.047 A 
ATOM      6  C4  UNL d   1      -2.599   2.540   2.765  0.00  0.00    -0.004 A 
ENDROOT
TORSDOF 0
ENDMDL
