MODEL 1
REMARK minimizedAffinity 0.294637859
REMARK minimizedRMSD -1
REMARK  0 active torsions:
REMARK  status: ('A' for Active; 'I' for Inactive)
ROOT
ATOM      1  C   UNL d   1      -1.854   1.175   4.974  0.00  0.00     0.172 C 
ATOM      2  N   UNL d   1      -2.322   1.661   3.697  0.00  0.00    -0.070 N 
ATOM      3  C1  UNL d   1      -1.788   2.710   2.998  0.00  0.00    -0.004 A 
ATOM      4  C2  UNL d   1      -2.513   2.855   1.835  0.00  0.00    -0.047 A 
ATOM      5  C3  UNL d   1      -3.519   1.859   1.836  0.00  0.00    -0.047 A 
ATOM      6  C4  UNL d   1      -3.377   1.134   3.000  0.00  0.00    -0.004 A 
ENDROOT
TORSDOF 0
ENDMDL
