MODEL 1
REMARK minimizedAffinity 1.5451411
REMARK minimizedRMSD -1
REMARK  0 active torsions:
REMARK  status: ('A' for Active; 'I' for Inactive)
ROOT
ATOM      1  C   UNL d   1       0.743  -1.863  -1.491  0.00  0.00     0.172 C 
ATOM      2  N   UNL d   1       0.875  -0.476  -1.110  0.00  0.00    -0.070 N 
ATOM      3  C1  UNL d   1       0.484   0.599  -1.862  0.00  0.00    -0.004 A 
ATOM      4  C2  UNL d   1       0.780   1.742  -1.150  0.00  0.00    -0.047 A 
ATOM      5  C3  UNL d   1       1.370   1.339   0.071  0.00  0.00    -0.047 A 
ATOM      6  C4  UNL d   1       1.417  -0.039   0.070  0.00  0.00    -0.004 A 
ENDROOT
TORSDOF 0
ENDMDL
