MODEL 1
REMARK minimizedAffinity 3.0353806
REMARK minimizedRMSD -1
REMARK  0 active torsions:
REMARK  status: ('A' for Active; 'I' for Inactive)
ROOT
ATOM      1  C   UNL d   1       1.459   2.922  -2.121  0.00  0.00     0.172 C 
ATOM      2  N   UNL d   1       1.296   1.824  -1.197  0.00  0.00    -0.070 N 
ATOM      3  C1  UNL d   1       1.611   1.850   0.136  0.00  0.00    -0.004 A 
ATOM      4  C2  UNL d   1       1.309   0.613   0.664  0.00  0.00    -0.047 A 
ATOM      5  C3  UNL d   1       0.796  -0.183  -0.387  0.00  0.00    -0.047 A 
ATOM      6  C4  UNL d   1       0.800   0.591  -1.528  0.00  0.00    -0.004 A 
ENDROOT
TORSDOF 0
ENDMDL
