MODEL 1
REMARK minimizedAffinity 12.4499855
REMARK minimizedRMSD -1
REMARK  2 active torsions:
REMARK  status: ('A' for Active; 'I' for Inactive)
REMARK    1  A    between atoms: C2'_3  and  C1'_4 
REMARK    2  A    between atoms: C1'_4  and  C1_5 
ROOT
ATOM      1  C1  I4B d   1       2.696   1.419  -0.060  0.00  0.00    -0.075 A 
ATOM      2  C2  I4B d   1       3.874   2.110   0.078  0.00  0.00     0.003 A 
ATOM      3  C3  I4B d   1       4.334   2.950  -0.965  0.00  0.00     0.002 A 
ATOM      4  C4  I4B d   1       3.615   3.030  -2.140  0.00  0.00    -0.004 A 
ATOM      5  C5  I4B d   1       2.409   2.347  -2.269  0.00  0.00     0.002 A 
ATOM      6  C6  I4B d   1       1.940   1.546  -1.218  0.00  0.00     0.003 A 
ENDROOT
BRANCH   1   7
ATOM      7  C1' I4B d   1       2.256   0.516   1.048  0.00  0.00     0.060 C 
BRANCH   7   8
ATOM      8  C2' I4B d   1       3.036  -0.778   0.932  0.00  0.00    -0.013 C 
ATOM      9  C4' I4B d   1       4.394  -0.655   1.571  0.00  0.00     0.013 C 
ATOM     10  C3' I4B d   1       2.229  -1.864   1.579  0.00  0.00     0.013 C 
ENDBRANCH   7   8
ENDBRANCH   1   7
TORSDOF 2
ENDMDL
