MODEL 1
REMARK minimizedAffinity 11.9082623
REMARK minimizedRMSD -1
REMARK  2 active torsions:
REMARK  status: ('A' for Active; 'I' for Inactive)
REMARK    1  A    between atoms: C2'_3  and  C1'_4 
REMARK    2  A    between atoms: C1'_4  and  C1_5 
ROOT
ATOM      1  C1  I4B d   1      -1.919  -5.368   3.020  0.00  0.00    -0.075 A 
ATOM      2  C2  I4B d   1      -2.252  -6.000   4.192  0.00  0.00     0.003 A 
ATOM      3  C3  I4B d   1      -1.837  -5.461   5.434  0.00  0.00     0.002 A 
ATOM      4  C4  I4B d   1      -1.054  -4.325   5.455  0.00  0.00    -0.004 A 
ATOM      5  C5  I4B d   1      -0.737  -3.674   4.266  0.00  0.00     0.002 A 
ATOM      6  C6  I4B d   1      -1.183  -4.191   3.042  0.00  0.00     0.003 A 
ENDROOT
BRANCH   1   7
ATOM      7  C1' I4B d   1      -2.346  -5.983   1.724  0.00  0.00     0.060 C 
BRANCH   7   8
ATOM      8  C2' I4B d   1      -1.558  -5.322   0.612  0.00  0.00    -0.013 C 
ATOM      9  C4' I4B d   1      -0.185  -5.926   0.483  0.00  0.00     0.013 C 
ATOM     10  C3' I4B d   1      -2.337  -5.471  -0.660  0.00  0.00     0.013 C 
ENDBRANCH   7   8
ENDBRANCH   1   7
TORSDOF 2
ENDMDL
