MODEL 1
REMARK minimizedAffinity 18.8541431
REMARK minimizedRMSD -1
REMARK  2 active torsions:
REMARK  status: ('A' for Active; 'I' for Inactive)
REMARK    1  A    between atoms: C2'_3  and  C1'_4 
REMARK    2  A    between atoms: C1'_4  and  C1_5 
ROOT
ATOM      1  C1  I4B d   1       4.368   2.668   1.069  0.00  0.00    -0.075 A 
ATOM      2  C2  I4B d   1       3.777   1.478   1.415  0.00  0.00     0.003 A 
ATOM      3  C3  I4B d   1       3.055   0.735   0.451  0.00  0.00     0.002 A 
ATOM      4  C4  I4B d   1       2.906   1.239  -0.825  0.00  0.00    -0.004 A 
ATOM      5  C5  I4B d   1       3.524   2.434  -1.180  0.00  0.00     0.002 A 
ATOM      6  C6  I4B d   1       4.270   3.148  -0.231  0.00  0.00     0.003 A 
ENDROOT
BRANCH   1   7
ATOM      7  C1' I4B d   1       5.096   3.444   2.121  0.00  0.00     0.060 C 
BRANCH   7   8
ATOM      8  C2' I4B d   1       4.318   3.320   3.415  0.00  0.00    -0.013 C 
ATOM      9  C4' I4B d   1       5.235   3.061   4.580  0.00  0.00     0.013 C 
ATOM     10  C3' I4B d   1       3.539   4.587   3.609  0.00  0.00     0.013 C 
ENDBRANCH   7   8
ENDBRANCH   1   7
TORSDOF 2
ENDMDL
