MODEL 1
REMARK minimizedAffinity 12.3112097
REMARK minimizedRMSD -1
REMARK  2 active torsions:
REMARK  status: ('A' for Active; 'I' for Inactive)
REMARK    1  A    between atoms: C2'_3  and  C1'_4 
REMARK    2  A    between atoms: C1'_4  and  C1_5 
ROOT
ATOM      1  C1  I4B d   1      -5.193   4.304   3.785  0.00  0.00    -0.075 A 
ATOM      2  C2  I4B d   1      -6.000   4.354   4.894  0.00  0.00     0.003 A 
ATOM      3  C3  I4B d   1      -5.691   5.232   5.961  0.00  0.00     0.002 A 
ATOM      4  C4  I4B d   1      -4.547   6.000   5.900  0.00  0.00    -0.004 A 
ATOM      5  C5  I4B d   1      -3.742   5.965   4.764  0.00  0.00     0.002 A 
ATOM      6  C6  I4B d   1      -4.073   5.121   3.695  0.00  0.00     0.003 A 
ENDROOT
BRANCH   1   7
ATOM      7  C1' I4B d   1      -5.530   3.341   2.691  0.00  0.00     0.060 C 
BRANCH   7   8
ATOM      8  C2' I4B d   1      -4.572   3.584   1.543  0.00  0.00    -0.013 C 
ATOM      9  C4' I4B d   1      -3.581   2.458   1.411  0.00  0.00     0.013 C 
ATOM     10  C3' I4B d   1      -5.381   3.743   0.290  0.00  0.00     0.013 C 
ENDBRANCH   7   8
ENDBRANCH   1   7
TORSDOF 2
ENDMDL
