MODEL 1
REMARK minimizedAffinity 5.88025761
REMARK minimizedRMSD -1
REMARK  2 active torsions:
REMARK  status: ('A' for Active; 'I' for Inactive)
REMARK    1  A    between atoms: C2'_3  and  C1'_4 
REMARK    2  A    between atoms: C1'_4  and  C1_5 
ROOT
ATOM      1  C1  I4B d   1       2.819   0.099  -1.140  0.00  0.00    -0.075 A 
ATOM      2  C2  I4B d   1       3.269  -0.385  -2.343  0.00  0.00     0.003 A 
ATOM      3  C3  I4B d   1       4.235   0.336  -3.085  0.00  0.00     0.002 A 
ATOM      4  C4  I4B d   1       4.683   1.554  -2.615  0.00  0.00    -0.004 A 
ATOM      5  C5  I4B d   1       4.243   2.032  -1.384  0.00  0.00     0.002 A 
ATOM      6  C6  I4B d   1       3.314   1.295  -0.636  0.00  0.00     0.003 A 
ENDROOT
BRANCH   1   7
ATOM      7  C1' I4B d   1       1.774  -0.672  -0.398  0.00  0.00     0.060 C 
BRANCH   7   8
ATOM      8  C2' I4B d   1       2.371  -2.007  -0.003  0.00  0.00    -0.013 C 
ATOM      9  C4' I4B d   1       3.213  -1.881   1.240  0.00  0.00     0.013 C 
ATOM     10  C3' I4B d   1       1.245  -2.976   0.202  0.00  0.00     0.013 C 
ENDBRANCH   7   8
ENDBRANCH   1   7
TORSDOF 2
ENDMDL
