MODEL 1
REMARK minimizedAffinity 3.30057526
REMARK minimizedRMSD -1
REMARK  2 active torsions:
REMARK  status: ('A' for Active; 'I' for Inactive)
REMARK    1  A    between atoms: C2'_3  and  C1'_4 
REMARK    2  A    between atoms: C1'_4  and  C1_5 
ROOT
ATOM      1  C1  I4B d   1      -5.500   3.716   2.592  0.00  0.00    -0.075 A 
ATOM      2  C2  I4B d   1      -6.000   4.959   2.296  0.00  0.00     0.003 A 
ATOM      3  C3  I4B d   1      -5.935   6.000   3.254  0.00  0.00     0.002 A 
ATOM      4  C4  I4B d   1      -5.411   5.741   4.504  0.00  0.00    -0.004 A 
ATOM      5  C5  I4B d   1      -4.884   4.486   4.794  0.00  0.00     0.002 A 
ATOM      6  C6  I4B d   1      -4.917   3.470   3.828  0.00  0.00     0.003 A 
ENDROOT
BRANCH   1   7
ATOM      7  C1' I4B d   1      -5.614   2.631   1.568  0.00  0.00     0.060 C 
BRANCH   7   8
ATOM      8  C2' I4B d   1      -4.265   2.478   0.897  0.00  0.00    -0.013 C 
ATOM      9  C4' I4B d   1      -4.165   1.166   0.165  0.00  0.00     0.013 C 
ATOM     10  C3' I4B d   1      -4.079   3.636  -0.039  0.00  0.00     0.013 C 
ENDBRANCH   7   8
ENDBRANCH   1   7
TORSDOF 2
ENDMDL
