MODEL 1
REMARK minimizedAffinity 7.5824523
REMARK minimizedRMSD -1
REMARK  2 active torsions:
REMARK  status: ('A' for Active; 'I' for Inactive)
REMARK    1  A    between atoms: C2'_3  and  C1'_4 
REMARK    2  A    between atoms: C1'_4  and  C1_5 
ROOT
ATOM      1  C1  I4B d   1       3.060   0.790  -0.199  0.00  0.00    -0.075 A 
ATOM      2  C2  I4B d   1       3.897   1.200   0.809  0.00  0.00     0.003 A 
ATOM      3  C3  I4B d   1       4.957   2.097   0.533  0.00  0.00     0.002 A 
ATOM      4  C4  I4B d   1       5.173   2.517  -0.764  0.00  0.00    -0.004 A 
ATOM      5  C5  I4B d   1       4.309   2.118  -1.780  0.00  0.00     0.002 A 
ATOM      6  C6  I4B d   1       3.238   1.259  -1.494  0.00  0.00     0.003 A 
ENDROOT
BRANCH   1   7
ATOM      7  C1' I4B d   1       1.970  -0.184   0.122  0.00  0.00     0.060 C 
BRANCH   7   8
ATOM      8  C2' I4B d   1       2.583  -1.569   0.173  0.00  0.00    -0.013 C 
ATOM      9  C4' I4B d   1       2.541  -2.132   1.569  0.00  0.00     0.013 C 
ATOM     10  C3' I4B d   1       1.831  -2.443  -0.786  0.00  0.00     0.013 C 
ENDBRANCH   7   8
ENDBRANCH   1   7
TORSDOF 2
ENDMDL
