MODEL 1
REMARK minimizedAffinity 13.8000164
REMARK minimizedRMSD -1
REMARK  2 active torsions:
REMARK  status: ('A' for Active; 'I' for Inactive)
REMARK    1  A    between atoms: C2'_3  and  C1'_4 
REMARK    2  A    between atoms: C1'_4  and  C1_5 
ROOT
ATOM      1  C1  I4B d   1      -4.876   3.901   3.660  0.00  0.00    -0.075 A 
ATOM      2  C2  I4B d   1      -4.896   3.233   4.859  0.00  0.00     0.003 A 
ATOM      3  C3  I4B d   1      -5.488   3.830   5.999  0.00  0.00     0.002 A 
ATOM      4  C4  I4B d   1      -6.000   5.108   5.907  0.00  0.00    -0.004 A 
ATOM      5  C5  I4B d   1      -6.000   5.775   4.686  0.00  0.00     0.002 A 
ATOM      6  C6  I4B d   1      -5.446   5.163   3.552  0.00  0.00     0.003 A 
ENDROOT
BRANCH   1   7
ATOM      7  C1' I4B d   1      -4.213   3.254   2.486  0.00  0.00     0.060 C 
BRANCH   7   8
ATOM      8  C2' I4B d   1      -4.815   1.875   2.311  0.00  0.00    -0.013 C 
ATOM      9  C4' I4B d   1      -5.993   1.909   1.374  0.00  0.00     0.013 C 
ATOM     10  C3' I4B d   1      -3.741   0.963   1.798  0.00  0.00     0.013 C 
ENDBRANCH   7   8
ENDBRANCH   1   7
TORSDOF 2
ENDMDL
