MODEL 1
REMARK minimizedAffinity 8.12038708
REMARK minimizedRMSD -1
REMARK  1 active torsions:
REMARK  status: ('A' for Active; 'I' for Inactive)
REMARK    1  A    between atoms: C3_4  and  O_7 
ROOT
ATOM      1  C   UNL d   1       4.458  -1.096  -0.233  0.00  0.00    -0.033 A 
ATOM      2  C1  UNL d   1       3.381  -0.227  -0.420  0.00  0.00     0.039 A 
ATOM      3  C2  UNL d   1       3.610   1.115  -0.728  0.00  0.00    -0.080 A 
ATOM      4  C3  UNL d   1       4.919   1.575  -0.847  0.00  0.00     0.150 A 
ATOM      5  C4  UNL d   1       5.996   0.714  -0.666  0.00  0.00    -0.007 A 
ATOM      6  C5  UNL d   1       5.766  -0.625  -0.358  0.00  0.00     0.039 A 
ENDROOT
BRANCH   4   7
ATOM      7  O   UNL d   1       5.192   2.878  -1.141  0.00  0.00    -0.526 OA
ATOM      8  H5  UNL d   1       4.351   3.361  -1.210  0.00  0.00     0.418 HD
ENDBRANCH   4   7
TORSDOF 1
ENDMDL
