MODEL 1
REMARK minimizedAffinity 3.79242611
REMARK minimizedRMSD -1
REMARK  1 active torsions:
REMARK  status: ('A' for Active; 'I' for Inactive)
REMARK    1  A    between atoms: C3_4  and  O_7 
ROOT
ATOM      1  C   UNL d   1       0.729  -1.010   3.567  0.00  0.00    -0.033 A 
ATOM      2  C1  UNL d   1      -0.001  -2.116   3.127  0.00  0.00     0.039 A 
ATOM      3  C2  UNL d   1      -0.105  -3.251   3.933  0.00  0.00    -0.080 A 
ATOM      4  C3  UNL d   1       0.523  -3.267   5.175  0.00  0.00     0.150 A 
ATOM      5  C4  UNL d   1       1.248  -2.167   5.622  0.00  0.00    -0.007 A 
ATOM      6  C5  UNL d   1       1.352  -1.035   4.815  0.00  0.00     0.039 A 
ENDROOT
BRANCH   4   7
ATOM      7  O   UNL d   1       0.453  -4.354   5.995  0.00  0.00    -0.526 OA
ATOM      8  H5  UNL d   1      -0.057  -5.048   5.544  0.00  0.00     0.418 HD
ENDBRANCH   4   7
TORSDOF 1
ENDMDL
