MODEL 1
REMARK minimizedAffinity 13.2747307
REMARK minimizedRMSD -1
REMARK  1 active torsions:
REMARK  status: ('A' for Active; 'I' for Inactive)
REMARK    1  A    between atoms: C3_4  and  O_7 
ROOT
ATOM      1  C   UNL d   1      -3.493  -0.643  -2.998  0.00  0.00    -0.033 A 
ATOM      2  C1  UNL d   1      -2.159  -0.374  -3.308  0.00  0.00     0.039 A 
ATOM      3  C2  UNL d   1      -1.845   0.539  -4.317  0.00  0.00    -0.080 A 
ATOM      4  C3  UNL d   1      -2.873   1.177  -5.005  0.00  0.00     0.150 A 
ATOM      5  C4  UNL d   1      -4.204   0.918  -4.698  0.00  0.00    -0.007 A 
ATOM      6  C5  UNL d   1      -4.516   0.004  -3.692  0.00  0.00     0.039 A 
ENDROOT
BRANCH   4   7
ATOM      7  O   UNL d   1      -2.615   2.073  -6.000  0.00  0.00    -0.526 OA
ATOM      8  H5  UNL d   1      -1.653   2.130  -6.121  0.00  0.00     0.418 HD
ENDBRANCH   4   7
TORSDOF 1
ENDMDL
