MODEL 1
REMARK minimizedAffinity 5.29702187
REMARK minimizedRMSD -1
REMARK  1 active torsions:
REMARK  status: ('A' for Active; 'I' for Inactive)
REMARK    1  A    between atoms: C3_4  and  O_7 
ROOT
ATOM      1  C   UNL d   1       4.570  -2.063   0.697  0.00  0.00    -0.033 A 
ATOM      2  C1  UNL d   1       5.792  -1.390   0.629  0.00  0.00     0.039 A 
ATOM      3  C2  UNL d   1       5.920  -0.251  -0.169  0.00  0.00    -0.080 A 
ATOM      4  C3  UNL d   1       4.821   0.204  -0.892  0.00  0.00     0.150 A 
ATOM      5  C4  UNL d   1       3.600  -0.460  -0.826  0.00  0.00    -0.007 A 
ATOM      6  C5  UNL d   1       3.474  -1.597  -0.029  0.00  0.00     0.039 A 
ENDROOT
BRANCH   4   7
ATOM      7  O   UNL d   1       4.899   1.308  -1.688  0.00  0.00    -0.526 OA
ATOM      8  H5  UNL d   1       5.809   1.645  -1.658  0.00  0.00     0.418 HD
ENDBRANCH   4   7
TORSDOF 1
ENDMDL
