MODEL 1
REMARK minimizedAffinity 3.46512651
REMARK minimizedRMSD -1
REMARK  1 active torsions:
REMARK  status: ('A' for Active; 'I' for Inactive)
REMARK    1  A    between atoms: C3_4  and  O_7 
ROOT
ATOM      1  C   UNL d   1       6.000   1.416  -0.509  0.00  0.00    -0.033 A 
ATOM      2  C1  UNL d   1       5.999   0.022  -0.427  0.00  0.00     0.039 A 
ATOM      3  C2  UNL d   1       4.797  -0.683  -0.515  0.00  0.00    -0.080 A 
ATOM      4  C3  UNL d   1       3.605   0.016  -0.686  0.00  0.00     0.150 A 
ATOM      5  C4  UNL d   1       3.600   1.404  -0.773  0.00  0.00    -0.007 A 
ATOM      6  C5  UNL d   1       4.801   2.107  -0.684  0.00  0.00     0.039 A 
ENDROOT
BRANCH   4   7
ATOM      7  O   UNL d   1       2.407  -0.628  -0.773  0.00  0.00    -0.526 OA
ATOM      8  H5  UNL d   1       2.562  -1.582  -0.668  0.00  0.00     0.418 HD
ENDBRANCH   4   7
TORSDOF 1
ENDMDL
