MODEL 1
REMARK minimizedAffinity 2.92091084
REMARK minimizedRMSD -1
REMARK  1 active torsions:
REMARK  status: ('A' for Active; 'I' for Inactive)
REMARK    1  A    between atoms: C3_4  and  O_7 
ROOT
ATOM      1  C   UNL d   1       4.811  -1.097   0.038  0.00  0.00    -0.033 A 
ATOM      2  C1  UNL d   1       3.620  -0.581  -0.477  0.00  0.00     0.039 A 
ATOM      3  C2  UNL d   1       3.615   0.654  -1.127  0.00  0.00    -0.080 A 
ATOM      4  C3  UNL d   1       4.807   1.362  -1.257  0.00  0.00     0.150 A 
ATOM      5  C4  UNL d   1       5.998   0.853  -0.749  0.00  0.00    -0.007 A 
ATOM      6  C5  UNL d   1       6.000  -0.380  -0.099  0.00  0.00     0.039 A 
ENDROOT
BRANCH   4   7
ATOM      7  O   UNL d   1       4.851   2.574  -1.879  0.00  0.00    -0.526 OA
ATOM      8  H5  UNL d   1       3.950   2.813  -2.153  0.00  0.00     0.418 HD
ENDBRANCH   4   7
TORSDOF 1
ENDMDL
