MODEL 1
REMARK minimizedAffinity 0.829090834
REMARK minimizedRMSD -1
REMARK  1 active torsions:
REMARK  status: ('A' for Active; 'I' for Inactive)
REMARK    1  A    between atoms: C3_4  and  O_7 
ROOT
ATOM      1  C   UNL d   1       3.759   6.000   5.074  0.00  0.00    -0.033 A 
ATOM      2  C1  UNL d   1       3.358   5.033   4.149  0.00  0.00     0.039 A 
ATOM      3  C2  UNL d   1       3.963   3.774   4.146  0.00  0.00    -0.080 A 
ATOM      4  C3  UNL d   1       4.964   3.495   5.072  0.00  0.00     0.150 A 
ATOM      5  C4  UNL d   1       5.365   4.452   5.998  0.00  0.00    -0.007 A 
ATOM      6  C5  UNL d   1       4.762   5.709   5.999  0.00  0.00     0.039 A 
ENDROOT
BRANCH   4   7
ATOM      7  O   UNL d   1       5.586   2.282   5.104  0.00  0.00    -0.526 OA
ATOM      8  H5  UNL d   1       5.226   1.733   4.389  0.00  0.00     0.418 HD
ENDBRANCH   4   7
TORSDOF 1
ENDMDL
