MODEL 1
REMARK minimizedAffinity 4.41028118
REMARK minimizedRMSD -1
REMARK  1 active torsions:
REMARK  status: ('A' for Active; 'I' for Inactive)
REMARK    1  A    between atoms: C3_4  and  O_7 
ROOT
ATOM      1  C   UNL d   1       0.162  -1.617  -0.657  0.00  0.00    -0.033 A 
ATOM      2  C1  UNL d   1      -0.762  -0.760  -1.258  0.00  0.00     0.039 A 
ATOM      3  C2  UNL d   1      -0.808   0.587  -0.892  0.00  0.00    -0.080 A 
ATOM      4  C3  UNL d   1       0.075   1.063   0.073  0.00  0.00     0.150 A 
ATOM      5  C4  UNL d   1       1.000   0.215   0.673  0.00  0.00    -0.007 A 
ATOM      6  C5  UNL d   1       1.044  -1.129   0.308  0.00  0.00     0.039 A 
ENDROOT
BRANCH   4   7
ATOM      7  O   UNL d   1       0.064   2.368   0.466  0.00  0.00    -0.526 OA
ATOM      8  H5  UNL d   1      -0.646   2.828  -0.012  0.00  0.00     0.418 HD
ENDBRANCH   4   7
TORSDOF 1
ENDMDL
