MODEL 1
REMARK minimizedAffinity -0.392108291
REMARK minimizedRMSD -1
REMARK  0 active torsions:
REMARK  status: ('A' for Active; 'I' for Inactive)
ROOT
ATOM      1  O1  BZF d   1       0.414   2.604   1.389  0.00  0.00    -0.204 OA
ATOM      2  C2  BZF d   1       0.726   3.162   0.165  0.00  0.00     0.174 A 
ATOM      3  C3  BZF d   1      -0.210   4.059  -0.205  0.00  0.00    -0.012 A 
ATOM      4  C3A BZF d   1      -1.120   4.130   0.898  0.00  0.00    -0.107 A 
ATOM      5  C4  BZF d   1      -2.250   4.857   1.138  0.00  0.00     0.055 A 
ATOM      6  C5  BZF d   1      -2.946   4.638   2.284  0.00  0.00    -0.016 A 
ATOM      7  C6  BZF d   1      -2.544   3.696   3.208  0.00  0.00     0.022 A 
ATOM      8  C7  BZF d   1      -1.427   2.954   3.017  0.00  0.00     0.029 A 
ATOM      9  C7A BZF d   1      -0.703   3.197   1.875  0.00  0.00     0.058 A 
ENDROOT
TORSDOF 0
ENDMDL
