MODEL 1
REMARK minimizedAffinity 5.46533632
REMARK minimizedRMSD -1
REMARK  0 active torsions:
REMARK  status: ('A' for Active; 'I' for Inactive)
ROOT
ATOM      1  O1  BZF d   1       4.456  -2.981  -4.054  0.00  0.00    -0.204 OA
ATOM      2  C2  BZF d   1       4.580  -4.193  -4.704  0.00  0.00     0.174 A 
ATOM      3  C3  BZF d   1       4.786  -5.191  -3.820  0.00  0.00    -0.012 A 
ATOM      4  C3A BZF d   1       4.698  -4.576  -2.531  0.00  0.00    -0.107 A 
ATOM      5  C4  BZF d   1       4.799  -5.052  -1.255  0.00  0.00     0.055 A 
ATOM      6  C5  BZF d   1       4.738  -4.177  -0.217  0.00  0.00    -0.016 A 
ATOM      7  C6  BZF d   1       4.582  -2.821  -0.419  0.00  0.00     0.022 A 
ATOM      8  C7  BZF d   1       4.472  -2.303  -1.666  0.00  0.00     0.029 A 
ATOM      9  C7A BZF d   1       4.500  -3.188  -2.716  0.00  0.00     0.058 A 
ENDROOT
TORSDOF 0
ENDMDL
