MODEL 1
REMARK minimizedAffinity -4.61462164
REMARK minimizedRMSD -1
REMARK  0 active torsions:
REMARK  status: ('A' for Active; 'I' for Inactive)
ROOT
ATOM      1  O1  BZF d   1      -6.000   5.282  -4.836  0.00  0.00    -0.204 OA
ATOM      2  C2  BZF d   1      -5.342   4.875  -5.980  0.00  0.00     0.174 A 
ATOM      3  C3  BZF d   1      -4.507   3.850  -5.713  0.00  0.00    -0.012 A 
ATOM      4  C3A BZF d   1      -4.721   3.541  -4.333  0.00  0.00    -0.107 A 
ATOM      5  C4  BZF d   1      -4.195   2.605  -3.488  0.00  0.00     0.055 A 
ATOM      6  C5  BZF d   1      -4.562   2.616  -2.180  0.00  0.00    -0.016 A 
ATOM      7  C6  BZF d   1      -5.448   3.549  -1.682  0.00  0.00     0.022 A 
ATOM      8  C7  BZF d   1      -6.000   4.493  -2.482  0.00  0.00     0.029 A 
ATOM      9  C7A BZF d   1      -5.656   4.465  -3.812  0.00  0.00     0.058 A 
ENDROOT
TORSDOF 0
ENDMDL
