MODEL 1
REMARK minimizedAffinity -1.58371913
REMARK minimizedRMSD -1
REMARK  0 active torsions:
REMARK  status: ('A' for Active; 'I' for Inactive)
ROOT
ATOM      1  O1  BZF d   1      -5.981   2.196  -3.189  0.00  0.00    -0.204 OA
ATOM      2  C2  BZF d   1      -5.185   2.244  -2.061  0.00  0.00     0.174 A 
ATOM      3  C3  BZF d   1      -4.200   3.154  -2.209  0.00  0.00    -0.012 A 
ATOM      4  C3A BZF d   1      -4.448   3.775  -3.474  0.00  0.00    -0.107 A 
ATOM      5  C4  BZF d   1      -3.822   4.768  -4.171  0.00  0.00     0.055 A 
ATOM      6  C5  BZF d   1      -4.273   5.090  -5.412  0.00  0.00    -0.016 A 
ATOM      7  C6  BZF d   1      -5.343   4.435  -5.988  0.00  0.00     0.022 A 
ATOM      8  C7  BZF d   1      -5.999   3.446  -5.333  0.00  0.00     0.029 A 
ATOM      9  C7A BZF d   1      -5.566   3.142  -4.066  0.00  0.00     0.058 A 
ENDROOT
TORSDOF 0
ENDMDL
