MODEL 1
REMARK minimizedAffinity -2.62285042
REMARK minimizedRMSD -1
REMARK  0 active torsions:
REMARK  status: ('A' for Active; 'I' for Inactive)
ROOT
ATOM      1  O1  BZF d   1      -6.000   4.018  -2.300  0.00  0.00    -0.204 OA
ATOM      2  C2  BZF d   1      -5.280   3.001  -1.703  0.00  0.00     0.174 A 
ATOM      3  C3  BZF d   1      -4.431   2.435  -2.585  0.00  0.00    -0.012 A 
ATOM      4  C3A BZF d   1      -4.566   3.204  -3.784  0.00  0.00    -0.107 A 
ATOM      5  C4  BZF d   1      -3.972   3.141  -5.012  0.00  0.00     0.055 A 
ATOM      6  C5  BZF d   1      -4.381   3.993  -5.988  0.00  0.00    -0.016 A 
ATOM      7  C6  BZF d   1      -5.384   4.915  -5.774  0.00  0.00     0.022 A 
ATOM      8  C7  BZF d   1      -6.000   5.019  -4.571  0.00  0.00     0.029 A 
ATOM      9  C7A BZF d   1      -5.566   4.182  -3.572  0.00  0.00     0.058 A 
ENDROOT
TORSDOF 0
ENDMDL
