MODEL 1
REMARK minimizedAffinity 5.93809843
REMARK minimizedRMSD -1
REMARK  0 active torsions:
REMARK  status: ('A' for Active; 'I' for Inactive)
ROOT
ATOM      1  O1  BZF d   1      -1.264  -2.752  -1.070  0.00  0.00    -0.204 OA
ATOM      2  C2  BZF d   1      -0.295  -3.604  -1.563  0.00  0.00     0.174 A 
ATOM      3  C3  BZF d   1       0.863  -2.945  -1.767  0.00  0.00    -0.012 A 
ATOM      4  C3A BZF d   1       0.630  -1.617  -1.290  0.00  0.00    -0.107 A 
ATOM      5  C4  BZF d   1       1.408  -0.498  -1.209  0.00  0.00     0.055 A 
ATOM      6  C5  BZF d   1       0.856   0.660  -0.761  0.00  0.00    -0.016 A 
ATOM      7  C6  BZF d   1      -0.471   0.736  -0.391  0.00  0.00     0.022 A 
ATOM      8  C7  BZF d   1      -1.281  -0.349  -0.449  0.00  0.00     0.029 A 
ATOM      9  C7A BZF d   1      -0.718  -1.528  -0.870  0.00  0.00     0.058 A 
ENDROOT
TORSDOF 0
ENDMDL
