MODEL 1
REMARK minimizedAffinity -3.33441925
REMARK minimizedRMSD -1
REMARK  0 active torsions:
REMARK  status: ('A' for Active; 'I' for Inactive)
ROOT
ATOM      1  O1  BZF d   1      -6.000   2.266  -3.017  0.00  0.00    -0.204 OA
ATOM      2  C2  BZF d   1      -5.588   2.333  -1.700  0.00  0.00     0.174 A 
ATOM      3  C3  BZF d   1      -5.046   3.538  -1.429  0.00  0.00    -0.012 A 
ATOM      4  C3A BZF d   1      -5.208   4.302  -2.628  0.00  0.00    -0.107 A 
ATOM      5  C4  BZF d   1      -4.884   5.582  -2.977  0.00  0.00     0.055 A 
ATOM      6  C5  BZF d   1      -5.111   5.997  -4.251  0.00  0.00    -0.016 A 
ATOM      7  C6  BZF d   1      -5.656   5.158  -5.201  0.00  0.00     0.022 A 
ATOM      8  C7  BZF d   1      -5.999   3.882  -4.901  0.00  0.00     0.029 A 
ATOM      9  C7A BZF d   1      -5.800   3.470  -3.606  0.00  0.00     0.058 A 
ENDROOT
TORSDOF 0
ENDMDL
