MODEL 1
REMARK minimizedAffinity 10.5096855
REMARK minimizedRMSD -1
REMARK  0 active torsions:
REMARK  status: ('A' for Active; 'I' for Inactive)
ROOT
ATOM      1  O1  BZF d   1      -1.102   2.625   2.012  0.00  0.00    -0.204 OA
ATOM      2  C2  BZF d   1      -0.106   2.117   1.201  0.00  0.00     0.174 A 
ATOM      3  C3  BZF d   1       0.079   2.902   0.120  0.00  0.00    -0.012 A 
ATOM      4  C3A BZF d   1      -0.796   4.017   0.311  0.00  0.00    -0.107 A 
ATOM      5  C4  BZF d   1      -1.054   5.144  -0.416  0.00  0.00     0.055 A 
ATOM      6  C5  BZF d   1      -2.020   6.000   0.012  0.00  0.00    -0.016 A 
ATOM      7  C6  BZF d   1      -2.750   5.757   1.157  0.00  0.00     0.022 A 
ATOM      8  C7  BZF d   1      -2.527   4.655   1.914  0.00  0.00     0.029 A 
ATOM      9  C7A BZF d   1      -1.529   3.806   1.502  0.00  0.00     0.058 A 
ENDROOT
TORSDOF 0
ENDMDL
