MODEL 1
REMARK minimizedAffinity -4.5361042
REMARK minimizedRMSD -1
REMARK  0 active torsions:
REMARK  status: ('A' for Active; 'I' for Inactive)
ROOT
ATOM      1  O1  BZF d   1      -4.110   2.445  -3.439  0.00  0.00    -0.204 OA
ATOM      2  C2  BZF d   1      -4.502   2.620  -2.125  0.00  0.00     0.174 A 
ATOM      3  C3  BZF d   1      -5.226   3.749  -1.988  0.00  0.00    -0.012 A 
ATOM      4  C3A BZF d   1      -5.369   4.268  -3.314  0.00  0.00    -0.107 A 
ATOM      5  C4  BZF d   1      -6.000   5.363  -3.830  0.00  0.00     0.055 A 
ATOM      6  C5  BZF d   1      -5.887   5.625  -5.159  0.00  0.00    -0.016 A 
ATOM      7  C6  BZF d   1      -5.149   4.817  -5.998  0.00  0.00     0.022 A 
ATOM      8  C7  BZF d   1      -4.509   3.716  -5.533  0.00  0.00     0.029 A 
ATOM      9  C7A BZF d   1      -4.648   3.431  -4.196  0.00  0.00     0.058 A 
ENDROOT
TORSDOF 0
ENDMDL
