MODEL 1
REMARK minimizedAffinity -4.90771914
REMARK minimizedRMSD -1
REMARK  0 active torsions:
REMARK  status: ('A' for Active; 'I' for Inactive)
ROOT
ATOM      1  O1  BZF d   1      -3.874   3.607  -4.451  0.00  0.00    -0.204 OA
ATOM      2  C2  BZF d   1      -4.979   4.103  -3.786  0.00  0.00     0.174 A 
ATOM      3  C3  BZF d   1      -6.000   3.223  -3.832  0.00  0.00    -0.012 A 
ATOM      4  C3A BZF d   1      -5.472   2.069  -4.492  0.00  0.00    -0.107 A 
ATOM      5  C4  BZF d   1      -5.999   0.853  -4.822  0.00  0.00     0.055 A 
ATOM      6  C5  BZF d   1      -5.241  -0.026  -5.529  0.00  0.00    -0.016 A 
ATOM      7  C6  BZF d   1      -3.956   0.280  -5.926  0.00  0.00     0.022 A 
ATOM      8  C7  BZF d   1      -3.388   1.471  -5.618  0.00  0.00     0.029 A 
ATOM      9  C7A BZF d   1      -4.140   2.348  -4.875  0.00  0.00     0.058 A 
ENDROOT
TORSDOF 0
ENDMDL
