MODEL 1
REMARK minimizedAffinity -3.95070767
REMARK minimizedRMSD -1
REMARK  0 active torsions:
REMARK  status: ('A' for Active; 'I' for Inactive)
ROOT
ATOM      1  O1  BZF d   1      -4.847   4.524  -4.767  0.00  0.00    -0.204 OA
ATOM      2  C2  BZF d   1      -4.975   3.914  -6.000  0.00  0.00     0.174 A 
ATOM      3  C3  BZF d   1      -5.358   2.628  -5.860  0.00  0.00    -0.012 A 
ATOM      4  C3A BZF d   1      -5.566   2.448  -4.456  0.00  0.00    -0.107 A 
ATOM      5  C4  BZF d   1      -5.969   1.388  -3.695  0.00  0.00     0.055 A 
ATOM      6  C5  BZF d   1      -5.999   1.519  -2.343  0.00  0.00    -0.016 A 
ATOM      7  C6  BZF d   1      -5.629   2.692  -1.719  0.00  0.00     0.022 A 
ATOM      8  C7  BZF d   1      -5.227   3.773  -2.432  0.00  0.00     0.029 A 
ATOM      9  C7A BZF d   1      -5.227   3.654  -3.800  0.00  0.00     0.058 A 
ENDROOT
TORSDOF 0
ENDMDL
