MODEL 1
REMARK minimizedAffinity -4.17625713
REMARK minimizedRMSD -1
REMARK  0 active torsions:
REMARK  status: ('A' for Active; 'I' for Inactive)
ROOT
ATOM      1  O1  BZF d   1      -3.377   3.020  -6.000  0.00  0.00    -0.204 OA
ATOM      2  C2  BZF d   1      -2.959   1.705  -5.945  0.00  0.00     0.174 A 
ATOM      3  C3  BZF d   1      -3.540   1.061  -4.913  0.00  0.00    -0.012 A 
ATOM      4  C3A BZF d   1      -4.443   2.010  -4.338  0.00  0.00    -0.107 A 
ATOM      5  C4  BZF d   1      -5.319   1.958  -3.291  0.00  0.00     0.055 A 
ATOM      6  C5  BZF d   1      -6.000   3.081  -2.943  0.00  0.00    -0.016 A 
ATOM      7  C6  BZF d   1      -5.826   4.273  -3.615  0.00  0.00     0.022 A 
ATOM      8  C7  BZF d   1      -4.972   4.372  -4.663  0.00  0.00     0.029 A 
ATOM      9  C7A BZF d   1      -4.307   3.231  -5.038  0.00  0.00     0.058 A 
ENDROOT
TORSDOF 0
ENDMDL
