MODEL 1
REMARK minimizedAffinity -4.34259987
REMARK minimizedRMSD -1
REMARK  0 active torsions:
REMARK  status: ('A' for Active; 'I' for Inactive)
ROOT
ATOM      1  C   UNL d   1       0.416  -1.220  -1.194  0.00  0.00     0.077 C 
ATOM      2  C1  UNL d   1       0.167  -0.226  -0.099  0.00  0.00    -0.074 A 
ATOM      3  C2  UNL d   1       0.571  -0.488   1.214  0.00  0.00    -0.005 A 
ATOM      4  C3  UNL d   1       0.340   0.450   2.221  0.00  0.00     0.006 A 
ATOM      5  C4  UNL d   1      -0.294   1.657   1.925  0.00  0.00    -0.005 A 
ATOM      6  C5  UNL d   1      -0.704   1.936   0.617  0.00  0.00    -0.074 A 
ATOM      7  C6  UNL d   1      -1.379   3.233   0.280  0.00  0.00     0.077 C 
ATOM      8  C7  UNL d   1      -0.463   0.992  -0.390  0.00  0.00    -0.001 A 
ENDROOT
TORSDOF 0
ENDMDL
