MODEL 1
REMARK minimizedAffinity -2.22856069
REMARK minimizedRMSD -1
REMARK  0 active torsions:
REMARK  status: ('A' for Active; 'I' for Inactive)
ROOT
ATOM      1  C   UNL d   1       0.214   3.598  -0.865  0.00  0.00     0.077 C 
ATOM      2  C1  UNL d   1       0.287   2.318  -0.086  0.00  0.00    -0.074 A 
ATOM      3  C2  UNL d   1       0.367   2.330   1.310  0.00  0.00    -0.005 A 
ATOM      4  C3  UNL d   1       0.424   1.132   2.022  0.00  0.00     0.006 A 
ATOM      5  C4  UNL d   1       0.402  -0.088   1.345  0.00  0.00    -0.005 A 
ATOM      6  C5  UNL d   1       0.321  -0.120  -0.050  0.00  0.00    -0.074 A 
ATOM      7  C6  UNL d   1       0.287  -1.423  -0.792  0.00  0.00     0.077 C 
ATOM      8  C7  UNL d   1       0.257   1.088  -0.758  0.00  0.00    -0.001 A 
ENDROOT
TORSDOF 0
ENDMDL
