MODEL 1
REMARK minimizedAffinity -3.83578968
REMARK minimizedRMSD -1
REMARK  0 active torsions:
REMARK  status: ('A' for Active; 'I' for Inactive)
ROOT
ATOM      1  C   UNL d   1       1.171   0.012   1.692  0.00  0.00     0.077 C 
ATOM      2  C1  UNL d   1       0.552  -0.500   0.425  0.00  0.00    -0.074 A 
ATOM      3  C2  UNL d   1       0.117   0.381  -0.570  0.00  0.00    -0.005 A 
ATOM      4  C3  UNL d   1      -0.448  -0.111  -1.746  0.00  0.00     0.006 A 
ATOM      5  C4  UNL d   1      -0.585  -1.486  -1.939  0.00  0.00    -0.005 A 
ATOM      6  C5  UNL d   1      -0.155  -2.382  -0.955  0.00  0.00    -0.074 A 
ATOM      7  C6  UNL d   1      -0.285  -3.864  -1.151  0.00  0.00     0.077 C 
ATOM      8  C7  UNL d   1       0.419  -1.881   0.221  0.00  0.00    -0.001 A 
ENDROOT
TORSDOF 0
ENDMDL
