MODEL 1
REMARK minimizedAffinity -2.16970301
REMARK minimizedRMSD -1
REMARK  0 active torsions:
REMARK  status: ('A' for Active; 'I' for Inactive)
ROOT
ATOM      1  C   UNL d   1       1.164  -5.333   0.054  0.00  0.00     0.077 C 
ATOM      2  C1  UNL d   1       0.543  -4.256  -0.785  0.00  0.00    -0.074 A 
ATOM      3  C2  UNL d   1      -0.456  -4.557  -1.716  0.00  0.00    -0.005 A 
ATOM      4  C3  UNL d   1      -1.032  -3.543  -2.483  0.00  0.00     0.006 A 
ATOM      5  C4  UNL d   1      -0.615  -2.221  -2.326  0.00  0.00    -0.005 A 
ATOM      6  C5  UNL d   1       0.382  -1.901  -1.399  0.00  0.00    -0.074 A 
ATOM      7  C6  UNL d   1       0.835  -0.484  -1.210  0.00  0.00     0.077 C 
ATOM      8  C7  UNL d   1       0.951  -2.924  -0.627  0.00  0.00    -0.001 A 
ENDROOT
TORSDOF 0
ENDMDL
