MODEL 1
REMARK minimizedAffinity -0.128638074
REMARK minimizedRMSD -1
REMARK  0 active torsions:
REMARK  status: ('A' for Active; 'I' for Inactive)
ROOT
ATOM      1  C   UNL d   1      -0.126  -3.209  -0.634  0.00  0.00     0.077 C 
ATOM      2  C1  UNL d   1      -0.028  -1.752  -0.292  0.00  0.00    -0.074 A 
ATOM      3  C2  UNL d   1       0.224  -1.337   1.020  0.00  0.00    -0.005 A 
ATOM      4  C3  UNL d   1       0.321   0.021   1.321  0.00  0.00     0.006 A 
ATOM      5  C4  UNL d   1       0.169   0.977   0.316  0.00  0.00    -0.005 A 
ATOM      6  C5  UNL d   1      -0.082   0.581  -1.001  0.00  0.00    -0.074 A 
ATOM      7  C6  UNL d   1      -0.238   1.595  -2.096  0.00  0.00     0.077 C 
ATOM      8  C7  UNL d   1      -0.172  -0.786  -1.298  0.00  0.00    -0.001 A 
ENDROOT
TORSDOF 0
ENDMDL
