MODEL 1
REMARK minimizedAffinity -5.45771599
REMARK minimizedRMSD -1
REMARK  0 active torsions:
REMARK  status: ('A' for Active; 'I' for Inactive)
ROOT
ATOM      1  C   UNL d   1       1.191  -0.458   2.402  0.00  0.00     0.077 C 
ATOM      2  C1  UNL d   1       0.535   0.351   1.323  0.00  0.00    -0.074 A 
ATOM      3  C2  UNL d   1       0.663  -0.007  -0.023  0.00  0.00    -0.005 A 
ATOM      4  C3  UNL d   1       0.039   0.750  -1.014  0.00  0.00     0.006 A 
ATOM      5  C4  UNL d   1      -0.717   1.872  -0.671  0.00  0.00    -0.005 A 
ATOM      6  C5  UNL d   1      -0.856   2.245   0.670  0.00  0.00    -0.074 A 
ATOM      7  C6  UNL d   1      -1.673   3.442   1.057  0.00  0.00     0.077 C 
ATOM      8  C7  UNL d   1      -0.232   1.475   1.661  0.00  0.00    -0.001 A 
ENDROOT
TORSDOF 0
ENDMDL
