MODEL 1
REMARK minimizedAffinity 19.0808201
REMARK minimizedRMSD -1
REMARK  1 active torsions:
REMARK  status: ('A' for Active; 'I' for Inactive)
REMARK    1  A    between atoms: N_2  and  C1_3 
ROOT
ATOM      1  C1  UNL d   1       3.190   2.999  -5.713  0.00  0.00     0.143 A 
ATOM      2  C2  UNL d   1       2.368   4.094  -6.000  0.00  0.00    -0.057 A 
ATOM      3  C3  UNL d   1       2.717   5.389  -5.598  0.00  0.00     0.033 A 
ATOM      4  C4  UNL d   1       3.885   5.608  -4.874  0.00  0.00    -0.042 A 
ATOM      5  C5  UNL d   1       4.705   4.531  -4.557  0.00  0.00     0.033 A 
ATOM      6  C6  UNL d   1       4.354   3.241  -4.967  0.00  0.00    -0.057 A 
ENDROOT
BRANCH   1   7
ATOM      7  N   UNL d   1       2.850   1.674  -6.000  0.00  0.00    -0.732 N 
ATOM      8  C   UNL d   1       1.551   1.151  -5.634  0.00  0.00     0.284 C 
ATOM      9  H3  UNL d   1       3.173   1.380  -6.919  0.00  0.00     0.395 HD
ENDBRANCH   1   7
TORSDOF 1
ENDMDL
