MODEL 1
REMARK minimizedAffinity 4.36954594
REMARK minimizedRMSD -1
REMARK  1 active torsions:
REMARK  status: ('A' for Active; 'I' for Inactive)
REMARK    1  A    between atoms: N_2  and  C1_3 
ROOT
ATOM      1  C1  UNL d   1      -5.440  -2.642  -4.144  0.00  0.00     0.143 A 
ATOM      2  C2  UNL d   1      -5.955  -3.940  -4.228  0.00  0.00    -0.057 A 
ATOM      3  C3  UNL d   1      -5.431  -4.871  -5.133  0.00  0.00     0.033 A 
ATOM      4  C4  UNL d   1      -4.400  -4.511  -5.993  0.00  0.00    -0.042 A 
ATOM      5  C5  UNL d   1      -3.889  -3.218  -5.944  0.00  0.00     0.033 A 
ATOM      6  C6  UNL d   1      -4.411  -2.295  -5.034  0.00  0.00    -0.057 A 
ENDROOT
BRANCH   1   7
ATOM      7  N   UNL d   1      -5.983  -1.641  -3.334  0.00  0.00    -0.732 N 
ATOM      8  C   UNL d   1      -5.872  -1.717  -1.893  0.00  0.00     0.284 C 
ATOM      9  H3  UNL d   1      -5.831  -0.709  -3.714  0.00  0.00     0.395 HD
ENDBRANCH   1   7
TORSDOF 1
ENDMDL
