MODEL 1
REMARK minimizedAffinity 5.73497105
REMARK minimizedRMSD -1
REMARK  1 active torsions:
REMARK  status: ('A' for Active; 'I' for Inactive)
REMARK    1  A    between atoms: N_2  and  C1_3 
ROOT
ATOM      1  C1  UNL d   1      -5.917  -3.087  -4.029  0.00  0.00     0.143 A 
ATOM      2  C2  UNL d   1      -5.657  -3.961  -2.968  0.00  0.00    -0.057 A 
ATOM      3  C3  UNL d   1      -5.524  -3.491  -1.656  0.00  0.00     0.033 A 
ATOM      4  C4  UNL d   1      -5.620  -2.130  -1.386  0.00  0.00    -0.042 A 
ATOM      5  C5  UNL d   1      -5.853  -1.240  -2.428  0.00  0.00     0.033 A 
ATOM      6  C6  UNL d   1      -5.992  -1.717  -3.735  0.00  0.00    -0.057 A 
ENDROOT
BRANCH   1   7
ATOM      7  N   UNL d   1      -5.962  -3.482  -5.369  0.00  0.00    -0.732 N 
ATOM      8  C   UNL d   1      -4.807  -4.084  -5.999  0.00  0.00     0.284 C 
ATOM      9  H3  UNL d   1      -6.847  -3.921  -5.615  0.00  0.00     0.395 HD
ENDBRANCH   1   7
TORSDOF 1
ENDMDL
