MODEL 1
REMARK minimizedAffinity 8.08362389
REMARK minimizedRMSD -1
REMARK  1 active torsions:
REMARK  status: ('A' for Active; 'I' for Inactive)
REMARK    1  A    between atoms: N_2  and  C1_3 
ROOT
ATOM      1  C1  UNL d   1      -4.515   0.204   1.437  0.00  0.00     0.143 A 
ATOM      2  C2  UNL d   1      -4.473   1.599   1.541  0.00  0.00    -0.057 A 
ATOM      3  C3  UNL d   1      -3.258   2.280   1.685  0.00  0.00     0.033 A 
ATOM      4  C4  UNL d   1      -2.062   1.573   1.756  0.00  0.00    -0.042 A 
ATOM      5  C5  UNL d   1      -2.082   0.185   1.680  0.00  0.00     0.033 A 
ATOM      6  C6  UNL d   1      -3.298  -0.489   1.530  0.00  0.00    -0.057 A 
ENDROOT
BRANCH   1   7
ATOM      7  N   UNL d   1      -5.699  -0.536   1.392  0.00  0.00    -0.732 N 
ATOM      8  C   UNL d   1      -5.792  -1.728   0.576  0.00  0.00     0.284 C 
ATOM      9  H3  UNL d   1      -6.138  -0.623   2.306  0.00  0.00     0.395 HD
ENDBRANCH   1   7
TORSDOF 1
ENDMDL
