MODEL 1
REMARK minimizedAffinity 1.94517195
REMARK minimizedRMSD -1
REMARK  1 active torsions:
REMARK  status: ('A' for Active; 'I' for Inactive)
REMARK    1  A    between atoms: N_2  and  C1_3 
ROOT
ATOM      1  C1  UNL d   1      -5.444  -2.572  -3.716  0.00  0.00     0.143 A 
ATOM      2  C2  UNL d   1      -4.943  -1.266  -3.734  0.00  0.00    -0.057 A 
ATOM      3  C3  UNL d   1      -4.306  -0.747  -4.868  0.00  0.00     0.033 A 
ATOM      4  C4  UNL d   1      -4.132  -1.539  -5.998  0.00  0.00    -0.042 A 
ATOM      5  C5  UNL d   1      -4.600  -2.848  -5.995  0.00  0.00     0.033 A 
ATOM      6  C6  UNL d   1      -5.241  -3.358  -4.862  0.00  0.00    -0.057 A 
ENDROOT
BRANCH   1   7
ATOM      7  N   UNL d   1      -5.999  -3.177  -2.586  0.00  0.00    -0.732 N 
ATOM      8  C   UNL d   1      -5.595  -2.769  -1.258  0.00  0.00     0.284 C 
ATOM      9  H3  UNL d   1      -6.998  -3.341  -2.685  0.00  0.00     0.395 HD
ENDBRANCH   1   7
TORSDOF 1
ENDMDL
