MODEL 1
REMARK minimizedAffinity 2.27176762
REMARK minimizedRMSD -1
REMARK  1 active torsions:
REMARK  status: ('A' for Active; 'I' for Inactive)
REMARK    1  A    between atoms: N_2  and  C1_3 
ROOT
ATOM      1  C1  UNL d   1      -5.931  -2.981  -4.093  0.00  0.00     0.143 A 
ATOM      2  C2  UNL d   1      -5.878  -3.836  -2.988  0.00  0.00    -0.057 A 
ATOM      3  C3  UNL d   1      -5.716  -3.336  -1.690  0.00  0.00     0.033 A 
ATOM      4  C4  UNL d   1      -5.575  -1.969  -1.477  0.00  0.00    -0.042 A 
ATOM      5  C5  UNL d   1      -5.599  -1.102  -2.564  0.00  0.00     0.033 A 
ATOM      6  C6  UNL d   1      -5.767  -1.607  -3.857  0.00  0.00    -0.057 A 
ENDROOT
BRANCH   1   7
ATOM      7  N   UNL d   1      -5.991  -3.423  -5.417  0.00  0.00    -0.732 N 
ATOM      8  C   UNL d   1      -4.890  -4.161  -5.998  0.00  0.00     0.284 C 
ATOM      9  H3  UNL d   1      -6.910  -3.783  -5.665  0.00  0.00     0.395 HD
ENDBRANCH   1   7
TORSDOF 1
ENDMDL
