MODEL 1
REMARK minimizedAffinity 8.33101368
REMARK minimizedRMSD -1
REMARK  1 active torsions:
REMARK  status: ('A' for Active; 'I' for Inactive)
REMARK    1  A    between atoms: N_2  and  C1_3 
ROOT
ATOM      1  C1  UNL d   1      -5.646  -3.545  -4.351  0.00  0.00     0.143 A 
ATOM      2  C2  UNL d   1      -5.637  -4.165  -3.096  0.00  0.00    -0.057 A 
ATOM      3  C3  UNL d   1      -5.793  -3.423  -1.919  0.00  0.00     0.033 A 
ATOM      4  C4  UNL d   1      -5.932  -2.040  -1.975  0.00  0.00    -0.042 A 
ATOM      5  C5  UNL d   1      -5.919  -1.400  -3.209  0.00  0.00     0.033 A 
ATOM      6  C6  UNL d   1      -5.769  -2.147  -4.381  0.00  0.00    -0.057 A 
ENDROOT
BRANCH   1   7
ATOM      7  N   UNL d   1      -5.396  -4.215  -5.551  0.00  0.00    -0.732 N 
ATOM      8  C   UNL d   1      -4.040  -4.446  -5.998  0.00  0.00     0.284 C 
ATOM      9  H3  UNL d   1      -6.021  -5.006  -5.691  0.00  0.00     0.395 HD
ENDBRANCH   1   7
TORSDOF 1
ENDMDL
