MODEL 1
REMARK minimizedAffinity 4.90551138
REMARK minimizedRMSD -1
REMARK  1 active torsions:
REMARK  status: ('A' for Active; 'I' for Inactive)
REMARK    1  A    between atoms: N_2  and  C1_3 
ROOT
ATOM      1  C1  UNL d   1       1.391   0.375  -3.172  0.00  0.00     0.143 A 
ATOM      2  C2  UNL d   1       0.111   0.036  -3.622  0.00  0.00    -0.057 A 
ATOM      3  C3  UNL d   1      -1.011   0.789  -3.255  0.00  0.00     0.033 A 
ATOM      4  C4  UNL d   1      -0.875   1.881  -2.405  0.00  0.00    -0.042 A 
ATOM      5  C5  UNL d   1       0.384   2.221  -1.924  0.00  0.00     0.033 A 
ATOM      6  C6  UNL d   1       1.502   1.469  -2.300  0.00  0.00    -0.057 A 
ENDROOT
BRANCH   1   7
ATOM      7  N   UNL d   1       2.532  -0.392  -3.422  0.00  0.00    -0.732 N 
ATOM      8  C   UNL d   1       2.426  -1.683  -4.067  0.00  0.00     0.284 C 
ATOM      9  H3  UNL d   1       3.315   0.171  -3.746  0.00  0.00     0.395 HD
ENDBRANCH   1   7
TORSDOF 1
ENDMDL
