MODEL 1
REMARK minimizedAffinity 12.5693302
REMARK minimizedRMSD -1
REMARK  1 active torsions:
REMARK  status: ('A' for Active; 'I' for Inactive)
REMARK    1  A    between atoms: N_2  and  C1_3 
ROOT
ATOM      1  C1  UNL d   1       2.067  -0.564  -3.544  0.00  0.00     0.143 A 
ATOM      2  C2  UNL d   1       1.566   0.443  -2.712  0.00  0.00    -0.057 A 
ATOM      3  C3  UNL d   1       0.197   0.735  -2.669  0.00  0.00     0.033 A 
ATOM      4  C4  UNL d   1      -0.694   0.042  -3.483  0.00  0.00    -0.042 A 
ATOM      5  C5  UNL d   1      -0.214  -0.945  -4.336  0.00  0.00     0.033 A 
ATOM      6  C6  UNL d   1       1.153  -1.237  -4.369  0.00  0.00    -0.057 A 
ENDROOT
BRANCH   1   7
ATOM      7  N   UNL d   1       3.428  -0.834  -3.704  0.00  0.00    -0.732 N 
ATOM      8  C   UNL d   1       4.245  -0.018  -4.577  0.00  0.00     0.284 C 
ATOM      9  H3  UNL d   1       3.880  -1.086  -2.828  0.00  0.00     0.395 HD
ENDBRANCH   1   7
TORSDOF 1
ENDMDL
