MODEL 1
REMARK minimizedAffinity 0.720970154
REMARK minimizedRMSD -1
REMARK  1 active torsions:
REMARK  status: ('A' for Active; 'I' for Inactive)
REMARK    1  A    between atoms: N_2  and  C1_3 
ROOT
ATOM      1  C1  UNL d   1      -1.023   0.236   2.237  0.00  0.00     0.143 A 
ATOM      2  C2  UNL d   1      -1.154   0.567   0.884  0.00  0.00    -0.057 A 
ATOM      3  C3  UNL d   1      -2.359   1.060   0.371  0.00  0.00     0.033 A 
ATOM      4  C4  UNL d   1      -3.468   1.204   1.199  0.00  0.00    -0.042 A 
ATOM      5  C5  UNL d   1      -3.368   0.858   2.541  0.00  0.00     0.033 A 
ATOM      6  C6  UNL d   1      -2.159   0.372   3.049  0.00  0.00    -0.057 A 
ENDROOT
BRANCH   1   7
ATOM      7  N   UNL d   1       0.120  -0.351   2.787  0.00  0.00    -0.732 N 
ATOM      8  C   UNL d   1       1.407   0.302   2.683  0.00  0.00     0.284 C 
ATOM      9  H3  UNL d   1      -0.060  -0.774   3.695  0.00  0.00     0.395 HD
ENDBRANCH   1   7
TORSDOF 1
ENDMDL
