MODEL 1
REMARK minimizedAffinity 5.48141813
REMARK minimizedRMSD -1
REMARK  1 active torsions:
REMARK  status: ('A' for Active; 'I' for Inactive)
REMARK    1  A    between atoms: N_2  and  C1_3 
ROOT
ATOM      1  C1  UNL d   1      -3.555   0.366   2.911  0.00  0.00     0.143 A 
ATOM      2  C2  UNL d   1      -2.525  -0.525   3.232  0.00  0.00    -0.057 A 
ATOM      3  C3  UNL d   1      -1.302  -0.496   2.551  0.00  0.00     0.033 A 
ATOM      4  C4  UNL d   1      -1.097   0.409   1.514  0.00  0.00    -0.042 A 
ATOM      5  C5  UNL d   1      -2.116   1.287   1.162  0.00  0.00     0.033 A 
ATOM      6  C6  UNL d   1      -3.333   1.258   1.850  0.00  0.00    -0.057 A 
ENDROOT
BRANCH   1   7
ATOM      7  N   UNL d   1      -4.828   0.322   3.485  0.00  0.00    -0.732 N 
ATOM      8  C   UNL d   1      -5.996   0.070   2.668  0.00  0.00     0.284 C 
ATOM      9  H3  UNL d   1      -4.834  -0.162   4.380  0.00  0.00     0.395 HD
ENDBRANCH   1   7
TORSDOF 1
ENDMDL
