MODEL 1
REMARK minimizedAffinity 2.82137227
REMARK minimizedRMSD -1
REMARK  1 active torsions:
REMARK  status: ('A' for Active; 'I' for Inactive)
REMARK    1  A    between atoms: N_2  and  C1_3 
ROOT
ATOM      1  C1  UNL d   1       3.862   1.352   0.850  0.00  0.00     0.143 A 
ATOM      2  C2  UNL d   1       5.257   1.297   0.767  0.00  0.00    -0.057 A 
ATOM      3  C3  UNL d   1       5.998   0.418   1.567  0.00  0.00     0.033 A 
ATOM      4  C4  UNL d   1       5.356  -0.404   2.487  0.00  0.00    -0.042 A 
ATOM      5  C5  UNL d   1       3.972  -0.349   2.603  0.00  0.00     0.033 A 
ATOM      6  C6  UNL d   1       3.237   0.526   1.798  0.00  0.00    -0.057 A 
ENDROOT
BRANCH   1   7
ATOM      7  N   UNL d   1       3.077   2.273   0.153  0.00  0.00    -0.732 N 
ATOM      8  C   UNL d   1       2.541   1.948  -1.151  0.00  0.00     0.284 C 
ATOM      9  H3  UNL d   1       2.425   2.765   0.759  0.00  0.00     0.395 HD
ENDBRANCH   1   7
TORSDOF 1
ENDMDL
