MODEL 1
REMARK minimizedAffinity 4.0187602
REMARK minimizedRMSD -1
REMARK  1 active torsions:
REMARK  status: ('A' for Active; 'I' for Inactive)
REMARK    1  A    between atoms: N_2  and  C1_3 
ROOT
ATOM      1  C1  UNL d   1       2.442   0.351  -4.752  0.00  0.00     0.143 A 
ATOM      2  C2  UNL d   1       3.226  -0.356  -3.834  0.00  0.00    -0.057 A 
ATOM      3  C3  UNL d   1       3.224  -1.756  -3.804  0.00  0.00     0.033 A 
ATOM      4  C4  UNL d   1       2.411  -2.475  -4.674  0.00  0.00    -0.042 A 
ATOM      5  C5  UNL d   1       1.605  -1.793  -5.578  0.00  0.00     0.033 A 
ATOM      6  C6  UNL d   1       1.617  -0.395  -5.609  0.00  0.00    -0.057 A 
ENDROOT
BRANCH   1   7
ATOM      7  N   UNL d   1       2.327   1.743  -4.767  0.00  0.00    -0.732 N 
ATOM      8  C   UNL d   1       2.792   2.509  -5.903  0.00  0.00     0.284 C 
ATOM      9  H3  UNL d   1       1.440   2.063  -4.384  0.00  0.00     0.395 HD
ENDBRANCH   1   7
TORSDOF 1
ENDMDL
