MODEL 1
REMARK minimizedAffinity 7.18749142
REMARK minimizedRMSD -1
REMARK  1 active torsions:
REMARK  status: ('A' for Active; 'I' for Inactive)
REMARK    1  A    between atoms: N_2  and  C1_3 
ROOT
ATOM      1  C1  UNL d   1      -3.347   0.803   2.447  0.00  0.00     0.143 A 
ATOM      2  C2  UNL d   1      -3.770   0.947   3.773  0.00  0.00    -0.057 A 
ATOM      3  C3  UNL d   1      -5.079   0.630   4.156  0.00  0.00     0.033 A 
ATOM      4  C4  UNL d   1      -5.999   0.190   3.211  0.00  0.00    -0.042 A 
ATOM      5  C5  UNL d   1      -5.609   0.063   1.883  0.00  0.00     0.033 A 
ATOM      6  C6  UNL d   1      -4.298   0.374   1.507  0.00  0.00    -0.057 A 
ENDROOT
BRANCH   1   7
ATOM      7  N   UNL d   1      -2.089   1.195   1.985  0.00  0.00    -0.732 N 
ATOM      8  C   UNL d   1      -1.673   0.893   0.632  0.00  0.00     0.284 C 
ATOM      9  H3  UNL d   1      -1.832   2.128   2.300  0.00  0.00     0.395 HD
ENDBRANCH   1   7
TORSDOF 1
ENDMDL
