MODEL 1
REMARK minimizedAffinity -1.24034023
REMARK minimizedRMSD -1
REMARK  0 active torsions:
REMARK  status: ('A' for Active; 'I' for Inactive)
ROOT
ATOM      1  C4' PXY d   1      -3.179   2.209   3.268  0.00  0.00     0.077 C 
ATOM      2  C1' PXY d   1       1.238   0.088   0.202  0.00  0.00     0.077 C 
ATOM      3  C1  PXY d   1       0.087   0.655   1.009  0.00  0.00    -0.082 A 
ATOM      4  C2  PXY d   1      -0.840  -0.159   1.486  0.00  0.00     0.003 A 
ATOM      5  C3  PXY d   1      -1.905   0.340   2.191  0.00  0.00     0.003 A 
ATOM      6  C4  PXY d   1      -1.994   1.681   2.456  0.00  0.00    -0.082 A 
ATOM      7  C5  PXY d   1      -1.046   2.516   1.982  0.00  0.00     0.003 A 
ATOM      8  C6  PXY d   1       0.005   1.995   1.233  0.00  0.00     0.003 A 
ENDROOT
TORSDOF 0
ENDMDL
