MODEL 1
REMARK minimizedAffinity 4.39582443
REMARK minimizedRMSD -1
REMARK  0 active torsions:
REMARK  status: ('A' for Active; 'I' for Inactive)
ROOT
ATOM      1  C4' PXY d   1      -4.855   0.776   4.048  0.00  0.00     0.077 C 
ATOM      2  C1' PXY d   1      -0.105   1.978   0.982  0.00  0.00     0.077 C 
ATOM      3  C1  PXY d   1      -1.350   1.650   1.782  0.00  0.00    -0.082 A 
ATOM      4  C2  PXY d   1      -2.238   2.600   2.029  0.00  0.00     0.003 A 
ATOM      5  C3  PXY d   1      -3.353   2.328   2.779  0.00  0.00     0.003 A 
ATOM      6  C4  PXY d   1      -3.589   1.059   3.236  0.00  0.00    -0.082 A 
ATOM      7  C5  PXY d   1      -2.693   0.082   2.979  0.00  0.00     0.003 A 
ATOM      8  C6  PXY d   1      -1.546   0.388   2.251  0.00  0.00     0.003 A 
ENDROOT
TORSDOF 0
ENDMDL
