MODEL 1
REMARK minimizedAffinity 1.02486467
REMARK minimizedRMSD -1
REMARK  0 active torsions:
REMARK  status: ('A' for Active; 'I' for Inactive)
ROOT
ATOM      1  C4' PXY d   1      -3.874   1.790   3.296  0.00  0.00     0.077 C 
ATOM      2  C1' PXY d   1       0.972   0.762   0.318  0.00  0.00     0.077 C 
ATOM      3  C1  PXY d   1      -0.304   1.021   1.094  0.00  0.00    -0.082 A 
ATOM      4  C2  PXY d   1      -0.620   2.258   1.439  0.00  0.00     0.003 A 
ATOM      5  C3  PXY d   1      -1.754   2.506   2.169  0.00  0.00     0.003 A 
ATOM      6  C4  PXY d   1      -2.601   1.483   2.503  0.00  0.00    -0.082 A 
ATOM      7  C5  PXY d   1      -2.290   0.219   2.146  0.00  0.00     0.003 A 
ATOM      8  C6  PXY d   1      -1.114  -0.017   1.441  0.00  0.00     0.003 A 
ENDROOT
TORSDOF 0
ENDMDL
