MODEL 1
REMARK minimizedAffinity 4.58513975
REMARK minimizedRMSD -1
REMARK  0 active torsions:
REMARK  status: ('A' for Active; 'I' for Inactive)
ROOT
ATOM      1  C4' PXY d   1      -4.203   2.143   3.668  0.00  0.00     0.077 C 
ATOM      2  C1' PXY d   1       0.581   1.102   0.595  0.00  0.00     0.077 C 
ATOM      3  C1  PXY d   1      -0.679   1.364   1.396  0.00  0.00    -0.082 A 
ATOM      4  C2  PXY d   1      -0.958   2.596   1.792  0.00  0.00     0.003 A 
ATOM      5  C3  PXY d   1      -2.077   2.846   2.544  0.00  0.00     0.003 A 
ATOM      6  C4  PXY d   1      -2.947   1.833   2.849  0.00  0.00    -0.082 A 
ATOM      7  C5  PXY d   1      -2.675   0.576   2.440  0.00  0.00     0.003 A 
ATOM      8  C6  PXY d   1      -1.513   0.336   1.712  0.00  0.00     0.003 A 
ENDROOT
TORSDOF 0
ENDMDL
