MODEL 1
REMARK minimizedAffinity -5.42068291
REMARK minimizedRMSD -1
REMARK  0 active torsions:
REMARK  status: ('A' for Active; 'I' for Inactive)
ROOT
ATOM      1  C4' PXY d   1       1.078   3.816   1.140  0.00  0.00     0.077 C 
ATOM      2  C1' PXY d   1      -1.318  -1.441   1.315  0.00  0.00     0.077 C 
ATOM      3  C1  PXY d   1      -0.702  -0.057   1.272  0.00  0.00    -0.082 A 
ATOM      4  C2  PXY d   1       0.418   0.139   0.594  0.00  0.00     0.003 A 
ATOM      5  C3  PXY d   1       1.007   1.377   0.571  0.00  0.00     0.003 A 
ATOM      6  C4  PXY d   1       0.415   2.438   1.203  0.00  0.00    -0.082 A 
ATOM      7  C5  PXY d   1      -0.734   2.248   1.887  0.00  0.00     0.003 A 
ATOM      8  C6  PXY d   1      -1.293   0.974   1.933  0.00  0.00     0.003 A 
ENDROOT
TORSDOF 0
ENDMDL
