MODEL 1
REMARK minimizedAffinity 7.74734926
REMARK minimizedRMSD -1
REMARK  0 active torsions:
REMARK  status: ('A' for Active; 'I' for Inactive)
ROOT
ATOM      1  C4' PXY d   1      -5.297   0.717   4.132  0.00  0.00     0.077 C 
ATOM      2  C1' PXY d   1      -0.474   2.502   1.492  0.00  0.00     0.077 C 
ATOM      3  C1  PXY d   1      -1.738   2.023   2.178  0.00  0.00    -0.082 A 
ATOM      4  C2  PXY d   1      -2.611   2.907   2.634  0.00  0.00     0.003 A 
ATOM      5  C3  PXY d   1      -3.744   2.491   3.285  0.00  0.00     0.003 A 
ATOM      6  C4  PXY d   1      -4.012   1.156   3.424  0.00  0.00    -0.082 A 
ATOM      7  C5  PXY d   1      -3.132   0.248   2.952  0.00  0.00     0.003 A 
ATOM      8  C6  PXY d   1      -1.968   0.690   2.331  0.00  0.00     0.003 A 
ENDROOT
TORSDOF 0
ENDMDL
