MODEL 1
REMARK minimizedAffinity 3.43310237
REMARK minimizedRMSD -1
REMARK  0 active torsions:
REMARK  status: ('A' for Active; 'I' for Inactive)
ROOT
ATOM      1  C4' PXY d   1      -2.832   0.074   3.207  0.00  0.00     0.077 C 
ATOM      2  C1' PXY d   1       1.183   1.972  -0.493  0.00  0.00     0.077 C 
ATOM      3  C1  PXY d   1       0.131   1.486   0.484  0.00  0.00    -0.082 A 
ATOM      4  C2  PXY d   1      -0.075   0.187   0.630  0.00  0.00     0.003 A 
ATOM      5  C3  PXY d   1      -1.045  -0.270   1.485  0.00  0.00     0.003 A 
ATOM      6  C4  PXY d   1      -1.774   0.611   2.239  0.00  0.00    -0.082 A 
ATOM      7  C5  PXY d   1      -1.562   1.937   2.104  0.00  0.00     0.003 A 
ATOM      8  C6  PXY d   1      -0.602   2.381   1.200  0.00  0.00     0.003 A 
ENDROOT
TORSDOF 0
ENDMDL
