MODEL 1
REMARK minimizedAffinity 1.89195204
REMARK minimizedRMSD -1
REMARK  0 active torsions:
REMARK  status: ('A' for Active; 'I' for Inactive)
ROOT
ATOM      1  C4' PXY d   1       1.870  -0.672   0.757  0.00  0.00     0.077 C 
ATOM      2  C1' PXY d   1      -2.546   2.757   2.226  0.00  0.00     0.077 C 
ATOM      3  C1  PXY d   1      -1.391   1.849   1.850  0.00  0.00    -0.082 A 
ATOM      4  C2  PXY d   1      -0.319   2.362   1.268  0.00  0.00     0.003 A 
ATOM      5  C3  PXY d   1       0.721   1.550   0.893  0.00  0.00     0.003 A 
ATOM      6  C4  PXY d   1       0.685   0.209   1.163  0.00  0.00    -0.082 A 
ATOM      7  C5  PXY d   1      -0.401  -0.320   1.765  0.00  0.00     0.003 A 
ATOM      8  C6  PXY d   1      -1.463   0.514   2.102  0.00  0.00     0.003 A 
ENDROOT
TORSDOF 0
ENDMDL
