MODEL 1
REMARK minimizedAffinity -6.09581041
REMARK minimizedRMSD -1
REMARK  0 active torsions:
REMARK  status: ('A' for Active; 'I' for Inactive)
ROOT
ATOM      1  C4' PXY d   1       2.051   0.718   0.475  0.00  0.00     0.077 C 
ATOM      2  C1' PXY d   1      -3.445   0.973   2.248  0.00  0.00     0.077 C 
ATOM      3  C1  PXY d   1      -2.004   0.919   1.780  0.00  0.00    -0.082 A 
ATOM      4  C2  PXY d   1      -1.478  -0.239   1.415  0.00  0.00     0.003 A 
ATOM      5  C3  PXY d   1      -0.167  -0.312   1.020  0.00  0.00     0.003 A 
ATOM      6  C4  PXY d   1       0.598   0.822   0.946  0.00  0.00    -0.082 A 
ATOM      7  C5  PXY d   1       0.065   2.008   1.306  0.00  0.00     0.003 A 
ATOM      8  C6  PXY d   1      -1.255   2.054   1.744  0.00  0.00     0.003 A 
ENDROOT
TORSDOF 0
ENDMDL
