MODEL 1
REMARK minimizedAffinity 1.90574515
REMARK minimizedRMSD -1
REMARK  0 active torsions:
REMARK  status: ('A' for Active; 'I' for Inactive)
ROOT
ATOM      1  C4' PXY d   1      -2.624  -0.507   3.146  0.00  0.00     0.077 C 
ATOM      2  C1' PXY d   1       1.592   1.133  -0.451  0.00  0.00     0.077 C 
ATOM      3  C1  PXY d   1       0.486   0.715   0.497  0.00  0.00    -0.082 A 
ATOM      4  C2  PXY d   1       0.368  -0.556   0.845  0.00  0.00     0.003 A 
ATOM      5  C3  PXY d   1      -0.646  -0.956   1.677  0.00  0.00     0.003 A 
ATOM      6  C4  PXY d   1      -1.517  -0.038   2.199  0.00  0.00    -0.082 A 
ATOM      7  C5  PXY d   1      -1.397   1.262   1.857  0.00  0.00     0.003 A 
ATOM      8  C6  PXY d   1      -0.386   1.642   0.979  0.00  0.00     0.003 A 
ENDROOT
TORSDOF 0
ENDMDL
