MODEL 1
REMARK minimizedAffinity -4.47344255
REMARK minimizedRMSD -1
REMARK  0 active torsions:
REMARK  status: ('A' for Active; 'I' for Inactive)
ROOT
ATOM      1  C4' PXY d   1      -2.282   2.438   2.898  0.00  0.00     0.077 C 
ATOM      2  C1' PXY d   1       2.006   0.013  -0.127  0.00  0.00     0.077 C 
ATOM      3  C1  PXY d   1       0.890   0.653   0.676  0.00  0.00    -0.082 A 
ATOM      4  C2  PXY d   1      -0.354   0.229   0.521  0.00  0.00     0.003 A 
ATOM      5  C3  PXY d   1      -1.379   0.818   1.215  0.00  0.00     0.003 A 
ATOM      6  C4  PXY d   1      -1.122   1.816   2.116  0.00  0.00    -0.082 A 
ATOM      7  C5  PXY d   1       0.145   2.247   2.288  0.00  0.00     0.003 A 
ATOM      8  C6  PXY d   1       1.167   1.664   1.543  0.00  0.00     0.003 A 
ENDROOT
TORSDOF 0
ENDMDL
