MODEL 1
REMARK minimizedAffinity 6.78831625
REMARK minimizedRMSD -1
REMARK  0 active torsions:
REMARK  status: ('A' for Active; 'I' for Inactive)
ROOT
ATOM      1  C4' PXY d   1      -4.869   3.505   4.447  0.00  0.00     0.077 C 
ATOM      2  C1' PXY d   1      -3.116   4.620  -0.947  0.00  0.00     0.077 C 
ATOM      3  C1  PXY d   1      -3.567   4.318   0.468  0.00  0.00    -0.082 A 
ATOM      4  C2  PXY d   1      -4.793   4.642   0.848  0.00  0.00     0.003 A 
ATOM      5  C3  PXY d   1      -5.206   4.405   2.133  0.00  0.00     0.003 A 
ATOM      6  C4  PXY d   1      -4.374   3.782   3.025  0.00  0.00    -0.082 A 
ATOM      7  C5  PXY d   1      -3.126   3.439   2.642  0.00  0.00     0.003 A 
ATOM      8  C6  PXY d   1      -2.712   3.725   1.345  0.00  0.00     0.003 A 
ENDROOT
TORSDOF 0
ENDMDL
