MODEL 1
REMARK minimizedAffinity -3.25290155
REMARK minimizedRMSD -1
REMARK  0 active torsions:
REMARK  status: ('A' for Active; 'I' for Inactive)
ROOT
ATOM      1  C4' PXY d   1      -2.093  -0.186   1.712  0.00  0.00     0.077 C 
ATOM      2  C1' PXY d   1       1.831   3.864   0.442  0.00  0.00     0.077 C 
ATOM      3  C1  PXY d   1       0.794   2.811   0.781  0.00  0.00    -0.082 A 
ATOM      4  C2  PXY d   1       1.151   1.538   0.841  0.00  0.00     0.003 A 
ATOM      5  C3  PXY d   1       0.220   0.569   1.115  0.00  0.00     0.003 A 
ATOM      6  C4  PXY d   1      -1.078   0.912   1.383  0.00  0.00    -0.082 A 
ATOM      7  C5  PXY d   1      -1.448   2.210   1.334  0.00  0.00     0.003 A 
ATOM      8  C6  PXY d   1      -0.496   3.174   1.013  0.00  0.00     0.003 A 
ENDROOT
TORSDOF 0
ENDMDL
