MODEL 1
REMARK minimizedAffinity -4.73750973
REMARK minimizedRMSD -1
REMARK  0 active torsions:
REMARK  status: ('A' for Active; 'I' for Inactive)
ROOT
ATOM      1  C4' PXY d   1      -1.863   2.000   2.450  0.00  0.00     0.077 C 
ATOM      2  C1' PXY d   1       2.626  -0.398  -0.291  0.00  0.00     0.077 C 
ATOM      3  C1  PXY d   1       1.442   0.220   0.426  0.00  0.00    -0.082 A 
ATOM      4  C2  PXY d   1       1.331   1.537   0.491  0.00  0.00     0.003 A 
ATOM      5  C3  PXY d   1       0.283   2.112   1.162  0.00  0.00     0.003 A 
ATOM      6  C4  PXY d   1      -0.689   1.332   1.728  0.00  0.00    -0.082 A 
ATOM      7  C5  PXY d   1      -0.589  -0.012   1.658  0.00  0.00     0.003 A 
ATOM      8  C6  PXY d   1       0.504  -0.577   1.007  0.00  0.00     0.003 A 
ENDROOT
TORSDOF 0
ENDMDL
