MODEL 1
REMARK minimizedAffinity 2.19174886
REMARK minimizedRMSD -1
REMARK  0 active torsions:
REMARK  status: ('A' for Active; 'I' for Inactive)
ROOT
ATOM      1  C4' PXY d   1       1.922  -0.756   0.467  0.00  0.00     0.077 C 
ATOM      2  C1' PXY d   1      -2.617   2.553   1.833  0.00  0.00     0.077 C 
ATOM      3  C1  PXY d   1      -1.430   1.677   1.484  0.00  0.00    -0.082 A 
ATOM      4  C2  PXY d   1      -0.408   2.194   0.822  0.00  0.00     0.003 A 
ATOM      5  C3  PXY d   1       0.660   1.409   0.471  0.00  0.00     0.003 A 
ATOM      6  C4  PXY d   1       0.706   0.093   0.848  0.00  0.00    -0.082 A 
ATOM      7  C5  PXY d   1      -0.328  -0.439   1.533  0.00  0.00     0.003 A 
ATOM      8  C6  PXY d   1      -1.421   0.365   1.844  0.00  0.00     0.003 A 
ENDROOT
TORSDOF 0
ENDMDL
