MODEL 1
REMARK minimizedAffinity -0.387243867
REMARK minimizedRMSD -1
REMARK  0 active torsions:
REMARK  status: ('A' for Active; 'I' for Inactive)
ROOT
ATOM      1  C4' PXY d   1      -3.429  -0.384   2.528  0.00  0.00     0.077 C 
ATOM      2  C1' PXY d   1       1.061   3.024   1.248  0.00  0.00     0.077 C 
ATOM      3  C1  PXY d   1      -0.112   2.122   1.575  0.00  0.00    -0.082 A 
ATOM      4  C2  PXY d   1      -1.204   2.638   2.115  0.00  0.00     0.003 A 
ATOM      5  C3  PXY d   1      -2.262   1.831   2.446  0.00  0.00     0.003 A 
ATOM      6  C4  PXY d   1      -2.223   0.490   2.173  0.00  0.00    -0.082 A 
ATOM      7  C5  PXY d   1      -1.117  -0.042   1.612  0.00  0.00     0.003 A 
ATOM      8  C6  PXY d   1      -0.038   0.787   1.321  0.00  0.00     0.003 A 
ENDROOT
TORSDOF 0
ENDMDL
