MODEL 1
REMARK minimizedAffinity 1.37812281
REMARK minimizedRMSD -1
REMARK  0 active torsions:
REMARK  status: ('A' for Active; 'I' for Inactive)
ROOT
ATOM      1  C4' PXY d   1      -3.994  -6.000   0.304  0.00  0.00     0.077 C 
ATOM      2  C1' PXY d   1      -2.868  -1.838  -3.546  0.00  0.00     0.077 C 
ATOM      3  C1  PXY d   1      -3.162  -2.938  -2.546  0.00  0.00    -0.082 A 
ATOM      4  C2  PXY d   1      -3.862  -2.663  -1.458  0.00  0.00     0.003 A 
ATOM      5  C3  PXY d   1      -4.109  -3.639  -0.527  0.00  0.00     0.003 A 
ATOM      6  C4  PXY d   1      -3.681  -4.922  -0.738  0.00  0.00    -0.082 A 
ATOM      7  C5  PXY d   1      -2.975  -5.213  -1.852  0.00  0.00     0.003 A 
ATOM      8  C6  PXY d   1      -2.699  -4.199  -2.764  0.00  0.00     0.003 A 
ENDROOT
TORSDOF 0
ENDMDL
