MODEL 1
REMARK minimizedAffinity -4.31568098
REMARK minimizedRMSD -1
REMARK  0 active torsions:
REMARK  status: ('A' for Active; 'I' for Inactive)
ROOT
ATOM      1  C4' PXY d   1       1.341   0.392   0.314  0.00  0.00     0.077 C 
ATOM      2  C1' PXY d   1      -3.672   1.698   2.878  0.00  0.00     0.077 C 
ATOM      3  C1  PXY d   1      -2.359   1.343   2.208  0.00  0.00    -0.082 A 
ATOM      4  C2  PXY d   1      -1.419   2.265   2.082  0.00  0.00     0.003 A 
ATOM      5  C3  PXY d   1      -0.238   1.970   1.451  0.00  0.00     0.003 A 
ATOM      6  C4  PXY d   1       0.004   0.703   0.991  0.00  0.00    -0.082 A 
ATOM      7  C5  PXY d   1      -0.946  -0.246   1.126  0.00  0.00     0.003 A 
ATOM      8  C6  PXY d   1      -2.154   0.085   1.733  0.00  0.00     0.003 A 
ENDROOT
TORSDOF 0
ENDMDL
