MODEL 1
REMARK minimizedAffinity -0.42029202
REMARK minimizedRMSD -1
REMARK  0 active torsions:
REMARK  status: ('A' for Active; 'I' for Inactive)
ROOT
ATOM      1  C4' PXY d   1       1.092   1.543   0.039  0.00  0.00     0.077 C 
ATOM      2  C1' PXY d   1      -3.158  -0.935   3.073  0.00  0.00     0.077 C 
ATOM      3  C1  PXY d   1      -2.052  -0.275   2.275  0.00  0.00    -0.082 A 
ATOM      4  C2  PXY d   1      -1.076  -1.015   1.773  0.00  0.00     0.003 A 
ATOM      5  C3  PXY d   1      -0.051  -0.431   1.075  0.00  0.00     0.003 A 
ATOM      6  C4  PXY d   1      -0.051   0.919   0.844  0.00  0.00    -0.082 A 
ATOM      7  C5  PXY d   1      -1.048   1.679   1.343  0.00  0.00     0.003 A 
ATOM      8  C6  PXY d   1      -2.058   1.072   2.084  0.00  0.00     0.003 A 
ENDROOT
TORSDOF 0
ENDMDL
