MODEL 1
REMARK minimizedAffinity -1.48971236
REMARK minimizedRMSD -1
REMARK  0 active torsions:
REMARK  status: ('A' for Active; 'I' for Inactive)
ROOT
ATOM      1  C4' PXY d   1       1.783  -0.934   1.715  0.00  0.00     0.077 C 
ATOM      2  C1' PXY d   1      -2.359   3.094   1.532  0.00  0.00     0.077 C 
ATOM      3  C1  PXY d   1      -1.281   2.030   1.587  0.00  0.00    -0.082 A 
ATOM      4  C2  PXY d   1      -0.010   2.379   1.466  0.00  0.00     0.003 A 
ATOM      5  C3  PXY d   1       0.975   1.426   1.481  0.00  0.00     0.003 A 
ATOM      6  C4  PXY d   1       0.662   0.108   1.675  0.00  0.00    -0.082 A 
ATOM      7  C5  PXY d   1      -0.632  -0.256   1.810  0.00  0.00     0.003 A 
ATOM      8  C6  PXY d   1      -1.620   0.722   1.750  0.00  0.00     0.003 A 
ENDROOT
TORSDOF 0
ENDMDL
