MODEL 1
REMARK minimizedAffinity -0.984497786
REMARK minimizedRMSD -1
REMARK  1 active torsions:
REMARK  status: ('A' for Active; 'I' for Inactive)
REMARK    1  A    between atoms: C3_4  and  O_7 
ROOT
ATOM      1  C   UNL d   1       3.089  -1.131   0.585  0.00  0.00    -0.033 A 
ATOM      2  C1  UNL d   1       2.349  -1.609  -0.498  0.00  0.00     0.039 A 
ATOM      3  C2  UNL d   1       1.044  -1.159  -0.707  0.00  0.00    -0.080 A 
ATOM      4  C3  UNL d   1       0.492  -0.231   0.173  0.00  0.00     0.150 A 
ATOM      5  C4  UNL d   1       1.225   0.252   1.251  0.00  0.00    -0.007 A 
ATOM      6  C5  UNL d   1       2.528  -0.199   1.459  0.00  0.00     0.039 A 
ENDROOT
BRANCH   4   7
ATOM      7  O   UNL d   1      -0.780   0.234   0.012  0.00  0.00    -0.526 OA
ATOM      8  H5  UNL d   1      -1.174  -0.209  -0.757  0.00  0.00     0.418 HD
ENDBRANCH   4   7
TORSDOF 1
ENDMDL
