MODEL 1
REMARK minimizedAffinity -3.21287584
REMARK minimizedRMSD -1
REMARK  1 active torsions:
REMARK  status: ('A' for Active; 'I' for Inactive)
REMARK    1  A    between atoms: C3_4  and  O_7 
ROOT
ATOM      1  C   UNL d   1      -0.673   0.602  -0.635  0.00  0.00    -0.033 A 
ATOM      2  C1  UNL d   1       0.096   1.421   0.194  0.00  0.00     0.039 A 
ATOM      3  C2  UNL d   1       1.184   0.889   0.888  0.00  0.00    -0.080 A 
ATOM      4  C3  UNL d   1       1.493  -0.460   0.744  0.00  0.00     0.150 A 
ATOM      5  C4  UNL d   1       0.734  -1.281  -0.083  0.00  0.00    -0.007 A 
ATOM      6  C5  UNL d   1      -0.354  -0.749  -0.775  0.00  0.00     0.039 A 
ENDROOT
BRANCH   4   7
ATOM      7  O   UNL d   1       2.543  -1.026   1.405  0.00  0.00    -0.526 OA
ATOM      8  H5  UNL d   1       2.959  -0.346   1.961  0.00  0.00     0.418 HD
ENDBRANCH   4   7
TORSDOF 1
ENDMDL
