MODEL 1
REMARK minimizedAffinity -4.85159779
REMARK minimizedRMSD -1
REMARK  1 active torsions:
REMARK  status: ('A' for Active; 'I' for Inactive)
REMARK    1  A    between atoms: C3_4  and  O_7 
ROOT
ATOM      1  C   UNL d   1       0.082  -1.420  -0.639  0.00  0.00    -0.033 A 
ATOM      2  C1  UNL d   1       1.321  -1.836  -0.149  0.00  0.00     0.039 A 
ATOM      3  C2  UNL d   1       2.078  -0.983   0.656  0.00  0.00    -0.080 A 
ATOM      4  C3  UNL d   1       1.584   0.282   0.965  0.00  0.00     0.150 A 
ATOM      5  C4  UNL d   1       0.349   0.701   0.483  0.00  0.00    -0.007 A 
ATOM      6  C5  UNL d   1      -0.405  -0.152  -0.322  0.00  0.00     0.039 A 
ENDROOT
BRANCH   4   7
ATOM      7  O   UNL d   1       2.289   1.151   1.743  0.00  0.00    -0.526 OA
ATOM      8  H5  UNL d   1       3.135   0.736   1.979  0.00  0.00     0.418 HD
ENDBRANCH   4   7
TORSDOF 1
ENDMDL
