MODEL 1
REMARK minimizedAffinity -4.17318344
REMARK minimizedRMSD -1
REMARK  1 active torsions:
REMARK  status: ('A' for Active; 'I' for Inactive)
REMARK    1  A    between atoms: C3_4  and  O_7 
ROOT
ATOM      1  C   UNL d   1       2.397  -1.885   1.069  0.00  0.00    -0.033 A 
ATOM      2  C1  UNL d   1       1.778  -1.047   1.998  0.00  0.00     0.039 A 
ATOM      3  C2  UNL d   1       0.696  -0.253   1.612  0.00  0.00    -0.080 A 
ATOM      4  C3  UNL d   1       0.242  -0.308   0.297  0.00  0.00     0.150 A 
ATOM      5  C4  UNL d   1       0.852  -1.144  -0.633  0.00  0.00    -0.007 A 
ATOM      6  C5  UNL d   1       1.933  -1.935  -0.246  0.00  0.00     0.039 A 
ENDROOT
BRANCH   4   7
ATOM      7  O   UNL d   1      -0.807   0.451  -0.127  0.00  0.00    -0.526 OA
ATOM      8  H5  UNL d   1      -1.110   1.000   0.616  0.00  0.00     0.418 HD
ENDBRANCH   4   7
TORSDOF 1
ENDMDL
