MODEL 1
REMARK minimizedAffinity -4.31928349
REMARK minimizedRMSD -1
REMARK  1 active torsions:
REMARK  status: ('A' for Active; 'I' for Inactive)
REMARK    1  A    between atoms: C3_4  and  O_7 
ROOT
ATOM      1  C   UNL d   1       0.017   0.101   0.007  0.00  0.00    -0.033 A 
ATOM      2  C1  UNL d   1       0.184  -1.156  -0.577  0.00  0.00     0.039 A 
ATOM      3  C2  UNL d   1       1.310  -1.924  -0.274  0.00  0.00    -0.080 A 
ATOM      4  C3  UNL d   1       2.260  -1.424   0.612  0.00  0.00     0.150 A 
ATOM      5  C4  UNL d   1       2.098  -0.174   1.201  0.00  0.00    -0.007 A 
ATOM      6  C5  UNL d   1       0.973   0.592   0.897  0.00  0.00     0.039 A 
ENDROOT
BRANCH   4   7
ATOM      7  O   UNL d   1       3.378  -2.134   0.934  0.00  0.00    -0.526 OA
ATOM      8  H5  UNL d   1       3.370  -2.965   0.431  0.00  0.00     0.418 HD
ENDBRANCH   4   7
TORSDOF 1
ENDMDL
