MODEL 1
REMARK minimizedAffinity -4.67198372
REMARK minimizedRMSD -1
REMARK  1 active torsions:
REMARK  status: ('A' for Active; 'I' for Inactive)
REMARK    1  A    between atoms: C3_4  and  O_7 
ROOT
ATOM      1  C   UNL d   1      -0.479  -0.801  -1.022  0.00  0.00    -0.033 A 
ATOM      2  C1  UNL d   1      -0.187  -2.167  -1.016  0.00  0.00     0.039 A 
ATOM      3  C2  UNL d   1       0.869  -2.654  -0.245  0.00  0.00    -0.080 A 
ATOM      4  C3  UNL d   1       1.625  -1.766   0.517  0.00  0.00     0.150 A 
ATOM      5  C4  UNL d   1       1.337  -0.405   0.519  0.00  0.00    -0.007 A 
ATOM      6  C5  UNL d   1       0.282   0.079  -0.253  0.00  0.00     0.039 A 
ENDROOT
BRANCH   4   7
ATOM      7  O   UNL d   1       2.669  -2.194   1.282  0.00  0.00    -0.526 OA
ATOM      8  H5  UNL d   1       2.768  -3.153   1.160  0.00  0.00     0.418 HD
ENDBRANCH   4   7
TORSDOF 1
ENDMDL
