MODEL 1
REMARK minimizedAffinity -5.08727741
REMARK minimizedRMSD -1
REMARK  1 active torsions:
REMARK  status: ('A' for Active; 'I' for Inactive)
REMARK    1  A    between atoms: C3_4  and  O_7 
ROOT
ATOM      1  C   UNL d   1       3.035  -1.206   0.738  0.00  0.00    -0.033 A 
ATOM      2  C1  UNL d   1       2.955   0.186   0.804  0.00  0.00     0.039 A 
ATOM      3  C2  UNL d   1       1.764   0.835   0.475  0.00  0.00    -0.080 A 
ATOM      4  C3  UNL d   1       0.661   0.082   0.082  0.00  0.00     0.150 A 
ATOM      5  C4  UNL d   1       0.732  -1.305   0.017  0.00  0.00    -0.007 A 
ATOM      6  C5  UNL d   1       1.923  -1.952   0.346  0.00  0.00     0.039 A 
ENDROOT
BRANCH   4   7
ATOM      7  O   UNL d   1      -0.521   0.672  -0.254  0.00  0.00    -0.526 OA
ATOM      8  H5  UNL d   1      -0.414   1.635  -0.190  0.00  0.00     0.418 HD
ENDBRANCH   4   7
TORSDOF 1
ENDMDL
