MODEL 1
REMARK minimizedAffinity -4.36616182
REMARK minimizedRMSD -1
REMARK  1 active torsions:
REMARK  status: ('A' for Active; 'I' for Inactive)
REMARK    1  A    between atoms: C3_4  and  O_7 
ROOT
ATOM      1  C   UNL d   1      -0.202  -0.549  -0.723  0.00  0.00    -0.033 A 
ATOM      2  C1  UNL d   1       0.428   0.359   0.130  0.00  0.00     0.039 A 
ATOM      3  C2  UNL d   1       1.521  -0.045   0.899  0.00  0.00    -0.080 A 
ATOM      4  C3  UNL d   1       1.974  -1.358   0.805  0.00  0.00     0.150 A 
ATOM      5  C4  UNL d   1       1.354  -2.267  -0.045  0.00  0.00    -0.007 A 
ATOM      6  C5  UNL d   1       0.261  -1.862  -0.811  0.00  0.00     0.039 A 
ENDROOT
BRANCH   4   7
ATOM      7  O   UNL d   1       3.034  -1.799   1.539  0.00  0.00    -0.526 OA
ATOM      8  H5  UNL d   1       3.344  -1.070   2.102  0.00  0.00     0.418 HD
ENDBRANCH   4   7
TORSDOF 1
ENDMDL
