MODEL 1
REMARK minimizedAffinity -3.34674478
REMARK minimizedRMSD -1
REMARK  1 active torsions:
REMARK  status: ('A' for Active; 'I' for Inactive)
REMARK    1  A    between atoms: C3_4  and  O_7 
ROOT
ATOM      1  C   UNL d   1       0.020  -0.651  -0.870  0.00  0.00    -0.033 A 
ATOM      2  C1  UNL d   1      -0.212  -1.647   0.081  0.00  0.00     0.039 A 
ATOM      3  C2  UNL d   1      -1.351  -1.592   0.887  0.00  0.00    -0.080 A 
ATOM      4  C3  UNL d   1      -2.248  -0.539   0.732  0.00  0.00     0.150 A 
ATOM      5  C4  UNL d   1      -2.025   0.454  -0.216  0.00  0.00    -0.007 A 
ATOM      6  C5  UNL d   1      -0.887   0.399  -1.019  0.00  0.00     0.039 A 
ENDROOT
BRANCH   4   7
ATOM      7  O   UNL d   1      -3.371  -0.441   1.499  0.00  0.00    -0.526 OA
ATOM      8  H5  UNL d   1      -3.379  -1.181   2.129  0.00  0.00     0.418 HD
ENDBRANCH   4   7
TORSDOF 1
ENDMDL
