MODEL 1
REMARK minimizedAffinity -4.52178764
REMARK minimizedRMSD -1
REMARK  1 active torsions:
REMARK  status: ('A' for Active; 'I' for Inactive)
REMARK    1  A    between atoms: C3_4  and  O_7 
ROOT
ATOM      1  C   UNL d   1       0.960  -1.519  -0.018  0.00  0.00    -0.033 A 
ATOM      2  C1  UNL d   1       0.395  -0.243   0.005  0.00  0.00     0.039 A 
ATOM      3  C2  UNL d   1       1.216   0.886  -0.024  0.00  0.00    -0.080 A 
ATOM      4  C3  UNL d   1       2.598   0.725  -0.077  0.00  0.00     0.150 A 
ATOM      5  C4  UNL d   1       3.167  -0.544  -0.105  0.00  0.00    -0.007 A 
ATOM      6  C5  UNL d   1       2.345  -1.670  -0.075  0.00  0.00     0.039 A 
ENDROOT
BRANCH   4   7
ATOM      7  O   UNL d   1       3.440   1.797  -0.103  0.00  0.00    -0.526 OA
ATOM      8  H5  UNL d   1       2.907   2.608  -0.049  0.00  0.00     0.418 HD
ENDBRANCH   4   7
TORSDOF 1
ENDMDL
