MODEL 1
REMARK minimizedAffinity -4.77667427
REMARK minimizedRMSD -1
REMARK  1 active torsions:
REMARK  status: ('A' for Active; 'I' for Inactive)
REMARK    1  A    between atoms: C3_4  and  O_7 
ROOT
ATOM      1  C   UNL d   1       1.771  -2.049  -0.352  0.00  0.00    -0.033 A 
ATOM      2  C1  UNL d   1       2.063  -0.966   0.478  0.00  0.00     0.039 A 
ATOM      3  C2  UNL d   1       1.127   0.056   0.651  0.00  0.00    -0.080 A 
ATOM      4  C3  UNL d   1      -0.096  -0.018  -0.011  0.00  0.00     0.150 A 
ATOM      5  C4  UNL d   1      -0.395  -1.097  -0.836  0.00  0.00    -0.007 A 
ATOM      6  C5  UNL d   1       0.541  -2.116  -1.008  0.00  0.00     0.039 A 
ENDROOT
BRANCH   4   7
ATOM      7  O   UNL d   1      -1.039   0.957   0.123  0.00  0.00    -0.526 OA
ATOM      8  H5  UNL d   1      -0.682   1.653   0.701  0.00  0.00     0.418 HD
ENDBRANCH   4   7
TORSDOF 1
ENDMDL
