MODEL 1
REMARK minimizedAffinity -3.08272457
REMARK minimizedRMSD -1
REMARK  1 active torsions:
REMARK  status: ('A' for Active; 'I' for Inactive)
REMARK    1  A    between atoms: C3_4  and  O_7 
ROOT
ATOM      1  C   UNL d   1       3.995   0.268   0.069  0.00  0.00    -0.033 A 
ATOM      2  C1  UNL d   1       3.545   1.586   0.167  0.00  0.00     0.039 A 
ATOM      3  C2  UNL d   1       2.178   1.853   0.265  0.00  0.00    -0.080 A 
ATOM      4  C3  UNL d   1       1.273   0.795   0.265  0.00  0.00     0.150 A 
ATOM      5  C4  UNL d   1       1.714  -0.520   0.172  0.00  0.00    -0.007 A 
ATOM      6  C5  UNL d   1       3.080  -0.786   0.073  0.00  0.00     0.039 A 
ENDROOT
BRANCH   4   7
ATOM      7  O   UNL d   1      -0.071   1.007   0.354  0.00  0.00    -0.526 OA
ATOM      8  H5  UNL d   1      -0.230   1.965   0.383  0.00  0.00     0.418 HD
ENDBRANCH   4   7
TORSDOF 1
ENDMDL
