MODEL 1
REMARK minimizedAffinity -4.26039219
REMARK minimizedRMSD -1
REMARK  1 active torsions:
REMARK  status: ('A' for Active; 'I' for Inactive)
REMARK    1  A    between atoms: C3_4  and  O_7 
ROOT
ATOM      1  C   UNL d   1       3.608  -0.217  -0.514  0.00  0.00    -0.033 A 
ATOM      2  C1  UNL d   1       3.175   1.096  -0.323  0.00  0.00     0.039 A 
ATOM      3  C2  UNL d   1       1.809   1.380  -0.261  0.00  0.00    -0.080 A 
ATOM      4  C3  UNL d   1       0.889   0.344  -0.389  0.00  0.00     0.150 A 
ATOM      5  C4  UNL d   1       1.314  -0.968  -0.575  0.00  0.00    -0.007 A 
ATOM      6  C5  UNL d   1       2.678  -1.249  -0.638  0.00  0.00     0.039 A 
ENDROOT
BRANCH   4   7
ATOM      7  O   UNL d   1      -0.454   0.573  -0.339  0.00  0.00    -0.526 OA
ATOM      8  H5  UNL d   1      -0.599   1.528  -0.236  0.00  0.00     0.418 HD
ENDBRANCH   4   7
TORSDOF 1
ENDMDL
