MODEL 1
REMARK minimizedAffinity -3.91604233
REMARK minimizedRMSD -1
REMARK  1 active torsions:
REMARK  status: ('A' for Active; 'I' for Inactive)
REMARK    1  A    between atoms: C3_4  and  O_7 
ROOT
ATOM      1  C   UNL d   1      -0.200   1.018   0.286  0.00  0.00    -0.033 A 
ATOM      2  C1  UNL d   1       0.964   1.562   0.831  0.00  0.00     0.039 A 
ATOM      3  C2  UNL d   1       2.094   0.761   1.009  0.00  0.00    -0.080 A 
ATOM      4  C3  UNL d   1       2.047  -0.580   0.638  0.00  0.00     0.150 A 
ATOM      5  C4  UNL d   1       0.891  -1.128   0.090  0.00  0.00    -0.007 A 
ATOM      6  C5  UNL d   1      -0.237  -0.327  -0.086  0.00  0.00     0.039 A 
ENDROOT
BRANCH   4   7
ATOM      7  O   UNL d   1       3.122  -1.402   0.797  0.00  0.00    -0.526 OA
ATOM      8  H5  UNL d   1       3.839  -0.894   1.212  0.00  0.00     0.418 HD
ENDBRANCH   4   7
TORSDOF 1
ENDMDL
