MODEL 1
REMARK minimizedAffinity 1.58717203
REMARK minimizedRMSD -1
REMARK  2 active torsions:
REMARK  status: ('A' for Active; 'I' for Inactive)
REMARK    1  A    between atoms: C1_2  and  C2_3 
REMARK    2  A    between atoms: C2_3  and  C3_4 
ROOT
ATOM      1  C3  UNL d   1      -0.824  -2.413  -1.393  0.00  0.00    -0.075 A 
ATOM      2  C4  UNL d   1      -1.313  -2.135  -0.108  0.00  0.00     0.002 A 
ATOM      3  C5  UNL d   1      -2.681  -1.959   0.106  0.00  0.00     0.002 A 
ATOM      4  C6  UNL d   1      -3.573  -2.049  -0.960  0.00  0.00    -0.004 A 
ATOM      5  C7  UNL d   1      -3.096  -2.308  -2.243  0.00  0.00     0.002 A 
ATOM      6  C8  UNL d   1      -1.729  -2.489  -2.460  0.00  0.00     0.002 A 
ENDROOT
BRANCH   1   7
ATOM      7  C2  UNL d   1       0.652  -2.634  -1.626  0.00  0.00     0.056 C 
BRANCH   7   8
ATOM      8  C1  UNL d   1       1.163  -2.076  -2.959  0.00  0.00     0.007 C 
ATOM      9  C   UNL d   1       2.566  -2.551  -3.310  0.00  0.00     0.009 C 
ENDBRANCH   7   8
ENDBRANCH   1   7
TORSDOF 2
ENDMDL
