MODEL 1
REMARK minimizedAffinity -5.60127497
REMARK minimizedRMSD -1
REMARK  2 active torsions:
REMARK  status: ('A' for Active; 'I' for Inactive)
REMARK    1  A    between atoms: C1_2  and  C2_3 
REMARK    2  A    between atoms: C2_3  and  C3_4 
ROOT
ATOM      1  C3  UNL d   1       0.642   0.276  -0.414  0.00  0.00    -0.075 A 
ATOM      2  C4  UNL d   1      -0.266   0.727   0.555  0.00  0.00     0.002 A 
ATOM      3  C5  UNL d   1      -0.977  -0.183   1.337  0.00  0.00     0.002 A 
ATOM      4  C6  UNL d   1      -0.797  -1.553   1.155  0.00  0.00    -0.004 A 
ATOM      5  C7  UNL d   1       0.090  -2.012   0.184  0.00  0.00     0.002 A 
ATOM      6  C8  UNL d   1       0.806  -1.103  -0.598  0.00  0.00     0.002 A 
ENDROOT
BRANCH   1   7
ATOM      7  C2  UNL d   1       1.436   1.257  -1.244  0.00  0.00     0.056 C 
BRANCH   7   8
ATOM      8  C1  UNL d   1       2.625   1.880  -0.505  0.00  0.00     0.007 C 
ATOM      9  C   UNL d   1       2.238   3.081   0.349  0.00  0.00     0.009 C 
ENDBRANCH   7   8
ENDBRANCH   1   7
TORSDOF 2
ENDMDL
