MODEL 1
REMARK minimizedAffinity -4.70655775
REMARK minimizedRMSD -1
REMARK  2 active torsions:
REMARK  status: ('A' for Active; 'I' for Inactive)
REMARK    1  A    between atoms: C1_2  and  C2_3 
REMARK    2  A    between atoms: C2_3  and  C3_4 
ROOT
ATOM      1  C3  UNL d   1      -0.003  -0.222   0.414  0.00  0.00    -0.075 A 
ATOM      2  C4  UNL d   1      -0.891  -0.872   1.284  0.00  0.00     0.002 A 
ATOM      3  C5  UNL d   1      -0.962  -2.265   1.313  0.00  0.00     0.002 A 
ATOM      4  C6  UNL d   1      -0.157  -3.024   0.467  0.00  0.00    -0.004 A 
ATOM      5  C7  UNL d   1       0.716  -2.389  -0.414  0.00  0.00     0.002 A 
ATOM      6  C8  UNL d   1       0.793  -0.995  -0.441  0.00  0.00     0.002 A 
ENDROOT
BRANCH   1   7
ATOM      7  C2  UNL d   1       0.100   1.284   0.399  0.00  0.00     0.056 C 
BRANCH   7   8
ATOM      8  C1  UNL d   1       1.538   1.810   0.330  0.00  0.00     0.007 C 
ATOM      9  C   UNL d   1       1.762   3.056   1.177  0.00  0.00     0.009 C 
ENDBRANCH   7   8
ENDBRANCH   1   7
TORSDOF 2
ENDMDL
