MODEL 1
REMARK minimizedAffinity -3.7711637
REMARK minimizedRMSD -1
REMARK  2 active torsions:
REMARK  status: ('A' for Active; 'I' for Inactive)
REMARK    1  A    between atoms: C1_2  and  C2_3 
REMARK    2  A    between atoms: C2_3  and  C3_4 
ROOT
ATOM      1  C3  UNL d   1       0.321  -0.615  -0.846  0.00  0.00    -0.075 A 
ATOM      2  C4  UNL d   1      -0.026  -0.112   0.417  0.00  0.00     0.002 A 
ATOM      3  C5  UNL d   1      -0.705  -0.912   1.336  0.00  0.00     0.002 A 
ATOM      4  C6  UNL d   1      -1.055  -2.219   1.002  0.00  0.00    -0.004 A 
ATOM      5  C7  UNL d   1      -0.730  -2.723  -0.256  0.00  0.00     0.002 A 
ATOM      6  C8  UNL d   1      -0.047  -1.926  -1.176  0.00  0.00     0.002 A 
ENDROOT
BRANCH   1   7
ATOM      7  C2  UNL d   1       1.082   0.237  -1.834  0.00  0.00     0.056 C 
BRANCH   7   8
ATOM      8  C1  UNL d   1       2.556  -0.154  -1.988  0.00  0.00     0.007 C 
ATOM      9  C   UNL d   1       3.497   0.722  -1.172  0.00  0.00     0.009 C 
ENDBRANCH   7   8
ENDBRANCH   1   7
TORSDOF 2
ENDMDL
