MODEL 1
REMARK minimizedAffinity -4.69714785
REMARK minimizedRMSD -1
REMARK  2 active torsions:
REMARK  status: ('A' for Active; 'I' for Inactive)
REMARK    1  A    between atoms: C1_2  and  C2_3 
REMARK    2  A    between atoms: C2_3  and  C3_4 
ROOT
ATOM      1  C3  UNL d   1       0.950   1.147  -0.364  0.00  0.00    -0.075 A 
ATOM      2  C4  UNL d   1       2.264   1.307  -0.829  0.00  0.00     0.002 A 
ATOM      3  C5  UNL d   1       3.032   2.397  -0.421  0.00  0.00     0.002 A 
ATOM      4  C6  UNL d   1       2.495   3.345   0.447  0.00  0.00    -0.004 A 
ATOM      5  C7  UNL d   1       1.186   3.206   0.902  0.00  0.00     0.002 A 
ATOM      6  C8  UNL d   1       0.416   2.113   0.499  0.00  0.00     0.002 A 
ENDROOT
BRANCH   1   7
ATOM      7  C2  UNL d   1       0.123  -0.047  -0.779  0.00  0.00     0.056 C 
BRANCH   7   8
ATOM      8  C1  UNL d   1      -0.056  -1.095   0.324  0.00  0.00     0.007 C 
ATOM      9  C   UNL d   1      -1.219  -0.790   1.259  0.00  0.00     0.009 C 
ENDBRANCH   7   8
ENDBRANCH   1   7
TORSDOF 2
ENDMDL
