MODEL 1
REMARK minimizedAffinity -4.1579113
REMARK minimizedRMSD -1
REMARK  2 active torsions:
REMARK  status: ('A' for Active; 'I' for Inactive)
REMARK    1  A    between atoms: C1_2  and  C2_3 
REMARK    2  A    between atoms: C2_3  and  C3_4 
ROOT
ATOM      1  C3  UNL d   1      -0.750  -0.385   0.635  0.00  0.00    -0.075 A 
ATOM      2  C4  UNL d   1      -0.053   0.142  -0.462  0.00  0.00     0.002 A 
ATOM      3  C5  UNL d   1       0.581  -0.705  -1.371  0.00  0.00     0.002 A 
ATOM      4  C6  UNL d   1       0.535  -2.086  -1.191  0.00  0.00    -0.004 A 
ATOM      5  C7  UNL d   1      -0.141  -2.619  -0.095  0.00  0.00     0.002 A 
ATOM      6  C8  UNL d   1      -0.780  -1.774   0.814  0.00  0.00     0.002 A 
ENDROOT
BRANCH   1   7
ATOM      7  C2  UNL d   1      -1.462   0.525   1.607  0.00  0.00     0.056 C 
BRANCH   7   8
ATOM      8  C1  UNL d   1      -1.454   0.022   3.054  0.00  0.00     0.007 C 
ATOM      9  C   UNL d   1      -0.100   0.172   3.734  0.00  0.00     0.009 C 
ENDBRANCH   7   8
ENDBRANCH   1   7
TORSDOF 2
ENDMDL
