MODEL 1
REMARK minimizedAffinity -0.795523167
REMARK minimizedRMSD -1
REMARK  2 active torsions:
REMARK  status: ('A' for Active; 'I' for Inactive)
REMARK    1  A    between atoms: C1_2  and  C2_3 
REMARK    2  A    between atoms: C2_3  and  C3_4 
ROOT
ATOM      1  C3  UNL d   1      -0.753   0.827   0.874  0.00  0.00    -0.075 A 
ATOM      2  C4  UNL d   1      -1.013   0.002   1.977  0.00  0.00     0.002 A 
ATOM      3  C5  UNL d   1      -1.201  -1.370   1.807  0.00  0.00     0.002 A 
ATOM      4  C6  UNL d   1      -1.143  -1.932   0.534  0.00  0.00    -0.004 A 
ATOM      5  C7  UNL d   1      -0.902  -1.119  -0.572  0.00  0.00     0.002 A 
ATOM      6  C8  UNL d   1      -0.708   0.254  -0.404  0.00  0.00     0.002 A 
ENDROOT
BRANCH   1   7
ATOM      7  C2  UNL d   1      -0.519   2.308   1.054  0.00  0.00     0.056 C 
BRANCH   7   8
ATOM      8  C1  UNL d   1       0.960   2.702   1.121  0.00  0.00     0.007 C 
ATOM      9  C   UNL d   1       1.175   4.179   1.424  0.00  0.00     0.009 C 
ENDBRANCH   7   8
ENDBRANCH   1   7
TORSDOF 2
ENDMDL
