MODEL 1
REMARK minimizedAffinity -2.01975274
REMARK minimizedRMSD -1
REMARK  2 active torsions:
REMARK  status: ('A' for Active; 'I' for Inactive)
REMARK    1  A    between atoms: C1_2  and  C2_3 
REMARK    2  A    between atoms: C2_3  and  C3_4 
ROOT
ATOM      1  C3  UNL d   1       2.256   1.600  -0.080  0.00  0.00    -0.075 A 
ATOM      2  C4  UNL d   1       1.099   0.808  -0.086  0.00  0.00     0.002 A 
ATOM      3  C5  UNL d   1      -0.077   1.269   0.506  0.00  0.00     0.002 A 
ATOM      4  C6  UNL d   1      -0.109   2.520   1.119  0.00  0.00    -0.004 A 
ATOM      5  C7  UNL d   1       1.040   3.308   1.145  0.00  0.00     0.002 A 
ATOM      6  C8  UNL d   1       2.217   2.852   0.549  0.00  0.00     0.002 A 
ENDROOT
BRANCH   1   7
ATOM      7  C2  UNL d   1       3.524   1.120  -0.745  0.00  0.00     0.056 C 
BRANCH   7   8
ATOM      8  C1  UNL d   1       4.804   1.493   0.010  0.00  0.00     0.007 C 
ATOM      9  C   UNL d   1       5.999   0.628  -0.368  0.00  0.00     0.009 C 
ENDBRANCH   7   8
ENDBRANCH   1   7
TORSDOF 2
ENDMDL
