MODEL 1
REMARK minimizedAffinity -4.46458149
REMARK minimizedRMSD -1
REMARK  0 active torsions:
REMARK  status: ('A' for Active; 'I' for Inactive)
ROOT
ATOM      1  C2' OXE d   1      -0.478  -1.122   0.528  0.00  0.00     0.078 C 
ATOM      2  C1' OXE d   1       2.125  -0.107   0.798  0.00  0.00     0.078 C 
ATOM      3  C1  OXE d   1       1.972  -1.565   0.447  0.00  0.00    -0.078 A 
ATOM      4  C2  OXE d   1       0.694  -2.065   0.363  0.00  0.00    -0.078 A 
ATOM      5  C3  OXE d   1       0.495  -3.390  -0.012  0.00  0.00     0.003 A 
ATOM      6  C4  OXE d   1       1.585  -4.258  -0.153  0.00  0.00    -0.002 A 
ATOM      7  C5  OXE d   1       2.894  -3.779  -0.033  0.00  0.00    -0.002 A 
ATOM      8  C6  OXE d   1       3.105  -2.429   0.224  0.00  0.00     0.003 A 
ENDROOT
TORSDOF 0
ENDMDL
