MODEL 1
REMARK minimizedAffinity 1.24443412
REMARK minimizedRMSD -1
REMARK  0 active torsions:
REMARK  status: ('A' for Active; 'I' for Inactive)
ROOT
ATOM      1  C2' OXE d   1      -3.740   0.053  -1.055  0.00  0.00     0.078 C 
ATOM      2  C1' OXE d   1      -4.324   2.306   0.514  0.00  0.00     0.078 C 
ATOM      3  C1  OXE d   1      -3.128   1.471   0.899  0.00  0.00    -0.078 A 
ATOM      4  C2  OXE d   1      -2.877   0.344   0.153  0.00  0.00    -0.078 A 
ATOM      5  C3  OXE d   1      -1.755  -0.431   0.431  0.00  0.00     0.003 A 
ATOM      6  C4  OXE d   1      -0.968  -0.160   1.557  0.00  0.00    -0.002 A 
ATOM      7  C5  OXE d   1      -1.229   0.960   2.353  0.00  0.00    -0.002 A 
ATOM      8  C6  OXE d   1      -2.277   1.808   2.013  0.00  0.00     0.003 A 
ENDROOT
TORSDOF 0
ENDMDL
