MODEL 1
REMARK minimizedAffinity -2.36176157
REMARK minimizedRMSD -1
REMARK  0 active torsions:
REMARK  status: ('A' for Active; 'I' for Inactive)
ROOT
ATOM      1  C2' OXE d   1       3.632  -3.935  -0.356  0.00  0.00     0.078 C 
ATOM      2  C1' OXE d   1       3.842  -1.246   0.421  0.00  0.00     0.078 C 
ATOM      3  C1  OXE d   1       2.464  -1.859   0.372  0.00  0.00    -0.078 A 
ATOM      4  C2  OXE d   1       2.367  -3.162  -0.054  0.00  0.00    -0.078 A 
ATOM      5  C3  OXE d   1       1.126  -3.792  -0.065  0.00  0.00     0.003 A 
ATOM      6  C4  OXE d   1      -0.040  -3.067   0.206  0.00  0.00    -0.002 A 
ATOM      7  C5  OXE d   1       0.033  -1.728   0.604  0.00  0.00    -0.002 A 
ATOM      8  C6  OXE d   1       1.278  -1.122   0.733  0.00  0.00     0.003 A 
ENDROOT
TORSDOF 0
ENDMDL
