MODEL 1
REMARK minimizedAffinity -0.53778863
REMARK minimizedRMSD -1
REMARK  0 active torsions:
REMARK  status: ('A' for Active; 'I' for Inactive)
ROOT
ATOM      1  C2' OXE d   1       3.795  -1.556   0.853  0.00  0.00     0.078 C 
ATOM      2  C1' OXE d   1       2.286  -3.922   0.923  0.00  0.00     0.078 C 
ATOM      3  C1  OXE d   1       1.540  -2.611   0.940  0.00  0.00    -0.078 A 
ATOM      4  C2  OXE d   1       2.288  -1.458   0.953  0.00  0.00    -0.078 A 
ATOM      5  C3  OXE d   1       1.650  -0.222   0.914  0.00  0.00     0.003 A 
ATOM      6  C4  OXE d   1       0.256  -0.140   1.017  0.00  0.00    -0.002 A 
ATOM      7  C5  OXE d   1      -0.523  -1.302   1.045  0.00  0.00    -0.002 A 
ATOM      8  C6  OXE d   1       0.100  -2.542   0.965  0.00  0.00     0.003 A 
ENDROOT
TORSDOF 0
ENDMDL
