MODEL 1
REMARK minimizedAffinity -3.56495476
REMARK minimizedRMSD -1
REMARK  0 active torsions:
REMARK  status: ('A' for Active; 'I' for Inactive)
ROOT
ATOM      1  C2' OXE d   1      -1.302  -0.443   1.305  0.00  0.00     0.078 C 
ATOM      2  C1' OXE d   1       1.376   0.102   1.949  0.00  0.00     0.078 C 
ATOM      3  C1  OXE d   1       1.084  -1.142   1.147  0.00  0.00    -0.078 A 
ATOM      4  C2  OXE d   1      -0.233  -1.425   0.876  0.00  0.00    -0.078 A 
ATOM      5  C3  OXE d   1      -0.554  -2.530   0.094  0.00  0.00     0.003 A 
ATOM      6  C4  OXE d   1       0.439  -3.439  -0.291  0.00  0.00    -0.002 A 
ATOM      7  C5  OXE d   1       1.783  -3.190   0.008  0.00  0.00    -0.002 A 
ATOM      8  C6  OXE d   1       2.126  -2.027   0.688  0.00  0.00     0.003 A 
ENDROOT
TORSDOF 0
ENDMDL
