MODEL 1
REMARK minimizedAffinity 0.446604133
REMARK minimizedRMSD -1
REMARK  0 active torsions:
REMARK  status: ('A' for Active; 'I' for Inactive)
ROOT
ATOM      1  C2' OXE d   1       2.384  -3.530   0.133  0.00  0.00     0.078 C 
ATOM      2  C1' OXE d   1       2.743  -0.796   0.661  0.00  0.00     0.078 C 
ATOM      3  C1  OXE d   1       1.336  -1.338   0.685  0.00  0.00    -0.078 A 
ATOM      4  C2  OXE d   1       1.165  -2.667   0.379  0.00  0.00    -0.078 A 
ATOM      5  C3  OXE d   1      -0.106  -3.230   0.441  0.00  0.00     0.003 A 
ATOM      6  C4  OXE d   1      -1.229  -2.423   0.660  0.00  0.00    -0.002 A 
ATOM      7  C5  OXE d   1      -1.081  -1.059   0.934  0.00  0.00    -0.002 A 
ATOM      8  C6  OXE d   1       0.195  -0.511   0.992  0.00  0.00     0.003 A 
ENDROOT
TORSDOF 0
ENDMDL
