MODEL 1
REMARK minimizedAffinity -5.41258144
REMARK minimizedRMSD -1
REMARK  0 active torsions:
REMARK  status: ('A' for Active; 'I' for Inactive)
ROOT
ATOM      1  C2' OXE d   1      -0.574  -1.229  -0.112  0.00  0.00     0.078 C 
ATOM      2  C1' OXE d   1       1.918  -0.324   0.809  0.00  0.00     0.078 C 
ATOM      3  C1  OXE d   1       1.823  -1.748   0.321  0.00  0.00    -0.078 A 
ATOM      4  C2  OXE d   1       0.589  -2.197  -0.084  0.00  0.00    -0.078 A 
ATOM      5  C3  OXE d   1       0.457  -3.485  -0.595  0.00  0.00     0.003 A 
ATOM      6  C4  OXE d   1       1.536  -4.376  -0.556  0.00  0.00    -0.002 A 
ATOM      7  C5  OXE d   1       2.792  -3.952  -0.110  0.00  0.00    -0.002 A 
ATOM      8  C6  OXE d   1       2.963  -2.631   0.291  0.00  0.00     0.003 A 
ENDROOT
TORSDOF 0
ENDMDL
