MODEL 1
REMARK minimizedAffinity 5.44890976
REMARK minimizedRMSD -1
REMARK  0 active torsions:
REMARK  status: ('A' for Active; 'I' for Inactive)
ROOT
ATOM      1  C2' OXE d   1       2.247  -0.049   0.880  0.00  0.00     0.078 C 
ATOM      2  C1' OXE d   1      -0.452  -0.816   0.936  0.00  0.00     0.078 C 
ATOM      3  C1  OXE d   1       0.563  -1.847   0.512  0.00  0.00    -0.078 A 
ATOM      4  C2  OXE d   1       1.877  -1.450   0.443  0.00  0.00    -0.078 A 
ATOM      5  C3  OXE d   1       2.861  -2.376   0.110  0.00  0.00     0.003 A 
ATOM      6  C4  OXE d   1       2.509  -3.667  -0.303  0.00  0.00    -0.002 A 
ATOM      7  C5  OXE d   1       1.173  -4.081  -0.278  0.00  0.00    -0.002 A 
ATOM      8  C6  OXE d   1       0.194  -3.198   0.167  0.00  0.00     0.003 A 
ENDROOT
TORSDOF 0
ENDMDL
