MODEL 1
REMARK minimizedAffinity -1.60867369
REMARK minimizedRMSD -1
REMARK  0 active torsions:
REMARK  status: ('A' for Active; 'I' for Inactive)
ROOT
ATOM      1  C2' OXE d   1       2.938  -3.228  -0.748  0.00  0.00     0.078 C 
ATOM      2  C1' OXE d   1       2.290  -0.534  -1.200  0.00  0.00     0.078 C 
ATOM      3  C1  OXE d   1       1.580  -1.250  -0.079  0.00  0.00    -0.078 A 
ATOM      4  C2  OXE d   1       1.869  -2.581   0.105  0.00  0.00    -0.078 A 
ATOM      5  C3  OXE d   1       1.282  -3.274   1.159  0.00  0.00     0.003 A 
ATOM      6  C4  OXE d   1       0.286  -2.672   1.938  0.00  0.00    -0.002 A 
ATOM      7  C5  OXE d   1      -0.052  -1.328   1.742  0.00  0.00    -0.002 A 
ATOM      8  C6  OXE d   1       0.614  -0.593   0.768  0.00  0.00     0.003 A 
ENDROOT
TORSDOF 0
ENDMDL
