MODEL 1
REMARK minimizedAffinity -2.98735499
REMARK minimizedRMSD -1
REMARK  0 active torsions:
REMARK  status: ('A' for Active; 'I' for Inactive)
ROOT
ATOM      1  C2' OXE d   1       1.503   0.471   0.534  0.00  0.00     0.078 C 
ATOM      2  C1' OXE d   1      -0.847  -1.042   0.791  0.00  0.00     0.078 C 
ATOM      3  C1  OXE d   1       0.430  -1.776   0.467  0.00  0.00    -0.078 A 
ATOM      4  C2  OXE d   1       1.566  -1.023   0.297  0.00  0.00    -0.078 A 
ATOM      5  C3  OXE d   1       2.782  -1.655   0.051  0.00  0.00     0.003 A 
ATOM      6  C4  OXE d   1       2.830  -3.036  -0.176  0.00  0.00    -0.002 A 
ATOM      7  C5  OXE d   1       1.676  -3.817  -0.047  0.00  0.00    -0.002 A 
ATOM      8  C6  OXE d   1       0.479  -3.210   0.315  0.00  0.00     0.003 A 
ENDROOT
TORSDOF 0
ENDMDL
