MODEL 1
REMARK minimizedAffinity -3.90016031
REMARK minimizedRMSD -1
REMARK  0 active torsions:
REMARK  status: ('A' for Active; 'I' for Inactive)
ROOT
ATOM      1  C2' OXE d   1       3.156  -3.925   0.065  0.00  0.00     0.078 C 
ATOM      2  C1' OXE d   1       3.901  -1.219  -0.019  0.00  0.00     0.078 C 
ATOM      3  C1  OXE d   1       2.481  -1.546   0.372  0.00  0.00    -0.078 A 
ATOM      4  C2  OXE d   1       2.113  -2.870   0.366  0.00  0.00    -0.078 A 
ATOM      5  C3  OXE d   1       0.831  -3.231   0.772  0.00  0.00     0.003 A 
ATOM      6  C4  OXE d   1      -0.131  -2.249   1.038  0.00  0.00    -0.002 A 
ATOM      7  C5  OXE d   1       0.213  -0.893   1.012  0.00  0.00    -0.002 A 
ATOM      8  C6  OXE d   1       1.523  -0.527   0.723  0.00  0.00     0.003 A 
ENDROOT
TORSDOF 0
ENDMDL
