MODEL 1
REMARK minimizedAffinity -2.8822403
REMARK minimizedRMSD -1
REMARK  0 active torsions:
REMARK  status: ('A' for Active; 'I' for Inactive)
ROOT
ATOM      1  C2' OXE d   1      -0.588  -0.733   0.761  0.00  0.00     0.078 C 
ATOM      2  C1' OXE d   1       1.911   0.340   1.455  0.00  0.00     0.078 C 
ATOM      3  C1  OXE d   1       1.890  -0.994   0.753  0.00  0.00    -0.078 A 
ATOM      4  C2  OXE d   1       0.660  -1.534   0.458  0.00  0.00    -0.078 A 
ATOM      5  C3  OXE d   1       0.585  -2.737  -0.238  0.00  0.00     0.003 A 
ATOM      6  C4  OXE d   1       1.743  -3.475  -0.505  0.00  0.00    -0.002 A 
ATOM      7  C5  OXE d   1       3.003  -2.963  -0.178  0.00  0.00    -0.002 A 
ATOM      8  C6  OXE d   1       3.096  -1.707   0.411  0.00  0.00     0.003 A 
ENDROOT
TORSDOF 0
ENDMDL
