MODEL 1
REMARK minimizedAffinity 3.62821698
REMARK minimizedRMSD -1
REMARK  0 active torsions:
REMARK  status: ('A' for Active; 'I' for Inactive)
ROOT
ATOM      1  C2' OXE d   1      -0.941   0.580   1.483  0.00  0.00     0.078 C 
ATOM      2  C1' OXE d   1       1.822   0.377   1.939  0.00  0.00     0.078 C 
ATOM      3  C1  OXE d   1       1.154  -0.731   1.164  0.00  0.00    -0.078 A 
ATOM      4  C2  OXE d   1      -0.206  -0.646   0.986  0.00  0.00    -0.078 A 
ATOM      5  C3  OXE d   1      -0.864  -1.614   0.231  0.00  0.00     0.003 A 
ATOM      6  C4  OXE d   1      -0.179  -2.750  -0.216  0.00  0.00    -0.002 A 
ATOM      7  C5  OXE d   1       1.199  -2.875  -0.011  0.00  0.00    -0.002 A 
ATOM      8  C6  OXE d   1       1.886  -1.856   0.639  0.00  0.00     0.003 A 
ENDROOT
TORSDOF 0
ENDMDL
