MODEL 1
REMARK minimizedAffinity 1.0575273
REMARK minimizedRMSD -1
REMARK  0 active torsions:
REMARK  status: ('A' for Active; 'I' for Inactive)
ROOT
ATOM      1  C2' OXE d   1       2.445  -4.062   0.375  0.00  0.00     0.078 C 
ATOM      2  C1' OXE d   1      -0.023  -4.188  -0.956  0.00  0.00     0.078 C 
ATOM      3  C1  OXE d   1       0.261  -2.969  -0.115  0.00  0.00    -0.078 A 
ATOM      4  C2  OXE d   1       1.452  -2.937   0.570  0.00  0.00    -0.078 A 
ATOM      5  C3  OXE d   1       1.788  -1.811   1.317  0.00  0.00     0.003 A 
ATOM      6  C4  OXE d   1       0.860  -0.779   1.500  0.00  0.00    -0.002 A 
ATOM      7  C5  OXE d   1      -0.375  -0.810   0.843  0.00  0.00    -0.002 A 
ATOM      8  C6  OXE d   1      -0.672  -1.875  -0.000  0.00  0.00     0.003 A 
ENDROOT
TORSDOF 0
ENDMDL
