MODEL 1
REMARK minimizedAffinity 0.54035908
REMARK minimizedRMSD -1
REMARK  0 active torsions:
REMARK  status: ('A' for Active; 'I' for Inactive)
ROOT
ATOM      1  C2' OXE d   1       2.778  -1.056   1.407  0.00  0.00     0.078 C 
ATOM      2  C1' OXE d   1       1.438  -3.495   1.034  0.00  0.00     0.078 C 
ATOM      3  C1  OXE d   1       0.616  -2.230   1.013  0.00  0.00    -0.078 A 
ATOM      4  C2  OXE d   1       1.273  -1.045   1.243  0.00  0.00    -0.078 A 
ATOM      5  C3  OXE d   1       0.571   0.155   1.181  0.00  0.00     0.003 A 
ATOM      6  C4  OXE d   1      -0.822   0.155   1.039  0.00  0.00    -0.002 A 
ATOM      7  C5  OXE d   1      -1.515  -1.044   0.843  0.00  0.00    -0.002 A 
ATOM      8  C6  OXE d   1      -0.808  -2.239   0.785  0.00  0.00     0.003 A 
ENDROOT
TORSDOF 0
ENDMDL
