MODEL 1
REMARK minimizedAffinity -1.23222196
REMARK minimizedRMSD -1
REMARK  0 active torsions:
REMARK  status: ('A' for Active; 'I' for Inactive)
ROOT
ATOM      1  C2' OXE d   1      -0.690  -1.167   0.784  0.00  0.00     0.078 C 
ATOM      2  C1' OXE d   1       1.727   0.017   1.584  0.00  0.00     0.078 C 
ATOM      3  C1  OXE d   1       1.797  -1.301   0.855  0.00  0.00    -0.078 A 
ATOM      4  C2  OXE d   1       0.607  -1.896   0.509  0.00  0.00    -0.078 A 
ATOM      5  C3  OXE d   1       0.616  -3.086  -0.214  0.00  0.00     0.003 A 
ATOM      6  C4  OXE d   1       1.820  -3.759  -0.456  0.00  0.00    -0.002 A 
ATOM      7  C5  OXE d   1       3.040  -3.190  -0.077  0.00  0.00    -0.002 A 
ATOM      8  C6  OXE d   1       3.049  -1.944   0.540  0.00  0.00     0.003 A 
ENDROOT
TORSDOF 0
ENDMDL
