MODEL 1
REMARK minimizedAffinity -3.37872744
REMARK minimizedRMSD -1
REMARK  0 active torsions:
REMARK  status: ('A' for Active; 'I' for Inactive)
ROOT
ATOM      1  C2' OXE d   1       3.444  -1.055   0.001  0.00  0.00     0.078 C 
ATOM      2  C1' OXE d   1       2.698  -3.761  -0.005  0.00  0.00     0.078 C 
ATOM      3  C1  OXE d   1       1.644  -2.742   0.349  0.00  0.00    -0.078 A 
ATOM      4  C2  OXE d   1       2.030  -1.424   0.395  0.00  0.00    -0.078 A 
ATOM      5  C3  OXE d   1       1.085  -0.438   0.663  0.00  0.00     0.003 A 
ATOM      6  C4  OXE d   1      -0.219  -0.788   1.036  0.00  0.00    -0.002 A 
ATOM      7  C5  OXE d   1      -0.622  -2.127   1.034  0.00  0.00    -0.002 A 
ATOM      8  C6  OXE d   1       0.283  -3.111   0.652  0.00  0.00     0.003 A 
ENDROOT
TORSDOF 0
ENDMDL
