MODEL 1
REMARK minimizedAffinity 0.13464132
REMARK minimizedRMSD -1
REMARK  0 active torsions:
REMARK  status: ('A' for Active; 'I' for Inactive)
ROOT
ATOM      1  C2' OXE d   1       2.078  -4.132   0.025  0.00  0.00     0.078 C 
ATOM      2  C1' OXE d   1       3.018  -1.531  -0.455  0.00  0.00     0.078 C 
ATOM      3  C1  OXE d   1       1.659  -1.682   0.183  0.00  0.00    -0.078 A 
ATOM      4  C2  OXE d   1       1.187  -2.958   0.371  0.00  0.00    -0.078 A 
ATOM      5  C3  OXE d   1      -0.036  -3.155   1.006  0.00  0.00     0.003 A 
ATOM      6  C4  OXE d   1      -0.858  -2.064   1.314  0.00  0.00    -0.002 A 
ATOM      7  C5  OXE d   1      -0.413  -0.756   1.094  0.00  0.00    -0.002 A 
ATOM      8  C6  OXE d   1       0.857  -0.547   0.570  0.00  0.00     0.003 A 
ENDROOT
TORSDOF 0
ENDMDL
