MODEL 1
REMARK minimizedAffinity 2.01780057
REMARK minimizedRMSD -1
REMARK  0 active torsions:
REMARK  status: ('A' for Active; 'I' for Inactive)
ROOT
ATOM      1  C2' OXE d   1       3.205  -2.494   0.032  0.00  0.00     0.078 C 
ATOM      2  C1' OXE d   1       1.096  -4.259   0.592  0.00  0.00     0.078 C 
ATOM      3  C1  OXE d   1       0.855  -2.785   0.806  0.00  0.00    -0.078 A 
ATOM      4  C2  OXE d   1       1.908  -1.933   0.574  0.00  0.00    -0.078 A 
ATOM      5  C3  OXE d   1       1.724  -0.559   0.702  0.00  0.00     0.003 A 
ATOM      6  C4  OXE d   1       0.524  -0.050   1.213  0.00  0.00    -0.002 A 
ATOM      7  C5  OXE d   1      -0.548  -0.904   1.494  0.00  0.00    -0.002 A 
ATOM      8  C6  OXE d   1      -0.413  -2.267   1.256  0.00  0.00     0.003 A 
ENDROOT
TORSDOF 0
ENDMDL
