MODEL 1
REMARK minimizedAffinity -0.710881591
REMARK minimizedRMSD -1
REMARK  0 active torsions:
REMARK  status: ('A' for Active; 'I' for Inactive)
ROOT
ATOM      1  N1  IND d   1       0.449   0.387  -1.444  0.00  0.00    -0.196 N 
ATOM      2  C2  IND d   1       0.125   0.497  -0.121  0.00  0.00     0.054 A 
ATOM      3  C3  IND d   1      -1.211   0.380   0.047  0.00  0.00    -0.031 A 
ATOM      4  C4  IND d   1      -3.043  -0.097  -1.697  0.00  0.00     0.051 A 
ATOM      5  C5  IND d   1      -3.240  -0.240  -3.042  0.00  0.00    -0.031 A 
ATOM      6  C6  IND d   1      -2.194  -0.183  -3.941  0.00  0.00     0.015 A 
ATOM      7  C7  IND d   1      -0.907   0.009  -3.526  0.00  0.00    -0.016 A 
ATOM      8  C8  IND d   1      -0.705   0.162  -2.161  0.00  0.00    -0.047 A 
ATOM      9  C9  IND d   1      -1.767   0.147  -1.248  0.00  0.00    -0.096 A 
ATOM     10  HN1 IND d   1       1.241   0.448  -1.774  0.00  0.00     0.298 HD
ENDROOT
TORSDOF 0
ENDMDL
