MODEL 1
REMARK minimizedAffinity -2.18431664
REMARK minimizedRMSD -1
REMARK  0 active torsions:
REMARK  status: ('A' for Active; 'I' for Inactive)
ROOT
ATOM      1  N1  IND d   1       0.729   0.603   0.947  0.00  0.00    -0.196 N 
ATOM      2  C2  IND d   1       1.613   1.174   0.074  0.00  0.00     0.054 A 
ATOM      3  C3  IND d   1       1.122   1.135  -1.185  0.00  0.00    -0.031 A 
ATOM      4  C4  IND d   1      -1.153   0.274  -2.028  0.00  0.00     0.051 A 
ATOM      5  C5  IND d   1      -2.284  -0.369  -1.609  0.00  0.00    -0.031 A 
ATOM      6  C6  IND d   1      -2.473  -0.726  -0.289  0.00  0.00     0.015 A 
ATOM      7  C7  IND d   1      -1.539  -0.441   0.667  0.00  0.00    -0.016 A 
ATOM      8  C8  IND d   1      -0.387   0.206   0.244  0.00  0.00    -0.047 A 
ATOM      9  C9  IND d   1      -0.170   0.532  -1.101  0.00  0.00    -0.096 A 
ATOM     10  HN1 IND d   1       0.849   0.509   1.793  0.00  0.00     0.298 HD
ENDROOT
TORSDOF 0
ENDMDL
