MODEL 1
REMARK minimizedAffinity -3.63362145
REMARK minimizedRMSD -1
REMARK  0 active torsions:
REMARK  status: ('A' for Active; 'I' for Inactive)
ROOT
ATOM      1  N1  IND d   1      -0.619  -0.767   0.014  0.00  0.00    -0.196 N 
ATOM      2  C2  IND d   1      -0.308   0.391  -0.643  0.00  0.00     0.054 A 
ATOM      3  C3  IND d   1       0.811   0.942  -0.121  0.00  0.00    -0.031 A 
ATOM      4  C4  IND d   1       2.349   0.062   1.746  0.00  0.00     0.051 A 
ATOM      5  C5  IND d   1       2.457  -0.938   2.671  0.00  0.00    -0.031 A 
ATOM      6  C6  IND d   1       1.527  -1.954   2.758  0.00  0.00     0.015 A 
ATOM      7  C7  IND d   1       0.457  -2.014   1.912  0.00  0.00    -0.016 A 
ATOM      8  C8  IND d   1       0.340  -0.997   0.975  0.00  0.00    -0.047 A 
ATOM      9  C9  IND d   1       1.258   0.060   0.910  0.00  0.00    -0.096 A 
ATOM     10  HN1 IND d   1      -1.300  -1.267  -0.146  0.00  0.00     0.298 HD
ENDROOT
TORSDOF 0
ENDMDL
