MODEL 1
REMARK minimizedAffinity -3.34695172
REMARK minimizedRMSD -1
REMARK  0 active torsions:
REMARK  status: ('A' for Active; 'I' for Inactive)
ROOT
ATOM      1  N1  IND d   1      -0.646  -0.964   0.163  0.00  0.00    -0.196 N 
ATOM      2  C2  IND d   1      -0.740  -0.022  -0.824  0.00  0.00     0.054 A 
ATOM      3  C3  IND d   1       0.319   0.817  -0.775  0.00  0.00    -0.031 A 
ATOM      4  C4  IND d   1       2.375   0.768   0.775  0.00  0.00     0.051 A 
ATOM      5  C5  IND d   1       2.891   0.116   1.859  0.00  0.00    -0.031 A 
ATOM      6  C6  IND d   1       2.243  -0.953   2.444  0.00  0.00     0.015 A 
ATOM      7  C7  IND d   1       1.054  -1.419   1.956  0.00  0.00    -0.016 A 
ATOM      8  C8  IND d   1       0.524  -0.754   0.859  0.00  0.00    -0.047 A 
ATOM      9  C9  IND d   1       1.156   0.358   0.288  0.00  0.00    -0.096 A 
ATOM     10  HN1 IND d   1      -1.221  -1.583   0.321  0.00  0.00     0.298 HD
ENDROOT
TORSDOF 0
ENDMDL
