MODEL 1
REMARK minimizedAffinity -5.02356529
REMARK minimizedRMSD -1
REMARK  0 active torsions:
REMARK  status: ('A' for Active; 'I' for Inactive)
ROOT
ATOM      1  N1  IND d   1      -0.451   1.209   0.354  0.00  0.00    -0.196 N 
ATOM      2  C2  IND d   1      -1.256   0.569  -0.547  0.00  0.00     0.054 A 
ATOM      3  C3  IND d   1      -0.569  -0.411  -1.178  0.00  0.00    -0.031 A 
ATOM      4  C4  IND d   1       1.853  -1.204  -0.815  0.00  0.00     0.051 A 
ATOM      5  C5  IND d   1       2.993  -0.902  -0.125  0.00  0.00    -0.031 A 
ATOM      6  C6  IND d   1       3.044   0.138   0.781  0.00  0.00     0.015 A 
ATOM      7  C7  IND d   1       1.948   0.912   1.039  0.00  0.00    -0.016 A 
ATOM      8  C8  IND d   1       0.790   0.613   0.334  0.00  0.00    -0.047 A 
ATOM      9  C9  IND d   1       0.745  -0.415  -0.617  0.00  0.00    -0.096 A 
ATOM     10  HN1 IND d   1      -0.682   1.873   0.849  0.00  0.00     0.298 HD
ENDROOT
TORSDOF 0
ENDMDL
