MODEL 1
REMARK minimizedAffinity -3.87082744
REMARK minimizedRMSD -1
REMARK  0 active torsions:
REMARK  status: ('A' for Active; 'I' for Inactive)
ROOT
ATOM      1  N1  IND d   1      -0.941  -1.494   1.570  0.00  0.00    -0.196 N 
ATOM      2  C2  IND d   1      -1.666  -0.646   0.780  0.00  0.00     0.054 A 
ATOM      3  C3  IND d   1      -0.845   0.214   0.137  0.00  0.00    -0.031 A 
ATOM      4  C4  IND d   1       1.726   0.344   0.154  0.00  0.00     0.051 A 
ATOM      5  C5  IND d   1       2.828  -0.198   0.753  0.00  0.00    -0.031 A 
ATOM      6  C6  IND d   1       2.728  -1.223   1.672  0.00  0.00     0.015 A 
ATOM      7  C7  IND d   1       1.518  -1.754   2.018  0.00  0.00    -0.016 A 
ATOM      8  C8  IND d   1       0.396  -1.200   1.417  0.00  0.00    -0.047 A 
ATOM      9  C9  IND d   1       0.488  -0.132   0.516  0.00  0.00    -0.096 A 
ATOM     10  HN1 IND d   1      -1.266  -2.108   2.077  0.00  0.00     0.298 HD
ENDROOT
TORSDOF 0
ENDMDL
