MODEL 1
REMARK minimizedAffinity -1.54135346
REMARK minimizedRMSD -1
REMARK  0 active torsions:
REMARK  status: ('A' for Active; 'I' for Inactive)
ROOT
ATOM      1  N1  IND d   1      -1.203  -1.076   0.246  0.00  0.00    -0.196 N 
ATOM      2  C2  IND d   1      -1.791  -0.002  -0.361  0.00  0.00     0.054 A 
ATOM      3  C3  IND d   1      -0.901   1.006  -0.498  0.00  0.00    -0.031 A 
ATOM      4  C4  IND d   1       1.600   1.074   0.109  0.00  0.00     0.051 A 
ATOM      5  C5  IND d   1       2.580   0.344   0.720  0.00  0.00    -0.031 A 
ATOM      6  C6  IND d   1       2.346  -0.924   1.212  0.00  0.00     0.015 A 
ATOM      7  C7  IND d   1       1.119  -1.515   1.101  0.00  0.00    -0.016 A 
ATOM      8  C8  IND d   1       0.120  -0.774   0.487  0.00  0.00    -0.047 A 
ATOM      9  C9  IND d   1       0.341   0.529   0.023  0.00  0.00    -0.096 A 
ATOM     10  HN1 IND d   1      -1.593  -1.816   0.445  0.00  0.00     0.298 HD
ENDROOT
TORSDOF 0
ENDMDL
