MODEL 1
REMARK minimizedAffinity -2.47263026
REMARK minimizedRMSD -1
REMARK  1 active torsions:
REMARK  status: ('A' for Active; 'I' for Inactive)
REMARK    1  A    between atoms: C1_2  and  C2_3 
ROOT
ATOM      1  C2  UNL d   1       0.324  -0.449   1.008  0.00  0.00    -0.073 A 
ATOM      2  C3  UNL d   1      -0.984   0.044   1.067  0.00  0.00    -0.002 A 
ATOM      3  C4  UNL d   1      -1.276   1.326   0.598  0.00  0.00     0.004 A 
ATOM      4  C5  UNL d   1      -0.266   2.123   0.059  0.00  0.00    -0.004 A 
ATOM      5  C6  UNL d   1       1.045   1.643  -0.020  0.00  0.00    -0.075 A 
ATOM      6  C7  UNL d   1       2.143   2.489  -0.595  0.00  0.00     0.076 C 
ATOM      7  C8  UNL d   1       1.331   0.356   0.456  0.00  0.00     0.001 A 
ENDROOT
BRANCH   1   8
ATOM      8  C1  UNL d   1       0.643  -1.835   1.507  0.00  0.00     0.053 C 
ATOM      9  C   UNL d   1       1.430  -1.805   2.807  0.00  0.00     0.018 C 
ENDBRANCH   1   8
TORSDOF 1
ENDMDL
