MODEL 1
REMARK minimizedAffinity -0.776212335
REMARK minimizedRMSD -1
REMARK  1 active torsions:
REMARK  status: ('A' for Active; 'I' for Inactive)
REMARK    1  A    between atoms: C1_2  and  C2_3 
ROOT
ATOM      1  C2  UNL d   1       1.012  -3.180   0.985  0.00  0.00    -0.073 A 
ATOM      2  C3  UNL d   1       0.779  -1.837   1.303  0.00  0.00    -0.002 A 
ATOM      3  C4  UNL d   1       1.126  -1.339   2.560  0.00  0.00     0.004 A 
ATOM      4  C5  UNL d   1       1.714  -2.176   3.508  0.00  0.00    -0.004 A 
ATOM      5  C6  UNL d   1       1.966  -3.518   3.205  0.00  0.00    -0.075 A 
ATOM      6  C7  UNL d   1       2.597  -4.432   4.215  0.00  0.00     0.076 C 
ATOM      7  C8  UNL d   1       1.613  -4.011   1.942  0.00  0.00     0.001 A 
ENDROOT
BRANCH   1   8
ATOM      8  C1  UNL d   1       0.646  -3.720  -0.373  0.00  0.00     0.053 C 
ATOM      9  C   UNL d   1       1.350  -2.970  -1.493  0.00  0.00     0.018 C 
ENDBRANCH   1   8
TORSDOF 1
ENDMDL
