MODEL 1
REMARK minimizedAffinity 2.79217839
REMARK minimizedRMSD -1
REMARK  1 active torsions:
REMARK  status: ('A' for Active; 'I' for Inactive)
REMARK    1  A    between atoms: C1_2  and  C2_3 
ROOT
ATOM      1  C2  UNL d   1      -5.323   1.693   0.346  0.00  0.00    -0.073 A 
ATOM      2  C3  UNL d   1      -4.153   1.665   1.113  0.00  0.00    -0.002 A 
ATOM      3  C4  UNL d   1      -3.534   2.855   1.497  0.00  0.00     0.004 A 
ATOM      4  C5  UNL d   1      -4.080   4.083   1.125  0.00  0.00    -0.004 A 
ATOM      5  C6  UNL d   1      -5.255   4.132   0.368  0.00  0.00    -0.075 A 
ATOM      6  C7  UNL d   1      -5.854   5.445  -0.043  0.00  0.00     0.076 C 
ATOM      7  C8  UNL d   1      -5.870   2.933  -0.017  0.00  0.00     0.001 A 
ENDROOT
BRANCH   1   8
ATOM      8  C1  UNL d   1      -6.000   0.411  -0.066  0.00  0.00     0.053 C 
ATOM      9  C   UNL d   1      -5.998   0.225  -1.575  0.00  0.00     0.018 C 
ENDBRANCH   1   8
TORSDOF 1
ENDMDL
