MODEL 1
REMARK minimizedAffinity 5.26445913
REMARK minimizedRMSD -1
REMARK  1 active torsions:
REMARK  status: ('A' for Active; 'I' for Inactive)
REMARK    1  A    between atoms: C1_2  and  C2_3 
ROOT
ATOM      1  C2  UNL d   1       3.505  -3.234   4.088  0.00  0.00    -0.073 A 
ATOM      2  C3  UNL d   1       2.693  -4.344   4.348  0.00  0.00    -0.002 A 
ATOM      3  C4  UNL d   1       1.414  -4.425   3.796  0.00  0.00     0.004 A 
ATOM      4  C5  UNL d   1       0.937  -3.403   2.975  0.00  0.00    -0.004 A 
ATOM      5  C6  UNL d   1       1.739  -2.292   2.694  0.00  0.00    -0.075 A 
ATOM      6  C7  UNL d   1       1.240  -1.183   1.815  0.00  0.00     0.076 C 
ATOM      7  C8  UNL d   1       3.021  -2.216   3.254  0.00  0.00     0.001 A 
ENDROOT
BRANCH   1   8
ATOM      8  C1  UNL d   1       4.890  -3.145   4.677  0.00  0.00     0.053 C 
ATOM      9  C   UNL d   1       5.966  -3.145   3.603  0.00  0.00     0.018 C 
ENDBRANCH   1   8
TORSDOF 1
ENDMDL
