MODEL 1
REMARK minimizedAffinity 1.66127419
REMARK minimizedRMSD -1
REMARK  1 active torsions:
REMARK  status: ('A' for Active; 'I' for Inactive)
REMARK    1  A    between atoms: C1_2  and  C2_3 
ROOT
ATOM      1  C2  UNL d   1       2.054  -0.788   3.100  0.00  0.00    -0.073 A 
ATOM      2  C3  UNL d   1       1.834   0.021   4.221  0.00  0.00    -0.002 A 
ATOM      3  C4  UNL d   1       1.973   1.406   4.129  0.00  0.00     0.004 A 
ATOM      4  C5  UNL d   1       2.327   1.997   2.916  0.00  0.00    -0.004 A 
ATOM      5  C6  UNL d   1       2.540   1.206   1.782  0.00  0.00    -0.075 A 
ATOM      6  C7  UNL d   1       2.924   1.826   0.470  0.00  0.00     0.076 C 
ATOM      7  C8  UNL d   1       2.401  -0.184   1.883  0.00  0.00     0.001 A 
ENDROOT
BRANCH   1   8
ATOM      8  C1  UNL d   1       1.898  -2.284   3.194  0.00  0.00     0.053 C 
ATOM      9  C   UNL d   1       2.968  -2.915   4.070  0.00  0.00     0.018 C 
ENDBRANCH   1   8
TORSDOF 1
ENDMDL
