MODEL 1
REMARK minimizedAffinity 13.1994972
REMARK minimizedRMSD -1
REMARK  1 active torsions:
REMARK  status: ('A' for Active; 'I' for Inactive)
REMARK    1  A    between atoms: C1_2  and  C2_3 
ROOT
ATOM      1  C2  UNL d   1       0.917  -2.062   0.556  0.00  0.00    -0.073 A 
ATOM      2  C3  UNL d   1       1.341  -0.751   0.311  0.00  0.00    -0.002 A 
ATOM      3  C4  UNL d   1       1.807   0.047   1.357  0.00  0.00     0.004 A 
ATOM      4  C5  UNL d   1       1.859  -0.459   2.656  0.00  0.00    -0.004 A 
ATOM      5  C6  UNL d   1       1.451  -1.771   2.919  0.00  0.00    -0.075 A 
ATOM      6  C7  UNL d   1       1.500  -2.330   4.311  0.00  0.00     0.076 C 
ATOM      7  C8  UNL d   1       0.983  -2.565   1.864  0.00  0.00     0.001 A 
ENDROOT
BRANCH   1   8
ATOM      8  C1  UNL d   1       0.420  -2.929  -0.571  0.00  0.00     0.053 C 
ATOM      9  C   UNL d   1       1.508  -3.211  -1.595  0.00  0.00     0.018 C 
ENDBRANCH   1   8
TORSDOF 1
ENDMDL
