MODEL 1
REMARK minimizedAffinity 3.38938642
REMARK minimizedRMSD -1
REMARK  1 active torsions:
REMARK  status: ('A' for Active; 'I' for Inactive)
REMARK    1  A    between atoms: C1_2  and  C2_3 
ROOT
ATOM      1  C2  UNL d   1      -5.049   2.187  -1.466  0.00  0.00    -0.073 A 
ATOM      2  C3  UNL d   1      -5.997   1.388  -0.818  0.00  0.00    -0.002 A 
ATOM      3  C4  UNL d   1      -5.997   1.280   0.573  0.00  0.00     0.004 A 
ATOM      4  C5  UNL d   1      -5.054   1.975   1.331  0.00  0.00    -0.004 A 
ATOM      5  C6  UNL d   1      -4.105   2.788   0.703  0.00  0.00    -0.075 A 
ATOM      6  C7  UNL d   1      -3.083   3.540   1.503  0.00  0.00     0.076 C 
ATOM      7  C8  UNL d   1      -4.110   2.888  -0.695  0.00  0.00     0.001 A 
ENDROOT
BRANCH   1   8
ATOM      8  C1  UNL d   1      -5.049   2.311  -2.967  0.00  0.00     0.053 C 
ATOM      9  C   UNL d   1      -3.776   1.756  -3.586  0.00  0.00     0.018 C 
ENDBRANCH   1   8
TORSDOF 1
ENDMDL
