MODEL 1
REMARK minimizedAffinity 0.0265008602
REMARK minimizedRMSD -1
REMARK  1 active torsions:
REMARK  status: ('A' for Active; 'I' for Inactive)
REMARK    1  A    between atoms: C1_2  and  C2_3 
ROOT
ATOM      1  C2  UNL d   1      -4.717   2.730  -1.422  0.00  0.00    -0.073 A 
ATOM      2  C3  UNL d   1      -5.934   3.036  -0.802  0.00  0.00    -0.002 A 
ATOM      3  C4  UNL d   1      -5.995   3.220   0.580  0.00  0.00     0.004 A 
ATOM      4  C5  UNL d   1      -4.841   3.106   1.355  0.00  0.00    -0.004 A 
ATOM      5  C6  UNL d   1      -3.613   2.812   0.753  0.00  0.00    -0.075 A 
ATOM      6  C7  UNL d   1      -2.363   2.684   1.573  0.00  0.00     0.076 C 
ATOM      7  C8  UNL d   1      -3.560   2.626  -0.635  0.00  0.00     0.001 A 
ENDROOT
BRANCH   1   8
ATOM      8  C1  UNL d   1      -4.645   2.537  -2.914  0.00  0.00     0.053 C 
ATOM      9  C   UNL d   1      -3.398   1.771  -3.331  0.00  0.00     0.018 C 
ENDBRANCH   1   8
TORSDOF 1
ENDMDL
