MODEL 1
REMARK minimizedAffinity -4.14725113
REMARK minimizedRMSD -1
REMARK  1 active torsions:
REMARK  status: ('A' for Active; 'I' for Inactive)
REMARK    1  A    between atoms: C1_2  and  C2_3 
ROOT
ATOM      1  C2  UNL d   1       1.558  -0.895  -0.295  0.00  0.00    -0.077 A 
ATOM      2  C3  UNL d   1       0.706   0.213  -0.412  0.00  0.00     0.002 A 
ATOM      3  C4  UNL d   1       1.206   1.507  -0.255  0.00  0.00     0.002 A 
ATOM      4  C5  UNL d   1       2.558   1.706   0.014  0.00  0.00    -0.004 A 
ATOM      5  C6  UNL d   1       3.413   0.611   0.133  0.00  0.00     0.002 A 
ATOM      6  C7  UNL d   1       2.915  -0.684  -0.021  0.00  0.00     0.002 A 
ENDROOT
BRANCH   1   7
ATOM      7  C1  UNL d   1       1.030  -2.289  -0.512  0.00  0.00     0.055 C 
ATOM      8  C   UNL d   1      -0.007  -2.322  -1.625  0.00  0.00     0.019 C 
ENDBRANCH   1   7
TORSDOF 1
ENDMDL
