MODEL 1
REMARK minimizedAffinity -3.29572558
REMARK minimizedRMSD -1
REMARK  1 active torsions:
REMARK  status: ('A' for Active; 'I' for Inactive)
REMARK    1  A    between atoms: C1_2  and  C2_3 
ROOT
ATOM      1  C2  UNL d   1       0.377   0.019  -0.794  0.00  0.00    -0.077 A 
ATOM      2  C3  UNL d   1       1.603  -0.652  -0.694  0.00  0.00     0.002 A 
ATOM      3  C4  UNL d   1       1.651  -2.047  -0.732  0.00  0.00     0.002 A 
ATOM      4  C5  UNL d   1       0.476  -2.782  -0.874  0.00  0.00    -0.004 A 
ATOM      5  C6  UNL d   1      -0.750  -2.124  -0.972  0.00  0.00     0.002 A 
ATOM      6  C7  UNL d   1      -0.799  -0.730  -0.934  0.00  0.00     0.002 A 
ENDROOT
BRANCH   1   7
ATOM      7  C1  UNL d   1       0.328   1.524  -0.803  0.00  0.00     0.055 C 
ATOM      8  C   UNL d   1       1.632   2.123  -0.296  0.00  0.00     0.019 C 
ENDBRANCH   1   7
TORSDOF 1
ENDMDL
