MODEL 1
REMARK minimizedAffinity -3.18585539
REMARK minimizedRMSD -1
REMARK  1 active torsions:
REMARK  status: ('A' for Active; 'I' for Inactive)
REMARK    1  A    between atoms: C1_2  and  C2_3 
ROOT
ATOM      1  C2  UNL d   1      -1.800   0.322   0.332  0.00  0.00    -0.077 A 
ATOM      2  C3  UNL d   1      -1.667  -1.063   0.511  0.00  0.00     0.002 A 
ATOM      3  C4  UNL d   1      -0.492  -1.713   0.129  0.00  0.00     0.002 A 
ATOM      4  C5  UNL d   1       0.559  -0.988  -0.428  0.00  0.00    -0.004 A 
ATOM      5  C6  UNL d   1       0.435   0.388  -0.612  0.00  0.00     0.002 A 
ATOM      6  C7  UNL d   1      -0.739   1.040  -0.232  0.00  0.00     0.002 A 
ENDROOT
BRANCH   1   7
ATOM      7  C1  UNL d   1      -3.047   1.033   0.789  0.00  0.00     0.055 C 
ATOM      8  C   UNL d   1      -4.092   0.049   1.295  0.00  0.00     0.019 C 
ENDBRANCH   1   7
TORSDOF 1
ENDMDL
