MODEL 1
REMARK minimizedAffinity -4.00195503
REMARK minimizedRMSD -1
REMARK  1 active torsions:
REMARK  status: ('A' for Active; 'I' for Inactive)
REMARK    1  A    between atoms: C1_2  and  C2_3 
ROOT
ATOM      1  C2  UNL d   1      -0.496  -0.263  -0.356  0.00  0.00    -0.077 A 
ATOM      2  C3  UNL d   1      -0.800  -1.630  -0.402  0.00  0.00     0.002 A 
ATOM      3  C4  UNL d   1       0.215  -2.584  -0.303  0.00  0.00     0.002 A 
ATOM      4  C5  UNL d   1       1.540  -2.180  -0.153  0.00  0.00    -0.004 A 
ATOM      5  C6  UNL d   1       1.853  -0.822  -0.108  0.00  0.00     0.002 A 
ATOM      6  C7  UNL d   1       0.840   0.132  -0.208  0.00  0.00     0.002 A 
ENDROOT
BRANCH   1   7
ATOM      7  C1  UNL d   1      -1.594   0.766  -0.413  0.00  0.00     0.055 C 
ATOM      8  C   UNL d   1      -2.371   0.820   0.895  0.00  0.00     0.019 C 
ENDBRANCH   1   7
TORSDOF 1
ENDMDL
