MODEL 1
REMARK minimizedAffinity 14.6499796
REMARK minimizedRMSD -1
REMARK  0 active torsions:
REMARK  status: ('A' for Active; 'I' for Inactive)
ROOT
ATOM      1  C   UNL d   1      -0.337   0.375  -1.137  0.00  0.00    -0.002 A 
ATOM      2  C1  UNL d   1       0.155  -0.717  -0.436  0.00  0.00     0.010 A 
ATOM      3  C2  UNL d   1      -0.514  -1.196   0.692  0.00  0.00     0.041 A 
ATOM      4  C3  UNL d   1      -1.696  -0.554   1.108  0.00  0.00    -0.075 A 
ATOM      5  S   UNL d   1      -2.683  -0.966   2.460  0.00  0.00     0.015 SA
ATOM      6  C4  UNL d   1      -3.780   0.298   2.140  0.00  0.00     0.022 A 
ATOM      7  C5  UNL d   1      -3.418   1.027   1.032  0.00  0.00     0.026 A 
ATOM      8  C6  UNL d   1      -2.211   0.548   0.419  0.00  0.00    -0.082 A 
ATOM      9  C7  UNL d   1      -1.510   1.010  -0.721  0.00  0.00     0.045 A 
ENDROOT
TORSDOF 0
ENDMDL
