MODEL 1
REMARK minimizedAffinity 4.58273935
REMARK minimizedRMSD -1
REMARK  0 active torsions:
REMARK  status: ('A' for Active; 'I' for Inactive)
ROOT
ATOM      1  C   UNL d   1      -2.807  -1.884   2.078  0.00  0.00    -0.002 A 
ATOM      2  C1  UNL d   1      -2.875  -3.009   1.268  0.00  0.00     0.010 A 
ATOM      3  C2  UNL d   1      -2.280  -3.011   0.005  0.00  0.00     0.041 A 
ATOM      4  C3  UNL d   1      -1.608  -1.854  -0.435  0.00  0.00    -0.075 A 
ATOM      5  S   UNL d   1      -0.806  -1.628  -1.944  0.00  0.00     0.015 SA
ATOM      6  C4  UNL d   1      -0.353  -0.033  -1.549  0.00  0.00     0.022 A 
ATOM      7  C5  UNL d   1      -0.796   0.335  -0.300  0.00  0.00     0.026 A 
ATOM      8  C6  UNL d   1      -1.526  -0.709   0.363  0.00  0.00    -0.082 A 
ATOM      9  C7  UNL d   1      -2.140  -0.737   1.638  0.00  0.00     0.045 A 
ENDROOT
TORSDOF 0
ENDMDL
