MODEL 1
REMARK minimizedAffinity 1.64495456
REMARK minimizedRMSD -1
REMARK  0 active torsions:
REMARK  status: ('A' for Active; 'I' for Inactive)
ROOT
ATOM      1  C   UNL d   1      -1.178  -3.000   0.565  0.00  0.00    -0.002 A 
ATOM      2  C1  UNL d   1       0.165  -3.299   0.750  0.00  0.00     0.010 A 
ATOM      3  C2  UNL d   1       1.125  -2.285   0.750  0.00  0.00     0.041 A 
ATOM      4  C3  UNL d   1       0.709  -0.953   0.562  0.00  0.00    -0.075 A 
ATOM      5  S   UNL d   1       1.707   0.453   0.526  0.00  0.00     0.015 SA
ATOM      6  C4  UNL d   1       0.375   1.483   0.266  0.00  0.00     0.022 A 
ATOM      7  C5  UNL d   1      -0.810   0.789   0.205  0.00  0.00     0.026 A 
ATOM      8  C6  UNL d   1      -0.637  -0.626   0.375  0.00  0.00    -0.082 A 
ATOM      9  C7  UNL d   1      -1.586  -1.677   0.379  0.00  0.00     0.045 A 
ENDROOT
TORSDOF 0
ENDMDL
