MODEL 1
REMARK minimizedAffinity -0.667637229
REMARK minimizedRMSD -1
REMARK  0 active torsions:
REMARK  status: ('A' for Active; 'I' for Inactive)
ROOT
ATOM      1  C   UNL d   1      -0.183  -3.106   0.917  0.00  0.00    -0.002 A 
ATOM      2  C1  UNL d   1      -1.170  -2.311   1.480  0.00  0.00     0.010 A 
ATOM      3  C2  UNL d   1      -1.317  -0.978   1.091  0.00  0.00     0.041 A 
ATOM      4  C3  UNL d   1      -0.447  -0.453   0.115  0.00  0.00    -0.075 A 
ATOM      5  S   UNL d   1      -0.440   1.151  -0.517  0.00  0.00     0.015 SA
ATOM      6  C4  UNL d   1       0.873   0.818  -1.550  0.00  0.00     0.022 A 
ATOM      7  C5  UNL d   1       1.309  -0.480  -1.429  0.00  0.00     0.026 A 
ATOM      8  C6  UNL d   1       0.555  -1.235  -0.467  0.00  0.00    -0.082 A 
ATOM      9  C7  UNL d   1       0.679  -2.582  -0.051  0.00  0.00     0.045 A 
ENDROOT
TORSDOF 0
ENDMDL
