MODEL 1
REMARK minimizedAffinity -5.07170105
REMARK minimizedRMSD -1
REMARK  0 active torsions:
REMARK  status: ('A' for Active; 'I' for Inactive)
ROOT
ATOM      1  C   UNL d   1      -2.140  -1.275   2.170  0.00  0.00    -0.002 A 
ATOM      2  C1  UNL d   1      -2.012   0.072   1.865  0.00  0.00     0.010 A 
ATOM      3  C2  UNL d   1      -1.154   0.491   0.846  0.00  0.00     0.041 A 
ATOM      4  C3  UNL d   1      -0.422  -0.477   0.130  0.00  0.00    -0.075 A 
ATOM      5  S   UNL d   1       0.687  -0.198  -1.159  0.00  0.00     0.015 SA
ATOM      6  C4  UNL d   1       1.016  -1.861  -1.336  0.00  0.00     0.022 A 
ATOM      7  C5  UNL d   1       0.305  -2.625  -0.441  0.00  0.00     0.026 A 
ATOM      8  C6  UNL d   1      -0.536  -1.840   0.419  0.00  0.00    -0.082 A 
ATOM      9  C7  UNL d   1      -1.413  -2.233   1.458  0.00  0.00     0.045 A 
ENDROOT
TORSDOF 0
ENDMDL
