MODEL 1
REMARK minimizedAffinity -4.28928041
REMARK minimizedRMSD -1
REMARK  0 active torsions:
REMARK  status: ('A' for Active; 'I' for Inactive)
ROOT
ATOM      1  C   UNL d   1      -0.145  -3.012   0.990  0.00  0.00    -0.002 A 
ATOM      2  C1  UNL d   1      -0.647  -1.988   1.780  0.00  0.00     0.010 A 
ATOM      3  C2  UNL d   1      -0.694  -0.678   1.300  0.00  0.00     0.041 A 
ATOM      4  C3  UNL d   1      -0.226  -0.412  -0.002  0.00  0.00    -0.075 A 
ATOM      5  S   UNL d   1      -0.187   1.115  -0.801  0.00  0.00     0.015 SA
ATOM      6  C4  UNL d   1       0.497   0.444  -2.210  0.00  0.00     0.022 A 
ATOM      7  C5  UNL d   1       0.698  -0.911  -2.092  0.00  0.00     0.026 A 
ATOM      8  C6  UNL d   1       0.284  -1.427  -0.817  0.00  0.00    -0.082 A 
ATOM      9  C7  UNL d   1       0.320  -2.744  -0.301  0.00  0.00     0.045 A 
ENDROOT
TORSDOF 0
ENDMDL
