MODEL 1
REMARK minimizedAffinity -3.48396373
REMARK minimizedRMSD -1
REMARK  0 active torsions:
REMARK  status: ('A' for Active; 'I' for Inactive)
ROOT
ATOM      1  C   UNL d   1      -1.512  -2.463   0.711  0.00  0.00    -0.002 A 
ATOM      2  C1  UNL d   1      -0.338  -3.010   0.213  0.00  0.00     0.010 A 
ATOM      3  C2  UNL d   1       0.764  -2.197  -0.061  0.00  0.00     0.041 A 
ATOM      4  C3  UNL d   1       0.665  -0.812   0.177  0.00  0.00    -0.075 A 
ATOM      5  S   UNL d   1       1.886   0.377  -0.083  0.00  0.00     0.015 SA
ATOM      6  C4  UNL d   1       0.878   1.639   0.461  0.00  0.00     0.022 A 
ATOM      7  C5  UNL d   1      -0.363   1.182   0.836  0.00  0.00     0.026 A 
ATOM      8  C6  UNL d   1      -0.506  -0.238   0.679  0.00  0.00    -0.082 A 
ATOM      9  C7  UNL d   1      -1.606  -1.089   0.947  0.00  0.00     0.045 A 
ENDROOT
TORSDOF 0
ENDMDL
