MODEL 1
REMARK minimizedAffinity -3.47456288
REMARK minimizedRMSD -1
REMARK  0 active torsions:
REMARK  status: ('A' for Active; 'I' for Inactive)
ROOT
ATOM      1  C   UNL d   1      -0.450  -3.271   0.890  0.00  0.00    -0.002 A 
ATOM      2  C1  UNL d   1       0.896  -2.944   0.798  0.00  0.00     0.010 A 
ATOM      3  C2  UNL d   1       1.293  -1.623   0.578  0.00  0.00     0.041 A 
ATOM      4  C3  UNL d   1       0.305  -0.627   0.454  0.00  0.00    -0.075 A 
ATOM      5  S   UNL d   1       0.556   1.057   0.183  0.00  0.00     0.015 SA
ATOM      6  C4  UNL d   1      -1.117   1.383   0.184  0.00  0.00     0.022 A 
ATOM      7  C5  UNL d   1      -1.863   0.246   0.385  0.00  0.00     0.026 A 
ATOM      8  C6  UNL d   1      -1.056  -0.931   0.544  0.00  0.00    -0.082 A 
ATOM      9  C7  UNL d   1      -1.427  -2.279   0.766  0.00  0.00     0.045 A 
ENDROOT
TORSDOF 0
ENDMDL
