MODEL 1
REMARK minimizedAffinity -2.58679104
REMARK minimizedRMSD -1
REMARK  0 active torsions:
REMARK  status: ('A' for Active; 'I' for Inactive)
ROOT
ATOM      1  C   UNL d   1       0.098  -3.228   0.792  0.00  0.00    -0.002 A 
ATOM      2  C1  UNL d   1       1.440  -2.981   0.541  0.00  0.00     0.010 A 
ATOM      3  C2  UNL d   1       1.875  -1.697   0.207  0.00  0.00     0.041 A 
ATOM      4  C3  UNL d   1       0.930  -0.655   0.130  0.00  0.00    -0.075 A 
ATOM      5  S   UNL d   1       1.233   0.997  -0.260  0.00  0.00     0.015 SA
ATOM      6  C4  UNL d   1      -0.412   1.413  -0.102  0.00  0.00     0.022 A 
ATOM      7  C5  UNL d   1      -1.188   0.331   0.240  0.00  0.00     0.026 A 
ATOM      8  C6  UNL d   1      -0.427  -0.879   0.380  0.00  0.00    -0.082 A 
ATOM      9  C7  UNL d   1      -0.837  -2.192   0.715  0.00  0.00     0.045 A 
ENDROOT
TORSDOF 0
ENDMDL
