MODEL 1
REMARK minimizedAffinity -2.16992521
REMARK minimizedRMSD -1
REMARK  0 active torsions:
REMARK  status: ('A' for Active; 'I' for Inactive)
ROOT
ATOM      1  C   UNL d   1      -1.318  -2.599   1.675  0.00  0.00    -0.002 A 
ATOM      2  C1  UNL d   1      -0.303  -3.203   0.947  0.00  0.00     0.010 A 
ATOM      3  C2  UNL d   1       0.462  -2.461   0.045  0.00  0.00     0.041 A 
ATOM      4  C3  UNL d   1       0.188  -1.088  -0.113  0.00  0.00    -0.075 A 
ATOM      5  S   UNL d   1       0.996   0.020  -1.158  0.00  0.00     0.015 SA
ATOM      6  C4  UNL d   1       0.013   1.321  -0.662  0.00  0.00     0.022 A 
ATOM      7  C5  UNL d   1      -0.914   0.937   0.278  0.00  0.00     0.026 A 
ATOM      8  C6  UNL d   1      -0.828  -0.457   0.610  0.00  0.00    -0.082 A 
ATOM      9  C7  UNL d   1      -1.587  -1.237   1.516  0.00  0.00     0.045 A 
ENDROOT
TORSDOF 0
ENDMDL
