MODEL 1
REMARK minimizedAffinity -5.07334805
REMARK minimizedRMSD -1
REMARK  1 active torsions:
REMARK  status: ('A' for Active; 'I' for Inactive)
REMARK    1  A    between atoms: C1_2  and  C2_3 
ROOT
ATOM      1  C2  UNL d   1       0.327  -0.082  -0.128  0.00  0.00    -0.077 A 
ATOM      2  C3  UNL d   1       0.818  -0.026   1.184  0.00  0.00     0.002 A 
ATOM      3  C4  UNL d   1       1.753  -0.962   1.629  0.00  0.00     0.002 A 
ATOM      4  C5  UNL d   1       2.207  -1.959   0.768  0.00  0.00    -0.004 A 
ATOM      5  C6  UNL d   1       1.723  -2.025  -0.538  0.00  0.00     0.002 A 
ATOM      6  C7  UNL d   1       0.788  -1.090  -0.984  0.00  0.00     0.002 A 
ENDROOT
BRANCH   1   7
ATOM      7  C1  UNL d   1      -0.645   0.957  -0.625  0.00  0.00     0.055 C 
ATOM      8  C   UNL d   1      -2.052   0.690  -0.111  0.00  0.00     0.019 C 
ENDBRANCH   1   7
TORSDOF 1
ENDMDL
