MODEL 1
REMARK minimizedAffinity -4.95679808
REMARK minimizedRMSD -1
REMARK  1 active torsions:
REMARK  status: ('A' for Active; 'I' for Inactive)
REMARK    1  A    between atoms: C1_2  and  C2_3 
ROOT
ATOM      1  C2  UNL d   1       1.030   0.225   0.347  0.00  0.00    -0.077 A 
ATOM      2  C3  UNL d   1       2.231   0.945   0.399  0.00  0.00     0.002 A 
ATOM      3  C4  UNL d   1       3.455   0.276   0.437  0.00  0.00     0.002 A 
ATOM      4  C5  UNL d   1       3.490  -1.117   0.420  0.00  0.00    -0.004 A 
ATOM      5  C6  UNL d   1       2.301  -1.843   0.371  0.00  0.00     0.002 A 
ATOM      6  C7  UNL d   1       1.076  -1.175   0.334  0.00  0.00     0.002 A 
ENDROOT
BRANCH   1   7
ATOM      7  C1  UNL d   1      -0.290   0.946   0.257  0.00  0.00     0.055 C 
ATOM      8  C   UNL d   1      -1.432  -0.022  -0.016  0.00  0.00     0.019 C 
ENDBRANCH   1   7
TORSDOF 1
ENDMDL
