MODEL 1
REMARK minimizedAffinity -5.179389
REMARK minimizedRMSD -1
REMARK  1 active torsions:
REMARK  status: ('A' for Active; 'I' for Inactive)
REMARK    1  A    between atoms: C1_2  and  C2_3 
ROOT
ATOM      1  C2  UNL d   1      -2.664   0.443   0.011  0.00  0.00    -0.077 A 
ATOM      2  C3  UNL d   1      -2.754   1.363   1.065  0.00  0.00     0.002 A 
ATOM      3  C4  UNL d   1      -3.818   1.300   1.968  0.00  0.00     0.002 A 
ATOM      4  C5  UNL d   1      -4.796   0.318   1.828  0.00  0.00    -0.004 A 
ATOM      5  C6  UNL d   1      -4.716  -0.600   0.781  0.00  0.00     0.002 A 
ATOM      6  C7  UNL d   1      -3.654  -0.539  -0.122  0.00  0.00     0.002 A 
ENDROOT
BRANCH   1   7
ATOM      7  C1  UNL d   1      -1.491   0.478  -0.934  0.00  0.00     0.055 C 
ATOM      8  C   UNL d   1      -0.202   0.080  -0.231  0.00  0.00     0.019 C 
ENDBRANCH   1   7
TORSDOF 1
ENDMDL
