MODEL 1
REMARK minimizedAffinity -5.57955074
REMARK minimizedRMSD -1
REMARK  1 active torsions:
REMARK  status: ('A' for Active; 'I' for Inactive)
REMARK    1  A    between atoms: C1_2  and  C2_3 
ROOT
ATOM      1  C2  UNL d   1       2.567   0.347   0.160  0.00  0.00    -0.077 A 
ATOM      2  C3  UNL d   1       2.739  -0.980   0.579  0.00  0.00     0.002 A 
ATOM      3  C4  UNL d   1       1.659  -1.865   0.584  0.00  0.00     0.002 A 
ATOM      4  C5  UNL d   1       0.401  -1.434   0.168  0.00  0.00    -0.004 A 
ATOM      5  C6  UNL d   1       0.220  -0.116  -0.249  0.00  0.00     0.002 A 
ATOM      6  C7  UNL d   1       1.298   0.770  -0.254  0.00  0.00     0.002 A 
ENDROOT
BRANCH   1   7
ATOM      7  C1  UNL d   1       3.741   1.289   0.107  0.00  0.00     0.055 C 
ATOM      8  C   UNL d   1       4.253   1.456  -1.317  0.00  0.00     0.019 C 
ENDBRANCH   1   7
TORSDOF 1
ENDMDL
