MODEL 1
REMARK minimizedAffinity -3.66161036
REMARK minimizedRMSD -1
REMARK  1 active torsions:
REMARK  status: ('A' for Active; 'I' for Inactive)
REMARK    1  A    between atoms: C1_2  and  C2_3 
ROOT
ATOM      1  C2  UNL d   1       2.359  -0.027  -0.376  0.00  0.00    -0.077 A 
ATOM      2  C3  UNL d   1       1.066   0.475  -0.584  0.00  0.00     0.002 A 
ATOM      3  C4  UNL d   1      -0.048  -0.347  -0.402  0.00  0.00     0.002 A 
ATOM      4  C5  UNL d   1       0.118  -1.673  -0.008  0.00  0.00    -0.004 A 
ATOM      5  C6  UNL d   1       1.400  -2.182   0.199  0.00  0.00     0.002 A 
ATOM      6  C7  UNL d   1       2.515  -1.363   0.017  0.00  0.00     0.002 A 
ENDROOT
BRANCH   1   7
ATOM      7  C1  UNL d   1       3.559   0.870  -0.524  0.00  0.00     0.055 C 
ATOM      8  C   UNL d   1       3.201   2.324  -0.251  0.00  0.00     0.019 C 
ENDBRANCH   1   7
TORSDOF 1
ENDMDL
