MODEL 1
REMARK minimizedAffinity -3.93373084
REMARK minimizedRMSD -1
REMARK  1 active torsions:
REMARK  status: ('A' for Active; 'I' for Inactive)
REMARK    1  A    between atoms: C1_2  and  C2_3 
ROOT
ATOM      1  C2  UNL d   1       0.758  -0.310   0.647  0.00  0.00    -0.077 A 
ATOM      2  C3  UNL d   1      -0.457  -0.270  -0.052  0.00  0.00     0.002 A 
ATOM      3  C4  UNL d   1      -0.905   0.922  -0.624  0.00  0.00     0.002 A 
ATOM      4  C5  UNL d   1      -0.142   2.082  -0.506  0.00  0.00    -0.004 A 
ATOM      5  C6  UNL d   1       1.066   2.054   0.188  0.00  0.00     0.002 A 
ATOM      6  C7  UNL d   1       1.515   0.863   0.762  0.00  0.00     0.002 A 
ENDROOT
BRANCH   1   7
ATOM      7  C1  UNL d   1       1.266  -1.606   1.222  0.00  0.00     0.055 C 
ATOM      8  C   UNL d   1       2.466  -2.125   0.442  0.00  0.00     0.019 C 
ENDBRANCH   1   7
TORSDOF 1
ENDMDL
