MODEL 1
REMARK minimizedAffinity -2.51138687
REMARK minimizedRMSD -1
REMARK  1 active torsions:
REMARK  status: ('A' for Active; 'I' for Inactive)
REMARK    1  A    between atoms: C1_2  and  C2_3 
ROOT
ATOM      1  C2  UNL d   1      -0.443   0.637  -0.187  0.00  0.00    -0.077 A 
ATOM      2  C3  UNL d   1       0.578   1.590  -0.065  0.00  0.00     0.002 A 
ATOM      3  C4  UNL d   1       1.907   1.187   0.082  0.00  0.00     0.002 A 
ATOM      4  C5  UNL d   1       2.227  -0.169   0.104  0.00  0.00    -0.004 A 
ATOM      5  C6  UNL d   1       1.219  -1.125  -0.014  0.00  0.00     0.002 A 
ATOM      6  C7  UNL d   1      -0.110  -0.724  -0.160  0.00  0.00     0.002 A 
ENDROOT
BRANCH   1   7
ATOM      7  C1  UNL d   1      -1.870   1.070  -0.395  0.00  0.00     0.055 C 
ATOM      8  C   UNL d   1      -2.843   0.109   0.273  0.00  0.00     0.019 C 
ENDBRANCH   1   7
TORSDOF 1
ENDMDL
