MODEL 1
REMARK minimizedAffinity -4.73726034
REMARK minimizedRMSD -1
REMARK  1 active torsions:
REMARK  status: ('A' for Active; 'I' for Inactive)
REMARK    1  A    between atoms: C1_2  and  C2_3 
ROOT
ATOM      1  C2  UNL d   1       0.340   0.068  -0.404  0.00  0.00    -0.077 A 
ATOM      2  C3  UNL d   1       1.145   1.048   0.193  0.00  0.00     0.002 A 
ATOM      3  C4  UNL d   1       2.291   0.685   0.903  0.00  0.00     0.002 A 
ATOM      4  C5  UNL d   1       2.645  -0.658   1.018  0.00  0.00    -0.004 A 
ATOM      5  C6  UNL d   1       1.850  -1.640   0.430  0.00  0.00     0.002 A 
ATOM      6  C7  UNL d   1       0.704  -1.279  -0.279  0.00  0.00     0.002 A 
ENDROOT
BRANCH   1   7
ATOM      7  C1  UNL d   1      -0.869   0.460  -1.211  0.00  0.00     0.055 C 
ATOM      8  C   UNL d   1      -2.139   0.392  -0.375  0.00  0.00     0.019 C 
ENDBRANCH   1   7
TORSDOF 1
ENDMDL
