MODEL 1
REMARK minimizedAffinity -1.02895284
REMARK minimizedRMSD -1
REMARK  0 active torsions:
REMARK  status: ('A' for Active; 'I' for Inactive)
ROOT
ATOM      1  C   UNL d   1      -0.802   0.341  -0.483  0.00  0.00     0.172 C 
ATOM      2  N   UNL d   1      -1.764   0.156  -1.544  0.00  0.00    -0.070 N 
ATOM      3  C1  UNL d   1      -3.042   0.649  -1.557  0.00  0.00    -0.004 A 
ATOM      4  C2  UNL d   1      -3.634   0.256  -2.738  0.00  0.00    -0.047 A 
ATOM      5  C3  UNL d   1      -2.679  -0.501  -3.459  0.00  0.00    -0.047 A 
ATOM      6  C4  UNL d   1      -1.531  -0.547  -2.696  0.00  0.00    -0.004 A 
ENDROOT
TORSDOF 0
ENDMDL
