MODEL 1
REMARK minimizedAffinity -3.99349236
REMARK minimizedRMSD -1
REMARK  0 active torsions:
REMARK  status: ('A' for Active; 'I' for Inactive)
ROOT
ATOM      1  C   UNL d   1      -0.717   0.005  -0.345  0.00  0.00     0.172 C 
ATOM      2  N   UNL d   1       0.628   0.313   0.080  0.00  0.00    -0.070 N 
ATOM      3  C1  UNL d   1       1.588  -0.603   0.418  0.00  0.00    -0.004 A 
ATOM      4  C2  UNL d   1       2.728   0.089   0.764  0.00  0.00    -0.047 A 
ATOM      5  C3  UNL d   1       2.443   1.469   0.632  0.00  0.00    -0.047 A 
ATOM      6  C4  UNL d   1       1.136   1.579   0.207  0.00  0.00    -0.004 A 
ENDROOT
TORSDOF 0
ENDMDL
