MODEL 1
REMARK minimizedAffinity -3.49445963
REMARK minimizedRMSD -1
REMARK  0 active torsions:
REMARK  status: ('A' for Active; 'I' for Inactive)
ROOT
ATOM      1  C   UNL d   1      -0.625  -0.297  -0.278  0.00  0.00     0.172 C 
ATOM      2  N   UNL d   1       0.652  -0.003   0.329  0.00  0.00    -0.070 N 
ATOM      3  C1  UNL d   1       1.367   1.153   0.163  0.00  0.00    -0.004 A 
ATOM      4  C2  UNL d   1       2.523   1.044   0.905  0.00  0.00    -0.047 A 
ATOM      5  C3  UNL d   1       2.502  -0.222   1.538  0.00  0.00    -0.047 A 
ATOM      6  C4  UNL d   1       1.333  -0.849   1.164  0.00  0.00    -0.004 A 
ENDROOT
TORSDOF 0
ENDMDL
