MODEL 1
REMARK minimizedAffinity -2.91564488
REMARK minimizedRMSD -1
REMARK  0 active torsions:
REMARK  status: ('A' for Active; 'I' for Inactive)
ROOT
ATOM      1  C   UNL d   1      -1.638  -0.039  -0.106  0.00  0.00     0.172 C 
ATOM      2  N   UNL d   1      -0.314   0.476   0.152  0.00  0.00    -0.070 N 
ATOM      3  C1  UNL d   1       0.023   1.800   0.251  0.00  0.00    -0.004 A 
ATOM      4  C2  UNL d   1       1.376   1.873   0.502  0.00  0.00    -0.047 A 
ATOM      5  C3  UNL d   1       1.870   0.548   0.554  0.00  0.00    -0.047 A 
ATOM      6  C4  UNL d   1       0.803  -0.297   0.334  0.00  0.00    -0.004 A 
ENDROOT
TORSDOF 0
ENDMDL
