MODEL 1
REMARK minimizedAffinity -3.96897125
REMARK minimizedRMSD -1
REMARK  0 active torsions:
REMARK  status: ('A' for Active; 'I' for Inactive)
ROOT
ATOM      1  C   UNL d   1       0.463   2.354   0.227  0.00  0.00     0.172 C 
ATOM      2  N   UNL d   1       1.295   1.179   0.343  0.00  0.00    -0.070 N 
ATOM      3  C1  UNL d   1       1.038  -0.040  -0.225  0.00  0.00    -0.004 A 
ATOM      4  C2  UNL d   1       2.065  -0.891   0.120  0.00  0.00    -0.047 A 
ATOM      5  C3  UNL d   1       2.971  -0.159   0.924  0.00  0.00    -0.047 A 
ATOM      6  C4  UNL d   1       2.469   1.120   1.046  0.00  0.00    -0.004 A 
ENDROOT
TORSDOF 0
ENDMDL
