MODEL 1
REMARK minimizedAffinity -3.35266495
REMARK minimizedRMSD -1
REMARK  0 active torsions:
REMARK  status: ('A' for Active; 'I' for Inactive)
ROOT
ATOM      1  C   UNL d   1      -0.285  -0.434  -0.306  0.00  0.00     0.172 C 
ATOM      2  N   UNL d   1       1.029  -0.128   0.209  0.00  0.00    -0.070 N 
ATOM      3  C1  UNL d   1       1.743   1.012  -0.049  0.00  0.00    -0.004 A 
ATOM      4  C2  UNL d   1       2.941   0.922   0.626  0.00  0.00    -0.047 A 
ATOM      5  C3  UNL d   1       2.948  -0.316   1.312  0.00  0.00    -0.047 A 
ATOM      6  C4  UNL d   1       1.753  -0.945   1.037  0.00  0.00    -0.004 A 
ENDROOT
TORSDOF 0
ENDMDL
