MODEL 1
REMARK minimizedAffinity -3.06942558
REMARK minimizedRMSD -1
REMARK  0 active torsions:
REMARK  status: ('A' for Active; 'I' for Inactive)
ROOT
ATOM      1  C   UNL d   1       0.805  -1.424   2.290  0.00  0.00     0.172 C 
ATOM      2  N   UNL d   1       0.549  -1.006   0.932  0.00  0.00    -0.070 N 
ATOM      3  C1  UNL d   1       1.371  -1.229  -0.141  0.00  0.00    -0.004 A 
ATOM      4  C2  UNL d   1       0.772  -0.677  -1.253  0.00  0.00    -0.047 A 
ATOM      5  C3  UNL d   1      -0.451  -0.101  -0.834  0.00  0.00    -0.047 A 
ATOM      6  C4  UNL d   1      -0.564  -0.319   0.523  0.00  0.00    -0.004 A 
ENDROOT
TORSDOF 0
ENDMDL
