MODEL 1
REMARK minimizedAffinity -2.90015697
REMARK minimizedRMSD -1
REMARK  0 active torsions:
REMARK  status: ('A' for Active; 'I' for Inactive)
ROOT
ATOM      1  C   UNL d   1      -0.125  -0.335  -1.261  0.00  0.00     0.172 C 
ATOM      2  N   UNL d   1      -0.224   1.017  -1.758  0.00  0.00    -0.070 N 
ATOM      3  C1  UNL d   1      -1.316   1.561  -2.379  0.00  0.00    -0.004 A 
ATOM      4  C2  UNL d   1      -1.013   2.867  -2.698  0.00  0.00    -0.047 A 
ATOM      5  C3  UNL d   1       0.307   3.116  -2.254  0.00  0.00    -0.047 A 
ATOM      6  C4  UNL d   1       0.772   1.954  -1.676  0.00  0.00    -0.004 A 
ENDROOT
TORSDOF 0
ENDMDL
