MODEL 1
REMARK minimizedAffinity -3.72277141
REMARK minimizedRMSD -1
REMARK  0 active torsions:
REMARK  status: ('A' for Active; 'I' for Inactive)
ROOT
ATOM      1  C   UNL d   1       0.197   0.406   0.175  0.00  0.00     0.172 C 
ATOM      2  N   UNL d   1       1.110  -0.491   0.842  0.00  0.00    -0.070 N 
ATOM      3  C1  UNL d   1       2.105  -1.212   0.237  0.00  0.00    -0.004 A 
ATOM      4  C2  UNL d   1       2.750  -1.942   1.212  0.00  0.00    -0.047 A 
ATOM      5  C3  UNL d   1       2.121  -1.651   2.445  0.00  0.00    -0.047 A 
ATOM      6  C4  UNL d   1       1.109  -0.750   2.187  0.00  0.00    -0.004 A 
ENDROOT
TORSDOF 0
ENDMDL
