MODEL 1
REMARK minimizedAffinity -3.11055446
REMARK minimizedRMSD -1
REMARK  0 active torsions:
REMARK  status: ('A' for Active; 'I' for Inactive)
ROOT
ATOM      1  C   UNL d   1      -3.313   3.694  -2.535  0.00  0.00     0.172 C 
ATOM      2  N   UNL d   1      -1.907   3.393  -2.404  0.00  0.00    -0.070 N 
ATOM      3  C1  UNL d   1      -1.364   2.476  -1.544  0.00  0.00    -0.004 A 
ATOM      4  C2  UNL d   1       0.002   2.486  -1.724  0.00  0.00    -0.047 A 
ATOM      5  C3  UNL d   1       0.290   3.444  -2.725  0.00  0.00    -0.047 A 
ATOM      6  C4  UNL d   1      -0.910   3.989  -3.129  0.00  0.00    -0.004 A 
ENDROOT
TORSDOF 0
ENDMDL
