MODEL 1
REMARK minimizedAffinity -3.3485105
REMARK minimizedRMSD -1
REMARK  0 active torsions:
REMARK  status: ('A' for Active; 'I' for Inactive)
ROOT
ATOM      1  C   UNL d   1       0.476  -1.441   2.596  0.00  0.00     0.172 C 
ATOM      2  N   UNL d   1       0.187  -1.028   1.242  0.00  0.00    -0.070 N 
ATOM      3  C1  UNL d   1      -1.024  -0.583   0.785  0.00  0.00    -0.004 A 
ATOM      4  C2  UNL d   1      -0.887  -0.290  -0.555  0.00  0.00    -0.047 A 
ATOM      5  C3  UNL d   1       0.452  -0.571  -0.915  0.00  0.00    -0.047 A 
ATOM      6  C4  UNL d   1       1.095  -1.026   0.216  0.00  0.00    -0.004 A 
ENDROOT
TORSDOF 0
ENDMDL
