MODEL 1
REMARK minimizedAffinity -4.21403074
REMARK minimizedRMSD -1
REMARK  0 active torsions:
REMARK  status: ('A' for Active; 'I' for Inactive)
ROOT
ATOM      1  C   UNL d   1       0.197   0.106  -0.078  0.00  0.00     0.172 C 
ATOM      2  N   UNL d   1       1.024  -0.542   0.913  0.00  0.00    -0.070 N 
ATOM      3  C1  UNL d   1       1.984  -1.485   0.659  0.00  0.00    -0.004 A 
ATOM      4  C2  UNL d   1       2.545  -1.851   1.864  0.00  0.00    -0.047 A 
ATOM      5  C3  UNL d   1       1.900  -1.102   2.876  0.00  0.00    -0.047 A 
ATOM      6  C4  UNL d   1       0.963  -0.300   2.260  0.00  0.00    -0.004 A 
ENDROOT
TORSDOF 0
ENDMDL
