MODEL 1
REMARK minimizedAffinity -4.25189304
REMARK minimizedRMSD -1
REMARK  0 active torsions:
REMARK  status: ('A' for Active; 'I' for Inactive)
ROOT
ATOM      1  C   UNL d   1       0.040  -0.320  -0.865  0.00  0.00     0.172 C 
ATOM      2  N   UNL d   1       0.386  -0.494   0.527  0.00  0.00    -0.070 N 
ATOM      3  C1  UNL d   1      -0.500  -0.537   1.570  0.00  0.00    -0.004 A 
ATOM      4  C2  UNL d   1       0.222  -0.716   2.730  0.00  0.00    -0.047 A 
ATOM      5  C3  UNL d   1       1.590  -0.780   2.371  0.00  0.00    -0.047 A 
ATOM      6  C4  UNL d   1       1.662  -0.640   1.002  0.00  0.00    -0.004 A 
ENDROOT
TORSDOF 0
ENDMDL
