MODEL 1
REMARK minimizedAffinity -1.35760164
REMARK minimizedRMSD -1
REMARK  0 active torsions:
REMARK  status: ('A' for Active; 'I' for Inactive)
ROOT
ATOM      1  C   UNL d   1      -1.701   0.944  -2.674  0.00  0.00     0.172 C 
ATOM      2  N   UNL d   1      -1.104   2.256  -2.607  0.00  0.00    -0.070 N 
ATOM      3  C1  UNL d   1       0.012   2.661  -3.290  0.00  0.00    -0.004 A 
ATOM      4  C2  UNL d   1       0.257   3.976  -2.957  0.00  0.00    -0.047 A 
ATOM      5  C3  UNL d   1      -0.746   4.375  -2.042  0.00  0.00    -0.047 A 
ATOM      6  C4  UNL d   1      -1.575   3.291  -1.843  0.00  0.00    -0.004 A 
ENDROOT
TORSDOF 0
ENDMDL
