MODEL 1
REMARK minimizedAffinity -3.22685003
REMARK minimizedRMSD -1
REMARK  0 active torsions:
REMARK  status: ('A' for Active; 'I' for Inactive)
ROOT
ATOM      1  C   UNL d   1       0.382  -1.113   0.369  0.00  0.00     0.172 C 
ATOM      2  N   UNL d   1       1.432  -0.943   1.345  0.00  0.00    -0.070 N 
ATOM      3  C1  UNL d   1       1.562  -1.652   2.509  0.00  0.00    -0.004 A 
ATOM      4  C2  UNL d   1       2.688  -1.194   3.159  0.00  0.00    -0.047 A 
ATOM      5  C3  UNL d   1       3.254  -0.174   2.358  0.00  0.00    -0.047 A 
ATOM      6  C4  UNL d   1       2.456  -0.039   1.241  0.00  0.00    -0.004 A 
ENDROOT
TORSDOF 0
ENDMDL
