MODEL 1
REMARK minimizedAffinity -5.40229845
REMARK minimizedRMSD -1
REMARK  0 active torsions:
REMARK  status: ('A' for Active; 'I' for Inactive)
ROOT
ATOM      1  C   UNL d   1      -2.354  -2.773   1.482  0.00  0.00    -0.002 A 
ATOM      2  C1  UNL d   1      -3.138  -1.766   2.027  0.00  0.00     0.010 A 
ATOM      3  C2  UNL d   1      -2.702  -0.439   2.009  0.00  0.00     0.041 A 
ATOM      4  C3  UNL d   1      -1.455  -0.139   1.426  0.00  0.00    -0.075 A 
ATOM      5  S   UNL d   1      -0.719   1.414   1.289  0.00  0.00     0.015 SA
ATOM      6  C4  UNL d   1       0.653   0.776   0.503  0.00  0.00     0.022 A 
ATOM      7  C5  UNL d   1       0.567  -0.586   0.340  0.00  0.00     0.026 A 
ATOM      8  C6  UNL d   1      -0.649  -1.136   0.869  0.00  0.00    -0.082 A 
ATOM      9  C7  UNL d   1      -1.118  -2.472   0.904  0.00  0.00     0.045 A 
ENDROOT
TORSDOF 0
ENDMDL
