MODEL 1
REMARK minimizedAffinity -4.45921946
REMARK minimizedRMSD -1
REMARK  0 active torsions:
REMARK  status: ('A' for Active; 'I' for Inactive)
ROOT
ATOM      1  C   UNL d   1      -1.546  -2.451   1.024  0.00  0.00    -0.002 A 
ATOM      2  C1  UNL d   1      -2.435  -1.626   1.698  0.00  0.00     0.010 A 
ATOM      3  C2  UNL d   1      -2.297  -0.237   1.643  0.00  0.00     0.041 A 
ATOM      4  C3  UNL d   1      -1.240   0.313   0.891  0.00  0.00    -0.075 A 
ATOM      5  S   UNL d   1      -0.875   1.984   0.680  0.00  0.00     0.015 SA
ATOM      6  C4  UNL d   1       0.470   1.642  -0.311  0.00  0.00     0.022 A 
ATOM      7  C5  UNL d   1       0.650   0.291  -0.486  0.00  0.00     0.026 A 
ATOM      8  C6  UNL d   1      -0.332  -0.498   0.203  0.00  0.00    -0.082 A 
ATOM      9  C7  UNL d   1      -0.499  -1.902   0.279  0.00  0.00     0.045 A 
ENDROOT
TORSDOF 0
ENDMDL
