MODEL 1
REMARK minimizedAffinity -4.39339447
REMARK minimizedRMSD -1
REMARK  0 active torsions:
REMARK  status: ('A' for Active; 'I' for Inactive)
ROOT
ATOM      1  C   UNL d   1      -3.108  -0.936   2.573  0.00  0.00    -0.002 A 
ATOM      2  C1  UNL d   1      -3.039   0.412   2.253  0.00  0.00     0.010 A 
ATOM      3  C2  UNL d   1      -1.992   0.904   1.470  0.00  0.00     0.041 A 
ATOM      4  C3  UNL d   1      -1.008   0.008   1.008  0.00  0.00    -0.075 A 
ATOM      5  S   UNL d   1       0.364   0.384   0.034  0.00  0.00     0.015 SA
ATOM      6  C4  UNL d   1       0.891  -1.237   0.019  0.00  0.00     0.022 A 
ATOM      7  C5  UNL d   1       0.052  -2.058   0.735  0.00  0.00     0.026 A 
ATOM      8  C6  UNL d   1      -1.056  -1.354   1.316  0.00  0.00    -0.082 A 
ATOM      9  C7  UNL d   1      -2.129  -1.821   2.112  0.00  0.00     0.045 A 
ENDROOT
TORSDOF 0
ENDMDL
