MODEL 1
REMARK minimizedAffinity -4.02855015
REMARK minimizedRMSD -1
REMARK  0 active torsions:
REMARK  status: ('A' for Active; 'I' for Inactive)
ROOT
ATOM      1  C   UNL d   1      -2.881  -1.875   1.622  0.00  0.00    -0.002 A 
ATOM      2  C1  UNL d   1      -1.837  -2.604   2.175  0.00  0.00     0.010 A 
ATOM      3  C2  UNL d   1      -0.511  -2.245   1.927  0.00  0.00     0.041 A 
ATOM      4  C3  UNL d   1      -0.248  -1.130   1.107  0.00  0.00    -0.075 A 
ATOM      5  S   UNL d   1       1.297  -0.505   0.666  0.00  0.00     0.015 SA
ATOM      6  C4  UNL d   1       0.608   0.744  -0.267  0.00  0.00     0.022 A 
ATOM      7  C5  UNL d   1      -0.766   0.700  -0.253  0.00  0.00     0.026 A 
ATOM      8  C6  UNL d   1      -1.282  -0.380   0.539  0.00  0.00    -0.082 A 
ATOM      9  C7  UNL d   1      -2.616  -0.770   0.809  0.00  0.00     0.045 A 
ENDROOT
TORSDOF 0
ENDMDL
