MODEL 1
REMARK minimizedAffinity -1.18772125
REMARK minimizedRMSD -1
REMARK  0 active torsions:
REMARK  status: ('A' for Active; 'I' for Inactive)
ROOT
ATOM      1  C   UNL d   1      -3.291  -1.984   1.875  0.00  0.00    -0.002 A 
ATOM      2  C1  UNL d   1      -3.387  -0.615   1.665  0.00  0.00     0.010 A 
ATOM      3  C2  UNL d   1      -2.309   0.100   1.141  0.00  0.00     0.041 A 
ATOM      4  C3  UNL d   1      -1.122  -0.590   0.826  0.00  0.00    -0.075 A 
ATOM      5  S   UNL d   1       0.327   0.079   0.173  0.00  0.00     0.015 SA
ATOM      6  C4  UNL d   1       1.107  -1.437   0.156  0.00  0.00     0.022 A 
ATOM      7  C5  UNL d   1       0.297  -2.439   0.634  0.00  0.00     0.026 A 
ATOM      8  C6  UNL d   1      -1.001  -1.968   1.028  0.00  0.00    -0.082 A 
ATOM      9  C7  UNL d   1      -2.112  -2.665   1.561  0.00  0.00     0.045 A 
ENDROOT
TORSDOF 0
ENDMDL
