MODEL 1
REMARK minimizedAffinity -4.86299038
REMARK minimizedRMSD -1
REMARK  0 active torsions:
REMARK  status: ('A' for Active; 'I' for Inactive)
ROOT
ATOM      1  C   UNL d   1      -2.660  -2.525   1.790  0.00  0.00    -0.002 A 
ATOM      2  C1  UNL d   1      -3.200  -1.390   2.379  0.00  0.00     0.010 A 
ATOM      3  C2  UNL d   1      -2.713  -0.122   2.056  0.00  0.00     0.041 A 
ATOM      4  C3  UNL d   1      -1.665  -0.012   1.121  0.00  0.00    -0.075 A 
ATOM      5  S   UNL d   1      -0.909   1.437   0.572  0.00  0.00     0.015 SA
ATOM      6  C4  UNL d   1       0.148   0.584  -0.458  0.00  0.00     0.022 A 
ATOM      7  C5  UNL d   1      -0.056  -0.774  -0.396  0.00  0.00     0.026 A 
ATOM      8  C6  UNL d   1      -1.105  -1.140   0.515  0.00  0.00    -0.082 A 
ATOM      9  C7  UNL d   1      -1.620  -2.412   0.864  0.00  0.00     0.045 A 
ENDROOT
TORSDOF 0
ENDMDL
