MODEL 1
REMARK minimizedAffinity 9.25287724
REMARK minimizedRMSD -1
REMARK  0 active torsions:
REMARK  status: ('A' for Active; 'I' for Inactive)
ROOT
ATOM      1  C   UNL d   1       0.150  -0.534   0.713  0.00  0.00    -0.002 A 
ATOM      2  C1  UNL d   1       1.371  -1.099   0.372  0.00  0.00     0.010 A 
ATOM      3  C2  UNL d   1       2.065  -0.663  -0.758  0.00  0.00     0.041 A 
ATOM      4  C3  UNL d   1       1.507   0.362  -1.547  0.00  0.00    -0.075 A 
ATOM      5  S   UNL d   1       2.177   1.057  -2.976  0.00  0.00     0.015 SA
ATOM      6  C4  UNL d   1       0.860   2.120  -3.167  0.00  0.00     0.022 A 
ATOM      7  C5  UNL d   1      -0.079   1.963  -2.175  0.00  0.00     0.026 A 
ATOM      8  C6  UNL d   1       0.279   0.947  -1.224  0.00  0.00    -0.082 A 
ATOM      9  C7  UNL d   1      -0.401   0.483  -0.073  0.00  0.00     0.045 A 
ENDROOT
TORSDOF 0
ENDMDL
