MODEL 1
REMARK minimizedAffinity 1.27379715
REMARK minimizedRMSD -1
REMARK  0 active torsions:
REMARK  status: ('A' for Active; 'I' for Inactive)
ROOT
ATOM      1  C   UNL d   1       1.603  -1.981   0.658  0.00  0.00    -0.002 A 
ATOM      2  C1  UNL d   1       0.638  -2.638   1.408  0.00  0.00     0.010 A 
ATOM      3  C2  UNL d   1      -0.502  -1.962   1.847  0.00  0.00     0.041 A 
ATOM      4  C3  UNL d   1      -0.658  -0.602   1.515  0.00  0.00    -0.075 A 
ATOM      5  S   UNL d   1      -1.972   0.429   1.943  0.00  0.00     0.015 SA
ATOM      6  C4  UNL d   1      -1.283   1.765   1.140  0.00  0.00     0.022 A 
ATOM      7  C5  UNL d   1      -0.080   1.451   0.555  0.00  0.00     0.026 A 
ATOM      8  C6  UNL d   1       0.300   0.081   0.761  0.00  0.00    -0.082 A 
ATOM      9  C7  UNL d   1       1.445  -0.632   0.331  0.00  0.00     0.045 A 
ENDROOT
TORSDOF 0
ENDMDL
