MODEL 1
REMARK minimizedAffinity 16.8795414
REMARK minimizedRMSD -1
REMARK  1 active torsions:
REMARK  status: ('A' for Active; 'I' for Inactive)
REMARK    1  A    between atoms: C1_2  and  C2_3 
ROOT
ATOM      1  C2  UNL d   1       5.356   3.283   3.770  0.00  0.00    -0.076 A 
ATOM      2  C3  UNL d   1       5.999   4.258   4.553  0.00  0.00     0.004 A 
ATOM      3  C4  UNL d   1       5.965   5.604   4.193  0.00  0.00    -0.003 A 
ATOM      4  C5  UNL d   1       5.286   5.998   3.045  0.00  0.00     0.000 A 
ATOM      5  C6  UNL d   1       4.628   5.047   2.266  0.00  0.00     0.000 A 
ATOM      6  C7  UNL d   1       4.639   3.687   2.623  0.00  0.00    -0.073 A 
ATOM      7  C8  UNL d   1       3.917   2.704   1.744  0.00  0.00     0.078 C 
ENDROOT
BRANCH   1   8
ATOM      8  C1  UNL d   1       5.450   1.835   4.195  0.00  0.00     0.053 C 
ATOM      9  C   UNL d   1       4.190   1.351   4.895  0.00  0.00     0.018 C 
ENDBRANCH   1   8
TORSDOF 1
ENDMDL
