MODEL 1
REMARK minimizedAffinity 15.5150404
REMARK minimizedRMSD -1
REMARK  1 active torsions:
REMARK  status: ('A' for Active; 'I' for Inactive)
REMARK    1  A    between atoms: C1_2  and  C2_3 
ROOT
ATOM      1  C2  UNL d   1       0.757  -3.172  -5.943  0.00  0.00    -0.076 A 
ATOM      2  C3  UNL d   1       2.162  -3.194  -5.911  0.00  0.00     0.004 A 
ATOM      3  C4  UNL d   1       2.859  -4.400  -5.849  0.00  0.00    -0.003 A 
ATOM      4  C5  UNL d   1       2.162  -5.603  -5.819  0.00  0.00     0.000 A 
ATOM      5  C6  UNL d   1       0.768  -5.600  -5.868  0.00  0.00     0.000 A 
ATOM      6  C7  UNL d   1       0.051  -4.394  -5.947  0.00  0.00    -0.073 A 
ATOM      7  C8  UNL d   1      -1.452  -4.449  -5.991  0.00  0.00     0.078 C 
ENDROOT
BRANCH   1   8
ATOM      8  C1  UNL d   1       0.055  -1.833  -5.982  0.00  0.00     0.053 C 
ATOM      9  C   UNL d   1       0.867  -0.730  -5.322  0.00  0.00     0.018 C 
ENDBRANCH   1   8
TORSDOF 1
ENDMDL
