MODEL 1
REMARK minimizedAffinity 19.5890141
REMARK minimizedRMSD -1
REMARK  1 active torsions:
REMARK  status: ('A' for Active; 'I' for Inactive)
REMARK    1  A    between atoms: C1_2  and  C2_3 
ROOT
ATOM      1  C2  UNL d   1       1.031  -0.025   3.808  0.00  0.00    -0.076 A 
ATOM      2  C3  UNL d   1       0.479   0.934   2.941  0.00  0.00     0.004 A 
ATOM      3  C4  UNL d   1      -0.278   0.551   1.835  0.00  0.00    -0.003 A 
ATOM      4  C5  UNL d   1      -0.497  -0.798   1.579  0.00  0.00     0.000 A 
ATOM      5  C6  UNL d   1       0.028  -1.763   2.438  0.00  0.00     0.000 A 
ATOM      6  C7  UNL d   1       0.780  -1.393   3.566  0.00  0.00    -0.073 A 
ATOM      7  C8  UNL d   1       1.327  -2.476   4.456  0.00  0.00     0.078 C 
ENDROOT
BRANCH   1   8
ATOM      8  C1  UNL d   1       1.866   0.449   4.975  0.00  0.00     0.053 C 
ATOM      9  C   UNL d   1       1.051   1.222   6.000  0.00  0.00     0.018 C 
ENDBRANCH   1   8
TORSDOF 1
ENDMDL
