MODEL 1
REMARK minimizedAffinity 9.47100639
REMARK minimizedRMSD -1
REMARK  1 active torsions:
REMARK  status: ('A' for Active; 'I' for Inactive)
REMARK    1  A    between atoms: C1_2  and  C2_3 
ROOT
ATOM      1  C2  UNL d   1      -1.308  -0.023   3.274  0.00  0.00    -0.076 A 
ATOM      2  C3  UNL d   1      -1.613  -1.339   3.664  0.00  0.00     0.004 A 
ATOM      3  C4  UNL d   1      -2.896  -1.857   3.497  0.00  0.00    -0.003 A 
ATOM      4  C5  UNL d   1      -3.895  -1.068   2.937  0.00  0.00     0.000 A 
ATOM      5  C6  UNL d   1      -3.605   0.233   2.528  0.00  0.00     0.000 A 
ATOM      6  C7  UNL d   1      -2.313   0.766   2.674  0.00  0.00    -0.073 A 
ATOM      7  C8  UNL d   1      -2.058   2.177   2.222  0.00  0.00     0.078 C 
ENDROOT
BRANCH   1   8
ATOM      8  C1  UNL d   1       0.094   0.494   3.505  0.00  0.00     0.053 C 
ATOM      9  C   UNL d   1       1.130  -0.233   2.661  0.00  0.00     0.018 C 
ENDBRANCH   1   8
TORSDOF 1
ENDMDL
