MODEL 1
REMARK minimizedAffinity 14.4395084
REMARK minimizedRMSD -1
REMARK  1 active torsions:
REMARK  status: ('A' for Active; 'I' for Inactive)
REMARK    1  A    between atoms: C1_2  and  C2_3 
ROOT
ATOM      1  C2  UNL d   1       1.064  -0.575  -3.869  0.00  0.00    -0.076 A 
ATOM      2  C3  UNL d   1       2.327  -0.569  -3.251  0.00  0.00     0.004 A 
ATOM      3  C4  UNL d   1       3.490  -0.762  -3.994  0.00  0.00    -0.003 A 
ATOM      4  C5  UNL d   1       3.409  -0.964  -5.368  0.00  0.00     0.000 A 
ATOM      5  C6  UNL d   1       2.166  -0.956  -6.000  0.00  0.00     0.000 A 
ATOM      6  C7  UNL d   1       0.985  -0.746  -5.268  0.00  0.00    -0.073 A 
ATOM      7  C8  UNL d   1      -0.329  -0.753  -6.000  0.00  0.00     0.078 C 
ENDROOT
BRANCH   1   8
ATOM      8  C1  UNL d   1      -0.164  -0.387  -3.008  0.00  0.00     0.053 C 
ATOM      9  C   UNL d   1      -0.380  -1.541  -2.041  0.00  0.00     0.018 C 
ENDBRANCH   1   8
TORSDOF 1
ENDMDL
