MODEL 1
REMARK minimizedAffinity -0.620239973
REMARK minimizedRMSD -1
REMARK  0 active torsions:
REMARK  status: ('A' for Active; 'I' for Inactive)
ROOT
ATOM      1  N1  IND d   1       2.093   2.214   2.881  0.00  0.00    -0.196 N 
ATOM      2  C2  IND d   1       2.491   1.586   1.734  0.00  0.00     0.054 A 
ATOM      3  C3  IND d   1       3.088   2.466   0.898  0.00  0.00    -0.031 A 
ATOM      4  C4  IND d   1       3.608   4.963   1.253  0.00  0.00     0.051 A 
ATOM      5  C5  IND d   1       3.405   5.991   2.130  0.00  0.00    -0.031 A 
ATOM      6  C6  IND d   1       2.743   5.809   3.327  0.00  0.00     0.015 A 
ATOM      7  C7  IND d   1       2.267   4.584   3.699  0.00  0.00    -0.016 A 
ATOM      8  C8  IND d   1       2.466   3.538   2.808  0.00  0.00    -0.047 A 
ATOM      9  C9  IND d   1       3.099   3.726   1.573  0.00  0.00    -0.096 A 
ATOM     10  HN1 IND d   1       1.679   1.844   3.537  0.00  0.00     0.298 HD
ENDROOT
TORSDOF 0
ENDMDL
