MODEL 1
REMARK minimizedAffinity 8.15231991
REMARK minimizedRMSD -1
REMARK  0 active torsions:
REMARK  status: ('A' for Active; 'I' for Inactive)
ROOT
ATOM      1  N1  IND d   1       5.995   4.381   5.772  0.00  0.00    -0.196 N 
ATOM      2  C2  IND d   1       5.453   5.615   6.000  0.00  0.00     0.054 A 
ATOM      3  C3  IND d   1       4.701   6.000   4.945  0.00  0.00    -0.031 A 
ATOM      4  C4  IND d   1       4.139   4.720   2.783  0.00  0.00     0.051 A 
ATOM      5  C5  IND d   1       4.432   3.570   2.105  0.00  0.00    -0.031 A 
ATOM      6  C6  IND d   1       5.275   2.610   2.627  0.00  0.00     0.015 A 
ATOM      7  C7  IND d   1       5.851   2.761   3.857  0.00  0.00    -0.016 A 
ATOM      8  C8  IND d   1       5.562   3.931   4.544  0.00  0.00    -0.047 A 
ATOM      9  C9  IND d   1       4.741   4.928   4.001  0.00  0.00    -0.096 A 
ATOM     10  HN1 IND d   1       6.519   3.957   6.306  0.00  0.00     0.298 HD
ENDROOT
TORSDOF 0
ENDMDL
