MODEL 1
REMARK minimizedAffinity 17.792635
REMARK minimizedRMSD -1
REMARK  0 active torsions:
REMARK  status: ('A' for Active; 'I' for Inactive)
ROOT
ATOM      1  N1  IND d   1       3.826   5.732   2.262  0.00  0.00    -0.196 N 
ATOM      2  C2  IND d   1       4.850   5.228   1.509  0.00  0.00     0.054 A 
ATOM      3  C3  IND d   1       5.858   4.810   2.306  0.00  0.00    -0.031 A 
ATOM      4  C4  IND d   1       6.000   4.762   4.876  0.00  0.00     0.051 A 
ATOM      5  C5  IND d   1       5.325   5.150   5.999  0.00  0.00    -0.031 A 
ATOM      6  C6  IND d   1       4.090   5.762   5.933  0.00  0.00     0.015 A 
ATOM      7  C7  IND d   1       3.476   5.999   4.736  0.00  0.00    -0.016 A 
ATOM      8  C8  IND d   1       4.161   5.613   3.593  0.00  0.00    -0.047 A 
ATOM      9  C9  IND d   1       5.434   5.030   3.652  0.00  0.00    -0.096 A 
ATOM     10  HN1 IND d   1       3.096   6.067   1.956  0.00  0.00     0.298 HD
ENDROOT
TORSDOF 0
ENDMDL
