MODEL 1
REMARK minimizedAffinity 10.3491421
REMARK minimizedRMSD -1
REMARK  0 active torsions:
REMARK  status: ('A' for Active; 'I' for Inactive)
ROOT
ATOM      1  N1  IND d   1       0.581  -5.127  -2.578  0.00  0.00    -0.196 N 
ATOM      2  C2  IND d   1      -0.453  -5.996  -2.368  0.00  0.00     0.054 A 
ATOM      3  C3  IND d   1      -0.807  -5.998  -1.063  0.00  0.00    -0.031 A 
ATOM      4  C4  IND d   1       0.108  -4.582   0.882  0.00  0.00     0.051 A 
ATOM      5  C5  IND d   1       1.081  -3.673   1.188  0.00  0.00    -0.031 A 
ATOM      6  C6  IND d   1       1.954  -3.191   0.234  0.00  0.00     0.015 A 
ATOM      7  C7  IND d   1       1.878  -3.593  -1.069  0.00  0.00    -0.016 A 
ATOM      8  C8  IND d   1       0.895  -4.521  -1.382  0.00  0.00    -0.047 A 
ATOM      9  C9  IND d   1       0.034  -5.046  -0.410  0.00  0.00    -0.096 A 
ATOM     10  HN1 IND d   1       0.970  -4.984  -3.332  0.00  0.00     0.298 HD
ENDROOT
TORSDOF 0
ENDMDL
