MODEL 1
REMARK minimizedAffinity 8.60424805
REMARK minimizedRMSD -1
REMARK  0 active torsions:
REMARK  status: ('A' for Active; 'I' for Inactive)
ROOT
ATOM      1  N1  IND d   1       2.113   3.641   1.001  0.00  0.00    -0.196 N 
ATOM      2  C2  IND d   1       2.222   2.290   1.178  0.00  0.00     0.054 A 
ATOM      3  C3  IND d   1       3.497   1.957   1.481  0.00  0.00    -0.031 A 
ATOM      4  C4  IND d   1       5.544   3.476   1.839  0.00  0.00     0.051 A 
ATOM      5  C5  IND d   1       5.946   4.780   1.751  0.00  0.00    -0.031 A 
ATOM      6  C6  IND d   1       5.073   5.791   1.405  0.00  0.00     0.015 A 
ATOM      7  C7  IND d   1       3.757   5.537   1.143  0.00  0.00    -0.016 A 
ATOM      8  C8  IND d   1       3.346   4.213   1.224  0.00  0.00    -0.047 A 
ATOM      9  C9  IND d   1       4.237   3.178   1.533  0.00  0.00    -0.096 A 
ATOM     10  HN1 IND d   1       1.395   4.063   0.787  0.00  0.00     0.298 HD
ENDROOT
TORSDOF 0
ENDMDL
