MODEL 1
REMARK minimizedAffinity 13.5940866
REMARK minimizedRMSD -1
REMARK  0 active torsions:
REMARK  status: ('A' for Active; 'I' for Inactive)
ROOT
ATOM      1  N1  IND d   1       0.156   2.453  -5.971  0.00  0.00    -0.196 N 
ATOM      2  C2  IND d   1       0.359   1.101  -5.936  0.00  0.00     0.054 A 
ATOM      3  C3  IND d   1      -0.825   0.449  -5.901  0.00  0.00    -0.031 A 
ATOM      4  C4  IND d   1      -3.217   1.394  -5.998  0.00  0.00     0.051 A 
ATOM      5  C5  IND d   1      -3.911   2.572  -6.000  0.00  0.00    -0.031 A 
ATOM      6  C6  IND d   1      -3.271   3.795  -5.995  0.00  0.00     0.015 A 
ATOM      7  C7  IND d   1      -1.908   3.886  -6.000  0.00  0.00    -0.016 A 
ATOM      8  C8  IND d   1      -1.201   2.692  -5.990  0.00  0.00    -0.047 A 
ATOM      9  C9  IND d   1      -1.844   1.448  -5.952  0.00  0.00    -0.096 A 
ATOM     10  HN1 IND d   1       0.772   3.053  -5.980  0.00  0.00     0.298 HD
ENDROOT
TORSDOF 0
ENDMDL
