MODEL 1
REMARK minimizedAffinity 14.9288778
REMARK minimizedRMSD -1
REMARK  0 active torsions:
REMARK  status: ('A' for Active; 'I' for Inactive)
ROOT
ATOM      1  N1  IND d   1      -0.741   2.323  -5.999  0.00  0.00    -0.196 N 
ATOM      2  C2  IND d   1      -1.463   1.473  -5.208  0.00  0.00     0.054 A 
ATOM      3  C3  IND d   1      -0.673   0.937  -4.251  0.00  0.00    -0.031 A 
ATOM      4  C4  IND d   1       1.808   1.391  -3.734  0.00  0.00     0.051 A 
ATOM      5  C5  IND d   1       2.901   2.063  -4.205  0.00  0.00    -0.031 A 
ATOM      6  C6  IND d   1       2.834   2.875  -5.319  0.00  0.00     0.015 A 
ATOM      7  C7  IND d   1       1.663   3.054  -6.000  0.00  0.00    -0.016 A 
ATOM      8  C8  IND d   1       0.553   2.368  -5.529  0.00  0.00    -0.047 A 
ATOM      9  C9  IND d   1       0.625   1.509  -4.424  0.00  0.00    -0.096 A 
ATOM     10  HN1 IND d   1      -1.044   2.756  -6.677  0.00  0.00     0.298 HD
ENDROOT
TORSDOF 0
ENDMDL
