MODEL 1
REMARK minimizedAffinity 16.5781975
REMARK minimizedRMSD -1
REMARK  0 active torsions:
REMARK  status: ('A' for Active; 'I' for Inactive)
ROOT
ATOM      1  N1  IND d   1       4.418   4.836   0.297  0.00  0.00    -0.196 N 
ATOM      2  C2  IND d   1       3.373   4.863  -0.584  0.00  0.00     0.054 A 
ATOM      3  C3  IND d   1       2.352   4.104  -0.127  0.00  0.00    -0.031 A 
ATOM      4  C4  IND d   1       2.140   2.813   2.090  0.00  0.00     0.051 A 
ATOM      5  C5  IND d   1       2.849   2.461   3.204  0.00  0.00    -0.031 A 
ATOM      6  C6  IND d   1       4.143   2.894   3.411  0.00  0.00     0.015 A 
ATOM      7  C7  IND d   1       4.774   3.708   2.514  0.00  0.00    -0.016 A 
ATOM      8  C8  IND d   1       4.059   4.061   1.378  0.00  0.00    -0.047 A 
ATOM      9  C9  IND d   1       2.761   3.591   1.142  0.00  0.00    -0.096 A 
ATOM     10  HN1 IND d   1       5.172   5.237   0.194  0.00  0.00     0.298 HD
ENDROOT
TORSDOF 0
ENDMDL
