MODEL 1
REMARK minimizedAffinity 0.0989485756
REMARK minimizedRMSD -1
REMARK  0 active torsions:
REMARK  status: ('A' for Active; 'I' for Inactive)
ROOT
ATOM      1  N1  IND d   1      -2.296   3.211  -5.998  0.00  0.00    -0.196 N 
ATOM      2  C2  IND d   1      -2.650   1.891  -5.980  0.00  0.00     0.054 A 
ATOM      3  C3  IND d   1      -3.996   1.765  -5.940  0.00  0.00    -0.031 A 
ATOM      4  C4  IND d   1      -5.812   3.589  -5.999  0.00  0.00     0.051 A 
ATOM      5  C5  IND d   1      -5.977   4.946  -5.979  0.00  0.00    -0.031 A 
ATOM      6  C6  IND d   1      -4.902   5.811  -5.967  0.00  0.00     0.015 A 
ATOM      7  C7  IND d   1      -3.616   5.350  -5.986  0.00  0.00    -0.016 A 
ATOM      8  C8  IND d   1      -3.445   3.973  -5.999  0.00  0.00    -0.047 A 
ATOM      9  C9  IND d   1      -4.531   3.089  -5.968  0.00  0.00    -0.096 A 
ATOM     10  HN1 IND d   1      -1.492   3.515  -6.006  0.00  0.00     0.298 HD
ENDROOT
TORSDOF 0
ENDMDL
