MODEL 1
REMARK minimizedAffinity 0.661036193
REMARK minimizedRMSD -1
REMARK  0 active torsions:
REMARK  status: ('A' for Active; 'I' for Inactive)
ROOT
ATOM      1  N1  IND d   1       3.730   3.866   3.854  0.00  0.00    -0.196 N 
ATOM      2  C2  IND d   1       4.114   5.008   4.501  0.00  0.00     0.054 A 
ATOM      3  C3  IND d   1       4.341   5.999   3.610  0.00  0.00    -0.031 A 
ATOM      4  C4  IND d   1       4.047   5.998   1.052  0.00  0.00     0.051 A 
ATOM      5  C5  IND d   1       3.751   5.175   0.002  0.00  0.00    -0.031 A 
ATOM      6  C6  IND d   1       3.423   3.848   0.186  0.00  0.00     0.015 A 
ATOM      7  C7  IND d   1       3.368   3.294   1.434  0.00  0.00    -0.016 A 
ATOM      8  C8  IND d   1       3.675   4.125   2.502  0.00  0.00    -0.047 A 
ATOM      9  C9  IND d   1       4.050   5.462   2.318  0.00  0.00    -0.096 A 
ATOM     10  HN1 IND d   1       3.552   3.113   4.229  0.00  0.00     0.298 HD
ENDROOT
TORSDOF 0
ENDMDL
