MODEL 1
REMARK minimizedAffinity 4.62702227
REMARK minimizedRMSD -1
REMARK  0 active torsions:
REMARK  status: ('A' for Active; 'I' for Inactive)
ROOT
ATOM      1  N1  IND d   1      -2.193   4.911  -5.974  0.00  0.00    -0.196 N 
ATOM      2  C2  IND d   1      -1.323   3.856  -5.938  0.00  0.00     0.054 A 
ATOM      3  C3  IND d   1      -2.002   2.688  -5.901  0.00  0.00    -0.031 A 
ATOM      4  C4  IND d   1      -4.540   2.268  -5.993  0.00  0.00     0.051 A 
ATOM      5  C5  IND d   1      -5.741   2.920  -5.994  0.00  0.00    -0.031 A 
ATOM      6  C6  IND d   1      -5.822   4.298  -5.991  0.00  0.00     0.015 A 
ATOM      7  C7  IND d   1      -4.700   5.077  -5.998  0.00  0.00    -0.016 A 
ATOM      8  C8  IND d   1      -3.479   4.418  -5.990  0.00  0.00    -0.047 A 
ATOM      9  C9  IND d   1      -3.390   3.020  -5.951  0.00  0.00    -0.096 A 
ATOM     10  HN1 IND d   1      -1.973   5.742  -5.984  0.00  0.00     0.298 HD
ENDROOT
TORSDOF 0
ENDMDL
