MODEL 1
REMARK minimizedAffinity 1.99875236
REMARK minimizedRMSD -1
REMARK  0 active torsions:
REMARK  status: ('A' for Active; 'I' for Inactive)
ROOT
ATOM      1  N1  IND d   1      -2.856   2.066  -5.999  0.00  0.00    -0.196 N 
ATOM      2  C2  IND d   1      -3.814   3.041  -6.000  0.00  0.00     0.054 A 
ATOM      3  C3  IND d   1      -3.240   4.265  -5.963  0.00  0.00    -0.031 A 
ATOM      4  C4  IND d   1      -0.747   4.903  -6.000  0.00  0.00     0.051 A 
ATOM      5  C5  IND d   1       0.506   4.358  -5.962  0.00  0.00    -0.031 A 
ATOM      6  C6  IND d   1       0.706   2.992  -5.937  0.00  0.00     0.015 A 
ATOM      7  C7  IND d   1      -0.344   2.118  -5.960  0.00  0.00    -0.016 A 
ATOM      8  C8  IND d   1      -1.617   2.669  -5.991  0.00  0.00    -0.047 A 
ATOM      9  C9  IND d   1      -1.828   4.054  -5.974  0.00  0.00    -0.096 A 
ATOM     10  HN1 IND d   1      -3.002   1.219  -6.003  0.00  0.00     0.298 HD
ENDROOT
TORSDOF 0
ENDMDL
