MODEL 1
REMARK minimizedAffinity 0.177081287
REMARK minimizedRMSD -1
REMARK  0 active torsions:
REMARK  status: ('A' for Active; 'I' for Inactive)
ROOT
ATOM      1  N1  IND d   1      -1.842   2.415  -5.999  0.00  0.00    -0.196 N 
ATOM      2  C2  IND d   1      -3.133   2.866  -5.998  0.00  0.00     0.054 A 
ATOM      3  C3  IND d   1      -3.158   4.217  -5.961  0.00  0.00    -0.031 A 
ATOM      4  C4  IND d   1      -1.203   5.892  -6.000  0.00  0.00     0.051 A 
ATOM      5  C5  IND d   1       0.161   5.955  -5.964  0.00  0.00    -0.031 A 
ATOM      6  C6  IND d   1       0.944   4.819  -5.940  0.00  0.00     0.015 A 
ATOM      7  C7  IND d   1       0.388   3.571  -5.963  0.00  0.00    -0.016 A 
ATOM      8  C8  IND d   1      -0.997   3.503  -5.992  0.00  0.00    -0.047 A 
ATOM      9  C9  IND d   1      -1.798   4.652  -5.974  0.00  0.00    -0.096 A 
ATOM     10  HN1 IND d   1      -1.599   1.590  -6.003  0.00  0.00     0.298 HD
ENDROOT
TORSDOF 0
ENDMDL
