MODEL 1
REMARK minimizedAffinity -1.30550086
REMARK minimizedRMSD -1
REMARK  0 active torsions:
REMARK  status: ('A' for Active; 'I' for Inactive)
ROOT
ATOM      1  N1  IND d   1      -0.776   5.620  -5.996  0.00  0.00    -0.196 N 
ATOM      2  C2  IND d   1       0.374   4.881  -5.962  0.00  0.00     0.054 A 
ATOM      3  C3  IND d   1       0.084   3.562  -5.912  0.00  0.00    -0.031 A 
ATOM      4  C4  IND d   1      -2.205   2.386  -5.980  0.00  0.00     0.051 A 
ATOM      5  C5  IND d   1      -3.548   2.641  -5.974  0.00  0.00    -0.031 A 
ATOM      6  C6  IND d   1      -4.045   3.929  -5.978  0.00  0.00     0.015 A 
ATOM      7  C7  IND d   1      -3.214   5.013  -6.000  0.00  0.00    -0.016 A 
ATOM      8  C8  IND d   1      -1.851   4.758  -5.998  0.00  0.00    -0.047 A 
ATOM      9  C9  IND d   1      -1.340   3.454  -5.951  0.00  0.00    -0.096 A 
ATOM     10  HN1 IND d   1      -0.821   6.478  -6.013  0.00  0.00     0.298 HD
ENDROOT
TORSDOF 0
ENDMDL
