MODEL 1
REMARK minimizedAffinity 4.79241991
REMARK minimizedRMSD -1
REMARK  0 active torsions:
REMARK  status: ('A' for Active; 'I' for Inactive)
ROOT
ATOM      1  N1  IND d   1      -1.590   1.499  -5.955  0.00  0.00    -0.196 N 
ATOM      2  C2  IND d   1      -2.860   2.005  -6.000  0.00  0.00     0.054 A 
ATOM      3  C3  IND d   1      -2.829   3.356  -5.987  0.00  0.00    -0.031 A 
ATOM      4  C4  IND d   1      -0.803   4.946  -6.000  0.00  0.00     0.051 A 
ATOM      5  C5  IND d   1       0.561   4.952  -5.926  0.00  0.00    -0.031 A 
ATOM      6  C6  IND d   1       1.293   3.784  -5.859  0.00  0.00     0.015 A 
ATOM      7  C7  IND d   1       0.686   2.561  -5.875  0.00  0.00    -0.016 A 
ATOM      8  C8  IND d   1      -0.700   2.550  -5.944  0.00  0.00    -0.047 A 
ATOM      9  C9  IND d   1      -1.451   3.733  -5.969  0.00  0.00    -0.096 A 
ATOM     10  HN1 IND d   1      -1.383   0.665  -5.938  0.00  0.00     0.298 HD
ENDROOT
TORSDOF 0
ENDMDL
