MODEL 1
REMARK minimizedAffinity -0.624686658
REMARK minimizedRMSD -1
REMARK  0 active torsions:
REMARK  status: ('A' for Active; 'I' for Inactive)
ROOT
ATOM      1  N1  IND d   1       2.126   0.571   0.133  0.00  0.00    -0.196 N 
ATOM      2  C2  IND d   1       3.171   0.910  -0.680  0.00  0.00     0.054 A 
ATOM      3  C3  IND d   1       2.853   1.990  -1.429  0.00  0.00    -0.031 A 
ATOM      4  C4  IND d   1       0.713   3.422  -1.408  0.00  0.00     0.051 A 
ATOM      5  C5  IND d   1      -0.536   3.483  -0.859  0.00  0.00    -0.031 A 
ATOM      6  C6  IND d   1      -0.970   2.560   0.070  0.00  0.00     0.015 A 
ATOM      7  C7  IND d   1      -0.163   1.543   0.495  0.00  0.00    -0.016 A 
ATOM      8  C8  IND d   1       1.104   1.474  -0.066  0.00  0.00    -0.047 A 
ATOM      9  C9  IND d   1       1.535   2.383  -1.041  0.00  0.00    -0.096 A 
ATOM     10  HN1 IND d   1       2.110  -0.094   0.678  0.00  0.00     0.298 HD
ENDROOT
TORSDOF 0
ENDMDL
