MODEL 1
REMARK minimizedAffinity 15.6189594
REMARK minimizedRMSD -1
REMARK  1 active torsions:
REMARK  status: ('A' for Active; 'I' for Inactive)
REMARK    1  A    between atoms: C1_2  and  C2_3 
ROOT
ATOM      1  C2  UNL d   1       3.268  -3.307   5.355  0.00  0.00    -0.077 A 
ATOM      2  C3  UNL d   1       3.670  -4.630   5.590  0.00  0.00     0.002 A 
ATOM      3  C4  UNL d   1       4.998  -4.918   5.909  0.00  0.00     0.002 A 
ATOM      4  C5  UNL d   1       5.934  -3.890   6.000  0.00  0.00    -0.004 A 
ATOM      5  C6  UNL d   1       5.545  -2.572   5.766  0.00  0.00     0.002 A 
ATOM      6  C7  UNL d   1       4.218  -2.282   5.446  0.00  0.00     0.002 A 
ENDROOT
BRANCH   1   7
ATOM      7  C1  UNL d   1       1.826  -2.988   5.059  0.00  0.00     0.055 C 
ATOM      8  C   UNL d   1       1.705  -1.929   3.974  0.00  0.00     0.019 C 
ENDBRANCH   1   7
TORSDOF 1
ENDMDL
