MODEL 1
REMARK minimizedAffinity 11.388793
REMARK minimizedRMSD -1
REMARK  1 active torsions:
REMARK  status: ('A' for Active; 'I' for Inactive)
REMARK    1  A    between atoms: C1_2  and  C2_3 
ROOT
ATOM      1  C2  UNL d   1       0.993  -3.270  -5.840  0.00  0.00    -0.077 A 
ATOM      2  C3  UNL d   1       2.371  -3.151  -5.613  0.00  0.00     0.002 A 
ATOM      3  C4  UNL d   1       3.176  -4.290  -5.545  0.00  0.00     0.002 A 
ATOM      4  C5  UNL d   1       2.613  -5.554  -5.708  0.00  0.00    -0.004 A 
ATOM      5  C6  UNL d   1       1.243  -5.683  -5.932  0.00  0.00     0.002 A 
ATOM      6  C7  UNL d   1       0.436  -4.546  -5.999  0.00  0.00     0.002 A 
ENDROOT
BRANCH   1   7
ATOM      7  C1  UNL d   1       0.131  -2.040  -5.963  0.00  0.00     0.055 C 
ATOM      8  C   UNL d   1       0.818  -0.821  -5.366  0.00  0.00     0.019 C 
ENDBRANCH   1   7
TORSDOF 1
ENDMDL
