MODEL 1
REMARK minimizedAffinity 12.7486668
REMARK minimizedRMSD -1
REMARK  1 active torsions:
REMARK  status: ('A' for Active; 'I' for Inactive)
REMARK    1  A    between atoms: C1_2  and  C2_3 
ROOT
ATOM      1  C2  UNL d   1       5.403   3.344   4.029  0.00  0.00    -0.077 A 
ATOM      2  C3  UNL d   1       4.808   3.678   2.805  0.00  0.00     0.002 A 
ATOM      3  C4  UNL d   1       4.805   5.002   2.359  0.00  0.00     0.002 A 
ATOM      4  C5  UNL d   1       5.398   5.999   3.129  0.00  0.00    -0.004 A 
ATOM      5  C6  UNL d   1       5.991   5.677   4.350  0.00  0.00     0.002 A 
ATOM      6  C7  UNL d   1       5.994   4.355   4.797  0.00  0.00     0.002 A 
ENDROOT
BRANCH   1   7
ATOM      7  C1  UNL d   1       5.451   1.910   4.488  0.00  0.00     0.055 C 
ATOM      8  C   UNL d   1       4.064   1.396   4.844  0.00  0.00     0.019 C 
ENDBRANCH   1   7
TORSDOF 1
ENDMDL
