MODEL 1
REMARK minimizedAffinity 10.8752031
REMARK minimizedRMSD -1
REMARK  1 active torsions:
REMARK  status: ('A' for Active; 'I' for Inactive)
REMARK    1  A    between atoms: C1_2  and  C2_3 
ROOT
ATOM      1  C2  UNL d   1       3.164  -1.022   4.962  0.00  0.00    -0.077 A 
ATOM      2  C3  UNL d   1       2.123  -1.856   4.530  0.00  0.00     0.002 A 
ATOM      3  C4  UNL d   1       1.231  -1.421   3.547  0.00  0.00     0.002 A 
ATOM      4  C5  UNL d   1       1.374  -0.154   2.986  0.00  0.00    -0.004 A 
ATOM      5  C6  UNL d   1       2.405   0.684   3.410  0.00  0.00     0.002 A 
ATOM      6  C7  UNL d   1       3.296   0.251   4.393  0.00  0.00     0.002 A 
ENDROOT
BRANCH   1   7
ATOM      7  C1  UNL d   1       4.156  -1.508   5.986  0.00  0.00     0.055 C 
ATOM      8  C   UNL d   1       4.246  -3.027   5.992  0.00  0.00     0.019 C 
ENDBRANCH   1   7
TORSDOF 1
ENDMDL
