MODEL 1
REMARK minimizedAffinity 13.9389372
REMARK minimizedRMSD -1
REMARK  1 active torsions:
REMARK  status: ('A' for Active; 'I' for Inactive)
REMARK    1  A    between atoms: C1_2  and  C2_3 
ROOT
ATOM      1  C2  UNL d   1      -0.402   0.007   2.801  0.00  0.00    -0.077 A 
ATOM      2  C3  UNL d   1      -0.342  -1.198   3.515  0.00  0.00     0.002 A 
ATOM      3  C4  UNL d   1       0.892  -1.748   3.868  0.00  0.00     0.002 A 
ATOM      4  C5  UNL d   1       2.073  -1.098   3.517  0.00  0.00    -0.004 A 
ATOM      5  C6  UNL d   1       2.023   0.100   2.805  0.00  0.00     0.002 A 
ATOM      6  C7  UNL d   1       0.791   0.651   2.449  0.00  0.00     0.002 A 
ENDROOT
BRANCH   1   7
ATOM      7  C1  UNL d   1      -1.733   0.627   2.461  0.00  0.00     0.055 C 
ATOM      8  C   UNL d   1      -1.675   2.145   2.550  0.00  0.00     0.019 C 
ENDBRANCH   1   7
TORSDOF 1
ENDMDL
