MODEL 1
REMARK minimizedAffinity 32.5376434
REMARK minimizedRMSD -1
REMARK  0 active torsions:
REMARK  status: ('A' for Active; 'I' for Inactive)
ROOT
ATOM      1  C   UNL d   1      -0.588   5.203  -0.405  0.00  0.00     0.124 A 
ATOM      2  C1  UNL d   1      -1.802   5.327  -1.065  0.00  0.00     0.062 A 
ATOM      3  C2  UNL d   1      -1.833   5.554  -2.438  0.00  0.00     0.162 A 
ATOM      4  C3  UNL d   1      -0.645   5.658  -3.161  0.00  0.00    -0.034 A 
ATOM      5  C4  UNL d   1       0.573   5.534  -2.490  0.00  0.00     0.162 A 
ATOM      6  C5  UNL d   1       0.598   5.307  -1.118  0.00  0.00     0.062 A 
ATOM      7  F   UNL d   1       1.773   5.187  -0.482  0.00  0.00    -0.097 F 
ATOM      8  F1  UNL d   1       1.734   5.628  -3.155  0.00  0.00    -0.096 F 
ATOM      9  I   UNL d   1      -0.687   5.998  -5.214  0.00  0.00    -0.060 I 
ATOM     10  F2  UNL d   1      -3.022   5.669  -3.050  0.00  0.00    -0.096 F 
ATOM     11  F3  UNL d   1      -2.950   5.228  -0.378  0.00  0.00    -0.097 F 
ATOM     12  F4  UNL d   1      -0.561   4.985   0.916  0.00  0.00    -0.092 F 
ENDROOT
TORSDOF 0
ENDMDL
