MODEL 1
REMARK minimizedAffinity 24.8376141
REMARK minimizedRMSD -1
REMARK  0 active torsions:
REMARK  status: ('A' for Active; 'I' for Inactive)
ROOT
ATOM      1  C   UNL d   1       5.450  -2.546  -1.286  0.00  0.00     0.124 A 
ATOM      2  C1  UNL d   1       5.545  -2.286  -2.646  0.00  0.00     0.062 A 
ATOM      3  C2  UNL d   1       5.171  -3.255  -3.572  0.00  0.00     0.162 A 
ATOM      4  C3  UNL d   1       4.696  -4.494  -3.141  0.00  0.00    -0.034 A 
ATOM      5  C4  UNL d   1       4.604  -4.749  -1.772  0.00  0.00     0.162 A 
ATOM      6  C5  UNL d   1       4.980  -3.777  -0.850  0.00  0.00     0.062 A 
ATOM      7  F   UNL d   1       4.887  -4.031   0.464  0.00  0.00    -0.097 F 
ATOM      8  F1  UNL d   1       4.152  -5.930  -1.323  0.00  0.00    -0.096 F 
ATOM      9  I   UNL d   1       4.135  -5.946  -4.523  0.00  0.00    -0.060 I 
ATOM     10  F2  UNL d   1       5.273  -2.976  -4.880  0.00  0.00    -0.096 F 
ATOM     11  F3  UNL d   1       6.000  -1.098  -3.069  0.00  0.00    -0.097 F 
ATOM     12  F4  UNL d   1       5.812  -1.613  -0.397  0.00  0.00    -0.092 F 
ENDROOT
TORSDOF 0
ENDMDL
