MODEL 1
REMARK minimizedAffinity 30.711607
REMARK minimizedRMSD -1
REMARK  0 active torsions:
REMARK  status: ('A' for Active; 'I' for Inactive)
ROOT
ATOM      1  C   UNL d   1       5.046  -2.774  -3.391  0.00  0.00     0.124 A 
ATOM      2  C1  UNL d   1       4.357  -2.555  -2.207  0.00  0.00     0.062 A 
ATOM      3  C2  UNL d   1       3.379  -3.453  -1.789  0.00  0.00     0.162 A 
ATOM      4  C3  UNL d   1       3.085  -4.580  -2.556  0.00  0.00    -0.034 A 
ATOM      5  C4  UNL d   1       3.782  -4.794  -3.747  0.00  0.00     0.162 A 
ATOM      6  C5  UNL d   1       4.758  -3.893  -4.160  0.00  0.00     0.062 A 
ATOM      7  F   UNL d   1       5.423  -4.106  -5.305  0.00  0.00    -0.097 F 
ATOM      8  F1  UNL d   1       3.525  -5.867  -4.509  0.00  0.00    -0.096 F 
ATOM      9  I   UNL d   1       1.624  -5.926  -1.935  0.00  0.00    -0.060 I 
ATOM     10  F2  UNL d   1       2.729  -3.216  -0.640  0.00  0.00    -0.096 F 
ATOM     11  F3  UNL d   1       4.632  -1.474  -1.462  0.00  0.00    -0.097 F 
ATOM     12  F4  UNL d   1       5.985  -1.907  -3.791  0.00  0.00    -0.092 F 
ENDROOT
TORSDOF 0
ENDMDL
