MODEL 1
REMARK minimizedAffinity 12.3892984
REMARK minimizedRMSD -1
REMARK  0 active torsions:
REMARK  status: ('A' for Active; 'I' for Inactive)
ROOT
ATOM      1  C   UNL d   1       1.013   3.063   2.243  0.00  0.00     0.124 A 
ATOM      2  C1  UNL d   1       2.016   3.997   2.023  0.00  0.00     0.062 A 
ATOM      3  C2  UNL d   1       1.959   4.837   0.914  0.00  0.00     0.162 A 
ATOM      4  C3  UNL d   1       0.894   4.747   0.017  0.00  0.00    -0.034 A 
ATOM      5  C4  UNL d   1      -0.110   3.804   0.245  0.00  0.00     0.162 A 
ATOM      6  C5  UNL d   1      -0.048   2.967   1.354  0.00  0.00     0.062 A 
ATOM      7  F   UNL d   1      -1.018   2.065   1.566  0.00  0.00    -0.097 F 
ATOM      8  F1  UNL d   1      -1.147   3.691  -0.598  0.00  0.00    -0.096 F 
ATOM      9  I   UNL d   1       0.806   6.000  -1.642  0.00  0.00    -0.060 I 
ATOM     10  F2  UNL d   1       2.942   5.730   0.726  0.00  0.00    -0.096 F 
ATOM     11  F3  UNL d   1       3.043   4.091   2.880  0.00  0.00    -0.097 F 
ATOM     12  F4  UNL d   1       1.071   2.256   3.310  0.00  0.00    -0.092 F 
ENDROOT
TORSDOF 0
ENDMDL
