MODEL 1
REMARK minimizedAffinity 25.0551777
REMARK minimizedRMSD -1
REMARK  0 active torsions:
REMARK  status: ('A' for Active; 'I' for Inactive)
ROOT
ATOM      1  C   UNL d   1       1.259   5.037   0.027  0.00  0.00     0.124 A 
ATOM      2  C1  UNL d   1       2.283   4.731   0.911  0.00  0.00     0.062 A 
ATOM      3  C2  UNL d   1       2.105   3.742   1.874  0.00  0.00     0.162 A 
ATOM      4  C3  UNL d   1       0.896   3.050   1.957  0.00  0.00    -0.034 A 
ATOM      5  C4  UNL d   1      -0.130   3.364   1.064  0.00  0.00     0.162 A 
ATOM      6  C5  UNL d   1       0.053   4.354   0.104  0.00  0.00     0.062 A 
ATOM      7  F   UNL d   1      -0.938   4.648  -0.750  0.00  0.00    -0.097 F 
ATOM      8  F1  UNL d   1      -1.305   2.719   1.116  0.00  0.00    -0.096 F 
ATOM      9  I   UNL d   1       0.625   1.570   3.395  0.00  0.00    -0.060 I 
ATOM     10  F2  UNL d   1       3.112   3.467   2.716  0.00  0.00    -0.096 F 
ATOM     11  F3  UNL d   1       3.449   5.390   0.840  0.00  0.00    -0.097 F 
ATOM     12  F4  UNL d   1       1.433   5.990  -0.898  0.00  0.00    -0.092 F 
ENDROOT
TORSDOF 0
ENDMDL
