MODEL 1
REMARK minimizedAffinity 19.782196
REMARK minimizedRMSD -1
REMARK  0 active torsions:
REMARK  status: ('A' for Active; 'I' for Inactive)
ROOT
ATOM      1  C   UNL d   1       5.297  -2.094  -0.916  0.00  0.00     0.124 A 
ATOM      2  C1  UNL d   1       4.749  -3.291  -0.475  0.00  0.00     0.062 A 
ATOM      3  C2  UNL d   1       4.375  -4.269  -1.391  0.00  0.00     0.162 A 
ATOM      4  C3  UNL d   1       4.548  -4.056  -2.759  0.00  0.00    -0.034 A 
ATOM      5  C4  UNL d   1       5.098  -2.849  -3.195  0.00  0.00     0.162 A 
ATOM      6  C5  UNL d   1       5.471  -1.875  -2.275  0.00  0.00     0.062 A 
ATOM      7  F   UNL d   1       6.000  -0.719  -2.704  0.00  0.00    -0.097 F 
ATOM      8  F1  UNL d   1       5.278  -2.611  -4.503  0.00  0.00    -0.096 F 
ATOM      9  I   UNL d   1       3.989  -5.516  -4.132  0.00  0.00    -0.060 I 
ATOM     10  F2  UNL d   1       3.848  -5.416  -0.937  0.00  0.00    -0.096 F 
ATOM     11  F3  UNL d   1       4.579  -3.505   0.838  0.00  0.00    -0.097 F 
ATOM     12  F4  UNL d   1       5.656  -1.154  -0.032  0.00  0.00    -0.092 F 
ENDROOT
TORSDOF 0
ENDMDL
