MODEL 1
REMARK minimizedAffinity 21.511179
REMARK minimizedRMSD -1
REMARK  0 active torsions:
REMARK  status: ('A' for Active; 'I' for Inactive)
ROOT
ATOM      1  C   UNL d   1      -3.278   0.860   3.401  0.00  0.00     0.124 A 
ATOM      2  C1  UNL d   1      -2.095   1.578   3.514  0.00  0.00     0.062 A 
ATOM      3  C2  UNL d   1      -0.963   0.982   4.061  0.00  0.00     0.162 A 
ATOM      4  C3  UNL d   1      -1.008  -0.342   4.500  0.00  0.00    -0.034 A 
ATOM      5  C4  UNL d   1      -2.201  -1.057   4.385  0.00  0.00     0.162 A 
ATOM      6  C5  UNL d   1      -3.329  -0.456   3.837  0.00  0.00     0.062 A 
ATOM      7  F   UNL d   1      -4.471  -1.151   3.729  0.00  0.00    -0.097 F 
ATOM      8  F1  UNL d   1      -2.279  -2.331   4.797  0.00  0.00    -0.096 F 
ATOM      9  I   UNL d   1       0.683  -1.238   5.319  0.00  0.00    -0.060 I 
ATOM     10  F2  UNL d   1       0.166   1.699   4.158  0.00  0.00    -0.096 F 
ATOM     11  F3  UNL d   1      -2.043   2.851   3.095  0.00  0.00    -0.097 F 
ATOM     12  F4  UNL d   1      -4.365   1.438   2.875  0.00  0.00    -0.092 F 
ENDROOT
TORSDOF 0
ENDMDL
