MODEL 1
REMARK minimizedAffinity 14.7231007
REMARK minimizedRMSD -1
REMARK  0 active torsions:
REMARK  status: ('A' for Active; 'I' for Inactive)
ROOT
ATOM      1  C   UNL d   1      -0.525   4.969   0.492  0.00  0.00     0.124 A 
ATOM      2  C1  UNL d   1      -1.069   4.968   1.769  0.00  0.00     0.062 A 
ATOM      3  C2  UNL d   1      -0.836   3.898   2.628  0.00  0.00     0.162 A 
ATOM      4  C3  UNL d   1      -0.053   2.820   2.214  0.00  0.00    -0.034 A 
ATOM      5  C4  UNL d   1       0.490   2.829   0.928  0.00  0.00     0.162 A 
ATOM      6  C5  UNL d   1       0.254   3.900   0.073  0.00  0.00     0.062 A 
ATOM      7  F   UNL d   1       0.781   3.900  -1.160  0.00  0.00    -0.097 F 
ATOM      8  F1  UNL d   1       1.248   1.809   0.497  0.00  0.00    -0.096 F 
ATOM      9  I   UNL d   1       0.299   1.218   3.495  0.00  0.00    -0.060 I 
ATOM     10  F2  UNL d   1      -1.374   3.923   3.857  0.00  0.00    -0.096 F 
ATOM     11  F3  UNL d   1      -1.823   5.999   2.177  0.00  0.00    -0.097 F 
ATOM     12  F4  UNL d   1      -0.752   6.000  -0.332  0.00  0.00    -0.092 F 
ENDROOT
TORSDOF 0
ENDMDL
