MODEL 1
REMARK minimizedAffinity -2.8059392
REMARK minimizedRMSD -1
REMARK  0 active torsions:
REMARK  status: ('A' for Active; 'I' for Inactive)
ROOT
ATOM      1  C2' OXE d   1       1.855  -1.692   0.411  0.00  0.00     0.078 C 
ATOM      2  C1' OXE d   1      -0.707  -2.483   1.242  0.00  0.00     0.078 C 
ATOM      3  C1  OXE d   1      -0.544  -1.085   0.700  0.00  0.00    -0.078 A 
ATOM      4  C2  OXE d   1       0.722  -0.691   0.339  0.00  0.00    -0.078 A 
ATOM      5  C3  OXE d   1       0.919   0.569  -0.219  0.00  0.00     0.003 A 
ATOM      6  C4  OXE d   1      -0.132   1.493  -0.272  0.00  0.00    -0.002 A 
ATOM      7  C5  OXE d   1      -1.421   1.125   0.127  0.00  0.00    -0.002 A 
ATOM      8  C6  OXE d   1      -1.652  -0.171   0.574  0.00  0.00     0.003 A 
ENDROOT
TORSDOF 0
ENDMDL
