MODEL 1
REMARK minimizedAffinity -3.683532
REMARK minimizedRMSD -1
REMARK  0 active torsions:
REMARK  status: ('A' for Active; 'I' for Inactive)
ROOT
ATOM      1  C2' OXE d   1       1.636  -2.235   0.172  0.00  0.00     0.078 C 
ATOM      2  C1' OXE d   1      -1.039  -2.671   0.903  0.00  0.00     0.078 C 
ATOM      3  C1  OXE d   1      -0.611  -1.254   0.616  0.00  0.00    -0.078 A 
ATOM      4  C2  OXE d   1       0.711  -1.044   0.304  0.00  0.00    -0.078 A 
ATOM      5  C3  OXE d   1       1.147   0.237  -0.024  0.00  0.00     0.003 A 
ATOM      6  C4  OXE d   1       0.287   1.334   0.111  0.00  0.00    -0.002 A 
ATOM      7  C5  OXE d   1      -1.053   1.147   0.466  0.00  0.00    -0.002 A 
ATOM      8  C6  OXE d   1      -1.527  -0.142   0.679  0.00  0.00     0.003 A 
ENDROOT
TORSDOF 0
ENDMDL
