MODEL 1
REMARK minimizedAffinity -3.08307719
REMARK minimizedRMSD -1
REMARK  0 active torsions:
REMARK  status: ('A' for Active; 'I' for Inactive)
ROOT
ATOM      1  C2' OXE d   1      -1.426  -2.503   1.003  0.00  0.00     0.078 C 
ATOM      2  C1' OXE d   1      -2.416   0.111   0.744  0.00  0.00     0.078 C 
ATOM      3  C1  OXE d   1      -0.971  -0.133   0.387  0.00  0.00    -0.078 A 
ATOM      4  C2  OXE d   1      -0.483  -1.405   0.560  0.00  0.00    -0.078 A 
ATOM      5  C3  OXE d   1       0.828  -1.697   0.194  0.00  0.00     0.003 A 
ATOM      6  C4  OXE d   1       1.697  -0.674  -0.205  0.00  0.00    -0.002 A 
ATOM      7  C5  OXE d   1       1.230   0.637  -0.350  0.00  0.00    -0.002 A 
ATOM      8  C6  OXE d   1      -0.109   0.916  -0.100  0.00  0.00     0.003 A 
ENDROOT
TORSDOF 0
ENDMDL
