MODEL 1
REMARK minimizedAffinity -4.09929848
REMARK minimizedRMSD -1
REMARK  0 active torsions:
REMARK  status: ('A' for Active; 'I' for Inactive)
ROOT
ATOM      1  C2' OXE d   1       2.102  -1.426   0.412  0.00  0.00     0.078 C 
ATOM      2  C1' OXE d   1       0.563   0.831  -0.234  0.00  0.00     0.078 C 
ATOM      3  C1  OXE d   1      -0.165  -0.415   0.205  0.00  0.00    -0.078 A 
ATOM      4  C2  OXE d   1       0.594  -1.528   0.474  0.00  0.00    -0.078 A 
ATOM      5  C3  OXE d   1      -0.024  -2.687   0.936  0.00  0.00     0.003 A 
ATOM      6  C4  OXE d   1      -1.420  -2.777   0.982  0.00  0.00    -0.002 A 
ATOM      7  C5  OXE d   1      -2.213  -1.666   0.674  0.00  0.00    -0.002 A 
ATOM      8  C6  OXE d   1      -1.601  -0.468   0.326  0.00  0.00     0.003 A 
ENDROOT
TORSDOF 0
ENDMDL
