MODEL 1
REMARK minimizedAffinity -5.38716173
REMARK minimizedRMSD -1
REMARK  0 active torsions:
REMARK  status: ('A' for Active; 'I' for Inactive)
ROOT
ATOM      1  C2' OXE d   1      -0.068   1.337  -0.264  0.00  0.00     0.078 C 
ATOM      2  C1' OXE d   1      -2.585   0.706   0.809  0.00  0.00     0.078 C 
ATOM      3  C1  OXE d   1      -1.594  -0.417   0.632  0.00  0.00    -0.078 A 
ATOM      4  C2  OXE d   1      -0.382  -0.107   0.064  0.00  0.00    -0.078 A 
ATOM      5  C3  OXE d   1       0.589  -1.095  -0.071  0.00  0.00     0.003 A 
ATOM      6  C4  OXE d   1       0.288  -2.430   0.225  0.00  0.00    -0.002 A 
ATOM      7  C5  OXE d   1      -0.954  -2.774   0.768  0.00  0.00    -0.002 A 
ATOM      8  C6  OXE d   1      -1.889  -1.775   1.017  0.00  0.00     0.003 A 
ENDROOT
TORSDOF 0
ENDMDL
