MODEL 1
REMARK minimizedAffinity -3.29087663
REMARK minimizedRMSD -1
REMARK  0 active torsions:
REMARK  status: ('A' for Active; 'I' for Inactive)
ROOT
ATOM      1  C2' OXE d   1      -1.846  -2.832   0.630  0.00  0.00     0.078 C 
ATOM      2  C1' OXE d   1      -2.617  -0.137   0.468  0.00  0.00     0.078 C 
ATOM      3  C1  OXE d   1      -1.146  -0.455   0.372  0.00  0.00    -0.078 A 
ATOM      4  C2  OXE d   1      -0.774  -1.771   0.499  0.00  0.00    -0.078 A 
ATOM      5  C3  OXE d   1       0.566  -2.125   0.364  0.00  0.00     0.003 A 
ATOM      6  C4  OXE d   1       1.552  -1.137   0.253  0.00  0.00    -0.002 A 
ATOM      7  C5  OXE d   1       1.198   0.213   0.161  0.00  0.00    -0.002 A 
ATOM      8  C6  OXE d   1      -0.147   0.567   0.176  0.00  0.00     0.003 A 
ENDROOT
TORSDOF 0
ENDMDL
