MODEL 1
REMARK minimizedAffinity -2.17058444
REMARK minimizedRMSD -1
REMARK  0 active torsions:
REMARK  status: ('A' for Active; 'I' for Inactive)
ROOT
ATOM      1  C2' OXE d   1      -0.811  -2.320   1.614  0.00  0.00     0.078 C 
ATOM      2  C1' OXE d   1       1.808  -1.669   0.843  0.00  0.00     0.078 C 
ATOM      3  C1  OXE d   1       0.721  -0.662   0.561  0.00  0.00    -0.078 A 
ATOM      4  C2  OXE d   1      -0.565  -1.009   0.899  0.00  0.00    -0.078 A 
ATOM      5  C3  OXE d   1      -1.597  -0.095   0.711  0.00  0.00     0.003 A 
ATOM      6  C4  OXE d   1      -1.363   1.112   0.040  0.00  0.00    -0.002 A 
ATOM      7  C5  OXE d   1      -0.067   1.467  -0.349  0.00  0.00    -0.002 A 
ATOM      8  C6  OXE d   1       0.991   0.612  -0.059  0.00  0.00     0.003 A 
ENDROOT
TORSDOF 0
ENDMDL
