MODEL 1
REMARK minimizedAffinity -3.06338525
REMARK minimizedRMSD -1
REMARK  0 active torsions:
REMARK  status: ('A' for Active; 'I' for Inactive)
ROOT
ATOM      1  C2' OXE d   1      -2.555   0.541   0.971  0.00  0.00     0.078 C 
ATOM      2  C1' OXE d   1      -1.415  -2.021   1.110  0.00  0.00     0.078 C 
ATOM      3  C1  OXE d   1      -0.632  -0.940   0.408  0.00  0.00    -0.078 A 
ATOM      4  C2  OXE d   1      -1.218   0.299   0.303  0.00  0.00    -0.078 A 
ATOM      5  C3  OXE d   1      -0.517   1.346  -0.287  0.00  0.00     0.003 A 
ATOM      6  C4  OXE d   1       0.715   1.111  -0.911  0.00  0.00    -0.002 A 
ATOM      7  C5  OXE d   1       1.311  -0.152  -0.851  0.00  0.00    -0.002 A 
ATOM      8  C6  OXE d   1       0.672  -1.176  -0.160  0.00  0.00     0.003 A 
ENDROOT
TORSDOF 0
ENDMDL
