MODEL 1
REMARK minimizedAffinity -4.4996891
REMARK minimizedRMSD -1
REMARK  0 active torsions:
REMARK  status: ('A' for Active; 'I' for Inactive)
ROOT
ATOM      1  C2' OXE d   1      -0.872   1.946   0.790  0.00  0.00     0.078 C 
ATOM      2  C1' OXE d   1       1.389   1.769  -0.865  0.00  0.00     0.078 C 
ATOM      3  C1  OXE d   1       0.852   0.492  -0.269  0.00  0.00    -0.078 A 
ATOM      4  C2  OXE d   1      -0.226   0.594   0.577  0.00  0.00    -0.078 A 
ATOM      5  C3  OXE d   1      -0.794  -0.560   1.111  0.00  0.00     0.003 A 
ATOM      6  C4  OXE d   1      -0.185  -1.805   0.917  0.00  0.00    -0.002 A 
ATOM      7  C5  OXE d   1       0.937  -1.926   0.091  0.00  0.00    -0.002 A 
ATOM      8  C6  OXE d   1       1.442  -0.795  -0.543  0.00  0.00     0.003 A 
ENDROOT
TORSDOF 0
ENDMDL
