MODEL 1
REMARK minimizedAffinity -1.89578176
REMARK minimizedRMSD -1
REMARK  0 active torsions:
REMARK  status: ('A' for Active; 'I' for Inactive)
ROOT
ATOM      1  C2' OXE d   1       0.558   1.347  -0.627  0.00  0.00     0.078 C 
ATOM      2  C1' OXE d   1      -1.758   0.948   0.908  0.00  0.00     0.078 C 
ATOM      3  C1  OXE d   1      -0.838  -0.230   0.703  0.00  0.00    -0.078 A 
ATOM      4  C2  OXE d   1       0.269  -0.037  -0.089  0.00  0.00    -0.078 A 
ATOM      5  C3  OXE d   1       1.179  -1.076  -0.266  0.00  0.00     0.003 A 
ATOM      6  C4  OXE d   1       0.898  -2.356   0.227  0.00  0.00    -0.002 A 
ATOM      7  C5  OXE d   1      -0.244  -2.584   1.003  0.00  0.00    -0.002 A 
ATOM      8  C6  OXE d   1      -1.098  -1.524   1.285  0.00  0.00     0.003 A 
ENDROOT
TORSDOF 0
ENDMDL
