MODEL 1
REMARK minimizedAffinity -4.7495966
REMARK minimizedRMSD -1
REMARK  0 active torsions:
REMARK  status: ('A' for Active; 'I' for Inactive)
ROOT
ATOM      1  C2' OXE d   1       1.219  -1.179  -0.081  0.00  0.00     0.078 C 
ATOM      2  C1' OXE d   1      -1.329  -2.027   0.735  0.00  0.00     0.078 C 
ATOM      3  C1  OXE d   1      -1.111  -0.548   0.534  0.00  0.00    -0.078 A 
ATOM      4  C2  OXE d   1       0.152  -0.138   0.180  0.00  0.00    -0.078 A 
ATOM      5  C3  OXE d   1       0.394   1.210  -0.072  0.00  0.00     0.003 A 
ATOM      6  C4  OXE d   1      -0.596   2.167   0.181  0.00  0.00    -0.002 A 
ATOM      7  C5  OXE d   1      -1.878   1.774   0.580  0.00  0.00    -0.002 A 
ATOM      8  C6  OXE d   1      -2.163   0.420   0.720  0.00  0.00     0.003 A 
ENDROOT
TORSDOF 0
ENDMDL
