MODEL 1
REMARK minimizedAffinity -2.03777361
REMARK minimizedRMSD -1
REMARK  0 active torsions:
REMARK  status: ('A' for Active; 'I' for Inactive)
ROOT
ATOM      1  C2' OXE d   1       0.362   1.448  -1.375  0.00  0.00     0.078 C 
ATOM      2  C1' OXE d   1      -1.323   1.668   0.860  0.00  0.00     0.078 C 
ATOM      3  C1  OXE d   1      -0.762   0.307   0.534  0.00  0.00    -0.078 A 
ATOM      4  C2  OXE d   1       0.024   0.199  -0.589  0.00  0.00    -0.078 A 
ATOM      5  C3  OXE d   1       0.612  -1.022  -0.904  0.00  0.00     0.003 A 
ATOM      6  C4  OXE d   1       0.287  -2.174  -0.178  0.00  0.00    -0.002 A 
ATOM      7  C5  OXE d   1      -0.543  -2.094   0.945  0.00  0.00    -0.002 A 
ATOM      8  C6  OXE d   1      -1.040  -0.857   1.339  0.00  0.00     0.003 A 
ENDROOT
TORSDOF 0
ENDMDL
