MODEL 1
REMARK minimizedAffinity -3.37710142
REMARK minimizedRMSD -1
REMARK  0 active torsions:
REMARK  status: ('A' for Active; 'I' for Inactive)
ROOT
ATOM      1  C2' OXE d   1       0.460  -2.364   2.232  0.00  0.00     0.078 C 
ATOM      2  C1' OXE d   1       1.135  -0.122   0.683  0.00  0.00     0.078 C 
ATOM      3  C1  OXE d   1      -0.231  -0.730   0.484  0.00  0.00    -0.078 A 
ATOM      4  C2  OXE d   1      -0.536  -1.854   1.212  0.00  0.00    -0.078 A 
ATOM      5  C3  OXE d   1      -1.802  -2.422   1.107  0.00  0.00     0.003 A 
ATOM      6  C4  OXE d   1      -2.713  -1.951   0.154  0.00  0.00    -0.002 A 
ATOM      7  C5  OXE d   1      -2.408  -0.831  -0.627  0.00  0.00    -0.002 A 
ATOM      8  C6  OXE d   1      -1.191  -0.184  -0.444  0.00  0.00     0.003 A 
ENDROOT
TORSDOF 0
ENDMDL
