MODEL 1
REMARK minimizedAffinity -4.56232929
REMARK minimizedRMSD -1
REMARK  0 active torsions:
REMARK  status: ('A' for Active; 'I' for Inactive)
ROOT
ATOM      1  C2' OXE d   1       1.097   0.953  -0.374  0.00  0.00     0.078 C 
ATOM      2  C1' OXE d   1      -1.498   1.517   0.537  0.00  0.00     0.078 C 
ATOM      3  C1  OXE d   1      -1.079   0.070   0.458  0.00  0.00    -0.078 A 
ATOM      4  C2  OXE d   1       0.176  -0.199  -0.033  0.00  0.00    -0.078 A 
ATOM      5  C3  OXE d   1       0.632  -1.513  -0.075  0.00  0.00     0.003 A 
ATOM      6  C4  OXE d   1      -0.229  -2.573   0.232  0.00  0.00    -0.002 A 
ATOM      7  C5  OXE d   1      -1.525  -2.323   0.697  0.00  0.00    -0.002 A 
ATOM      8  C6  OXE d   1      -1.950  -1.008   0.855  0.00  0.00     0.003 A 
ENDROOT
TORSDOF 0
ENDMDL
