MODEL 1
REMARK minimizedAffinity -2.37001109
REMARK minimizedRMSD -1
REMARK  0 active torsions:
REMARK  status: ('A' for Active; 'I' for Inactive)
ROOT
ATOM      1  C2' OXE d   1       0.607   0.829  -1.118  0.00  0.00     0.078 C 
ATOM      2  C1' OXE d   1       2.237  -1.206  -0.080  0.00  0.00     0.078 C 
ATOM      3  C1  OXE d   1       0.758  -1.275   0.207  0.00  0.00    -0.078 A 
ATOM      4  C2  OXE d   1      -0.026  -0.250  -0.266  0.00  0.00    -0.078 A 
ATOM      5  C3  OXE d   1      -1.404  -0.293  -0.077  0.00  0.00     0.003 A 
ATOM      6  C4  OXE d   1      -1.980  -1.289   0.721  0.00  0.00    -0.002 A 
ATOM      7  C5  OXE d   1      -1.194  -2.321   1.245  0.00  0.00    -0.002 A 
ATOM      8  C6  OXE d   1       0.167  -2.352   0.963  0.00  0.00     0.003 A 
ENDROOT
TORSDOF 0
ENDMDL
