MODEL 1
REMARK minimizedAffinity -4.82920694
REMARK minimizedRMSD -1
REMARK  0 active torsions:
REMARK  status: ('A' for Active; 'I' for Inactive)
ROOT
ATOM      1  C2' OXE d   1      -2.752   0.340   0.857  0.00  0.00     0.078 C 
ATOM      2  C1' OXE d   1      -1.975  -2.357   0.868  0.00  0.00     0.078 C 
ATOM      3  C1  OXE d   1      -0.900  -1.316   0.679  0.00  0.00    -0.078 A 
ATOM      4  C2  OXE d   1      -1.296  -0.001   0.628  0.00  0.00    -0.078 A 
ATOM      5  C3  OXE d   1      -0.338   1.002   0.511  0.00  0.00     0.003 A 
ATOM      6  C4  OXE d   1       1.006   0.677   0.290  0.00  0.00    -0.002 A 
ATOM      7  C5  OXE d   1       1.424  -0.658   0.298  0.00  0.00    -0.002 A 
ATOM      8  C6  OXE d   1       0.492  -1.662   0.534  0.00  0.00     0.003 A 
ENDROOT
TORSDOF 0
ENDMDL
