MODEL 1
REMARK minimizedAffinity -5.58394051
REMARK minimizedRMSD -1
REMARK  0 active torsions:
REMARK  status: ('A' for Active; 'I' for Inactive)
ROOT
ATOM      1  C2' OXE d   1       0.982  -1.668   0.087  0.00  0.00     0.078 C 
ATOM      2  C1' OXE d   1       0.365   1.001  -0.528  0.00  0.00     0.078 C 
ATOM      3  C1  OXE d   1      -0.576   0.254   0.383  0.00  0.00    -0.078 A 
ATOM      4  C2  OXE d   1      -0.292  -1.066   0.642  0.00  0.00    -0.078 A 
ATOM      5  C3  OXE d   1      -1.097  -1.786   1.520  0.00  0.00     0.003 A 
ATOM      6  C4  OXE d   1      -2.278  -1.225   2.020  0.00  0.00    -0.002 A 
ATOM      7  C5  OXE d   1      -2.608   0.105   1.738  0.00  0.00    -0.002 A 
ATOM      8  C6  OXE d   1      -1.747   0.869   0.957  0.00  0.00     0.003 A 
ENDROOT
TORSDOF 0
ENDMDL
