MODEL 1
REMARK minimizedAffinity -4.60225439
REMARK minimizedRMSD -1
REMARK  0 active torsions:
REMARK  status: ('A' for Active; 'I' for Inactive)
ROOT
ATOM      1  C2' OXE d   1      -5.971  -1.171  -5.420  0.00  0.00     0.078 C 
ATOM      2  C1' OXE d   1      -6.000  -2.317  -2.857  0.00  0.00     0.078 C 
ATOM      3  C1  OXE d   1      -4.935  -2.777  -3.822  0.00  0.00    -0.078 A 
ATOM      4  C2  OXE d   1      -4.957  -2.245  -5.089  0.00  0.00    -0.078 A 
ATOM      5  C3  OXE d   1      -3.965  -2.594  -6.000  0.00  0.00     0.003 A 
ATOM      6  C4  OXE d   1      -3.037  -3.595  -5.689  0.00  0.00    -0.002 A 
ATOM      7  C5  OXE d   1      -3.022  -4.178  -4.417  0.00  0.00    -0.002 A 
ATOM      8  C6  OXE d   1      -3.935  -3.751  -3.460  0.00  0.00     0.003 A 
ENDROOT
TORSDOF 0
ENDMDL
