MODEL 1
REMARK minimizedAffinity -6.15680981
REMARK minimizedRMSD -1
REMARK  1 active torsions:
REMARK  status: ('A' for Active; 'I' for Inactive)
REMARK    1  A    between atoms: C1_2  and  C2_3 
ROOT
ATOM      1  C2  UNL d   1       0.236   0.052   0.127  0.00  0.00    -0.077 A 
ATOM      2  C3  UNL d   1       1.024   0.861   0.957  0.00  0.00     0.002 A 
ATOM      3  C4  UNL d   1       0.455   1.520   2.048  0.00  0.00     0.002 A 
ATOM      4  C5  UNL d   1      -0.903   1.374   2.322  0.00  0.00    -0.004 A 
ATOM      5  C6  UNL d   1      -1.696   0.574   1.501  0.00  0.00     0.002 A 
ATOM      6  C7  UNL d   1      -1.130  -0.086   0.409  0.00  0.00     0.002 A 
ENDROOT
BRANCH   1   7
ATOM      7  C1  UNL d   1       0.857  -0.700  -1.021  0.00  0.00     0.055 C 
ATOM      8  C   UNL d   1       0.997   0.185  -2.251  0.00  0.00     0.019 C 
ENDBRANCH   1   7
TORSDOF 1
ENDMDL
