MODEL 1
REMARK minimizedAffinity -4.03258705
REMARK minimizedRMSD -1
REMARK  1 active torsions:
REMARK  status: ('A' for Active; 'I' for Inactive)
REMARK    1  A    between atoms: C1_2  and  C2_3 
ROOT
ATOM      1  C2  UNL d   1       0.207  -0.394  -0.407  0.00  0.00    -0.077 A 
ATOM      2  C3  UNL d   1       1.069   0.088   0.587  0.00  0.00     0.002 A 
ATOM      3  C4  UNL d   1       0.559   0.754   1.703  0.00  0.00     0.002 A 
ATOM      4  C5  UNL d   1      -0.816   0.940   1.837  0.00  0.00    -0.004 A 
ATOM      5  C6  UNL d   1      -1.682   0.467   0.852  0.00  0.00     0.002 A 
ATOM      6  C7  UNL d   1      -1.173  -0.198  -0.264  0.00  0.00     0.002 A 
ENDROOT
BRANCH   1   7
ATOM      7  C1  UNL d   1       0.751  -1.156  -1.587  0.00  0.00     0.055 C 
ATOM      8  C   UNL d   1       1.232  -0.213  -2.681  0.00  0.00     0.019 C 
ENDBRANCH   1   7
TORSDOF 1
ENDMDL
