MODEL 1
REMARK minimizedAffinity -2.36200261
REMARK minimizedRMSD -1
REMARK  1 active torsions:
REMARK  status: ('A' for Active; 'I' for Inactive)
REMARK    1  A    between atoms: C1_2  and  C2_3 
ROOT
ATOM      1  C2  UNL d   1      -0.020  -0.095  -0.553  0.00  0.00    -0.077 A 
ATOM      2  C3  UNL d   1      -1.304   0.293  -0.146  0.00  0.00     0.002 A 
ATOM      3  C4  UNL d   1      -1.504   0.860   1.114  0.00  0.00     0.002 A 
ATOM      4  C5  UNL d   1      -0.425   1.047   1.975  0.00  0.00    -0.004 A 
ATOM      5  C6  UNL d   1       0.856   0.662   1.581  0.00  0.00     0.002 A 
ATOM      6  C7  UNL d   1       1.058   0.094   0.322  0.00  0.00     0.002 A 
ENDROOT
BRANCH   1   7
ATOM      7  C1  UNL d   1       0.206  -0.661  -1.931  0.00  0.00     0.055 C 
ATOM      8  C   UNL d   1       0.761   0.393  -2.878  0.00  0.00     0.019 C 
ENDBRANCH   1   7
TORSDOF 1
ENDMDL
