MODEL 1
REMARK minimizedAffinity -4.5420022
REMARK minimizedRMSD -1
REMARK  1 active torsions:
REMARK  status: ('A' for Active; 'I' for Inactive)
REMARK    1  A    between atoms: C1_2  and  C2_3 
ROOT
ATOM      1  C2  UNL d   1       0.033  -0.196  -0.058  0.00  0.00    -0.077 A 
ATOM      2  C3  UNL d   1      -1.327   0.105   0.097  0.00  0.00     0.002 A 
ATOM      3  C4  UNL d   1      -1.761   0.880   1.174  0.00  0.00     0.002 A 
ATOM      4  C5  UNL d   1      -0.841   1.364   2.102  0.00  0.00    -0.004 A 
ATOM      5  C6  UNL d   1       0.514   1.069   1.958  0.00  0.00     0.002 A 
ATOM      6  C7  UNL d   1       0.949   0.293   0.882  0.00  0.00     0.002 A 
ENDROOT
BRANCH   1   7
ATOM      7  C1  UNL d   1       0.509  -0.990  -1.246  0.00  0.00     0.055 C 
ATOM      8  C   UNL d   1       1.012  -0.079  -2.356  0.00  0.00     0.019 C 
ENDBRANCH   1   7
TORSDOF 1
ENDMDL
