MODEL 1
REMARK minimizedAffinity -0.858133674
REMARK minimizedRMSD -1
REMARK  0 active torsions:
REMARK  status: ('A' for Active; 'I' for Inactive)
ROOT
ATOM      1  C   UNL d   1       4.493  -1.895  -1.122  0.00  0.00     0.077 C 
ATOM      2  C1  UNL d   1       4.440  -3.326  -1.568  0.00  0.00    -0.074 A 
ATOM      3  C2  UNL d   1       5.469  -4.217  -1.249  0.00  0.00    -0.005 A 
ATOM      4  C3  UNL d   1       5.402  -5.548  -1.663  0.00  0.00     0.006 A 
ATOM      5  C4  UNL d   1       4.306  -6.000  -2.398  0.00  0.00    -0.005 A 
ATOM      6  C5  UNL d   1       3.266  -5.124  -2.726  0.00  0.00    -0.074 A 
ATOM      7  C6  UNL d   1       2.076  -5.596  -3.508  0.00  0.00     0.077 C 
ATOM      8  C7  UNL d   1       3.338  -3.790  -2.301  0.00  0.00    -0.001 A 
ENDROOT
TORSDOF 0
ENDMDL
