MODEL 1
REMARK minimizedAffinity 0.980627298
REMARK minimizedRMSD -1
REMARK  0 active torsions:
REMARK  status: ('A' for Active; 'I' for Inactive)
ROOT
ATOM      1  C   UNL d   1       4.884  -6.000  -1.583  0.00  0.00     0.077 C 
ATOM      2  C1  UNL d   1       4.562  -4.547  -1.768  0.00  0.00    -0.074 A 
ATOM      3  C2  UNL d   1       4.169  -4.051  -3.016  0.00  0.00    -0.005 A 
ATOM      4  C3  UNL d   1       3.863  -2.699  -3.170  0.00  0.00     0.006 A 
ATOM      5  C4  UNL d   1       3.947  -1.831  -2.081  0.00  0.00    -0.005 A 
ATOM      6  C5  UNL d   1       4.338  -2.308  -0.826  0.00  0.00    -0.074 A 
ATOM      7  C6  UNL d   1       4.424  -1.391   0.357  0.00  0.00     0.077 C 
ATOM      8  C7  UNL d   1       4.637  -3.670  -0.677  0.00  0.00    -0.001 A 
ENDROOT
TORSDOF 0
ENDMDL
