MODEL 1
REMARK minimizedAffinity -0.787603557
REMARK minimizedRMSD -1
REMARK  0 active torsions:
REMARK  status: ('A' for Active; 'I' for Inactive)
ROOT
ATOM      1  C   UNL d   1       3.272  -4.530  -4.379  0.00  0.00     0.077 C 
ATOM      2  C1  UNL d   1       3.803  -3.968  -3.093  0.00  0.00    -0.074 A 
ATOM      3  C2  UNL d   1       3.521  -2.652  -2.713  0.00  0.00    -0.005 A 
ATOM      4  C3  UNL d   1       4.013  -2.147  -1.510  0.00  0.00     0.006 A 
ATOM      5  C4  UNL d   1       4.791  -2.951  -0.676  0.00  0.00    -0.005 A 
ATOM      6  C5  UNL d   1       5.083  -4.270  -1.039  0.00  0.00    -0.074 A 
ATOM      7  C6  UNL d   1       5.909  -5.150  -0.150  0.00  0.00     0.077 C 
ATOM      8  C7  UNL d   1       4.578  -4.772  -2.246  0.00  0.00    -0.001 A 
ENDROOT
TORSDOF 0
ENDMDL
