MODEL 1
REMARK minimizedAffinity 2.33436418
REMARK minimizedRMSD -1
REMARK  0 active torsions:
REMARK  status: ('A' for Active; 'I' for Inactive)
ROOT
ATOM      1  C   UNL d   1       3.777  -1.479  -3.379  0.00  0.00     0.077 C 
ATOM      2  C1  UNL d   1       3.809  -2.441  -2.229  0.00  0.00    -0.074 A 
ATOM      3  C2  UNL d   1       4.780  -2.333  -1.228  0.00  0.00    -0.005 A 
ATOM      4  C3  UNL d   1       4.792  -3.230  -0.160  0.00  0.00     0.006 A 
ATOM      5  C4  UNL d   1       3.834  -4.242  -0.082  0.00  0.00    -0.005 A 
ATOM      6  C5  UNL d   1       2.855  -4.365  -1.073  0.00  0.00    -0.074 A 
ATOM      7  C6  UNL d   1       1.812  -5.440  -0.998  0.00  0.00     0.077 C 
ATOM      8  C7  UNL d   1       2.846  -3.455  -2.139  0.00  0.00    -0.001 A 
ENDROOT
TORSDOF 0
ENDMDL
