MODEL 1
REMARK minimizedAffinity 4.42188168
REMARK minimizedRMSD -1
REMARK  0 active torsions:
REMARK  status: ('A' for Active; 'I' for Inactive)
ROOT
ATOM      1  C   UNL d   1       1.404  -5.444  -0.707  0.00  0.00     0.077 C 
ATOM      2  C1  UNL d   1       2.524  -4.450  -0.780  0.00  0.00    -0.074 A 
ATOM      3  C2  UNL d   1       3.088  -3.916   0.382  0.00  0.00    -0.005 A 
ATOM      4  C3  UNL d   1       4.136  -2.999   0.299  0.00  0.00     0.006 A 
ATOM      5  C4  UNL d   1       4.630  -2.608  -0.946  0.00  0.00    -0.005 A 
ATOM      6  C5  UNL d   1       4.079  -3.133  -2.120  0.00  0.00    -0.074 A 
ATOM      7  C6  UNL d   1       4.605  -2.731  -3.466  0.00  0.00     0.077 C 
ATOM      8  C7  UNL d   1       3.031  -4.058  -2.027  0.00  0.00    -0.001 A 
ENDROOT
TORSDOF 0
ENDMDL
