MODEL 1
REMARK minimizedAffinity 2.89837027
REMARK minimizedRMSD -1
REMARK  0 active torsions:
REMARK  status: ('A' for Active; 'I' for Inactive)
ROOT
ATOM      1  C   UNL d   1       4.975  -2.292  -0.719  0.00  0.00     0.077 C 
ATOM      2  C1  UNL d   1       4.287  -3.456  -1.368  0.00  0.00    -0.074 A 
ATOM      3  C2  UNL d   1       4.717  -3.948  -2.604  0.00  0.00    -0.005 A 
ATOM      4  C3  UNL d   1       4.073  -5.038  -3.191  0.00  0.00     0.006 A 
ATOM      5  C4  UNL d   1       2.994  -5.645  -2.548  0.00  0.00    -0.005 A 
ATOM      6  C5  UNL d   1       2.550  -5.168  -1.311  0.00  0.00    -0.074 A 
ATOM      7  C6  UNL d   1       1.398  -5.815  -0.602  0.00  0.00     0.077 C 
ATOM      8  C7  UNL d   1       3.207  -4.077  -0.725  0.00  0.00    -0.001 A 
ENDROOT
TORSDOF 0
ENDMDL
