MODEL 1
REMARK minimizedAffinity 3.14958739
REMARK minimizedRMSD -1
REMARK  0 active torsions:
REMARK  status: ('A' for Active; 'I' for Inactive)
ROOT
ATOM      1  C   UNL d   1       0.962   4.869  -1.092  0.00  0.00     0.077 C 
ATOM      2  C1  UNL d   1       0.308   3.621  -0.576  0.00  0.00    -0.074 A 
ATOM      3  C2  UNL d   1      -0.209   2.665  -1.456  0.00  0.00    -0.005 A 
ATOM      4  C3  UNL d   1      -0.806   1.505  -0.961  0.00  0.00     0.006 A 
ATOM      5  C4  UNL d   1      -0.890   1.290   0.415  0.00  0.00    -0.005 A 
ATOM      6  C5  UNL d   1      -0.377   2.235   1.309  0.00  0.00    -0.074 A 
ATOM      7  C6  UNL d   1      -0.451   2.015   2.791  0.00  0.00     0.077 C 
ATOM      8  C7  UNL d   1       0.226   3.394   0.805  0.00  0.00    -0.001 A 
ENDROOT
TORSDOF 0
ENDMDL
