MODEL 1
REMARK minimizedAffinity -1.16121542
REMARK minimizedRMSD -1
REMARK  1 active torsions:
REMARK  status: ('A' for Active; 'I' for Inactive)
REMARK    1  A    between atoms: N_2  and  C1_3 
ROOT
ATOM      1  C1  UNL d   1       0.137  -0.244  -0.383  0.00  0.00     0.143 A 
ATOM      2  C2  UNL d   1       0.834   0.969  -0.412  0.00  0.00    -0.057 A 
ATOM      3  C3  UNL d   1       2.227   1.003  -0.540  0.00  0.00     0.033 A 
ATOM      4  C4  UNL d   1       2.955  -0.181  -0.612  0.00  0.00    -0.042 A 
ATOM      5  C5  UNL d   1       2.286  -1.398  -0.560  0.00  0.00     0.033 A 
ATOM      6  C6  UNL d   1       0.893  -1.426  -0.439  0.00  0.00    -0.057 A 
ENDROOT
BRANCH   1   7
ATOM      7  N   UNL d   1      -1.238  -0.347  -0.159  0.00  0.00    -0.732 N 
ATOM      8  C   UNL d   1      -2.010   0.814   0.229  0.00  0.00     0.284 C 
ATOM      9  H3  UNL d   1      -1.699  -0.944  -0.841  0.00  0.00     0.395 HD
ENDBRANCH   1   7
TORSDOF 1
ENDMDL
