MODEL 1
REMARK minimizedAffinity -3.46585226
REMARK minimizedRMSD -1
REMARK  1 active torsions:
REMARK  status: ('A' for Active; 'I' for Inactive)
REMARK    1  A    between atoms: N_2  and  C1_3 
ROOT
ATOM      1  C1  UNL d   1       0.301  -0.067  -0.166  0.00  0.00     0.143 A 
ATOM      2  C2  UNL d   1       0.785   0.282   1.099  0.00  0.00    -0.057 A 
ATOM      3  C3  UNL d   1       1.975  -0.263   1.597  0.00  0.00     0.033 A 
ATOM      4  C4  UNL d   1       2.688  -1.193   0.847  0.00  0.00    -0.042 A 
ATOM      5  C5  UNL d   1       2.212  -1.573  -0.403  0.00  0.00     0.033 A 
ATOM      6  C6  UNL d   1       1.027  -1.020  -0.897  0.00  0.00    -0.057 A 
ENDROOT
BRANCH   1   7
ATOM      7  N   UNL d   1      -0.926   0.366  -0.676  0.00  0.00    -0.732 N 
ATOM      8  C   UNL d   1      -1.836   1.134   0.146  0.00  0.00     0.284 C 
ATOM      9  H3  UNL d   1      -0.853   0.696  -1.635  0.00  0.00     0.395 HD
ENDBRANCH   1   7
TORSDOF 1
ENDMDL
