MODEL 1
REMARK minimizedAffinity -3.29817128
REMARK minimizedRMSD -1
REMARK  1 active torsions:
REMARK  status: ('A' for Active; 'I' for Inactive)
REMARK    1  A    between atoms: N_2  and  C1_3 
ROOT
ATOM      1  C1  UNL d   1       0.903   0.377   0.170  0.00  0.00     0.143 A 
ATOM      2  C2  UNL d   1       1.624  -0.818   0.260  0.00  0.00    -0.057 A 
ATOM      3  C3  UNL d   1       3.012  -0.816   0.444  0.00  0.00     0.033 A 
ATOM      4  C4  UNL d   1       3.709   0.386   0.511  0.00  0.00    -0.042 A 
ATOM      5  C5  UNL d   1       3.016   1.586   0.399  0.00  0.00     0.033 A 
ATOM      6  C6  UNL d   1       1.629   1.577   0.222  0.00  0.00    -0.057 A 
ENDROOT
BRANCH   1   7
ATOM      7  N   UNL d   1      -0.464   0.441  -0.111  0.00  0.00    -0.732 N 
ATOM      8  C   UNL d   1      -0.987  -0.090  -1.352  0.00  0.00     0.284 C 
ATOM      9  H3  UNL d   1      -1.038   0.236   0.703  0.00  0.00     0.395 HD
ENDBRANCH   1   7
TORSDOF 1
ENDMDL
