MODEL 1
REMARK minimizedAffinity -4.48565483
REMARK minimizedRMSD -1
REMARK  1 active torsions:
REMARK  status: ('A' for Active; 'I' for Inactive)
REMARK    1  A    between atoms: N_2  and  C1_3 
ROOT
ATOM      1  C1  UNL d   1      -0.229  -0.031  -0.160  0.00  0.00     0.143 A 
ATOM      2  C2  UNL d   1       0.072  -1.245  -0.787  0.00  0.00    -0.057 A 
ATOM      3  C3  UNL d   1       1.315  -1.865  -0.611  0.00  0.00     0.033 A 
ATOM      4  C4  UNL d   1       2.293  -1.264   0.175  0.00  0.00    -0.042 A 
ATOM      5  C5  UNL d   1       2.025  -0.045   0.787  0.00  0.00     0.033 A 
ATOM      6  C6  UNL d   1       0.779   0.565   0.613  0.00  0.00    -0.057 A 
ENDROOT
BRANCH   1   7
ATOM      7  N   UNL d   1      -1.411   0.683  -0.374  0.00  0.00    -0.732 N 
ATOM      8  C   UNL d   1      -2.395   0.812   0.678  0.00  0.00     0.284 C 
ATOM      9  H3  UNL d   1      -1.257   1.536  -0.907  0.00  0.00     0.395 HD
ENDBRANCH   1   7
TORSDOF 1
ENDMDL
