MODEL 1
REMARK minimizedAffinity -3.03567672
REMARK minimizedRMSD -1
REMARK  1 active torsions:
REMARK  status: ('A' for Active; 'I' for Inactive)
REMARK    1  A    between atoms: N_2  and  C1_3 
ROOT
ATOM      1  C1  UNL d   1       1.720  -0.489   0.204  0.00  0.00     0.143 A 
ATOM      2  C2  UNL d   1       3.099  -0.728   0.200  0.00  0.00    -0.057 A 
ATOM      3  C3  UNL d   1       4.016   0.311   0.400  0.00  0.00     0.033 A 
ATOM      4  C4  UNL d   1       3.570   1.616   0.580  0.00  0.00    -0.042 A 
ATOM      5  C5  UNL d   1       2.205   1.880   0.563  0.00  0.00     0.033 A 
ATOM      6  C6  UNL d   1       1.294   0.838   0.369  0.00  0.00    -0.057 A 
ENDROOT
BRANCH   1   7
ATOM      7  N   UNL d   1       0.761  -1.463  -0.087  0.00  0.00    -0.732 N 
ATOM      8  C   UNL d   1      -0.340  -1.169  -0.978  0.00  0.00     0.284 C 
ATOM      9  H3  UNL d   1       1.172  -2.384  -0.223  0.00  0.00     0.395 HD
ENDBRANCH   1   7
TORSDOF 1
ENDMDL
