MODEL 1
REMARK minimizedAffinity -2.53446651
REMARK minimizedRMSD -1
REMARK  1 active torsions:
REMARK  status: ('A' for Active; 'I' for Inactive)
REMARK    1  A    between atoms: N_2  and  C1_3 
ROOT
ATOM      1  C1  UNL d   1       1.457   0.600  -0.061  0.00  0.00     0.143 A 
ATOM      2  C2  UNL d   1       0.109   0.468  -0.413  0.00  0.00    -0.057 A 
ATOM      3  C3  UNL d   1      -0.477  -0.792  -0.582  0.00  0.00     0.033 A 
ATOM      4  C4  UNL d   1       0.284  -1.946  -0.430  0.00  0.00    -0.042 A 
ATOM      5  C5  UNL d   1       1.632  -1.839  -0.105  0.00  0.00     0.033 A 
ATOM      6  C6  UNL d   1       2.210  -0.578   0.069  0.00  0.00    -0.057 A 
ENDROOT
BRANCH   1   7
ATOM      7  N   UNL d   1       2.122   1.825   0.026  0.00  0.00    -0.732 N 
ATOM      8  C   UNL d   1       3.568   1.882   0.013  0.00  0.00     0.284 C 
ATOM      9  H3  UNL d   1       1.672   2.551  -0.528  0.00  0.00     0.395 HD
ENDBRANCH   1   7
TORSDOF 1
ENDMDL
