MODEL 1
REMARK minimizedAffinity 7.37397146
REMARK minimizedRMSD -1
REMARK  0 active torsions:
REMARK  status: ('A' for Active; 'I' for Inactive)
ROOT
ATOM      1  C1  DEN d   1       1.034   5.966  -5.714  0.00  0.00     0.130 A 
ATOM      2  C2  DEN d   1       0.112   4.970  -5.175  0.00  0.00    -0.031 A 
ATOM      3  C3  DEN d   1       0.907   3.811  -4.722  0.00  0.00     0.027 A 
ATOM      4  C4  DEN d   1       3.462   3.466  -4.799  0.00  0.00     0.027 A 
ATOM      5  C5  DEN d   1       4.660   4.029  -5.180  0.00  0.00    -0.003 A 
ATOM      6  C6  DEN d   1       4.730   5.253  -5.791  0.00  0.00     0.001 A 
ATOM      7  C7  DEN d   1       3.584   5.974  -5.999  0.00  0.00     0.017 A 
ATOM      8  C8  DEN d   1       2.371   5.409  -5.625  0.00  0.00    -0.094 A 
ATOM      9  C9  DEN d   1       2.323   4.176  -4.997  0.00  0.00    -0.072 A 
ENDROOT
TORSDOF 0
ENDMDL
