MODEL 1
REMARK minimizedAffinity 3.28829837
REMARK minimizedRMSD -1
REMARK  0 active torsions:
REMARK  status: ('A' for Active; 'I' for Inactive)
ROOT
ATOM      1  C1  DEN d   1      -3.658   1.153   2.179  0.00  0.00     0.130 A 
ATOM      2  C2  DEN d   1      -4.865   1.308   1.373  0.00  0.00    -0.031 A 
ATOM      3  C3  DEN d   1      -5.999   1.546   2.289  0.00  0.00     0.027 A 
ATOM      4  C4  DEN d   1      -6.000   1.695   4.864  0.00  0.00     0.027 A 
ATOM      5  C5  DEN d   1      -5.215   1.617   5.993  0.00  0.00    -0.003 A 
ATOM      6  C6  DEN d   1      -3.873   1.348   5.933  0.00  0.00     0.001 A 
ATOM      7  C7  DEN d   1      -3.267   1.191   4.715  0.00  0.00     0.017 A 
ATOM      8  C8  DEN d   1      -4.053   1.260   3.572  0.00  0.00    -0.094 A 
ATOM      9  C9  DEN d   1      -5.405   1.546   3.653  0.00  0.00    -0.072 A 
ENDROOT
TORSDOF 0
ENDMDL
