MODEL 1
REMARK minimizedAffinity 16.3317261
REMARK minimizedRMSD -1
REMARK  0 active torsions:
REMARK  status: ('A' for Active; 'I' for Inactive)
ROOT
ATOM      1  C1  DEN d   1       1.187  -4.601   0.055  0.00  0.00     0.130 A 
ATOM      2  C2  DEN d   1       2.590  -5.006   0.020  0.00  0.00    -0.031 A 
ATOM      3  C3  DEN d   1       3.405  -3.871   0.499  0.00  0.00     0.027 A 
ATOM      4  C4  DEN d   1       2.634  -1.541   1.293  0.00  0.00     0.027 A 
ATOM      5  C5  DEN d   1       1.541  -0.728   1.490  0.00  0.00    -0.003 A 
ATOM      6  C6  DEN d   1       0.266  -1.133   1.194  0.00  0.00     0.001 A 
ATOM      7  C7  DEN d   1       0.049  -2.401   0.725  0.00  0.00     0.017 A 
ATOM      8  C8  DEN d   1       1.147  -3.225   0.517  0.00  0.00    -0.094 A 
ATOM      9  C9  DEN d   1       2.427  -2.802   0.834  0.00  0.00    -0.072 A 
ENDROOT
TORSDOF 0
ENDMDL
