MODEL 1
REMARK minimizedAffinity 15.2702093
REMARK minimizedRMSD -1
REMARK  0 active torsions:
REMARK  status: ('A' for Active; 'I' for Inactive)
ROOT
ATOM      1  C1  DEN d   1       3.960  -5.248   3.782  0.00  0.00     0.130 A 
ATOM      2  C2  DEN d   1       4.484  -5.998   4.920  0.00  0.00    -0.031 A 
ATOM      3  C3  DEN d   1       4.818  -5.033   5.987  0.00  0.00     0.027 A 
ATOM      4  C4  DEN d   1       4.571  -2.466   5.989  0.00  0.00     0.027 A 
ATOM      5  C5  DEN d   1       4.184  -1.375   5.243  0.00  0.00    -0.003 A 
ATOM      6  C6  DEN d   1       3.730  -1.494   3.957  0.00  0.00     0.001 A 
ATOM      7  C7  DEN d   1       3.610  -2.736   3.392  0.00  0.00     0.017 A 
ATOM      8  C8  DEN d   1       4.006  -3.840   4.135  0.00  0.00    -0.094 A 
ATOM      9  C9  DEN d   1       4.450  -3.700   5.439  0.00  0.00    -0.072 A 
ENDROOT
TORSDOF 0
ENDMDL
