MODEL 1
REMARK minimizedAffinity 9.46818352
REMARK minimizedRMSD -1
REMARK  0 active torsions:
REMARK  status: ('A' for Active; 'I' for Inactive)
ROOT
ATOM      1  C1  DEN d   1       2.029  -3.019   1.877  0.00  0.00     0.130 A 
ATOM      2  C2  DEN d   1       1.902  -2.802   0.439  0.00  0.00    -0.031 A 
ATOM      3  C3  DEN d   1       3.209  -2.338  -0.070  0.00  0.00     0.027 A 
ATOM      4  C4  DEN d   1       5.405  -1.941   1.224  0.00  0.00     0.027 A 
ATOM      5  C5  DEN d   1       5.998  -1.978   2.466  0.00  0.00    -0.003 A 
ATOM      6  C6  DEN d   1       5.307  -2.329   3.595  0.00  0.00     0.001 A 
ATOM      7  C7  DEN d   1       3.992  -2.701   3.498  0.00  0.00     0.017 A 
ATOM      8  C8  DEN d   1       3.385  -2.659   2.250  0.00  0.00    -0.094 A 
ATOM      9  C9  DEN d   1       4.104  -2.313   1.118  0.00  0.00    -0.072 A 
ENDROOT
TORSDOF 0
ENDMDL
