MODEL 1
REMARK minimizedAffinity 11.9393806
REMARK minimizedRMSD -1
REMARK  0 active torsions:
REMARK  status: ('A' for Active; 'I' for Inactive)
ROOT
ATOM      1  C1  DEN d   1      -0.610  -2.477   1.501  0.00  0.00     0.130 A 
ATOM      2  C2  DEN d   1      -0.519  -1.063   1.852  0.00  0.00    -0.031 A 
ATOM      3  C3  DEN d   1       0.878  -0.630   1.645  0.00  0.00     0.027 A 
ATOM      4  C4  DEN d   1       2.896  -2.005   0.814  0.00  0.00     0.027 A 
ATOM      5  C5  DEN d   1       3.311  -3.252   0.402  0.00  0.00    -0.003 A 
ATOM      6  C6  DEN d   1       2.464  -4.327   0.360  0.00  0.00     0.001 A 
ATOM      7  C7  DEN d   1       1.145  -4.165   0.694  0.00  0.00     0.017 A 
ATOM      8  C8  DEN d   1       0.721  -2.913   1.117  0.00  0.00    -0.094 A 
ATOM      9  C9  DEN d   1       1.590  -1.836   1.141  0.00  0.00    -0.072 A 
ENDROOT
TORSDOF 0
ENDMDL
