MODEL 1
REMARK minimizedAffinity 19.0651245
REMARK minimizedRMSD -1
REMARK  0 active torsions:
REMARK  status: ('A' for Active; 'I' for Inactive)
ROOT
ATOM      1  C1  DEN d   1      -2.313  -0.433  -1.562  0.00  0.00     0.130 A 
ATOM      2  C2  DEN d   1      -3.758  -0.645  -1.580  0.00  0.00    -0.031 A 
ATOM      3  C3  DEN d   1      -4.374   0.471  -2.327  0.00  0.00     0.027 A 
ATOM      4  C4  DEN d   1      -3.236   2.492  -3.454  0.00  0.00     0.027 A 
ATOM      5  C5  DEN d   1      -2.029   3.110  -3.696  0.00  0.00    -0.003 A 
ATOM      6  C6  DEN d   1      -0.845   2.613  -3.219  0.00  0.00     0.001 A 
ATOM      7  C7  DEN d   1      -0.838   1.439  -2.513  0.00  0.00     0.017 A 
ATOM      8  C8  DEN d   1      -2.052   0.814  -2.258  0.00  0.00    -0.094 A 
ATOM      9  C9  DEN d   1      -3.236   1.326  -2.760  0.00  0.00    -0.072 A 
ENDROOT
TORSDOF 0
ENDMDL
