MODEL 1
REMARK minimizedAffinity 10.6281137
REMARK minimizedRMSD -1
REMARK  0 active torsions:
REMARK  status: ('A' for Active; 'I' for Inactive)
ROOT
ATOM      1  C1  DEN d   1       2.695  -3.844  -0.087  0.00  0.00     0.130 A 
ATOM      2  C2  DEN d   1       1.959  -5.100  -0.207  0.00  0.00    -0.031 A 
ATOM      3  C3  DEN d   1       0.663  -4.936   0.482  0.00  0.00     0.027 A 
ATOM      4  C4  DEN d   1      -0.273  -2.870   1.709  0.00  0.00     0.027 A 
ATOM      5  C5  DEN d   1      -0.008  -1.572   2.085  0.00  0.00    -0.003 A 
ATOM      6  C6  DEN d   1       1.181  -0.956   1.794  0.00  0.00     0.001 A 
ATOM      7  C7  DEN d   1       2.132  -1.624   1.069  0.00  0.00     0.017 A 
ATOM      8  C8  DEN d   1       1.874  -2.936   0.693  0.00  0.00    -0.094 A 
ATOM      9  C9  DEN d   1       0.662  -3.537   0.986  0.00  0.00    -0.072 A 
ENDROOT
TORSDOF 0
ENDMDL
