MODEL 1
REMARK minimizedAffinity 14.0516748
REMARK minimizedRMSD -1
REMARK  1 active torsions:
REMARK  status: ('A' for Active; 'I' for Inactive)
REMARK    1  A    between atoms: C1_2  and  C2_3 
ROOT
ATOM      1  C2  UNL d   1       1.917  -1.396  -3.432  0.00  0.00    -0.073 A 
ATOM      2  C3  UNL d   1       1.746  -0.076  -3.863  0.00  0.00    -0.002 A 
ATOM      3  C4  UNL d   1       0.892   0.212  -4.929  0.00  0.00     0.004 A 
ATOM      4  C5  UNL d   1       0.196  -0.814  -5.568  0.00  0.00    -0.004 A 
ATOM      5  C6  UNL d   1       0.344  -2.138  -5.143  0.00  0.00    -0.075 A 
ATOM      6  C7  UNL d   1      -0.396  -3.254  -5.822  0.00  0.00     0.076 C 
ATOM      7  C8  UNL d   1       1.206  -2.420  -4.074  0.00  0.00     0.001 A 
ENDROOT
BRANCH   1   8
ATOM      8  C1  UNL d   1       2.833  -1.712  -2.277  0.00  0.00     0.053 C 
ATOM      9  C   UNL d   1       4.211  -1.097  -2.459  0.00  0.00     0.018 C 
ENDBRANCH   1   8
TORSDOF 1
ENDMDL
