MODEL 1
REMARK minimizedAffinity 3.26787281
REMARK minimizedRMSD -1
REMARK  1 active torsions:
REMARK  status: ('A' for Active; 'I' for Inactive)
REMARK    1  A    between atoms: C1_2  and  C2_3 
ROOT
ATOM      1  C2  UNL d   1       0.641   2.729   0.880  0.00  0.00    -0.073 A 
ATOM      2  C3  UNL d   1       0.085   1.569   0.328  0.00  0.00    -0.002 A 
ATOM      3  C4  UNL d   1      -0.385   1.570  -0.986  0.00  0.00     0.004 A 
ATOM      4  C5  UNL d   1      -0.296   2.725  -1.763  0.00  0.00    -0.004 A 
ATOM      5  C6  UNL d   1       0.268   3.890  -1.233  0.00  0.00    -0.075 A 
ATOM      6  C7  UNL d   1       0.368   5.142  -2.054  0.00  0.00     0.076 C 
ATOM      7  C8  UNL d   1       0.734   3.882   0.089  0.00  0.00     0.001 A 
ENDROOT
BRANCH   1   8
ATOM      8  C1  UNL d   1       1.155   2.731   2.297  0.00  0.00     0.053 C 
ATOM      9  C   UNL d   1       2.608   3.174   2.375  0.00  0.00     0.018 C 
ENDBRANCH   1   8
TORSDOF 1
ENDMDL
