MODEL 1
REMARK minimizedAffinity 0.683777869
REMARK minimizedRMSD -1
REMARK  1 active torsions:
REMARK  status: ('A' for Active; 'I' for Inactive)
REMARK    1  A    between atoms: C1_2  and  C2_3 
ROOT
ATOM      1  C2  UNL d   1      -0.242   2.543  -0.007  0.00  0.00    -0.073 A 
ATOM      2  C3  UNL d   1       0.756   2.776  -0.960  0.00  0.00    -0.002 A 
ATOM      3  C4  UNL d   1       0.911   4.043  -1.522  0.00  0.00     0.004 A 
ATOM      4  C5  UNL d   1       0.078   5.091  -1.133  0.00  0.00    -0.004 A 
ATOM      5  C6  UNL d   1      -0.917   4.882  -0.173  0.00  0.00    -0.075 A 
ATOM      6  C7  UNL d   1      -1.824   5.998   0.256  0.00  0.00     0.076 C 
ATOM      7  C8  UNL d   1      -1.069   3.605   0.385  0.00  0.00     0.001 A 
ENDROOT
BRANCH   1   8
ATOM      8  C1  UNL d   1      -0.410   1.177   0.608  0.00  0.00     0.053 C 
ATOM      9  C   UNL d   1       0.790   0.782   1.454  0.00  0.00     0.018 C 
ENDBRANCH   1   8
TORSDOF 1
ENDMDL
