MODEL 1
REMARK minimizedAffinity 2.94160199
REMARK minimizedRMSD -1
REMARK  1 active torsions:
REMARK  status: ('A' for Active; 'I' for Inactive)
REMARK    1  A    between atoms: C1_2  and  C2_3 
ROOT
ATOM      1  C2  UNL d   1      -0.160   1.733   0.693  0.00  0.00    -0.073 A 
ATOM      2  C3  UNL d   1       0.667   0.937   1.493  0.00  0.00    -0.002 A 
ATOM      3  C4  UNL d   1       0.126  -0.100   2.254  0.00  0.00     0.004 A 
ATOM      4  C5  UNL d   1      -1.245  -0.355   2.219  0.00  0.00    -0.004 A 
ATOM      5  C6  UNL d   1      -2.086   0.422   1.417  0.00  0.00    -0.075 A 
ATOM      6  C7  UNL d   1      -3.563   0.162   1.369  0.00  0.00     0.076 C 
ATOM      7  C8  UNL d   1      -1.536   1.463   0.657  0.00  0.00     0.001 A 
ENDROOT
BRANCH   1   8
ATOM      8  C1  UNL d   1       0.421   2.849  -0.136  0.00  0.00     0.053 C 
ATOM      9  C   UNL d   1       0.038   2.729  -1.602  0.00  0.00     0.018 C 
ENDBRANCH   1   8
TORSDOF 1
ENDMDL
