MODEL 1
REMARK minimizedAffinity 3.64697766
REMARK minimizedRMSD -1
REMARK  1 active torsions:
REMARK  status: ('A' for Active; 'I' for Inactive)
REMARK    1  A    between atoms: C1_2  and  C2_3 
ROOT
ATOM      1  C2  UNL d   1       0.436   2.566   0.256  0.00  0.00    -0.073 A 
ATOM      2  C3  UNL d   1      -0.328   1.896  -0.707  0.00  0.00    -0.002 A 
ATOM      3  C4  UNL d   1      -0.661   2.527  -1.906  0.00  0.00     0.004 A 
ATOM      4  C5  UNL d   1      -0.229   3.829  -2.158  0.00  0.00    -0.004 A 
ATOM      5  C6  UNL d   1       0.545   4.510  -1.213  0.00  0.00    -0.075 A 
ATOM      6  C7  UNL d   1       1.016   5.912  -1.468  0.00  0.00     0.076 C 
ATOM      7  C8  UNL d   1       0.873   3.871  -0.010  0.00  0.00     0.001 A 
ENDROOT
BRANCH   1   8
ATOM      8  C1  UNL d   1       0.803   1.886   1.550  0.00  0.00     0.053 C 
ATOM      9  C   UNL d   1       0.405   0.419   1.556  0.00  0.00     0.018 C 
ENDBRANCH   1   8
TORSDOF 1
ENDMDL
