MODEL 1
REMARK minimizedAffinity -1.90157139
REMARK minimizedRMSD -1
REMARK  0 active torsions:
REMARK  status: ('A' for Active; 'I' for Inactive)
ROOT
ATOM      1  N1  IND d   1      -0.757   3.007   2.121  0.00  0.00    -0.196 N 
ATOM      2  C2  IND d   1      -0.207   3.611   3.218  0.00  0.00     0.054 A 
ATOM      3  C3  IND d   1       1.087   3.245   3.357  0.00  0.00    -0.031 A 
ATOM      4  C4  IND d   1       2.535   1.748   1.845  0.00  0.00     0.051 A 
ATOM      5  C5  IND d   1       2.465   0.940   0.745  0.00  0.00    -0.031 A 
ATOM      6  C6  IND d   1       1.295   0.779   0.031  0.00  0.00     0.015 A 
ATOM      7  C7  IND d   1       0.149   1.432   0.386  0.00  0.00    -0.016 A 
ATOM      8  C8  IND d   1       0.214   2.247   1.507  0.00  0.00    -0.047 A 
ATOM      9  C9  IND d   1       1.387   2.381   2.260  0.00  0.00    -0.096 A 
ATOM     10  HN1 IND d   1      -1.572   3.089   1.859  0.00  0.00     0.298 HD
ENDROOT
TORSDOF 0
ENDMDL
