MODEL 1
REMARK minimizedAffinity 5.3465066
REMARK minimizedRMSD -1
REMARK  0 active torsions:
REMARK  status: ('A' for Active; 'I' for Inactive)
ROOT
ATOM      1  N1  IND d   1      -0.469   2.299  -0.135  0.00  0.00    -0.196 N 
ATOM      2  C2  IND d   1       0.565   1.584   0.401  0.00  0.00     0.054 A 
ATOM      3  C3  IND d   1       0.095   0.508   1.073  0.00  0.00    -0.031 A 
ATOM      4  C4  IND d   1      -2.326  -0.327   1.334  0.00  0.00     0.051 A 
ATOM      5  C5  IND d   1      -3.619   0.013   1.051  0.00  0.00    -0.031 A 
ATOM      6  C6  IND d   1      -3.935   1.154   0.342  0.00  0.00     0.015 A 
ATOM      7  C7  IND d   1      -2.964   1.995  -0.123  0.00  0.00    -0.016 A 
ATOM      8  C8  IND d   1      -1.650   1.657   0.168  0.00  0.00    -0.047 A 
ATOM      9  C9  IND d   1      -1.326   0.523   0.924  0.00  0.00    -0.096 A 
ATOM     10  HN1 IND d   1      -0.395   3.027  -0.587  0.00  0.00     0.298 HD
ENDROOT
TORSDOF 0
ENDMDL
