MODEL 1
REMARK minimizedAffinity 10.3678751
REMARK minimizedRMSD -1
REMARK  0 active torsions:
REMARK  status: ('A' for Active; 'I' for Inactive)
ROOT
ATOM      1  N1  IND d   1       2.463   0.744   0.787  0.00  0.00    -0.196 N 
ATOM      2  C2  IND d   1       1.361   0.954   1.567  0.00  0.00     0.054 A 
ATOM      3  C3  IND d   1       1.478   2.119   2.242  0.00  0.00    -0.031 A 
ATOM      4  C4  IND d   1       3.346   3.888   2.142  0.00  0.00     0.051 A 
ATOM      5  C5  IND d   1       4.578   4.123   1.599  0.00  0.00    -0.031 A 
ATOM      6  C6  IND d   1       5.180   3.227   0.739  0.00  0.00     0.015 A 
ATOM      7  C7  IND d   1       4.563   2.062   0.379  0.00  0.00    -0.016 A 
ATOM      8  C8  IND d   1       3.315   1.817   0.933  0.00  0.00    -0.047 A 
ATOM      9  C9  IND d   1       2.718   2.702   1.840  0.00  0.00    -0.096 A 
ATOM     10  HN1 IND d   1       2.602   0.057   0.289  0.00  0.00     0.298 HD
ENDROOT
TORSDOF 0
ENDMDL
