MODEL 1
REMARK minimizedAffinity 7.99848223
REMARK minimizedRMSD -1
REMARK  0 active torsions:
REMARK  status: ('A' for Active; 'I' for Inactive)
ROOT
ATOM      1  N1  IND d   1       1.204   2.737   3.875  0.00  0.00    -0.196 N 
ATOM      2  C2  IND d   1       2.358   2.962   3.178  0.00  0.00     0.054 A 
ATOM      3  C3  IND d   1       2.100   3.043   1.853  0.00  0.00    -0.031 A 
ATOM      4  C4  IND d   1      -0.156   2.936   0.618  0.00  0.00     0.051 A 
ATOM      5  C5  IND d   1      -1.487   2.707   0.824  0.00  0.00    -0.031 A 
ATOM      6  C6  IND d   1      -2.000   2.474   2.083  0.00  0.00     0.015 A 
ATOM      7  C7  IND d   1      -1.199   2.472   3.190  0.00  0.00    -0.016 A 
ATOM      8  C8  IND d   1       0.154   2.698   2.983  0.00  0.00    -0.047 A 
ATOM      9  C9  IND d   1       0.687   2.893   1.703  0.00  0.00    -0.096 A 
ATOM     10  HN1 IND d   1       1.144   2.636   4.727  0.00  0.00     0.298 HD
ENDROOT
TORSDOF 0
ENDMDL
