MODEL 1
REMARK minimizedAffinity 5.13589668
REMARK minimizedRMSD -1
REMARK  0 active torsions:
REMARK  status: ('A' for Active; 'I' for Inactive)
ROOT
ATOM      1  N1  IND d   1       2.081   2.203   2.078  0.00  0.00    -0.196 N 
ATOM      2  C2  IND d   1       3.041   1.582   1.328  0.00  0.00     0.054 A 
ATOM      3  C3  IND d   1       2.476   0.931   0.287  0.00  0.00    -0.031 A 
ATOM      4  C4  IND d   1       0.007   0.834  -0.436  0.00  0.00     0.051 A 
ATOM      5  C5  IND d   1      -1.246   1.214  -0.044  0.00  0.00    -0.031 A 
ATOM      6  C6  IND d   1      -1.458   1.961   1.097  0.00  0.00     0.015 A 
ATOM      7  C7  IND d   1      -0.419   2.367   1.885  0.00  0.00    -0.016 A 
ATOM      8  C8  IND d   1       0.854   1.976   1.494  0.00  0.00    -0.047 A 
ATOM      9  C9  IND d   1       1.071   1.182   0.361  0.00  0.00    -0.096 A 
ATOM     10  HN1 IND d   1       2.221   2.658   2.794  0.00  0.00     0.298 HD
ENDROOT
TORSDOF 0
ENDMDL
