MODEL 1
REMARK minimizedAffinity 5.98107576
REMARK minimizedRMSD -1
REMARK  0 active torsions:
REMARK  status: ('A' for Active; 'I' for Inactive)
ROOT
ATOM      1  N1  IND d   1      -1.371   2.750   0.922  0.00  0.00    -0.196 N 
ATOM      2  C2  IND d   1      -1.615   2.326  -0.354  0.00  0.00     0.054 A 
ATOM      3  C3  IND d   1      -0.567   1.610  -0.821  0.00  0.00    -0.031 A 
ATOM      4  C4  IND d   1       1.608   0.926   0.375  0.00  0.00     0.051 A 
ATOM      5  C5  IND d   1       2.300   1.107   1.539  0.00  0.00    -0.031 A 
ATOM      6  C6  IND d   1       1.793   1.859   2.579  0.00  0.00     0.015 A 
ATOM      7  C7  IND d   1       0.563   2.450   2.498  0.00  0.00    -0.016 A 
ATOM      8  C8  IND d   1      -0.139   2.273   1.314  0.00  0.00    -0.047 A 
ATOM      9  C9  IND d   1       0.389   1.547   0.239  0.00  0.00    -0.096 A 
ATOM     10  HN1 IND d   1      -1.898   3.233   1.400  0.00  0.00     0.298 HD
ENDROOT
TORSDOF 0
ENDMDL
