MODEL 1
REMARK minimizedAffinity -0.719569385
REMARK minimizedRMSD -1
REMARK  0 active torsions:
REMARK  status: ('A' for Active; 'I' for Inactive)
ROOT
ATOM      1  N1  IND d   1       1.545   3.400   4.293  0.00  0.00    -0.196 N 
ATOM      2  C2  IND d   1       2.727   3.596   3.634  0.00  0.00     0.054 A 
ATOM      3  C3  IND d   1       2.600   3.258   2.331  0.00  0.00    -0.031 A 
ATOM      4  C4  IND d   1       0.520   2.458   1.043  0.00  0.00     0.051 A 
ATOM      5  C5  IND d   1      -0.785   2.093   1.224  0.00  0.00    -0.031 A 
ATOM      6  C6  IND d   1      -1.392   2.148   2.461  0.00  0.00     0.015 A 
ATOM      7  C7  IND d   1      -0.719   2.584   3.567  0.00  0.00    -0.016 A 
ATOM      8  C8  IND d   1       0.608   2.949   3.388  0.00  0.00    -0.047 A 
ATOM      9  C9  IND d   1       1.243   2.855   2.143  0.00  0.00    -0.096 A 
ATOM     10  HN1 IND d   1       1.409   3.536   5.131  0.00  0.00     0.298 HD
ENDROOT
TORSDOF 0
ENDMDL
