MODEL 1
REMARK minimizedAffinity 7.42630291
REMARK minimizedRMSD -1
REMARK  0 active torsions:
REMARK  status: ('A' for Active; 'I' for Inactive)
ROOT
ATOM      1  N1  IND d   1      -1.709   2.360   2.539  0.00  0.00    -0.196 N 
ATOM      2  C2  IND d   1      -1.485   3.085   3.676  0.00  0.00     0.054 A 
ATOM      3  C3  IND d   1      -0.159   3.177   3.922  0.00  0.00    -0.031 A 
ATOM      4  C4  IND d   1       1.826   2.302   2.536  0.00  0.00     0.051 A 
ATOM      5  C5  IND d   1       2.122   1.548   1.435  0.00  0.00    -0.031 A 
ATOM      6  C6  IND d   1       1.136   1.018   0.628  0.00  0.00     0.015 A 
ATOM      7  C7  IND d   1      -0.188   1.232   0.887  0.00  0.00    -0.016 A 
ATOM      8  C8  IND d   1      -0.492   1.991   2.008  0.00  0.00    -0.047 A 
ATOM      9  C9  IND d   1       0.503   2.497   2.854  0.00  0.00    -0.096 A 
ATOM     10  HN1 IND d   1      -2.480   2.166   2.211  0.00  0.00     0.298 HD
ENDROOT
TORSDOF 0
ENDMDL
