MODEL 1
REMARK minimizedAffinity 7.92421675
REMARK minimizedRMSD -1
REMARK  0 active torsions:
REMARK  status: ('A' for Active; 'I' for Inactive)
ROOT
ATOM      1  N1  IND d   1       2.282   1.360   1.413  0.00  0.00    -0.196 N 
ATOM      2  C2  IND d   1       2.035   0.738   0.221  0.00  0.00     0.054 A 
ATOM      3  C3  IND d   1       0.710   0.745  -0.047  0.00  0.00    -0.031 A 
ATOM      4  C4  IND d   1      -1.222   1.810   1.279  0.00  0.00     0.051 A 
ATOM      5  C5  IND d   1      -1.496   2.457   2.452  0.00  0.00    -0.031 A 
ATOM      6  C6  IND d   1      -0.504   2.780   3.355  0.00  0.00     0.015 A 
ATOM      7  C7  IND d   1       0.806   2.477   3.113  0.00  0.00    -0.016 A 
ATOM      8  C8  IND d   1       1.087   1.814   1.927  0.00  0.00    -0.047 A 
ATOM      9  C9  IND d   1       0.079   1.446   1.026  0.00  0.00    -0.096 A 
ATOM     10  HN1 IND d   1       3.054   1.453   1.780  0.00  0.00     0.298 HD
ENDROOT
TORSDOF 0
ENDMDL
