MODEL 1
REMARK minimizedAffinity 5.00434065
REMARK minimizedRMSD -1
REMARK  0 active torsions:
REMARK  status: ('A' for Active; 'I' for Inactive)
ROOT
ATOM      1  N1  IND d   1       0.737   2.860   3.148  0.00  0.00    -0.196 N 
ATOM      2  C2  IND d   1      -0.630   2.861   3.145  0.00  0.00     0.054 A 
ATOM      3  C3  IND d   1      -1.099   2.149   2.096  0.00  0.00    -0.031 A 
ATOM      4  C4  IND d   1       0.195   0.813   0.316  0.00  0.00     0.051 A 
ATOM      5  C5  IND d   1       1.463   0.543  -0.117  0.00  0.00    -0.031 A 
ATOM      6  C6  IND d   1       2.576   1.039   0.530  0.00  0.00     0.015 A 
ATOM      7  C7  IND d   1       2.463   1.818   1.647  0.00  0.00    -0.016 A 
ATOM      8  C8  IND d   1       1.177   2.100   2.086  0.00  0.00    -0.047 A 
ATOM      9  C9  IND d   1       0.043   1.635   1.408  0.00  0.00    -0.096 A 
ATOM     10  HN1 IND d   1       1.238   3.265   3.716  0.00  0.00     0.298 HD
ENDROOT
TORSDOF 0
ENDMDL
