MODEL 1
REMARK minimizedAffinity 7.76569891
REMARK minimizedRMSD -1
REMARK  0 active torsions:
REMARK  status: ('A' for Active; 'I' for Inactive)
ROOT
ATOM      1  N1  IND d   1       2.491   1.497   0.813  0.00  0.00    -0.196 N 
ATOM      2  C2  IND d   1       1.936   0.710  -0.158  0.00  0.00     0.054 A 
ATOM      3  C3  IND d   1       0.587   0.758  -0.089  0.00  0.00    -0.031 A 
ATOM      4  C4  IND d   1      -0.922   2.142   1.472  0.00  0.00     0.051 A 
ATOM      5  C5  IND d   1      -0.876   2.983   2.548  0.00  0.00    -0.031 A 
ATOM      6  C6  IND d   1       0.319   3.381   3.111  0.00  0.00     0.015 A 
ATOM      7  C7  IND d   1       1.518   2.961   2.609  0.00  0.00    -0.016 A 
ATOM      8  C8  IND d   1       1.475   2.101   1.520  0.00  0.00    -0.047 A 
ATOM      9  C9  IND d   1       0.264   1.660   0.971  0.00  0.00    -0.096 A 
ATOM     10  HN1 IND d   1       3.332   1.597   0.958  0.00  0.00     0.298 HD
ENDROOT
TORSDOF 0
ENDMDL
