MODEL 1
REMARK minimizedAffinity 3.29323936
REMARK minimizedRMSD -1
REMARK  0 active torsions:
REMARK  status: ('A' for Active; 'I' for Inactive)
ROOT
ATOM      1  N1  IND d   1      -4.620   3.506  -3.949  0.00  0.00    -0.196 N 
ATOM      2  C2  IND d   1      -3.794   2.996  -4.911  0.00  0.00     0.054 A 
ATOM      3  C3  IND d   1      -3.274   1.815  -4.507  0.00  0.00    -0.031 A 
ATOM      4  C4  IND d   1      -3.721   0.484  -2.349  0.00  0.00     0.051 A 
ATOM      5  C5  IND d   1      -4.375   0.562  -1.152  0.00  0.00    -0.031 A 
ATOM      6  C6  IND d   1      -5.162   1.646  -0.820  0.00  0.00     0.015 A 
ATOM      7  C7  IND d   1      -5.334   2.692  -1.682  0.00  0.00    -0.016 A 
ATOM      8  C8  IND d   1      -4.666   2.619  -2.896  0.00  0.00    -0.047 A 
ATOM      9  C9  IND d   1      -3.832   1.542  -3.221  0.00  0.00    -0.096 A 
ATOM     10  HN1 IND d   1      -5.040   4.255  -3.994  0.00  0.00     0.298 HD
ENDROOT
TORSDOF 0
ENDMDL
