MODEL 1
REMARK minimizedAffinity 0.153062314
REMARK minimizedRMSD -1
REMARK  0 active torsions:
REMARK  status: ('A' for Active; 'I' for Inactive)
ROOT
ATOM      1  N1  IND d   1      -1.446   2.570   2.600  0.00  0.00    -0.196 N 
ATOM      2  C2  IND d   1      -0.771   3.009   3.704  0.00  0.00     0.054 A 
ATOM      3  C3  IND d   1       0.550   2.747   3.583  0.00  0.00    -0.031 A 
ATOM      4  C4  IND d   1       1.835   1.699   1.614  0.00  0.00     0.051 A 
ATOM      5  C5  IND d   1       1.646   1.106   0.398  0.00  0.00    -0.031 A 
ATOM      6  C6  IND d   1       0.391   0.970  -0.159  0.00  0.00     0.015 A 
ATOM      7  C7  IND d   1      -0.725   1.435   0.477  0.00  0.00    -0.016 A 
ATOM      8  C8  IND d   1      -0.537   2.031   1.716  0.00  0.00    -0.047 A 
ATOM      9  C9  IND d   1       0.729   2.134   2.305  0.00  0.00    -0.096 A 
ATOM     10  HN1 IND d   1      -2.296   2.621   2.478  0.00  0.00     0.298 HD
ENDROOT
TORSDOF 0
ENDMDL
