MODEL 1
REMARK minimizedAffinity 2.21070766
REMARK minimizedRMSD -1
REMARK  0 active torsions:
REMARK  status: ('A' for Active; 'I' for Inactive)
ROOT
ATOM      1  N1  IND d   1       2.294   1.312   0.930  0.00  0.00    -0.196 N 
ATOM      2  C2  IND d   1       1.519   0.529   0.120  0.00  0.00     0.054 A 
ATOM      3  C3  IND d   1       0.209   0.725   0.390  0.00  0.00    -0.031 A 
ATOM      4  C4  IND d   1      -0.892   2.357   2.049  0.00  0.00     0.051 A 
ATOM      5  C5  IND d   1      -0.595   3.254   3.036  0.00  0.00    -0.031 A 
ATOM      6  C6  IND d   1       0.708   3.558   3.376  0.00  0.00     0.015 A 
ATOM      7  C7  IND d   1       1.765   2.982   2.732  0.00  0.00    -0.016 A 
ATOM      8  C8  IND d   1       1.467   2.065   1.734  0.00  0.00    -0.047 A 
ATOM      9  C9  IND d   1       0.147   1.721   1.413  0.00  0.00    -0.096 A 
ATOM     10  HN1 IND d   1       3.154   1.331   0.936  0.00  0.00     0.298 HD
ENDROOT
TORSDOF 0
ENDMDL
