MODEL 1
REMARK minimizedAffinity 4.94385242
REMARK minimizedRMSD -1
REMARK  0 active torsions:
REMARK  status: ('A' for Active; 'I' for Inactive)
ROOT
ATOM      1  N1  IND d   1       2.754   1.369   1.137  0.00  0.00    -0.196 N 
ATOM      2  C2  IND d   1       2.227   0.562   0.168  0.00  0.00     0.054 A 
ATOM      3  C3  IND d   1       0.876   0.620   0.191  0.00  0.00    -0.031 A 
ATOM      4  C4  IND d   1      -0.674   2.050   1.667  0.00  0.00     0.051 A 
ATOM      5  C5  IND d   1      -0.658   2.917   2.723  0.00  0.00    -0.031 A 
ATOM      6  C6  IND d   1       0.521   3.322   3.315  0.00  0.00     0.015 A 
ATOM      7  C7  IND d   1       1.733   2.882   2.864  0.00  0.00    -0.016 A 
ATOM      8  C8  IND d   1       1.720   1.997   1.795  0.00  0.00    -0.047 A 
ATOM      9  C9  IND d   1       0.525   1.549   1.218  0.00  0.00    -0.096 A 
ATOM     10  HN1 IND d   1       3.591   1.467   1.307  0.00  0.00     0.298 HD
ENDROOT
TORSDOF 0
ENDMDL
