MODEL 1
REMARK minimizedAffinity 9.59780025
REMARK minimizedRMSD -1
REMARK  0 active torsions:
REMARK  status: ('A' for Active; 'I' for Inactive)
ROOT
ATOM      1  N1  IND d   1       2.158   1.028   1.047  0.00  0.00    -0.196 N 
ATOM      2  C2  IND d   1       2.949   1.743   1.903  0.00  0.00     0.054 A 
ATOM      3  C3  IND d   1       2.194   2.565   2.666  0.00  0.00    -0.031 A 
ATOM      4  C4  IND d   1      -0.366   2.826   2.750  0.00  0.00     0.051 A 
ATOM      5  C5  IND d   1      -1.512   2.412   2.130  0.00  0.00    -0.031 A 
ATOM      6  C6  IND d   1      -1.493   1.495   1.099  0.00  0.00     0.015 A 
ATOM      7  C7  IND d   1      -0.323   0.947   0.655  0.00  0.00    -0.016 A 
ATOM      8  C8  IND d   1       0.843   1.370   1.277  0.00  0.00    -0.047 A 
ATOM      9  C9  IND d   1       0.834   2.332   2.295  0.00  0.00    -0.096 A 
ATOM     10  HN1 IND d   1       2.435   0.461   0.464  0.00  0.00     0.298 HD
ENDROOT
TORSDOF 0
ENDMDL
