MODEL 1
REMARK minimizedAffinity 7.786129
REMARK minimizedRMSD -1
REMARK  0 active torsions:
REMARK  status: ('A' for Active; 'I' for Inactive)
ROOT
ATOM      1  C1  BNZ d   1      -3.685  -1.460   4.441  0.00  0.00     0.000 A 
ATOM      2  C2  BNZ d   1      -3.954  -0.909   3.216  0.00  0.00     0.000 A 
ATOM      3  C3  BNZ d   1      -3.871   0.442   3.023  0.00  0.00     0.000 A 
ATOM      4  C4  BNZ d   1      -3.559   1.242   4.062  0.00  0.00     0.000 A 
ATOM      5  C5  BNZ d   1      -3.294   0.703   5.305  0.00  0.00     0.000 A 
ATOM      6  C6  BNZ d   1      -3.341  -0.660   5.487  0.00  0.00     0.000 A 
ENDROOT
TORSDOF 0
ENDMDL
