MODEL 1
REMARK minimizedAffinity 4.39783525
REMARK minimizedRMSD -1
REMARK  0 active torsions:
REMARK  status: ('A' for Active; 'I' for Inactive)
ROOT
ATOM      1  C1  BNZ d   1      -3.910  -1.916   4.418  0.00  0.00     0.000 A 
ATOM      2  C2  BNZ d   1      -4.107  -1.537   3.117  0.00  0.00     0.000 A 
ATOM      3  C3  BNZ d   1      -4.055  -0.220   2.756  0.00  0.00     0.000 A 
ATOM      4  C4  BNZ d   1      -3.846   0.719   3.702  0.00  0.00     0.000 A 
ATOM      5  C5  BNZ d   1      -3.654   0.354   5.019  0.00  0.00     0.000 A 
ATOM      6  C6  BNZ d   1      -3.669  -0.976   5.372  0.00  0.00     0.000 A 
ENDROOT
TORSDOF 0
ENDMDL
