MODEL 1
REMARK minimizedAffinity 5.71253443
REMARK minimizedRMSD -1
REMARK  0 active torsions:
REMARK  status: ('A' for Active; 'I' for Inactive)
ROOT
ATOM      1  C1  BNZ d   1      -3.794   2.233   6.000  0.00  0.00     0.000 A 
ATOM      2  C2  BNZ d   1      -3.096   1.133   5.577  0.00  0.00     0.000 A 
ATOM      3  C3  BNZ d   1      -3.169   0.714   4.278  0.00  0.00     0.000 A 
ATOM      4  C4  BNZ d   1      -3.970   1.370   3.414  0.00  0.00     0.000 A 
ATOM      5  C5  BNZ d   1      -4.687   2.475   3.827  0.00  0.00     0.000 A 
ATOM      6  C6  BNZ d   1      -4.581   2.917   5.126  0.00  0.00     0.000 A 
ENDROOT
TORSDOF 0
ENDMDL
