MODEL 1
REMARK minimizedAffinity 8.03016376
REMARK minimizedRMSD -1
REMARK  0 active torsions:
REMARK  status: ('A' for Active; 'I' for Inactive)
ROOT
ATOM      1  C1  BNZ d   1       1.830  -0.261  -2.382  0.00  0.00     0.000 A 
ATOM      2  C2  BNZ d   1       1.342  -1.530  -2.542  0.00  0.00     0.000 A 
ATOM      3  C3  BNZ d   1       1.565  -2.490  -1.596  0.00  0.00     0.000 A 
ATOM      4  C4  BNZ d   1       2.308  -2.192  -0.510  0.00  0.00     0.000 A 
ATOM      5  C5  BNZ d   1       2.815  -0.919  -0.339  0.00  0.00     0.000 A 
ATOM      6  C6  BNZ d   1       2.556   0.056  -1.275  0.00  0.00     0.000 A 
ENDROOT
TORSDOF 0
ENDMDL
