MODEL 1
REMARK minimizedAffinity 10.8228188
REMARK minimizedRMSD -1
REMARK  0 active torsions:
REMARK  status: ('A' for Active; 'I' for Inactive)
ROOT
ATOM      1  C1  BNZ d   1      -4.198   1.431   3.024  0.00  0.00     0.000 A 
ATOM      2  C2  BNZ d   1      -3.362   0.698   3.823  0.00  0.00     0.000 A 
ATOM      3  C3  BNZ d   1      -3.236   0.983   5.154  0.00  0.00     0.000 A 
ATOM      4  C4  BNZ d   1      -3.915   2.026   5.675  0.00  0.00     0.000 A 
ATOM      5  C5  BNZ d   1      -4.755   2.780   4.880  0.00  0.00     0.000 A 
ATOM      6  C6  BNZ d   1      -4.909   2.466   3.550  0.00  0.00     0.000 A 
ENDROOT
TORSDOF 0
ENDMDL
