MODEL 1
REMARK minimizedAffinity 1.28428018
REMARK minimizedRMSD -1
REMARK  0 active torsions:
REMARK  status: ('A' for Active; 'I' for Inactive)
ROOT
ATOM      1  C1  BNZ d   1       1.867  -2.269  -2.943  0.00  0.00     0.000 A 
ATOM      2  C2  BNZ d   1       2.421  -1.728  -1.814  0.00  0.00     0.000 A 
ATOM      3  C3  BNZ d   1       2.524  -2.461  -0.665  0.00  0.00     0.000 A 
ATOM      4  C4  BNZ d   1       2.036  -3.718  -0.634  0.00  0.00     0.000 A 
ATOM      5  C5  BNZ d   1       1.466  -4.274  -1.762  0.00  0.00     0.000 A 
ATOM      6  C6  BNZ d   1       1.400  -3.547  -2.928  0.00  0.00     0.000 A 
ENDROOT
TORSDOF 0
ENDMDL
