MODEL 1
REMARK minimizedAffinity 2.42755437
REMARK minimizedRMSD -1
REMARK  0 active torsions:
REMARK  status: ('A' for Active; 'I' for Inactive)
ROOT
ATOM      1  C1  BNZ d   1       2.136  -1.580  -1.513  0.00  0.00     0.000 A 
ATOM      2  C2  BNZ d   1       2.562  -2.375  -0.483  0.00  0.00     0.000 A 
ATOM      3  C3  BNZ d   1       2.352  -3.725  -0.506  0.00  0.00     0.000 A 
ATOM      4  C4  BNZ d   1       1.680  -4.273  -1.539  0.00  0.00     0.000 A 
ATOM      5  C5  BNZ d   1       1.235  -3.485  -2.581  0.00  0.00     0.000 A 
ATOM      6  C6  BNZ d   1       1.483  -2.131  -2.573  0.00  0.00     0.000 A 
ENDROOT
TORSDOF 0
ENDMDL
