MODEL 1
REMARK minimizedAffinity 6.61443901
REMARK minimizedRMSD -1
REMARK  0 active torsions:
REMARK  status: ('A' for Active; 'I' for Inactive)
ROOT
ATOM      1  C1  BNZ d   1      -5.240   2.501   4.880  0.00  0.00     0.000 A 
ATOM      2  C2  BNZ d   1      -5.011   1.788   3.733  0.00  0.00     0.000 A 
ATOM      3  C3  BNZ d   1      -4.059   0.807   3.698  0.00  0.00     0.000 A 
ATOM      4  C4  BNZ d   1      -3.312   0.568   4.795  0.00  0.00     0.000 A 
ATOM      5  C5  BNZ d   1      -3.525   1.285   5.955  0.00  0.00     0.000 A 
ATOM      6  C6  BNZ d   1      -4.510   2.245   5.999  0.00  0.00     0.000 A 
ENDROOT
TORSDOF 0
ENDMDL
