MODEL 1
REMARK minimizedAffinity 11.8306017
REMARK minimizedRMSD -1
REMARK  0 active torsions:
REMARK  status: ('A' for Active; 'I' for Inactive)
ROOT
ATOM      1  C1  BNZ d   1      -4.516  -3.743  -4.926  0.00  0.00     0.000 A 
ATOM      2  C2  BNZ d   1      -3.661  -4.076  -3.909  0.00  0.00     0.000 A 
ATOM      3  C3  BNZ d   1      -2.365  -3.641  -3.914  0.00  0.00     0.000 A 
ATOM      4  C4  BNZ d   1      -1.915  -2.909  -4.953  0.00  0.00     0.000 A 
ATOM      5  C5  BNZ d   1      -2.762  -2.573  -5.990  0.00  0.00     0.000 A 
ATOM      6  C6  BNZ d   1      -4.076  -2.979  -5.963  0.00  0.00     0.000 A 
ENDROOT
TORSDOF 0
ENDMDL
