MODEL 1
REMARK minimizedAffinity 6.37910604
REMARK minimizedRMSD -1
REMARK  0 active torsions:
REMARK  status: ('A' for Active; 'I' for Inactive)
ROOT
ATOM      1  C1  BNZ d   1       1.800  -3.773  -1.324  0.00  0.00     0.000 A 
ATOM      2  C2  BNZ d   1       1.334  -3.103  -2.424  0.00  0.00     0.000 A 
ATOM      3  C3  BNZ d   1       1.407  -1.740  -2.496  0.00  0.00     0.000 A 
ATOM      4  C4  BNZ d   1       1.910  -1.047  -1.454  0.00  0.00     0.000 A 
ATOM      5  C5  BNZ d   1       2.376  -1.707  -0.335  0.00  0.00     0.000 A 
ATOM      6  C6  BNZ d   1       2.336  -3.082  -0.282  0.00  0.00     0.000 A 
ENDROOT
TORSDOF 0
ENDMDL
