MODEL 1
REMARK minimizedAffinity 12.8761864
REMARK minimizedRMSD -1
REMARK  0 active torsions:
REMARK  status: ('A' for Active; 'I' for Inactive)
ROOT
ATOM      1  C1  BNZ d   1      -4.141  -1.203   3.210  0.00  0.00     0.000 A 
ATOM      2  C2  BNZ d   1      -4.053   0.078   2.734  0.00  0.00     0.000 A 
ATOM      3  C3  BNZ d   1      -3.639   1.099   3.543  0.00  0.00     0.000 A 
ATOM      4  C4  BNZ d   1      -3.354   0.845   4.837  0.00  0.00     0.000 A 
ATOM      5  C5  BNZ d   1      -3.447  -0.440   5.334  0.00  0.00     0.000 A 
ATOM      6  C6  BNZ d   1      -3.826  -1.472   4.506  0.00  0.00     0.000 A 
ENDROOT
TORSDOF 0
ENDMDL
