MODEL 1
REMARK minimizedAffinity 3.91032004
REMARK minimizedRMSD -1
REMARK  0 active torsions:
REMARK  status: ('A' for Active; 'I' for Inactive)
ROOT
ATOM      1  C1  BNZ d   1      -2.636   3.733  -5.614  0.00  0.00     0.000 A 
ATOM      2  C2  BNZ d   1      -3.314   4.859  -5.999  0.00  0.00     0.000 A 
ATOM      3  C3  BNZ d   1      -3.261   5.999  -5.247  0.00  0.00     0.000 A 
ATOM      4  C4  BNZ d   1      -2.564   6.000  -4.092  0.00  0.00     0.000 A 
ATOM      5  C5  BNZ d   1      -1.883   4.869  -3.686  0.00  0.00     0.000 A 
ATOM      6  C6  BNZ d   1      -1.907   3.736  -4.465  0.00  0.00     0.000 A 
ENDROOT
TORSDOF 0
ENDMDL
