MODEL 1
REMARK minimizedAffinity 7.7080245
REMARK minimizedRMSD -1
REMARK  0 active torsions:
REMARK  status: ('A' for Active; 'I' for Inactive)
ROOT
ATOM      1  C1  BNZ d   1       1.875  -0.600  -1.554  0.00  0.00     0.000 A 
ATOM      2  C2  BNZ d   1       1.363  -1.869  -1.518  0.00  0.00     0.000 A 
ATOM      3  C3  BNZ d   1       1.899  -2.817  -0.692  0.00  0.00     0.000 A 
ATOM      4  C4  BNZ d   1       2.970  -2.506   0.066  0.00  0.00     0.000 A 
ATOM      5  C5  BNZ d   1       3.504  -1.233   0.034  0.00  0.00     0.000 A 
ATOM      6  C6  BNZ d   1       2.937  -0.271  -0.769  0.00  0.00     0.000 A 
ENDROOT
TORSDOF 0
ENDMDL
