MODEL 1
REMARK minimizedAffinity 12.5809317
REMARK minimizedRMSD -1
REMARK  0 active torsions:
REMARK  status: ('A' for Active; 'I' for Inactive)
ROOT
ATOM      1  C1  BNZ d   1      -3.883  -0.653   2.489  0.00  0.00     0.000 A 
ATOM      2  C2  BNZ d   1      -3.052  -0.277   1.467  0.00  0.00     0.000 A 
ATOM      3  C3  BNZ d   1      -2.192   0.775   1.615  0.00  0.00     0.000 A 
ATOM      4  C4  BNZ d   1      -2.191   1.474   2.769  0.00  0.00     0.000 A 
ATOM      5  C5  BNZ d   1      -3.029   1.113   3.805  0.00  0.00     0.000 A 
ATOM      6  C6  BNZ d   1      -3.866   0.030   3.666  0.00  0.00     0.000 A 
ENDROOT
TORSDOF 0
ENDMDL
