MODEL 1
REMARK minimizedAffinity 14.2404175
REMARK minimizedRMSD -1
REMARK  0 active torsions:
REMARK  status: ('A' for Active; 'I' for Inactive)
ROOT
ATOM      1  C1  BNZ d   1      -3.673   0.347   1.650  0.00  0.00     0.000 A 
ATOM      2  C2  BNZ d   1      -2.385   0.575   1.245  0.00  0.00     0.000 A 
ATOM      3  C3  BNZ d   1      -1.434   0.990   2.135  0.00  0.00     0.000 A 
ATOM      4  C4  BNZ d   1      -1.781   1.215   3.419  0.00  0.00     0.000 A 
ATOM      5  C5  BNZ d   1      -3.078   0.998   3.841  0.00  0.00     0.000 A 
ATOM      6  C6  BNZ d   1      -4.023   0.543   2.950  0.00  0.00     0.000 A 
ENDROOT
TORSDOF 0
ENDMDL
