MODEL 1
REMARK minimizedAffinity 8.85138988
REMARK minimizedRMSD -1
REMARK  0 active torsions:
REMARK  status: ('A' for Active; 'I' for Inactive)
ROOT
ATOM      1  C1  BNZ d   1      -5.068  -3.013   4.882  0.00  0.00     0.000 A 
ATOM      2  C2  BNZ d   1      -5.999  -3.137   3.886  0.00  0.00     0.000 A 
ATOM      3  C3  BNZ d   1      -5.991  -2.293   2.811  0.00  0.00     0.000 A 
ATOM      4  C4  BNZ d   1      -5.078  -1.302   2.753  0.00  0.00     0.000 A 
ATOM      5  C5  BNZ d   1      -4.138  -1.158   3.754  0.00  0.00     0.000 A 
ATOM      6  C6  BNZ d   1      -4.125  -2.034   4.815  0.00  0.00     0.000 A 
ENDROOT
TORSDOF 0
ENDMDL
