MODEL 1
REMARK minimizedAffinity 9.33706284
REMARK minimizedRMSD -1
REMARK  0 active torsions:
REMARK  status: ('A' for Active; 'I' for Inactive)
ROOT
ATOM      1  C1  BNZ d   1      -5.980  -4.711  -5.998  0.00  0.00     0.000 A 
ATOM      2  C2  BNZ d   1      -6.000  -3.342  -5.997  0.00  0.00     0.000 A 
ATOM      3  C3  BNZ d   1      -5.019  -2.629  -5.366  0.00  0.00     0.000 A 
ATOM      4  C4  BNZ d   1      -4.044  -3.284  -4.704  0.00  0.00     0.000 A 
ATOM      5  C5  BNZ d   1      -4.016  -4.665  -4.688  0.00  0.00     0.000 A 
ATOM      6  C6  BNZ d   1      -4.983  -5.379  -5.357  0.00  0.00     0.000 A 
ENDROOT
TORSDOF 0
ENDMDL
