MODEL 1
REMARK minimizedAffinity 10.0292444
REMARK minimizedRMSD -1
REMARK  1 active torsions:
REMARK  status: ('A' for Active; 'I' for Inactive)
REMARK    1  A    between atoms: N_2  and  C1_3 
ROOT
ATOM      1  C1  UNL d   1      -0.021   3.304   0.292  0.00  0.00     0.143 A 
ATOM      2  C2  UNL d   1      -0.899   4.058   1.077  0.00  0.00    -0.057 A 
ATOM      3  C3  UNL d   1      -1.199   5.388   0.757  0.00  0.00     0.033 A 
ATOM      4  C4  UNL d   1      -0.601   5.998  -0.340  0.00  0.00    -0.042 A 
ATOM      5  C5  UNL d   1       0.295   5.275  -1.120  0.00  0.00     0.033 A 
ATOM      6  C6  UNL d   1       0.585   3.946  -0.800  0.00  0.00    -0.057 A 
ENDROOT
BRANCH   1   7
ATOM      7  N   UNL d   1       0.394   2.009   0.613  0.00  0.00    -0.732 N 
ATOM      8  C   UNL d   1       0.404   0.968  -0.392  0.00  0.00     0.284 C 
ATOM      9  H3  UNL d   1       1.205   2.002   1.227  0.00  0.00     0.395 HD
ENDBRANCH   1   7
TORSDOF 1
ENDMDL
