MODEL 1
REMARK minimizedAffinity 5.70610189
REMARK minimizedRMSD -1
REMARK  1 active torsions:
REMARK  status: ('A' for Active; 'I' for Inactive)
REMARK    1  A    between atoms: N_2  and  C1_3 
ROOT
ATOM      1  C1  UNL d   1      -0.024   3.689   1.354  0.00  0.00     0.143 A 
ATOM      2  C2  UNL d   1       0.206   3.427  -0.000  0.00  0.00    -0.057 A 
ATOM      3  C3  UNL d   1       0.090   4.435  -0.965  0.00  0.00     0.033 A 
ATOM      4  C4  UNL d   1      -0.288   5.721  -0.594  0.00  0.00    -0.042 A 
ATOM      5  C5  UNL d   1      -0.546   5.998   0.744  0.00  0.00     0.033 A 
ATOM      6  C6  UNL d   1      -0.422   4.989   1.703  0.00  0.00    -0.057 A 
ENDROOT
BRANCH   1   7
ATOM      7  N   UNL d   1      -0.021   2.707   2.348  0.00  0.00    -0.732 N 
ATOM      8  C   UNL d   1      -1.263   2.234   2.921  0.00  0.00     0.284 C 
ATOM      9  H3  UNL d   1       0.659   1.973   2.167  0.00  0.00     0.395 HD
ENDBRANCH   1   7
TORSDOF 1
ENDMDL
