MODEL 1
REMARK minimizedAffinity 7.2897253
REMARK minimizedRMSD -1
REMARK  1 active torsions:
REMARK  status: ('A' for Active; 'I' for Inactive)
REMARK    1  A    between atoms: N_2  and  C1_3 
ROOT
ATOM      1  C1  UNL d   1       0.167   0.946   4.137  0.00  0.00     0.143 A 
ATOM      2  C2  UNL d   1       1.245   1.189   3.279  0.00  0.00    -0.057 A 
ATOM      3  C3  UNL d   1       1.177   2.176   2.288  0.00  0.00     0.033 A 
ATOM      4  C4  UNL d   1       0.014   2.920   2.118  0.00  0.00    -0.042 A 
ATOM      5  C5  UNL d   1      -1.079   2.678   2.943  0.00  0.00     0.033 A 
ATOM      6  C6  UNL d   1      -1.002   1.696   3.935  0.00  0.00    -0.057 A 
ENDROOT
BRANCH   1   7
ATOM      7  N   UNL d   1       0.138  -0.087   5.076  0.00  0.00    -0.732 N 
ATOM      8  C   UNL d   1       0.919  -1.289   4.875  0.00  0.00     0.284 C 
ATOM      9  H3  UNL d   1       0.145   0.258   6.034  0.00  0.00     0.395 HD
ENDBRANCH   1   7
TORSDOF 1
ENDMDL
