MODEL 1
REMARK minimizedAffinity 7.22841358
REMARK minimizedRMSD -1
REMARK  1 active torsions:
REMARK  status: ('A' for Active; 'I' for Inactive)
REMARK    1  A    between atoms: N_2  and  C1_3 
ROOT
ATOM      1  C1  UNL d   1       0.349   3.372   0.379  0.00  0.00     0.143 A 
ATOM      2  C2  UNL d   1      -0.528   3.793   1.384  0.00  0.00    -0.057 A 
ATOM      3  C3  UNL d   1      -1.056   5.090   1.390  0.00  0.00     0.033 A 
ATOM      4  C4  UNL d   1      -0.693   6.000   0.403  0.00  0.00    -0.042 A 
ATOM      5  C5  UNL d   1       0.196   5.611  -0.592  0.00  0.00     0.033 A 
ATOM      6  C6  UNL d   1       0.715   4.312  -0.596  0.00  0.00    -0.057 A 
ENDROOT
BRANCH   1   7
ATOM      7  N   UNL d   1       0.984   2.128   0.372  0.00  0.00    -0.732 N 
ATOM      8  C   UNL d   1       0.615   1.116  -0.594  0.00  0.00     0.284 C 
ATOM      9  H3  UNL d   1       1.986   2.203   0.533  0.00  0.00     0.395 HD
ENDBRANCH   1   7
TORSDOF 1
ENDMDL
