MODEL 1
REMARK minimizedAffinity 12.3981915
REMARK minimizedRMSD -1
REMARK  1 active torsions:
REMARK  status: ('A' for Active; 'I' for Inactive)
REMARK    1  A    between atoms: N_2  and  C1_3 
ROOT
ATOM      1  C1  UNL d   1      -0.346   1.434  -0.612  0.00  0.00     0.143 A 
ATOM      2  C2  UNL d   1      -1.699   1.080  -0.629  0.00  0.00    -0.057 A 
ATOM      3  C3  UNL d   1      -2.116  -0.172  -1.096  0.00  0.00     0.033 A 
ATOM      4  C4  UNL d   1      -1.186  -1.085  -1.583  0.00  0.00    -0.042 A 
ATOM      5  C5  UNL d   1       0.162  -0.744  -1.599  0.00  0.00     0.033 A 
ATOM      6  C6  UNL d   1       0.573   0.505  -1.126  0.00  0.00    -0.057 A 
ENDROOT
BRANCH   1   7
ATOM      7  N   UNL d   1       0.123   2.700  -0.253  0.00  0.00    -0.732 N 
ATOM      8  C   UNL d   1      -0.004   3.174   1.109  0.00  0.00     0.284 C 
ATOM      9  H3  UNL d   1       1.015   2.923  -0.689  0.00  0.00     0.395 HD
ENDBRANCH   1   7
TORSDOF 1
ENDMDL
