MODEL 1
REMARK minimizedAffinity 2.35770082
REMARK minimizedRMSD -1
REMARK  1 active torsions:
REMARK  status: ('A' for Active; 'I' for Inactive)
REMARK    1  A    between atoms: C1_2  and  C2_3 
ROOT
ATOM      1  C2  UNL d   1       1.812  -3.572   4.013  0.00  0.00    -0.076 A 
ATOM      2  C3  UNL d   1       0.859  -2.551   4.173  0.00  0.00     0.004 A 
ATOM      3  C4  UNL d   1       1.023  -1.313   3.554  0.00  0.00    -0.003 A 
ATOM      4  C5  UNL d   1       2.143  -1.076   2.765  0.00  0.00     0.000 A 
ATOM      5  C6  UNL d   1       3.090  -2.083   2.581  0.00  0.00     0.000 A 
ATOM      6  C7  UNL d   1       2.932  -3.342   3.185  0.00  0.00    -0.073 A 
ATOM      7  C8  UNL d   1       3.987  -4.389   2.958  0.00  0.00     0.078 C 
ENDROOT
BRANCH   1   8
ATOM      8  C1  UNL d   1       1.595  -4.885   4.731  0.00  0.00     0.053 C 
ATOM      9  C   UNL d   1       0.612  -4.762   5.886  0.00  0.00     0.018 C 
ENDBRANCH   1   8
TORSDOF 1
ENDMDL
