MODEL 1
REMARK minimizedAffinity 2.43075442
REMARK minimizedRMSD -1
REMARK  1 active torsions:
REMARK  status: ('A' for Active; 'I' for Inactive)
REMARK    1  A    between atoms: C1_2  and  C2_3 
ROOT
ATOM      1  C2  UNL d   1       3.526  -5.758  -4.621  0.00  0.00    -0.076 A 
ATOM      2  C3  UNL d   1       2.686  -5.648  -3.498  0.00  0.00     0.004 A 
ATOM      3  C4  UNL d   1       3.207  -5.687  -2.206  0.00  0.00    -0.003 A 
ATOM      4  C5  UNL d   1       4.576  -5.836  -2.015  0.00  0.00     0.000 A 
ATOM      5  C6  UNL d   1       5.426  -5.928  -3.117  0.00  0.00     0.000 A 
ATOM      6  C7  UNL d   1       4.919  -5.874  -4.427  0.00  0.00    -0.073 A 
ATOM      7  C8  UNL d   1       5.880  -5.984  -5.578  0.00  0.00     0.078 C 
ENDROOT
BRANCH   1   8
ATOM      8  C1  UNL d   1       2.901  -5.736  -5.997  0.00  0.00     0.053 C 
ATOM      9  C   UNL d   1       1.403  -5.999  -5.962  0.00  0.00     0.018 C 
ENDBRANCH   1   8
TORSDOF 1
ENDMDL
