MODEL 1
REMARK minimizedAffinity 13.2808104
REMARK minimizedRMSD -1
REMARK  1 active torsions:
REMARK  status: ('A' for Active; 'I' for Inactive)
REMARK    1  A    between atoms: C1_2  and  C2_3 
ROOT
ATOM      1  C2  UNL d   1       2.252  -4.066   3.837  0.00  0.00    -0.076 A 
ATOM      2  C3  UNL d   1       1.054  -4.795   3.933  0.00  0.00     0.004 A 
ATOM      3  C4  UNL d   1       0.822  -5.655   5.005  0.00  0.00    -0.003 A 
ATOM      4  C5  UNL d   1       1.783  -5.798   6.000  0.00  0.00     0.000 A 
ATOM      5  C6  UNL d   1       2.970  -5.068   5.930  0.00  0.00     0.000 A 
ATOM      6  C7  UNL d   1       3.213  -4.185   4.864  0.00  0.00    -0.073 A 
ATOM      7  C8  UNL d   1       4.512  -3.428   4.835  0.00  0.00     0.078 C 
ENDROOT
BRANCH   1   8
ATOM      8  C1  UNL d   1       2.460  -3.170   2.637  0.00  0.00     0.053 C 
ATOM      9  C   UNL d   1       1.942  -1.758   2.867  0.00  0.00     0.018 C 
ENDBRANCH   1   8
TORSDOF 1
ENDMDL
