MODEL 1
REMARK minimizedAffinity 2.83300161
REMARK minimizedRMSD -1
REMARK  1 active torsions:
REMARK  status: ('A' for Active; 'I' for Inactive)
REMARK    1  A    between atoms: C1_2  and  C2_3 
ROOT
ATOM      1  C2  UNL d   1       3.931  -5.964  -3.713  0.00  0.00    -0.076 A 
ATOM      2  C3  UNL d   1       2.736  -5.982  -2.972  0.00  0.00     0.004 A 
ATOM      3  C4  UNL d   1       1.497  -5.999  -3.610  0.00  0.00    -0.003 A 
ATOM      4  C5  UNL d   1       1.432  -5.999  -4.999  0.00  0.00     0.000 A 
ATOM      5  C6  UNL d   1       2.607  -5.999  -5.749  0.00  0.00     0.000 A 
ATOM      6  C7  UNL d   1       3.865  -5.998  -5.122  0.00  0.00    -0.073 A 
ATOM      7  C8  UNL d   1       5.100  -5.992  -5.981  0.00  0.00     0.078 C 
ENDROOT
BRANCH   1   8
ATOM      8  C1  UNL d   1       5.245  -5.919  -2.967  0.00  0.00     0.053 C 
ATOM      9  C   UNL d   1       5.070  -5.556  -1.500  0.00  0.00     0.018 C 
ENDBRANCH   1   8
TORSDOF 1
ENDMDL
