MODEL 1
REMARK minimizedAffinity 2.72957683
REMARK minimizedRMSD -1
REMARK  1 active torsions:
REMARK  status: ('A' for Active; 'I' for Inactive)
REMARK    1  A    between atoms: C1_2  and  C2_3 
ROOT
ATOM      1  C2  UNL d   1       3.463  -5.902  -4.441  0.00  0.00    -0.076 A 
ATOM      2  C3  UNL d   1       2.500  -5.839  -3.419  0.00  0.00     0.004 A 
ATOM      3  C4  UNL d   1       2.876  -5.850  -2.077  0.00  0.00    -0.003 A 
ATOM      4  C5  UNL d   1       4.222  -5.923  -1.735  0.00  0.00     0.000 A 
ATOM      5  C6  UNL d   1       5.192  -5.968  -2.736  0.00  0.00     0.000 A 
ATOM      6  C7  UNL d   1       4.830  -5.941  -4.094  0.00  0.00    -0.073 A 
ATOM      7  C8  UNL d   1       5.917  -5.998  -5.132  0.00  0.00     0.078 C 
ENDROOT
BRANCH   1   8
ATOM      8  C1  UNL d   1       2.993  -5.914  -5.878  0.00  0.00     0.053 C 
ATOM      9  C   UNL d   1       1.479  -5.999  -5.996  0.00  0.00     0.018 C 
ENDBRANCH   1   8
TORSDOF 1
ENDMDL
