MODEL 1
REMARK minimizedAffinity 4.5211997
REMARK minimizedRMSD -1
REMARK  1 active torsions:
REMARK  status: ('A' for Active; 'I' for Inactive)
REMARK    1  A    between atoms: C1_2  and  C2_3 
ROOT
ATOM      1  C2  UNL d   1       1.568  -3.893   4.041  0.00  0.00    -0.076 A 
ATOM      2  C3  UNL d   1       0.376  -4.560   4.371  0.00  0.00     0.004 A 
ATOM      3  C4  UNL d   1       0.359  -5.561   5.341  0.00  0.00    -0.003 A 
ATOM      4  C5  UNL d   1       1.534  -5.910   5.998  0.00  0.00     0.000 A 
ATOM      5  C6  UNL d   1       2.723  -5.246   5.695  0.00  0.00     0.000 A 
ATOM      6  C7  UNL d   1       2.754  -4.224   4.731  0.00  0.00    -0.073 A 
ATOM      7  C8  UNL d   1       4.065  -3.545   4.440  0.00  0.00     0.078 C 
ENDROOT
BRANCH   1   8
ATOM      8  C1  UNL d   1       1.531  -2.835   2.961  0.00  0.00     0.053 C 
ATOM      9  C   UNL d   1       1.977  -1.471   3.465  0.00  0.00     0.018 C 
ENDBRANCH   1   8
TORSDOF 1
ENDMDL
