MODEL 1
REMARK minimizedAffinity 18.7844696
REMARK minimizedRMSD -1
REMARK  1 active torsions:
REMARK  status: ('A' for Active; 'I' for Inactive)
REMARK    1  A    between atoms: C1_2  and  C2_3 
ROOT
ATOM      1  C2  UNL d   1      -4.155  -1.988  -3.568  0.00  0.00    -0.076 A 
ATOM      2  C3  UNL d   1      -3.983  -1.802  -4.950  0.00  0.00     0.004 A 
ATOM      3  C4  UNL d   1      -4.798  -2.460  -5.870  0.00  0.00    -0.003 A 
ATOM      4  C5  UNL d   1      -5.799  -3.314  -5.421  0.00  0.00     0.000 A 
ATOM      5  C6  UNL d   1      -5.996  -3.497  -4.053  0.00  0.00     0.000 A 
ATOM      6  C7  UNL d   1      -5.193  -2.828  -3.112  0.00  0.00    -0.073 A 
ATOM      7  C8  UNL d   1      -5.446  -3.067  -1.649  0.00  0.00     0.078 C 
ENDROOT
BRANCH   1   8
ATOM      8  C1  UNL d   1      -3.223  -1.268  -2.619  0.00  0.00     0.053 C 
ATOM      9  C   UNL d   1      -3.089   0.211  -2.943  0.00  0.00     0.018 C 
ENDBRANCH   1   8
TORSDOF 1
ENDMDL
