MODEL 1
REMARK minimizedAffinity 1.15528822
REMARK minimizedRMSD -1
REMARK  1 active torsions:
REMARK  status: ('A' for Active; 'I' for Inactive)
REMARK    1  A    between atoms: C1_2  and  C2_3 
ROOT
ATOM      1  C2  UNL d   1       3.366   0.999  -1.520  0.00  0.00    -0.077 A 
ATOM      2  C3  UNL d   1       2.641   0.383  -0.491  0.00  0.00     0.002 A 
ATOM      3  C4  UNL d   1       2.043  -0.862  -0.695  0.00  0.00     0.002 A 
ATOM      4  C5  UNL d   1       2.168  -1.503  -1.926  0.00  0.00    -0.004 A 
ATOM      5  C6  UNL d   1       2.886  -0.899  -2.956  0.00  0.00     0.002 A 
ATOM      6  C7  UNL d   1       3.483   0.346  -2.754  0.00  0.00     0.002 A 
ENDROOT
BRANCH   1   7
ATOM      7  C1  UNL d   1       4.054   2.319  -1.286  0.00  0.00     0.055 C 
ATOM      8  C   UNL d   1       5.565   2.182  -1.394  0.00  0.00     0.019 C 
ENDBRANCH   1   7
TORSDOF 1
ENDMDL
