MODEL 1
REMARK minimizedAffinity 2.93948746
REMARK minimizedRMSD -1
REMARK  1 active torsions:
REMARK  status: ('A' for Active; 'I' for Inactive)
REMARK    1  A    between atoms: C1_2  and  C2_3 
ROOT
ATOM      1  C2  UNL d   1       3.517   1.473  -1.087  0.00  0.00    -0.077 A 
ATOM      2  C3  UNL d   1       4.114   2.174  -2.144  0.00  0.00     0.002 A 
ATOM      3  C4  UNL d   1       5.348   2.804  -1.966  0.00  0.00     0.002 A 
ATOM      4  C5  UNL d   1       5.996   2.735  -0.735  0.00  0.00    -0.004 A 
ATOM      5  C6  UNL d   1       5.409   2.042   0.323  0.00  0.00     0.002 A 
ATOM      6  C7  UNL d   1       4.175   1.413   0.148  0.00  0.00     0.002 A 
ENDROOT
BRANCH   1   7
ATOM      7  C1  UNL d   1       2.210   0.752  -1.292  0.00  0.00     0.055 C 
ATOM      8  C   UNL d   1       1.850  -0.096  -0.080  0.00  0.00     0.019 C 
ENDBRANCH   1   7
TORSDOF 1
ENDMDL
