MODEL 1
REMARK minimizedAffinity 3.42616463
REMARK minimizedRMSD -1
REMARK  1 active torsions:
REMARK  status: ('A' for Active; 'I' for Inactive)
REMARK    1  A    between atoms: C1_2  and  C2_3 
ROOT
ATOM      1  C2  UNL d   1       2.741   0.361  -0.536  0.00  0.00    -0.077 A 
ATOM      2  C3  UNL d   1       4.036   0.610  -1.011  0.00  0.00     0.002 A 
ATOM      3  C4  UNL d   1       4.585   1.892  -0.926  0.00  0.00     0.002 A 
ATOM      4  C5  UNL d   1       3.848   2.931  -0.363  0.00  0.00    -0.004 A 
ATOM      5  C6  UNL d   1       2.558   2.694   0.110  0.00  0.00     0.002 A 
ATOM      6  C7  UNL d   1       2.007   1.414   0.025  0.00  0.00     0.002 A 
ENDROOT
BRANCH   1   7
ATOM      7  C1  UNL d   1       2.166  -1.031  -0.582  0.00  0.00     0.055 C 
ATOM      8  C   UNL d   1       2.226  -1.608  -1.988  0.00  0.00     0.019 C 
ENDBRANCH   1   7
TORSDOF 1
ENDMDL
