MODEL 1
REMARK minimizedAffinity -1.90391302
REMARK minimizedRMSD -1
REMARK  1 active torsions:
REMARK  status: ('A' for Active; 'I' for Inactive)
REMARK    1  A    between atoms: C1_2  and  C2_3 
ROOT
ATOM      1  C2  UNL d   1       4.214   1.134  -0.539  0.00  0.00    -0.077 A 
ATOM      2  C3  UNL d   1       3.245   2.144  -0.453  0.00  0.00     0.002 A 
ATOM      3  C4  UNL d   1       1.901   1.820  -0.260  0.00  0.00     0.002 A 
ATOM      4  C5  UNL d   1       1.514   0.486  -0.146  0.00  0.00    -0.004 A 
ATOM      5  C6  UNL d   1       2.469  -0.526  -0.231  0.00  0.00     0.002 A 
ATOM      6  C7  UNL d   1       3.813  -0.204  -0.426  0.00  0.00     0.002 A 
ENDROOT
BRANCH   1   7
ATOM      7  C1  UNL d   1       5.670   1.483  -0.698  0.00  0.00     0.055 C 
ATOM      8  C   UNL d   1       6.000   2.804  -0.018  0.00  0.00     0.019 C 
ENDBRANCH   1   7
TORSDOF 1
ENDMDL
