MODEL 1
REMARK minimizedAffinity 5.38417196
REMARK minimizedRMSD -1
REMARK  1 active torsions:
REMARK  status: ('A' for Active; 'I' for Inactive)
REMARK    1  A    between atoms: C1_2  and  C2_3 
ROOT
ATOM      1  C2  UNL d   1       0.368  -1.614   0.987  0.00  0.00    -0.077 A 
ATOM      2  C3  UNL d   1       1.097  -1.082  -0.086  0.00  0.00     0.002 A 
ATOM      3  C4  UNL d   1       0.579  -1.125  -1.382  0.00  0.00     0.002 A 
ATOM      4  C5  UNL d   1      -0.670  -1.695  -1.617  0.00  0.00    -0.004 A 
ATOM      5  C6  UNL d   1      -1.402  -2.228  -0.556  0.00  0.00     0.002 A 
ATOM      6  C7  UNL d   1      -0.886  -2.187   0.739  0.00  0.00     0.002 A 
ENDROOT
BRANCH   1   7
ATOM      7  C1  UNL d   1       0.903  -1.524   2.392  0.00  0.00     0.055 C 
ATOM      8  C   UNL d   1      -0.167  -1.875   3.415  0.00  0.00     0.019 C 
ENDBRANCH   1   7
TORSDOF 1
ENDMDL
