MODEL 1
REMARK minimizedAffinity 1.85692573
REMARK minimizedRMSD -1
REMARK  1 active torsions:
REMARK  status: ('A' for Active; 'I' for Inactive)
REMARK    1  A    between atoms: C1_2  and  C2_3 
ROOT
ATOM      1  C2  UNL d   1       2.487   0.868   0.716  0.00  0.00    -0.077 A 
ATOM      2  C3  UNL d   1       3.468   1.417  -0.121  0.00  0.00     0.002 A 
ATOM      3  C4  UNL d   1       3.649   0.924  -1.415  0.00  0.00     0.002 A 
ATOM      4  C5  UNL d   1       2.850  -0.117  -1.883  0.00  0.00    -0.004 A 
ATOM      5  C6  UNL d   1       1.873  -0.671  -1.057  0.00  0.00     0.002 A 
ATOM      6  C7  UNL d   1       1.691  -0.180   0.236  0.00  0.00     0.002 A 
ENDROOT
BRANCH   1   7
ATOM      7  C1  UNL d   1       2.257   1.432   2.094  0.00  0.00     0.055 C 
ATOM      8  C   UNL d   1       1.835   0.346   3.073  0.00  0.00     0.019 C 
ENDBRANCH   1   7
TORSDOF 1
ENDMDL
