MODEL 1
REMARK minimizedAffinity 2.33380032
REMARK minimizedRMSD -1
REMARK  1 active torsions:
REMARK  status: ('A' for Active; 'I' for Inactive)
REMARK    1  A    between atoms: C1_2  and  C2_3 
ROOT
ATOM      1  C2  UNL d   1       4.461   0.204  -1.240  0.00  0.00    -0.077 A 
ATOM      2  C3  UNL d   1       4.399  -0.455  -2.477  0.00  0.00     0.002 A 
ATOM      3  C4  UNL d   1       3.383  -1.376  -2.736  0.00  0.00     0.002 A 
ATOM      4  C5  UNL d   1       2.419  -1.645  -1.766  0.00  0.00    -0.004 A 
ATOM      5  C6  UNL d   1       2.473  -0.996  -0.533  0.00  0.00     0.002 A 
ATOM      6  C7  UNL d   1       3.489  -0.075  -0.271  0.00  0.00     0.002 A 
ENDROOT
BRANCH   1   7
ATOM      7  C1  UNL d   1       5.527   1.235  -0.977  0.00  0.00     0.055 C 
ATOM      8  C   UNL d   1       4.930   2.629  -0.850  0.00  0.00     0.019 C 
ENDBRANCH   1   7
TORSDOF 1
ENDMDL
