MODEL 1
REMARK minimizedAffinity -0.95788604
REMARK minimizedRMSD -1
REMARK  1 active torsions:
REMARK  status: ('A' for Active; 'I' for Inactive)
REMARK    1  A    between atoms: C1_2  and  C2_3 
ROOT
ATOM      1  C2  UNL d   1       3.570   0.527  -1.199  0.00  0.00    -0.077 A 
ATOM      2  C3  UNL d   1       3.445  -0.860  -1.358  0.00  0.00     0.002 A 
ATOM      3  C4  UNL d   1       2.294  -1.520  -0.923  0.00  0.00     0.002 A 
ATOM      4  C5  UNL d   1       1.259  -0.801  -0.329  0.00  0.00    -0.004 A 
ATOM      5  C6  UNL d   1       1.374   0.578  -0.164  0.00  0.00     0.002 A 
ATOM      6  C7  UNL d   1       2.524   1.240  -0.598  0.00  0.00     0.002 A 
ENDROOT
BRANCH   1   7
ATOM      7  C1  UNL d   1       4.789   1.248  -1.712  0.00  0.00     0.055 C 
ATOM      8  C   UNL d   1       4.808   2.699  -1.254  0.00  0.00     0.019 C 
ENDBRANCH   1   7
TORSDOF 1
ENDMDL
