MODEL 1
REMARK minimizedAffinity 2.5386014
REMARK minimizedRMSD -1
REMARK  1 active torsions:
REMARK  status: ('A' for Active; 'I' for Inactive)
REMARK    1  A    between atoms: C1_2  and  C2_3 
ROOT
ATOM      1  C2  UNL d   1       2.676  -0.116  -0.955  0.00  0.00    -0.077 A 
ATOM      2  C3  UNL d   1       3.857   0.256  -1.612  0.00  0.00     0.002 A 
ATOM      3  C4  UNL d   1       4.260   1.592  -1.637  0.00  0.00     0.002 A 
ATOM      4  C5  UNL d   1       3.491   2.566  -1.004  0.00  0.00    -0.004 A 
ATOM      5  C6  UNL d   1       2.314   2.207  -0.350  0.00  0.00     0.002 A 
ATOM      6  C7  UNL d   1       1.908   0.872  -0.325  0.00  0.00     0.002 A 
ENDROOT
BRANCH   1   7
ATOM      7  C1  UNL d   1       2.264  -1.563  -0.884  0.00  0.00     0.055 C 
ATOM      8  C   UNL d   1       1.135  -1.770   0.114  0.00  0.00     0.019 C 
ENDBRANCH   1   7
TORSDOF 1
ENDMDL
