MODEL 1
REMARK minimizedAffinity 3.98475409
REMARK minimizedRMSD -1
REMARK  1 active torsions:
REMARK  status: ('A' for Active; 'I' for Inactive)
REMARK    1  A    between atoms: C1_2  and  C2_3 
ROOT
ATOM      1  C2  UNL d   1       3.574   1.690  -1.058  0.00  0.00    -0.077 A 
ATOM      2  C3  UNL d   1       4.278   1.839   0.145  0.00  0.00     0.002 A 
ATOM      3  C4  UNL d   1       5.486   2.538   0.175  0.00  0.00     0.002 A 
ATOM      4  C5  UNL d   1       5.999   3.096  -0.995  0.00  0.00    -0.004 A 
ATOM      5  C6  UNL d   1       5.308   2.950  -2.197  0.00  0.00     0.002 A 
ATOM      6  C7  UNL d   1       4.100   2.251  -2.228  0.00  0.00     0.002 A 
ENDROOT
BRANCH   1   7
ATOM      7  C1  UNL d   1       2.246   0.979  -1.083  0.00  0.00     0.055 C 
ATOM      8  C   UNL d   1       2.193  -0.131  -0.043  0.00  0.00     0.019 C 
ENDBRANCH   1   7
TORSDOF 1
ENDMDL
