MODEL 1
REMARK minimizedAffinity 6.06789875
REMARK minimizedRMSD -1
REMARK  0 active torsions:
REMARK  status: ('A' for Active; 'I' for Inactive)
ROOT
ATOM      1  C   UNL d   1       0.942  -1.094   1.342  0.00  0.00     0.124 A 
ATOM      2  C1  UNL d   1      -0.265  -0.441   1.554  0.00  0.00     0.062 A 
ATOM      3  C2  UNL d   1      -0.741   0.471   0.617  0.00  0.00     0.162 A 
ATOM      4  C3  UNL d   1      -0.010   0.736  -0.542  0.00  0.00    -0.034 A 
ATOM      5  C4  UNL d   1       1.203   0.077  -0.747  0.00  0.00     0.162 A 
ATOM      6  C5  UNL d   1       1.674  -0.834   0.193  0.00  0.00     0.062 A 
ATOM      7  F   UNL d   1       2.840  -1.464  -0.013  0.00  0.00    -0.097 F 
ATOM      8  F1  UNL d   1       1.931   0.308  -1.850  0.00  0.00    -0.096 F 
ATOM      9  I   UNL d   1      -0.719   2.100  -1.945  0.00  0.00    -0.060 I 
ATOM     10  F2  UNL d   1      -1.910   1.087   0.847  0.00  0.00    -0.096 F 
ATOM     11  F3  UNL d   1      -0.974  -0.690   2.664  0.00  0.00    -0.097 F 
ATOM     12  F4  UNL d   1       1.398  -1.971   2.246  0.00  0.00    -0.092 F 
ENDROOT
TORSDOF 0
ENDMDL
