MODEL 1
REMARK minimizedAffinity -2.30782437
REMARK minimizedRMSD -1
REMARK  0 active torsions:
REMARK  status: ('A' for Active; 'I' for Inactive)
ROOT
ATOM      1  C   UNL d   1       1.401  -1.755   2.234  0.00  0.00     0.124 A 
ATOM      2  C1  UNL d   1       2.068  -1.315   1.099  0.00  0.00     0.062 A 
ATOM      3  C2  UNL d   1       1.429  -0.475   0.193  0.00  0.00     0.162 A 
ATOM      4  C3  UNL d   1       0.113  -0.068   0.418  0.00  0.00    -0.034 A 
ATOM      5  C4  UNL d   1      -0.552  -0.515   1.561  0.00  0.00     0.162 A 
ATOM      6  C5  UNL d   1       0.092  -1.355   2.464  0.00  0.00     0.062 A 
ATOM      7  F   UNL d   1      -0.554  -1.780   3.559  0.00  0.00    -0.097 F 
ATOM      8  F1  UNL d   1      -1.816  -0.143   1.808  0.00  0.00    -0.096 F 
ATOM      9  I   UNL d   1      -0.847   1.189  -0.935  0.00  0.00    -0.060 I 
ATOM     10  F2  UNL d   1       2.098  -0.065  -0.895  0.00  0.00    -0.096 F 
ATOM     11  F3  UNL d   1       3.333  -1.701   0.875  0.00  0.00    -0.097 F 
ATOM     12  F4  UNL d   1       2.019  -2.565   3.104  0.00  0.00    -0.092 F 
ENDROOT
TORSDOF 0
ENDMDL
