MODEL 1
REMARK minimizedAffinity -0.273768604
REMARK minimizedRMSD -1
REMARK  0 active torsions:
REMARK  status: ('A' for Active; 'I' for Inactive)
ROOT
ATOM      1  C   UNL d   1       0.664  -0.802   0.765  0.00  0.00     0.124 A 
ATOM      2  C1  UNL d   1       1.358  -0.801  -0.437  0.00  0.00     0.062 A 
ATOM      3  C2  UNL d   1       0.988   0.069  -1.458  0.00  0.00     0.162 A 
ATOM      4  C3  UNL d   1      -0.082   0.946  -1.282  0.00  0.00    -0.034 A 
ATOM      5  C4  UNL d   1      -0.777   0.938  -0.071  0.00  0.00     0.162 A 
ATOM      6  C5  UNL d   1      -0.402   0.067   0.947  0.00  0.00     0.062 A 
ATOM      7  F   UNL d   1      -1.075   0.067   2.107  0.00  0.00    -0.097 F 
ATOM      8  F1  UNL d   1      -1.810   1.768   0.132  0.00  0.00    -0.096 F 
ATOM      9  I   UNL d   1      -0.639   2.249  -2.807  0.00  0.00    -0.060 I 
ATOM     10  F2  UNL d   1       1.677   0.049  -2.609  0.00  0.00    -0.096 F 
ATOM     11  F3  UNL d   1       2.388  -1.640  -0.615  0.00  0.00    -0.097 F 
ATOM     12  F4  UNL d   1       1.022  -1.641   1.746  0.00  0.00    -0.092 F 
ENDROOT
TORSDOF 0
ENDMDL
