MODEL 1
REMARK minimizedAffinity 0.0500699058
REMARK minimizedRMSD -1
REMARK  0 active torsions:
REMARK  status: ('A' for Active; 'I' for Inactive)
ROOT
ATOM      1  C   UNL d   1       1.545   0.151  -0.506  0.00  0.00     0.124 A 
ATOM      2  C1  UNL d   1       1.959  -0.900   0.300  0.00  0.00     0.062 A 
ATOM      3  C2  UNL d   1       1.159  -1.330   1.355  0.00  0.00     0.162 A 
ATOM      4  C3  UNL d   1      -0.064  -0.709   1.610  0.00  0.00    -0.034 A 
ATOM      5  C4  UNL d   1      -0.473   0.349   0.795  0.00  0.00     0.162 A 
ATOM      6  C5  UNL d   1       0.330   0.774  -0.258  0.00  0.00     0.062 A 
ATOM      7  F   UNL d   1      -0.071   1.790  -1.036  0.00  0.00    -0.097 F 
ATOM      8  F1  UNL d   1      -1.642   0.968   1.012  0.00  0.00    -0.096 F 
ATOM      9  I   UNL d   1      -1.262  -1.348   3.186  0.00  0.00    -0.060 I 
ATOM     10  F2  UNL d   1       1.584  -2.348   2.118  0.00  0.00    -0.096 F 
ATOM     11  F3  UNL d   1       3.133  -1.503   0.063  0.00  0.00    -0.097 F 
ATOM     12  F4  UNL d   1       2.317   0.563  -1.520  0.00  0.00    -0.092 F 
ENDROOT
TORSDOF 0
ENDMDL
