MODEL 1
REMARK minimizedAffinity 5.80020809
REMARK minimizedRMSD -1
REMARK  0 active torsions:
REMARK  status: ('A' for Active; 'I' for Inactive)
ROOT
ATOM      1  C   UNL d   1       1.233  -1.277   1.565  0.00  0.00     0.124 A 
ATOM      2  C1  UNL d   1       1.945  -0.902   0.434  0.00  0.00     0.062 A 
ATOM      3  C2  UNL d   1       1.379  -0.031  -0.492  0.00  0.00     0.162 A 
ATOM      4  C3  UNL d   1       0.094   0.473  -0.290  0.00  0.00    -0.034 A 
ATOM      5  C4  UNL d   1      -0.616   0.091   0.850  0.00  0.00     0.162 A 
ATOM      6  C5  UNL d   1      -0.046  -0.781   1.772  0.00  0.00     0.062 A 
ATOM      7  F   UNL d   1      -0.735  -1.142   2.865  0.00  0.00    -0.097 F 
ATOM      8  F1  UNL d   1      -1.853   0.556   1.075  0.00  0.00    -0.096 F 
ATOM      9  I   UNL d   1      -0.756   1.777  -1.672  0.00  0.00    -0.060 I 
ATOM     10  F2  UNL d   1       2.089   0.314  -1.576  0.00  0.00    -0.096 F 
ATOM     11  F3  UNL d   1       3.180  -1.382   0.231  0.00  0.00    -0.097 F 
ATOM     12  F4  UNL d   1       1.780  -2.117   2.454  0.00  0.00    -0.092 F 
ENDROOT
TORSDOF 0
ENDMDL
