MODEL 1
REMARK minimizedAffinity -1.62178361
REMARK minimizedRMSD -1
REMARK  0 active torsions:
REMARK  status: ('A' for Active; 'I' for Inactive)
ROOT
ATOM      1  C   UNL d   1       1.043  -0.952   0.925  0.00  0.00     0.124 A 
ATOM      2  C1  UNL d   1      -0.261  -0.491   1.046  0.00  0.00     0.062 A 
ATOM      3  C2  UNL d   1      -0.727   0.520   0.210  0.00  0.00     0.162 A 
ATOM      4  C3  UNL d   1       0.112   1.077  -0.755  0.00  0.00    -0.034 A 
ATOM      5  C4  UNL d   1       1.423   0.610  -0.869  0.00  0.00     0.162 A 
ATOM      6  C5  UNL d   1       1.883  -0.401  -0.032  0.00  0.00     0.062 A 
ATOM      7  F   UNL d   1       3.143  -0.844  -0.150  0.00  0.00    -0.097 F 
ATOM      8  F1  UNL d   1       2.256   1.124  -1.786  0.00  0.00    -0.096 F 
ATOM      9  I   UNL d   1      -0.580   2.589  -2.006  0.00  0.00    -0.060 I 
ATOM     10  F2  UNL d   1      -1.991   0.945   0.349  0.00  0.00    -0.096 F 
ATOM     11  F3  UNL d   1      -1.075  -1.021   1.970  0.00  0.00    -0.097 F 
ATOM     12  F4  UNL d   1       1.488  -1.924   1.731  0.00  0.00    -0.092 F 
ENDROOT
TORSDOF 0
ENDMDL
