MODEL 1
REMARK minimizedAffinity 5.59674835
REMARK minimizedRMSD -1
REMARK  0 active torsions:
REMARK  status: ('A' for Active; 'I' for Inactive)
ROOT
ATOM      1  C   UNL d   1       1.208  -0.991   1.152  0.00  0.00     0.124 A 
ATOM      2  C1  UNL d   1      -0.164  -0.783   1.203  0.00  0.00     0.062 A 
ATOM      3  C2  UNL d   1      -0.763   0.147   0.358  0.00  0.00     0.162 A 
ATOM      4  C3  UNL d   1       0.009   0.874  -0.548  0.00  0.00    -0.034 A 
ATOM      5  C4  UNL d   1       1.388   0.660  -0.593  0.00  0.00     0.162 A 
ATOM      6  C5  UNL d   1       1.982  -0.269   0.254  0.00  0.00     0.062 A 
ATOM      7  F   UNL d   1       3.307  -0.469   0.203  0.00  0.00    -0.097 F 
ATOM      8  F1  UNL d   1       2.160   1.343  -1.452  0.00  0.00    -0.096 F 
ATOM      9  I   UNL d   1      -0.883   2.265  -1.814  0.00  0.00    -0.060 I 
ATOM     10  F2  UNL d   1      -2.090   0.327   0.429  0.00  0.00    -0.096 F 
ATOM     11  F3  UNL d   1      -0.914  -1.478   2.070  0.00  0.00    -0.097 F 
ATOM     12  F4  UNL d   1       1.782  -1.885   1.967  0.00  0.00    -0.092 F 
ENDROOT
TORSDOF 0
ENDMDL
