MODEL 1
REMARK minimizedAffinity 0.259751916
REMARK minimizedRMSD -1
REMARK  0 active torsions:
REMARK  status: ('A' for Active; 'I' for Inactive)
ROOT
ATOM      1  C   UNL d   1       1.252  -1.526   0.987  0.00  0.00     0.124 A 
ATOM      2  C1  UNL d   1      -0.044  -1.058   1.149  0.00  0.00     0.062 A 
ATOM      3  C2  UNL d   1      -0.526  -0.034   0.340  0.00  0.00     0.162 A 
ATOM      4  C3  UNL d   1       0.290   0.530  -0.641  0.00  0.00    -0.034 A 
ATOM      5  C4  UNL d   1       1.593   0.056  -0.798  0.00  0.00     0.162 A 
ATOM      6  C5  UNL d   1       2.070  -0.969   0.014  0.00  0.00     0.062 A 
ATOM      7  F   UNL d   1       3.323  -1.419  -0.145  0.00  0.00    -0.097 F 
ATOM      8  F1  UNL d   1       2.404   0.575  -1.731  0.00  0.00    -0.096 F 
ATOM      9  I   UNL d   1      -0.426   2.062  -1.854  0.00  0.00    -0.060 I 
ATOM     10  F2  UNL d   1      -1.783   0.398   0.519  0.00  0.00    -0.096 F 
ATOM     11  F3  UNL d   1      -0.836  -1.594   2.090  0.00  0.00    -0.097 F 
ATOM     12  F4  UNL d   1       1.713  -2.511   1.768  0.00  0.00    -0.092 F 
ENDROOT
TORSDOF 0
ENDMDL
