MODEL 1
REMARK minimizedAffinity 0.368557036
REMARK minimizedRMSD -1
REMARK  0 active torsions:
REMARK  status: ('A' for Active; 'I' for Inactive)
ROOT
ATOM      1  C   UNL d   1       2.291  -0.976   0.050  0.00  0.00     0.124 A 
ATOM      2  C1  UNL d   1       1.782   0.314   0.089  0.00  0.00     0.062 A 
ATOM      3  C2  UNL d   1       0.484   0.541   0.539  0.00  0.00     0.162 A 
ATOM      4  C3  UNL d   1      -0.313  -0.525   0.954  0.00  0.00    -0.034 A 
ATOM      5  C4  UNL d   1       0.206  -1.820   0.911  0.00  0.00     0.162 A 
ATOM      6  C5  UNL d   1       1.503  -2.042   0.461  0.00  0.00     0.062 A 
ATOM      7  F   UNL d   1       1.994  -3.289   0.424  0.00  0.00    -0.097 F 
ATOM      8  F1  UNL d   1      -0.534  -2.868   1.303  0.00  0.00    -0.096 F 
ATOM      9  I   UNL d   1      -2.254  -0.189   1.627  0.00  0.00    -0.060 I 
ATOM     10  F2  UNL d   1       0.018   1.799   0.566  0.00  0.00    -0.096 F 
ATOM     11  F3  UNL d   1       2.541   1.346  -0.309  0.00  0.00    -0.097 F 
ATOM     12  F4  UNL d   1       3.540  -1.192  -0.384  0.00  0.00    -0.092 F 
ENDROOT
TORSDOF 0
ENDMDL
