MODEL 1
REMARK minimizedAffinity -2.99535537
REMARK minimizedRMSD -1
REMARK  0 active torsions:
REMARK  status: ('A' for Active; 'I' for Inactive)
ROOT
ATOM      1  C   UNL d   1       0.666  -1.912   2.124  0.00  0.00     0.124 A 
ATOM      2  C1  UNL d   1       1.492  -1.433   1.116  0.00  0.00     0.062 A 
ATOM      3  C2  UNL d   1       1.039  -0.439   0.254  0.00  0.00     0.162 A 
ATOM      4  C3  UNL d   1      -0.247   0.084   0.396  0.00  0.00    -0.034 A 
ATOM      5  C4  UNL d   1      -1.071  -0.403   1.411  0.00  0.00     0.162 A 
ATOM      6  C5  UNL d   1      -0.614  -1.397   2.271  0.00  0.00     0.062 A 
ATOM      7  F   UNL d   1      -1.413  -1.858   3.244  0.00  0.00    -0.097 F 
ATOM      8  F1  UNL d   1      -2.313   0.077   1.576  0.00  0.00    -0.096 F 
ATOM      9  I   UNL d   1      -0.927   1.570  -0.892  0.00  0.00    -0.060 I 
ATOM     10  F2  UNL d   1       1.858   0.005  -0.711  0.00  0.00    -0.096 F 
ATOM     11  F3  UNL d   1       2.729  -1.930   0.972  0.00  0.00    -0.097 F 
ATOM     12  F4  UNL d   1       1.104  -2.869   2.952  0.00  0.00    -0.092 F 
ENDROOT
TORSDOF 0
ENDMDL
