MODEL 1
REMARK minimizedAffinity 5.73059893
REMARK minimizedRMSD -1
REMARK  0 active torsions:
REMARK  status: ('A' for Active; 'I' for Inactive)
ROOT
ATOM      1  C   UNL d   1      -1.127   0.328   1.264  0.00  0.00     0.124 A 
ATOM      2  C1  UNL d   1      -2.380   0.075   0.723  0.00  0.00     0.062 A 
ATOM      3  C2  UNL d   1      -2.633   0.354  -0.617  0.00  0.00     0.162 A 
ATOM      4  C3  UNL d   1      -1.631   0.889  -1.426  0.00  0.00    -0.034 A 
ATOM      5  C4  UNL d   1      -0.374   1.142  -0.874  0.00  0.00     0.162 A 
ATOM      6  C5  UNL d   1      -0.125   0.861   0.465  0.00  0.00     0.062 A 
ATOM      7  F   UNL d   1       1.086   1.107   0.986  0.00  0.00    -0.097 F 
ATOM      8  F1  UNL d   1       0.613   1.656  -1.624  0.00  0.00    -0.096 F 
ATOM      9  I   UNL d   1      -2.006   1.308  -3.430  0.00  0.00    -0.060 I 
ATOM     10  F2  UNL d   1      -3.853   0.099  -1.113  0.00  0.00    -0.096 F 
ATOM     11  F3  UNL d   1      -3.350  -0.440   1.493  0.00  0.00    -0.097 F 
ATOM     12  F4  UNL d   1      -0.886   0.059   2.554  0.00  0.00    -0.092 F 
ENDROOT
TORSDOF 0
ENDMDL
