MODEL 1
REMARK minimizedAffinity 1.5547936
REMARK minimizedRMSD -1
REMARK  0 active torsions:
REMARK  status: ('A' for Active; 'I' for Inactive)
ROOT
ATOM      1  C   UNL d   1       2.304  -0.656   0.936  0.00  0.00     0.124 A 
ATOM      2  C1  UNL d   1       1.773   0.081  -0.114  0.00  0.00     0.062 A 
ATOM      3  C2  UNL d   1       0.450   0.510  -0.069  0.00  0.00     0.162 A 
ATOM      4  C3  UNL d   1      -0.353   0.203   1.030  0.00  0.00    -0.034 A 
ATOM      5  C4  UNL d   1       0.188  -0.539   2.081  0.00  0.00     0.162 A 
ATOM      6  C5  UNL d   1       1.511  -0.966   2.032  0.00  0.00     0.062 A 
ATOM      7  F   UNL d   1       2.022  -1.678   3.047  0.00  0.00    -0.097 F 
ATOM      8  F1  UNL d   1      -0.555  -0.852   3.153  0.00  0.00    -0.096 F 
ATOM      9  I   UNL d   1      -2.332   0.842   1.101  0.00  0.00    -0.060 I 
ATOM     10  F2  UNL d   1      -0.037   1.220  -1.097  0.00  0.00    -0.096 F 
ATOM     11  F3  UNL d   1       2.537   0.380  -1.175  0.00  0.00    -0.097 F 
ATOM     12  F4  UNL d   1       3.577  -1.068   0.889  0.00  0.00    -0.092 F 
ENDROOT
TORSDOF 0
ENDMDL
