MODEL 1
REMARK minimizedAffinity 0.232109815
REMARK minimizedRMSD -1
REMARK  0 active torsions:
REMARK  status: ('A' for Active; 'I' for Inactive)
ROOT
ATOM      1  C   UNL d   1       0.669  -1.241   2.304  0.00  0.00     0.124 A 
ATOM      2  C1  UNL d   1       1.475  -0.899   1.227  0.00  0.00     0.062 A 
ATOM      3  C2  UNL d   1       0.992  -0.055   0.232  0.00  0.00     0.162 A 
ATOM      4  C3  UNL d   1      -0.305   0.455   0.309  0.00  0.00    -0.034 A 
ATOM      5  C4  UNL d   1      -1.109   0.106   1.395  0.00  0.00     0.162 A 
ATOM      6  C5  UNL d   1      -0.622  -0.738   2.387  0.00  0.00     0.062 A 
ATOM      7  F   UNL d   1      -1.402  -1.068   3.427  0.00  0.00    -0.097 F 
ATOM      8  F1  UNL d   1      -2.360   0.578   1.501  0.00  0.00    -0.096 F 
ATOM      9  I   UNL d   1      -1.031   1.718  -1.177  0.00  0.00    -0.060 I 
ATOM     10  F2  UNL d   1       1.792   0.259  -0.798  0.00  0.00    -0.096 F 
ATOM     11  F3  UNL d   1       2.722  -1.384   1.144  0.00  0.00    -0.097 F 
ATOM     12  F4  UNL d   1       1.136  -2.055   3.260  0.00  0.00    -0.092 F 
ENDROOT
TORSDOF 0
ENDMDL
