MODEL 1
REMARK minimizedAffinity 4.65272999
REMARK minimizedRMSD -1
REMARK  0 active torsions:
REMARK  status: ('A' for Active; 'I' for Inactive)
ROOT
ATOM      1  C   UNL d   1      -0.285  -0.204   0.889  0.00  0.00     0.124 A 
ATOM      2  C1  UNL d   1       0.584   0.608   0.174  0.00  0.00     0.062 A 
ATOM      3  C2  UNL d   1       0.201   1.130  -1.058  0.00  0.00     0.162 A 
ATOM      4  C3  UNL d   1      -1.059   0.843  -1.583  0.00  0.00    -0.034 A 
ATOM      5  C4  UNL d   1      -1.928   0.024  -0.859  0.00  0.00     0.162 A 
ATOM      6  C5  UNL d   1      -1.540  -0.495   0.372  0.00  0.00     0.062 A 
ATOM      7  F   UNL d   1      -2.381  -1.280   1.061  0.00  0.00    -0.097 F 
ATOM      8  F1  UNL d   1      -3.146  -0.273  -1.334  0.00  0.00    -0.096 F 
ATOM      9  I   UNL d   1      -1.636   1.621  -3.425  0.00  0.00    -0.060 I 
ATOM     10  F2  UNL d   1       1.061   1.912  -1.726  0.00  0.00    -0.096 F 
ATOM     11  F3  UNL d   1       1.797   0.890   0.671  0.00  0.00    -0.097 F 
ATOM     12  F4  UNL d   1       0.086  -0.706   2.074  0.00  0.00    -0.092 F 
ENDROOT
TORSDOF 0
ENDMDL
