MODEL 1
REMARK minimizedAffinity 6.25591993
REMARK minimizedRMSD -1
REMARK  0 active torsions:
REMARK  status: ('A' for Active; 'I' for Inactive)
ROOT
ATOM      1  C   UNL d   1       0.691  -1.136   1.739  0.00  0.00     0.124 A 
ATOM      2  C1  UNL d   1       1.527  -0.748   0.702  0.00  0.00     0.062 A 
ATOM      3  C2  UNL d   1       1.079   0.154  -0.258  0.00  0.00     0.162 A 
ATOM      4  C3  UNL d   1      -0.212   0.676  -0.185  0.00  0.00    -0.034 A 
ATOM      5  C4  UNL d   1      -1.048   0.280   0.861  0.00  0.00     0.162 A 
ATOM      6  C5  UNL d   1      -0.596  -0.622   1.818  0.00  0.00     0.062 A 
ATOM      7  F   UNL d   1      -1.405  -0.996   2.819  0.00  0.00    -0.097 F 
ATOM      8  F1  UNL d   1      -2.296   0.762   0.961  0.00  0.00    -0.096 F 
ATOM      9  I   UNL d   1      -0.886   2.026  -1.619  0.00  0.00    -0.060 I 
ATOM     10  F2  UNL d   1       1.909   0.512  -1.249  0.00  0.00    -0.096 F 
ATOM     11  F3  UNL d   1       2.771  -1.244   0.624  0.00  0.00    -0.097 F 
ATOM     12  F4  UNL d   1       1.124  -2.006   2.661  0.00  0.00    -0.092 F 
ENDROOT
TORSDOF 0
ENDMDL
