MODEL 1
REMARK minimizedAffinity -6.30614901
REMARK minimizedRMSD -1
REMARK  2 active torsions:
REMARK  status: ('A' for Active; 'I' for Inactive)
REMARK    1  A    between atoms: C1_2  and  C2_3 
REMARK    2  A    between atoms: C2_3  and  C3_4 
ROOT
ATOM      1  C3  UNL d   1       0.562   0.895   0.508  0.00  0.00    -0.075 A 
ATOM      2  C4  UNL d   1       1.730   0.767  -0.257  0.00  0.00     0.002 A 
ATOM      3  C5  UNL d   1       2.767   1.692  -0.127  0.00  0.00     0.002 A 
ATOM      4  C6  UNL d   1       2.644   2.760   0.760  0.00  0.00    -0.004 A 
ATOM      5  C7  UNL d   1       1.481   2.905   1.512  0.00  0.00     0.002 A 
ATOM      6  C8  UNL d   1       0.445   1.979   1.388  0.00  0.00     0.002 A 
ENDROOT
BRANCH   1   7
ATOM      7  C2  UNL d   1      -0.551  -0.120   0.394  0.00  0.00     0.056 C 
BRANCH   7   8
ATOM      8  C1  UNL d   1      -0.253  -1.265  -0.580  0.00  0.00     0.007 C 
ATOM      9  C   UNL d   1      -1.142  -1.247  -1.817  0.00  0.00     0.009 C 
ENDBRANCH   7   8
ENDBRANCH   1   7
TORSDOF 2
ENDMDL
