MODEL 1
REMARK minimizedAffinity -5.77593184
REMARK minimizedRMSD -1
REMARK  2 active torsions:
REMARK  status: ('A' for Active; 'I' for Inactive)
REMARK    1  A    between atoms: C1_2  and  C2_3 
REMARK    2  A    between atoms: C2_3  and  C3_4 
ROOT
ATOM      1  C3  UNL d   1       0.909   1.077   0.625  0.00  0.00    -0.075 A 
ATOM      2  C4  UNL d   1       2.032   0.647  -0.096  0.00  0.00     0.002 A 
ATOM      3  C5  UNL d   1       3.187   1.428  -0.140  0.00  0.00     0.002 A 
ATOM      4  C6  UNL d   1       3.230   2.651   0.526  0.00  0.00    -0.004 A 
ATOM      5  C7  UNL d   1       2.114   3.096   1.232  0.00  0.00     0.002 A 
ATOM      6  C8  UNL d   1       0.959   2.314   1.281  0.00  0.00     0.002 A 
ENDROOT
BRANCH   1   7
ATOM      7  C2  UNL d   1      -0.334   0.222   0.700  0.00  0.00     0.056 C 
BRANCH   7   8
ATOM      8  C1  UNL d   1      -0.779  -0.107   2.130  0.00  0.00     0.007 C 
ATOM      9  C   UNL d   1      -1.908   0.785   2.627  0.00  0.00     0.009 C 
ENDBRANCH   7   8
ENDBRANCH   1   7
TORSDOF 2
ENDMDL
