MODEL 1
REMARK minimizedAffinity -4.91904879
REMARK minimizedRMSD -1
REMARK  2 active torsions:
REMARK  status: ('A' for Active; 'I' for Inactive)
REMARK    1  A    between atoms: C1_2  and  C2_3 
REMARK    2  A    between atoms: C2_3  and  C3_4 
ROOT
ATOM      1  C3  UNL d   1       0.803   0.980   0.359  0.00  0.00    -0.075 A 
ATOM      2  C4  UNL d   1       2.008   0.402  -0.066  0.00  0.00     0.002 A 
ATOM      3  C5  UNL d   1       3.231   0.929   0.349  0.00  0.00     0.002 A 
ATOM      4  C6  UNL d   1       3.265   2.045   1.182  0.00  0.00    -0.004 A 
ATOM      5  C7  UNL d   1       2.075   2.638   1.596  0.00  0.00     0.002 A 
ATOM      6  C8  UNL d   1       0.849   2.109   1.187  0.00  0.00     0.002 A 
ENDROOT
BRANCH   1   7
ATOM      7  C2  UNL d   1      -0.525   0.396  -0.062  0.00  0.00     0.056 C 
BRANCH   7   8
ATOM      8  C1  UNL d   1      -0.480  -1.108  -0.354  0.00  0.00     0.007 C 
ATOM      9  C   UNL d   1      -1.686  -1.602  -1.142  0.00  0.00     0.009 C 
ENDBRANCH   7   8
ENDBRANCH   1   7
TORSDOF 2
ENDMDL
