MODEL 1
REMARK minimizedAffinity -3.45239592
REMARK minimizedRMSD -1
REMARK  2 active torsions:
REMARK  status: ('A' for Active; 'I' for Inactive)
REMARK    1  A    between atoms: C1_2  and  C2_3 
REMARK    2  A    between atoms: C2_3  and  C3_4 
ROOT
ATOM      1  C3  UNL d   1      -0.380  -0.123  -0.297  0.00  0.00    -0.075 A 
ATOM      2  C4  UNL d   1       0.559   0.735  -0.888  0.00  0.00     0.002 A 
ATOM      3  C5  UNL d   1       1.170   1.741  -0.139  0.00  0.00     0.002 A 
ATOM      4  C6  UNL d   1       0.844   1.908   1.205  0.00  0.00    -0.004 A 
ATOM      5  C7  UNL d   1      -0.100   1.072   1.799  0.00  0.00     0.002 A 
ATOM      6  C8  UNL d   1      -0.709   0.062   1.052  0.00  0.00     0.002 A 
ENDROOT
BRANCH   1   7
ATOM      7  C2  UNL d   1      -1.023  -1.232  -1.096  0.00  0.00     0.056 C 
BRANCH   7   8
ATOM      8  C1  UNL d   1      -1.361  -0.846  -2.539  0.00  0.00     0.007 C 
ATOM      9  C   UNL d   1      -2.847  -0.954  -2.857  0.00  0.00     0.009 C 
ENDBRANCH   7   8
ENDBRANCH   1   7
TORSDOF 2
ENDMDL
