MODEL 1
REMARK minimizedAffinity -5.7266264
REMARK minimizedRMSD -1
REMARK  2 active torsions:
REMARK  status: ('A' for Active; 'I' for Inactive)
REMARK    1  A    between atoms: C1_2  and  C2_3 
REMARK    2  A    between atoms: C2_3  and  C3_4 
ROOT
ATOM      1  C3  UNL d   1       1.185   0.921   0.111  0.00  0.00    -0.075 A 
ATOM      2  C4  UNL d   1       2.539   0.608   0.299  0.00  0.00     0.002 A 
ATOM      3  C5  UNL d   1       3.378   1.480   0.993  0.00  0.00     0.002 A 
ATOM      4  C6  UNL d   1       2.879   2.679   1.497  0.00  0.00    -0.004 A 
ATOM      5  C7  UNL d   1       1.539   3.008   1.301  0.00  0.00     0.002 A 
ATOM      6  C8  UNL d   1       0.696   2.135   0.612  0.00  0.00     0.002 A 
ENDROOT
BRANCH   1   7
ATOM      7  C2  UNL d   1       0.265  -0.033  -0.613  0.00  0.00     0.056 C 
BRANCH   7   8
ATOM      8  C1  UNL d   1      -0.456  -1.023   0.308  0.00  0.00     0.007 C 
ATOM      9  C   UNL d   1      -1.093  -0.360   1.522  0.00  0.00     0.009 C 
ENDBRANCH   7   8
ENDBRANCH   1   7
TORSDOF 2
ENDMDL
