MODEL 1
REMARK minimizedAffinity -2.01872993
REMARK minimizedRMSD -1
REMARK  2 active torsions:
REMARK  status: ('A' for Active; 'I' for Inactive)
REMARK    1  A    between atoms: C1_2  and  C2_3 
REMARK    2  A    between atoms: C2_3  and  C3_4 
ROOT
ATOM      1  C3  UNL d   1       0.902   1.321   0.411  0.00  0.00    -0.075 A 
ATOM      2  C4  UNL d   1      -0.267   0.874   1.043  0.00  0.00     0.002 A 
ATOM      3  C5  UNL d   1      -0.932  -0.263   0.582  0.00  0.00     0.002 A 
ATOM      4  C6  UNL d   1      -0.443  -0.960  -0.520  0.00  0.00    -0.004 A 
ATOM      5  C7  UNL d   1       0.709  -0.516  -1.166  0.00  0.00     0.002 A 
ATOM      6  C8  UNL d   1       1.378   0.619  -0.705  0.00  0.00     0.002 A 
ENDROOT
BRANCH   1   7
ATOM      7  C2  UNL d   1       1.643   2.533   0.923  0.00  0.00     0.056 C 
BRANCH   7   8
ATOM      8  C1  UNL d   1       1.586   2.702   2.445  0.00  0.00     0.007 C 
ATOM      9  C   UNL d   1       2.348   1.619   3.198  0.00  0.00     0.009 C 
ENDBRANCH   7   8
ENDBRANCH   1   7
TORSDOF 2
ENDMDL
