MODEL 1
REMARK minimizedAffinity -5.20542383
REMARK minimizedRMSD -1
REMARK  2 active torsions:
REMARK  status: ('A' for Active; 'I' for Inactive)
REMARK    1  A    between atoms: C1_2  and  C2_3 
REMARK    2  A    between atoms: C2_3  and  C3_4 
ROOT
ATOM      1  C3  UNL d   1       1.455   1.834   1.099  0.00  0.00    -0.075 A 
ATOM      2  C4  UNL d   1       2.620   1.095   0.845  0.00  0.00     0.002 A 
ATOM      3  C5  UNL d   1       3.491   0.766   1.883  0.00  0.00     0.002 A 
ATOM      4  C6  UNL d   1       3.215   1.179   3.185  0.00  0.00    -0.004 A 
ATOM      5  C7  UNL d   1       2.070   1.927   3.447  0.00  0.00     0.002 A 
ATOM      6  C8  UNL d   1       1.194   2.254   2.410  0.00  0.00     0.002 A 
ENDROOT
BRANCH   1   7
ATOM      7  C2  UNL d   1       0.494   2.168  -0.016  0.00  0.00     0.056 C 
BRANCH   7   8
ATOM      8  C1  UNL d   1      -0.297   0.964  -0.540  0.00  0.00     0.007 C 
ATOM      9  C   UNL d   1      -0.681  -0.023   0.554  0.00  0.00     0.009 C 
ENDBRANCH   7   8
ENDBRANCH   1   7
TORSDOF 2
ENDMDL
