MODEL 1
REMARK minimizedAffinity -3.19123292
REMARK minimizedRMSD -1
REMARK  2 active torsions:
REMARK  status: ('A' for Active; 'I' for Inactive)
REMARK    1  A    between atoms: C1_2  and  C2_3 
REMARK    2  A    between atoms: C2_3  and  C3_4 
ROOT
ATOM      1  C3  UNL d   1       0.053   0.386   0.077  0.00  0.00    -0.075 A 
ATOM      2  C4  UNL d   1      -0.690   0.732   1.215  0.00  0.00     0.002 A 
ATOM      3  C5  UNL d   1      -0.313   1.821   2.002  0.00  0.00     0.002 A 
ATOM      4  C6  UNL d   1       0.813   2.570   1.668  0.00  0.00    -0.004 A 
ATOM      5  C7  UNL d   1       1.568   2.225   0.549  0.00  0.00     0.002 A 
ATOM      6  C8  UNL d   1       1.191   1.138  -0.243  0.00  0.00     0.002 A 
ENDROOT
BRANCH   1   7
ATOM      7  C2  UNL d   1      -0.366  -0.773  -0.795  0.00  0.00     0.056 C 
BRANCH   7   8
ATOM      8  C1  UNL d   1      -1.057  -0.356  -2.098  0.00  0.00     0.007 C 
ATOM      9  C   UNL d   1      -1.616  -1.534  -2.885  0.00  0.00     0.009 C 
ENDBRANCH   7   8
ENDBRANCH   1   7
TORSDOF 2
ENDMDL
