MODEL 1
REMARK minimizedAffinity -1.06962168
REMARK minimizedRMSD -1
REMARK  2 active torsions:
REMARK  status: ('A' for Active; 'I' for Inactive)
REMARK    1  A    between atoms: C1_2  and  C2_3 
REMARK    2  A    between atoms: C2_3  and  C3_4 
ROOT
ATOM      1  C3  UNL d   1       0.085  -0.856  -0.574  0.00  0.00    -0.075 A 
ATOM      2  C4  UNL d   1      -0.691  -0.283   0.444  0.00  0.00     0.002 A 
ATOM      3  C5  UNL d   1      -0.309   0.923   1.033  0.00  0.00     0.002 A 
ATOM      4  C6  UNL d   1       0.856   1.565   0.619  0.00  0.00    -0.004 A 
ATOM      5  C7  UNL d   1       1.643   0.997  -0.380  0.00  0.00     0.002 A 
ATOM      6  C8  UNL d   1       1.261  -0.207  -0.974  0.00  0.00     0.002 A 
ENDROOT
BRANCH   1   7
ATOM      7  C2  UNL d   1      -0.338  -2.146  -1.235  0.00  0.00     0.056 C 
BRANCH   7   8
ATOM      8  C1  UNL d   1      -1.765  -2.122  -1.794  0.00  0.00     0.007 C 
ATOM      9  C   UNL d   1      -1.829  -1.709  -3.258  0.00  0.00     0.009 C 
ENDBRANCH   7   8
ENDBRANCH   1   7
TORSDOF 2
ENDMDL
