MODEL 1
REMARK minimizedAffinity -5.49556208
REMARK minimizedRMSD -1
REMARK  2 active torsions:
REMARK  status: ('A' for Active; 'I' for Inactive)
REMARK    1  A    between atoms: C1_2  and  C2_3 
REMARK    2  A    between atoms: C2_3  and  C3_4 
ROOT
ATOM      1  C3  UNL d   1       0.161   0.183   0.223  0.00  0.00    -0.075 A 
ATOM      2  C4  UNL d   1       1.462   0.679   0.057  0.00  0.00     0.002 A 
ATOM      3  C5  UNL d   1       1.907   1.766   0.809  0.00  0.00     0.002 A 
ATOM      4  C6  UNL d   1       1.057   2.376   1.728  0.00  0.00    -0.004 A 
ATOM      5  C7  UNL d   1      -0.243   1.902   1.890  0.00  0.00     0.002 A 
ATOM      6  C8  UNL d   1      -0.690   0.812   1.142  0.00  0.00     0.002 A 
ENDROOT
BRANCH   1   7
ATOM      7  C2  UNL d   1      -0.318  -1.012  -0.567  0.00  0.00     0.056 C 
BRANCH   7   8
ATOM      8  C1  UNL d   1      -0.831  -0.667  -1.969  0.00  0.00     0.007 C 
ATOM      9  C   UNL d   1      -2.038  -1.497  -2.387  0.00  0.00     0.009 C 
ENDBRANCH   7   8
ENDBRANCH   1   7
TORSDOF 2
ENDMDL
