MODEL 1
REMARK minimizedAffinity -5.47615385
REMARK minimizedRMSD -1
REMARK  2 active torsions:
REMARK  status: ('A' for Active; 'I' for Inactive)
REMARK    1  A    between atoms: C1_2  and  C2_3 
REMARK    2  A    between atoms: C2_3  and  C3_4 
ROOT
ATOM      1  C3  UNL d   1       0.278   0.261   0.178  0.00  0.00    -0.075 A 
ATOM      2  C4  UNL d   1       1.558   0.685  -0.209  0.00  0.00     0.002 A 
ATOM      3  C5  UNL d   1       2.132   1.820   0.364  0.00  0.00     0.002 A 
ATOM      4  C6  UNL d   1       1.431   2.551   1.321  0.00  0.00    -0.004 A 
ATOM      5  C7  UNL d   1       0.152   2.149   1.701  0.00  0.00     0.002 A 
ATOM      6  C8  UNL d   1      -0.423   1.011   1.132  0.00  0.00     0.002 A 
ENDROOT
BRANCH   1   7
ATOM      7  C2  UNL d   1      -0.337  -0.983  -0.417  0.00  0.00     0.056 C 
BRANCH   7   8
ATOM      8  C1  UNL d   1      -0.406  -0.974  -1.948  0.00  0.00     0.007 C 
ATOM      9  C   UNL d   1      -1.763  -1.399  -2.491  0.00  0.00     0.009 C 
ENDBRANCH   7   8
ENDBRANCH   1   7
TORSDOF 2
ENDMDL
