MODEL 1
REMARK minimizedAffinity -6.03513241
REMARK minimizedRMSD -1
REMARK  2 active torsions:
REMARK  status: ('A' for Active; 'I' for Inactive)
REMARK    1  A    between atoms: C1_2  and  C2_3 
REMARK    2  A    between atoms: C2_3  and  C3_4 
ROOT
ATOM      1  C3  UNL d   1       0.134   0.693   0.767  0.00  0.00    -0.075 A 
ATOM      2  C4  UNL d   1       1.461   0.831   0.336  0.00  0.00     0.002 A 
ATOM      3  C5  UNL d   1       2.128   2.048   0.473  0.00  0.00     0.002 A 
ATOM      4  C6  UNL d   1       1.475   3.145   1.032  0.00  0.00    -0.004 A 
ATOM      5  C7  UNL d   1       0.151   3.024   1.449  0.00  0.00     0.002 A 
ATOM      6  C8  UNL d   1      -0.517   1.805   1.317  0.00  0.00     0.002 A 
ENDROOT
BRANCH   1   7
ATOM      7  C2  UNL d   1      -0.584  -0.630   0.649  0.00  0.00     0.056 C 
BRANCH   7   8
ATOM      8  C1  UNL d   1      -0.176  -1.453  -0.578  0.00  0.00     0.007 C 
ATOM      9  C   UNL d   1      -1.366  -1.993  -1.361  0.00  0.00     0.009 C 
ENDBRANCH   7   8
ENDBRANCH   1   7
TORSDOF 2
ENDMDL
