MODEL 1
REMARK minimizedAffinity -5.97029161
REMARK minimizedRMSD -1
REMARK  2 active torsions:
REMARK  status: ('A' for Active; 'I' for Inactive)
REMARK    1  A    between atoms: C1_2  and  C2_3 
REMARK    2  A    between atoms: C2_3  and  C3_4 
ROOT
ATOM      1  C3  UNL d   1       1.570   0.468   0.153  0.00  0.00    -0.075 A 
ATOM      2  C4  UNL d   1       2.875   0.897   0.437  0.00  0.00     0.002 A 
ATOM      3  C5  UNL d   1       3.096   2.118   1.074  0.00  0.00     0.002 A 
ATOM      4  C6  UNL d   1       2.019   2.929   1.425  0.00  0.00    -0.004 A 
ATOM      5  C7  UNL d   1       0.719   2.521   1.133  0.00  0.00     0.002 A 
ATOM      6  C8  UNL d   1       0.495   1.297   0.500  0.00  0.00     0.002 A 
ENDROOT
BRANCH   1   7
ATOM      7  C2  UNL d   1       1.322  -0.866  -0.509  0.00  0.00     0.056 C 
BRANCH   7   8
ATOM      8  C1  UNL d   1      -0.117  -1.373  -0.371  0.00  0.00     0.007 C 
ATOM      9  C   UNL d   1      -0.929  -1.233  -1.652  0.00  0.00     0.009 C 
ENDBRANCH   7   8
ENDBRANCH   1   7
TORSDOF 2
ENDMDL
