MODEL 1
REMARK minimizedAffinity -3.70505524
REMARK minimizedRMSD -1
REMARK  2 active torsions:
REMARK  status: ('A' for Active; 'I' for Inactive)
REMARK    1  A    between atoms: C1_2  and  C2_3 
REMARK    2  A    between atoms: C2_3  and  C3_4 
ROOT
ATOM      1  C3  UNL d   1       1.541   0.698  -0.252  0.00  0.00    -0.075 A 
ATOM      2  C4  UNL d   1       0.223   1.169  -0.344  0.00  0.00     0.002 A 
ATOM      3  C5  UNL d   1      -0.828   0.288  -0.600  0.00  0.00     0.002 A 
ATOM      4  C6  UNL d   1      -0.575  -1.070  -0.777  0.00  0.00    -0.004 A 
ATOM      5  C7  UNL d   1       0.732  -1.547  -0.704  0.00  0.00     0.002 A 
ATOM      6  C8  UNL d   1       1.785  -0.668  -0.444  0.00  0.00     0.002 A 
ENDROOT
BRANCH   1   7
ATOM      7  C2  UNL d   1       2.679   1.642   0.054  0.00  0.00     0.056 C 
BRANCH   7   8
ATOM      8  C1  UNL d   1       2.369   2.655   1.162  0.00  0.00     0.007 C 
ATOM      9  C   UNL d   1       2.327   2.032   2.550  0.00  0.00     0.009 C 
ENDBRANCH   7   8
ENDBRANCH   1   7
TORSDOF 2
ENDMDL
