MODEL 1
REMARK minimizedAffinity -6.09313059
REMARK minimizedRMSD -1
REMARK  2 active torsions:
REMARK  status: ('A' for Active; 'I' for Inactive)
REMARK    1  A    between atoms: C1_2  and  C2_3 
REMARK    2  A    between atoms: C2_3  and  C3_4 
ROOT
ATOM      1  C3  UNL d   1       1.198   0.036   0.111  0.00  0.00    -0.075 A 
ATOM      2  C4  UNL d   1       2.528   0.475   0.041  0.00  0.00     0.002 A 
ATOM      3  C5  UNL d   1       2.894   1.712   0.574  0.00  0.00     0.002 A 
ATOM      4  C6  UNL d   1       1.936   2.527   1.173  0.00  0.00    -0.004 A 
ATOM      5  C7  UNL d   1       0.609   2.108   1.232  0.00  0.00     0.002 A 
ATOM      6  C8  UNL d   1       0.241   0.869   0.704  0.00  0.00     0.002 A 
ENDROOT
BRANCH   1   7
ATOM      7  C2  UNL d   1       0.801  -1.314  -0.438  0.00  0.00     0.056 C 
BRANCH   7   8
ATOM      8  C1  UNL d   1      -0.701  -1.462  -0.702  0.00  0.00     0.007 C 
ATOM      9  C   UNL d   1      -1.077  -1.249  -2.162  0.00  0.00     0.009 C 
ENDBRANCH   7   8
ENDBRANCH   1   7
TORSDOF 2
ENDMDL
