MODEL 1
REMARK minimizedAffinity 4.03796482
REMARK minimizedRMSD -1
REMARK  1 active torsions:
REMARK  status: ('A' for Active; 'I' for Inactive)
REMARK    1  A    between atoms: C1_2  and  C2_3 
ROOT
ATOM      1  C2  UNL d   1       3.589  -5.964  -2.526  0.00  0.00    -0.073 A 
ATOM      2  C3  UNL d   1       4.951  -5.924  -2.847  0.00  0.00    -0.002 A 
ATOM      3  C4  UNL d   1       5.360  -5.917  -4.181  0.00  0.00     0.004 A 
ATOM      4  C5  UNL d   1       4.414  -5.941  -5.206  0.00  0.00    -0.004 A 
ATOM      5  C6  UNL d   1       3.048  -5.969  -4.905  0.00  0.00    -0.075 A 
ATOM      6  C7  UNL d   1       2.018  -5.999  -5.995  0.00  0.00     0.076 C 
ATOM      7  C8  UNL d   1       2.645  -5.980  -3.562  0.00  0.00     0.001 A 
ENDROOT
BRANCH   1   8
ATOM      8  C1  UNL d   1       3.143  -5.966  -1.086  0.00  0.00     0.053 C 
ATOM      9  C   UNL d   1       1.628  -5.935  -0.960  0.00  0.00     0.018 C 
ENDBRANCH   1   8
TORSDOF 1
ENDMDL
