MODEL 1
REMARK minimizedAffinity 2.10217786
REMARK minimizedRMSD -1
REMARK  1 active torsions:
REMARK  status: ('A' for Active; 'I' for Inactive)
REMARK    1  A    between atoms: C1_2  and  C2_3 
ROOT
ATOM      1  C2  UNL d   1       3.881  -5.489  -4.225  0.00  0.00    -0.073 A 
ATOM      2  C3  UNL d   1       4.800  -6.000  -3.301  0.00  0.00    -0.002 A 
ATOM      3  C4  UNL d   1       4.544  -5.915  -1.932  0.00  0.00     0.004 A 
ATOM      4  C5  UNL d   1       3.366  -5.326  -1.473  0.00  0.00    -0.004 A 
ATOM      5  C6  UNL d   1       2.430  -4.820  -2.381  0.00  0.00    -0.075 A 
ATOM      6  C7  UNL d   1       1.159  -4.182  -1.903  0.00  0.00     0.076 C 
ATOM      7  C8  UNL d   1       2.695  -4.907  -3.754  0.00  0.00     0.001 A 
ENDROOT
BRANCH   1   8
ATOM      8  C1  UNL d   1       4.150  -5.584  -5.704  0.00  0.00     0.053 C 
ATOM      9  C   UNL d   1       5.586  -5.989  -5.998  0.00  0.00     0.018 C 
ENDBRANCH   1   8
TORSDOF 1
ENDMDL
