MODEL 1
REMARK minimizedAffinity -3.34117913
REMARK minimizedRMSD -1
REMARK  1 active torsions:
REMARK  status: ('A' for Active; 'I' for Inactive)
REMARK    1  A    between atoms: C1_2  and  C2_3 
ROOT
ATOM      1  C2  UNL d   1       3.983  -5.746  -4.430  0.00  0.00    -0.073 A 
ATOM      2  C3  UNL d   1       5.371  -5.903  -4.347  0.00  0.00    -0.002 A 
ATOM      3  C4  UNL d   1       5.997  -5.998  -3.103  0.00  0.00     0.004 A 
ATOM      4  C5  UNL d   1       5.242  -5.944  -1.932  0.00  0.00    -0.004 A 
ATOM      5  C6  UNL d   1       3.852  -5.799  -1.994  0.00  0.00    -0.075 A 
ATOM      6  C7  UNL d   1       3.025  -5.737  -0.744  0.00  0.00     0.076 C 
ATOM      7  C8  UNL d   1       3.231  -5.702  -3.247  0.00  0.00     0.001 A 
ENDROOT
BRANCH   1   8
ATOM      8  C1  UNL d   1       3.303  -5.649  -5.771  0.00  0.00     0.053 C 
ATOM      9  C   UNL d   1       1.820  -5.975  -5.683  0.00  0.00     0.018 C 
ENDBRANCH   1   8
TORSDOF 1
ENDMDL
