MODEL 1
REMARK minimizedAffinity 0.767526686
REMARK minimizedRMSD -1
REMARK  1 active torsions:
REMARK  status: ('A' for Active; 'I' for Inactive)
REMARK    1  A    between atoms: C1_2  and  C2_3 
ROOT
ATOM      1  C2  UNL d   1       4.263  -5.626  -3.221  0.00  0.00    -0.073 A 
ATOM      2  C3  UNL d   1       5.456  -5.716  -3.948  0.00  0.00    -0.002 A 
ATOM      3  C4  UNL d   1       5.427  -5.906  -5.330  0.00  0.00     0.004 A 
ATOM      4  C5  UNL d   1       4.207  -5.999  -6.000  0.00  0.00    -0.004 A 
ATOM      5  C6  UNL d   1       3.004  -5.899  -5.293  0.00  0.00    -0.075 A 
ATOM      6  C7  UNL d   1       1.684  -6.000  -5.999  0.00  0.00     0.076 C 
ATOM      7  C8  UNL d   1       3.042  -5.712  -3.905  0.00  0.00     0.001 A 
ENDROOT
BRANCH   1   8
ATOM      8  C1  UNL d   1       4.290  -5.415  -1.729  0.00  0.00     0.053 C 
ATOM      9  C   UNL d   1       2.970  -4.869  -1.207  0.00  0.00     0.018 C 
ENDBRANCH   1   8
TORSDOF 1
ENDMDL
