MODEL 1
REMARK minimizedAffinity -2.85494947
REMARK minimizedRMSD -1
REMARK  1 active torsions:
REMARK  status: ('A' for Active; 'I' for Inactive)
REMARK    1  A    between atoms: C1_2  and  C2_3 
ROOT
ATOM      1  C2  UNL d   1       4.785  -4.485  -4.839  0.00  0.00    -0.073 A 
ATOM      2  C3  UNL d   1       3.883  -4.875  -5.835  0.00  0.00    -0.002 A 
ATOM      3  C4  UNL d   1       2.757  -5.632  -5.509  0.00  0.00     0.004 A 
ATOM      4  C5  UNL d   1       2.518  -6.000  -4.185  0.00  0.00    -0.004 A 
ATOM      5  C6  UNL d   1       3.402  -5.610  -3.174  0.00  0.00    -0.075 A 
ATOM      6  C7  UNL d   1       3.160  -6.000  -1.745  0.00  0.00     0.076 C 
ATOM      7  C8  UNL d   1       4.532  -4.852  -3.510  0.00  0.00     0.001 A 
ENDROOT
BRANCH   1   8
ATOM      8  C1  UNL d   1       5.999  -3.662  -5.186  0.00  0.00     0.053 C 
ATOM      9  C   UNL d   1       5.999  -2.318  -4.475  0.00  0.00     0.018 C 
ENDBRANCH   1   8
TORSDOF 1
ENDMDL
