MODEL 1
REMARK minimizedAffinity -0.817506313
REMARK minimizedRMSD -1
REMARK  1 active torsions:
REMARK  status: ('A' for Active; 'I' for Inactive)
REMARK    1  A    between atoms: C1_2  and  C2_3 
ROOT
ATOM      1  C2  UNL d   1       3.506  -4.881  -2.456  0.00  0.00    -0.073 A 
ATOM      2  C3  UNL d   1       4.723  -4.319  -2.055  0.00  0.00    -0.002 A 
ATOM      3  C4  UNL d   1       5.815  -4.309  -2.925  0.00  0.00     0.004 A 
ATOM      4  C5  UNL d   1       5.699  -4.853  -4.204  0.00  0.00    -0.004 A 
ATOM      5  C6  UNL d   1       4.487  -5.408  -4.627  0.00  0.00    -0.075 A 
ATOM      6  C7  UNL d   1       4.346  -6.000  -5.999  0.00  0.00     0.076 C 
ATOM      7  C8  UNL d   1       3.396  -5.417  -3.747  0.00  0.00     0.001 A 
ENDROOT
BRANCH   1   8
ATOM      8  C1  UNL d   1       2.322  -4.889  -1.523  0.00  0.00     0.053 C 
ATOM      9  C   UNL d   1       1.140  -4.124  -2.096  0.00  0.00     0.018 C 
ENDBRANCH   1   8
TORSDOF 1
ENDMDL
