MODEL 1
REMARK minimizedAffinity -1.10644102
REMARK minimizedRMSD -1
REMARK  1 active torsions:
REMARK  status: ('A' for Active; 'I' for Inactive)
REMARK    1  A    between atoms: C1_2  and  C2_3 
ROOT
ATOM      1  C2  UNL d   1       3.077  -5.593  -3.567  0.00  0.00    -0.073 A 
ATOM      2  C3  UNL d   1       3.731  -5.774  -2.343  0.00  0.00    -0.002 A 
ATOM      3  C4  UNL d   1       5.111  -5.978  -2.304  0.00  0.00     0.004 A 
ATOM      4  C5  UNL d   1       5.851  -5.997  -3.486  0.00  0.00    -0.004 A 
ATOM      5  C6  UNL d   1       5.217  -5.807  -4.718  0.00  0.00    -0.075 A 
ATOM      6  C7  UNL d   1       5.999  -5.826  -5.999  0.00  0.00     0.076 C 
ATOM      7  C8  UNL d   1       3.831  -5.605  -4.749  0.00  0.00     0.001 A 
ENDROOT
BRANCH   1   8
ATOM      8  C1  UNL d   1       1.588  -5.366  -3.613  0.00  0.00     0.053 C 
ATOM      9  C   UNL d   1       1.072  -4.707  -2.344  0.00  0.00     0.018 C 
ENDBRANCH   1   8
TORSDOF 1
ENDMDL
