MODEL 1
REMARK minimizedAffinity -2.95768762
REMARK minimizedRMSD -1
REMARK  1 active torsions:
REMARK  status: ('A' for Active; 'I' for Inactive)
REMARK    1  A    between atoms: C1_2  and  C2_3 
ROOT
ATOM      1  C2  UNL d   1       3.509   2.583   2.375  0.00  0.00    -0.073 A 
ATOM      2  C3  UNL d   1       4.667   1.799   2.304  0.00  0.00    -0.002 A 
ATOM      3  C4  UNL d   1       5.897   2.322   2.705  0.00  0.00     0.004 A 
ATOM      4  C5  UNL d   1       5.982   3.629   3.185  0.00  0.00    -0.004 A 
ATOM      5  C6  UNL d   1       4.835   4.423   3.275  0.00  0.00    -0.075 A 
ATOM      6  C7  UNL d   1       4.909   5.831   3.787  0.00  0.00     0.076 C 
ATOM      7  C8  UNL d   1       3.603   3.892   2.868  0.00  0.00     0.001 A 
ENDROOT
BRANCH   1   8
ATOM      8  C1  UNL d   1       2.177   2.021   1.950  0.00  0.00     0.053 C 
ATOM      9  C   UNL d   1       1.420   2.975   1.040  0.00  0.00     0.018 C 
ENDBRANCH   1   8
TORSDOF 1
ENDMDL
