MODEL 1
REMARK minimizedAffinity -2.39193487
REMARK minimizedRMSD -1
REMARK  1 active torsions:
REMARK  status: ('A' for Active; 'I' for Inactive)
REMARK    1  A    between atoms: C1_2  and  C2_3 
ROOT
ATOM      1  C2  UNL d   1       3.162  -5.699  -4.612  0.00  0.00    -0.073 A 
ATOM      2  C3  UNL d   1       3.858  -6.000  -5.788  0.00  0.00    -0.002 A 
ATOM      3  C4  UNL d   1       5.239  -5.812  -5.858  0.00  0.00     0.004 A 
ATOM      4  C5  UNL d   1       5.938  -5.329  -4.752  0.00  0.00    -0.004 A 
ATOM      5  C6  UNL d   1       5.262  -5.034  -3.564  0.00  0.00    -0.075 A 
ATOM      6  C7  UNL d   1       6.000  -4.511  -2.366  0.00  0.00     0.076 C 
ATOM      7  C8  UNL d   1       3.875  -5.222  -3.502  0.00  0.00     0.001 A 
ENDROOT
BRANCH   1   8
ATOM      8  C1  UNL d   1       1.672  -5.905  -4.529  0.00  0.00     0.053 C 
ATOM      9  C   UNL d   1       0.996  -4.848  -3.671  0.00  0.00     0.018 C 
ENDBRANCH   1   8
TORSDOF 1
ENDMDL
