MODEL 1
REMARK minimizedAffinity -1.02525246
REMARK minimizedRMSD -1
REMARK  1 active torsions:
REMARK  status: ('A' for Active; 'I' for Inactive)
REMARK    1  A    between atoms: C1_2  and  C2_3 
ROOT
ATOM      1  C2  UNL d   1       3.904  -5.683  -4.694  0.00  0.00    -0.073 A 
ATOM      2  C3  UNL d   1       5.261  -5.343  -4.676  0.00  0.00    -0.002 A 
ATOM      3  C4  UNL d   1       5.913  -5.108  -3.465  0.00  0.00     0.004 A 
ATOM      4  C5  UNL d   1       5.217  -5.216  -2.261  0.00  0.00    -0.004 A 
ATOM      5  C6  UNL d   1       3.863  -5.566  -2.257  0.00  0.00    -0.075 A 
ATOM      6  C7  UNL d   1       3.100  -5.684  -0.971  0.00  0.00     0.076 C 
ATOM      7  C8  UNL d   1       3.215  -5.798  -3.478  0.00  0.00     0.001 A 
ENDROOT
BRANCH   1   8
ATOM      8  C1  UNL d   1       3.198  -5.945  -5.999  0.00  0.00     0.053 C 
ATOM      9  C   UNL d   1       1.686  -5.942  -5.840  0.00  0.00     0.018 C 
ENDBRANCH   1   8
TORSDOF 1
ENDMDL
