MODEL 1
REMARK minimizedAffinity -0.821291864
REMARK minimizedRMSD -1
REMARK  1 active torsions:
REMARK  status: ('A' for Active; 'I' for Inactive)
REMARK    1  A    between atoms: C1_2  and  C2_3 
ROOT
ATOM      1  C2  UNL d   1       2.815  -4.944  -2.451  0.00  0.00    -0.073 A 
ATOM      2  C3  UNL d   1       4.055  -4.500  -1.980  0.00  0.00    -0.002 A 
ATOM      3  C4  UNL d   1       5.181  -4.549  -2.804  0.00  0.00     0.004 A 
ATOM      4  C5  UNL d   1       5.076  -5.035  -4.107  0.00  0.00    -0.004 A 
ATOM      5  C6  UNL d   1       3.843  -5.472  -4.600  0.00  0.00    -0.075 A 
ATOM      6  C7  UNL d   1       3.714  -5.999  -5.999  0.00  0.00     0.076 C 
ATOM      7  C8  UNL d   1       2.718  -5.422  -3.766  0.00  0.00     0.001 A 
ENDROOT
BRANCH   1   8
ATOM      8  C1  UNL d   1       1.595  -4.887  -1.568  0.00  0.00     0.053 C 
ATOM      9  C   UNL d   1       0.471  -4.082  -2.199  0.00  0.00     0.018 C 
ENDBRANCH   1   8
TORSDOF 1
ENDMDL
