MODEL 1
REMARK minimizedAffinity -2.8736701
REMARK minimizedRMSD -1
REMARK  1 active torsions:
REMARK  status: ('A' for Active; 'I' for Inactive)
REMARK    1  A    between atoms: C1_2  and  C2_3 
ROOT
ATOM      1  C2  UNL d   1       0.164  -0.125  -0.029  0.00  0.00    -0.073 A 
ATOM      2  C3  UNL d   1       0.185  -0.372   1.349  0.00  0.00    -0.002 A 
ATOM      3  C4  UNL d   1      -0.087   0.656   2.253  0.00  0.00     0.004 A 
ATOM      4  C5  UNL d   1      -0.390   1.937   1.789  0.00  0.00    -0.004 A 
ATOM      5  C6  UNL d   1      -0.427   2.199   0.416  0.00  0.00    -0.075 A 
ATOM      6  C7  UNL d   1      -0.749   3.572  -0.098  0.00  0.00     0.076 C 
ATOM      7  C8  UNL d   1      -0.150   1.163  -0.485  0.00  0.00     0.001 A 
ENDROOT
BRANCH   1   8
ATOM      8  C1  UNL d   1       0.452  -1.234  -1.009  0.00  0.00     0.053 C 
ATOM      9  C   UNL d   1      -0.413  -2.458  -0.754  0.00  0.00     0.018 C 
ENDBRANCH   1   8
TORSDOF 1
ENDMDL
