MODEL 1
REMARK minimizedAffinity -2.8978951
REMARK minimizedRMSD -1
REMARK  1 active torsions:
REMARK  status: ('A' for Active; 'I' for Inactive)
REMARK    1  A    between atoms: C1_2  and  C2_3 
ROOT
ATOM      1  C2  UNL d   1      -0.005   2.085   0.346  0.00  0.00    -0.073 A 
ATOM      2  C3  UNL d   1       0.105   1.976   1.737  0.00  0.00    -0.002 A 
ATOM      3  C4  UNL d   1       0.309   0.731   2.333  0.00  0.00     0.004 A 
ATOM      4  C5  UNL d   1       0.412  -0.416   1.545  0.00  0.00    -0.004 A 
ATOM      5  C6  UNL d   1       0.316  -0.326   0.152  0.00  0.00    -0.075 A 
ATOM      6  C7  UNL d   1       0.422  -1.550  -0.709  0.00  0.00     0.076 C 
ATOM      7  C8  UNL d   1       0.108   0.928  -0.438  0.00  0.00     0.001 A 
ENDROOT
BRANCH   1   8
ATOM      8  C1  UNL d   1      -0.219   3.429  -0.301  0.00  0.00     0.053 C 
ATOM      9  C   UNL d   1      -0.470   3.307  -1.796  0.00  0.00     0.018 C 
ENDBRANCH   1   8
TORSDOF 1
ENDMDL
