MODEL 1
REMARK minimizedAffinity -4.54222775
REMARK minimizedRMSD -1
REMARK  1 active torsions:
REMARK  status: ('A' for Active; 'I' for Inactive)
REMARK    1  A    between atoms: C1_2  and  C2_3 
ROOT
ATOM      1  C2  UNL d   1      -0.445   0.734   0.639  0.00  0.00    -0.073 A 
ATOM      2  C3  UNL d   1      -0.572   1.440   1.840  0.00  0.00    -0.002 A 
ATOM      3  C4  UNL d   1      -1.058   2.748   1.841  0.00  0.00     0.004 A 
ATOM      4  C5  UNL d   1      -1.429   3.360   0.644  0.00  0.00    -0.004 A 
ATOM      5  C6  UNL d   1      -1.321   2.667  -0.565  0.00  0.00    -0.075 A 
ATOM      6  C7  UNL d   1      -1.714   3.312  -1.862  0.00  0.00     0.076 C 
ATOM      7  C8  UNL d   1      -0.830   1.354  -0.559  0.00  0.00     0.001 A 
ENDROOT
BRANCH   1   8
ATOM      8  C1  UNL d   1       0.073  -0.681   0.633  0.00  0.00     0.053 C 
ATOM      9  C   UNL d   1      -0.007  -1.312  -0.748  0.00  0.00     0.018 C 
ENDBRANCH   1   8
TORSDOF 1
ENDMDL
