MODEL 1
REMARK minimizedAffinity -4.3843689
REMARK minimizedRMSD -1
REMARK  1 active torsions:
REMARK  status: ('A' for Active; 'I' for Inactive)
REMARK    1  A    between atoms: C1_2  and  C2_3 
ROOT
ATOM      1  C2  UNL d   1      -0.055   0.116   0.292  0.00  0.00    -0.073 A 
ATOM      2  C3  UNL d   1      -0.279  -0.088   1.659  0.00  0.00    -0.002 A 
ATOM      3  C4  UNL d   1      -0.662   0.976   2.477  0.00  0.00     0.004 A 
ATOM      4  C5  UNL d   1      -0.833   2.250   1.937  0.00  0.00    -0.004 A 
ATOM      5  C6  UNL d   1      -0.626   2.472   0.571  0.00  0.00    -0.075 A 
ATOM      6  C7  UNL d   1      -0.803   3.837  -0.024  0.00  0.00     0.076 C 
ATOM      7  C8  UNL d   1      -0.238   1.399  -0.243  0.00  0.00     0.001 A 
ENDROOT
BRANCH   1   8
ATOM      8  C1  UNL d   1       0.353  -1.031  -0.596  0.00  0.00     0.053 C 
ATOM      9  C   UNL d   1      -0.796  -1.995  -0.846  0.00  0.00     0.018 C 
ENDBRANCH   1   8
TORSDOF 1
ENDMDL
