MODEL 1
REMARK minimizedAffinity -3.7830801
REMARK minimizedRMSD -1
REMARK  1 active torsions:
REMARK  status: ('A' for Active; 'I' for Inactive)
REMARK    1  A    between atoms: C1_2  and  C2_3 
ROOT
ATOM      1  C2  UNL d   1      -0.657   1.378   0.884  0.00  0.00    -0.073 A 
ATOM      2  C3  UNL d   1       0.127   0.296   1.300  0.00  0.00    -0.002 A 
ATOM      3  C4  UNL d   1       0.891  -0.418   0.376  0.00  0.00     0.004 A 
ATOM      4  C5  UNL d   1       0.886  -0.053  -0.970  0.00  0.00    -0.004 A 
ATOM      5  C6  UNL d   1       0.118   1.032  -1.404  0.00  0.00    -0.075 A 
ATOM      6  C7  UNL d   1       0.099   1.436  -2.849  0.00  0.00     0.076 C 
ATOM      7  C8  UNL d   1      -0.649   1.742  -0.470  0.00  0.00     0.001 A 
ENDROOT
BRANCH   1   8
ATOM      8  C1  UNL d   1      -1.479   2.156   1.879  0.00  0.00     0.053 C 
ATOM      9  C   UNL d   1      -1.484   3.645   1.574  0.00  0.00     0.018 C 
ENDBRANCH   1   8
TORSDOF 1
ENDMDL
