MODEL 1
REMARK minimizedAffinity -1.9467088
REMARK minimizedRMSD -1
REMARK  1 active torsions:
REMARK  status: ('A' for Active; 'I' for Inactive)
REMARK    1  A    between atoms: C1_2  and  C2_3 
ROOT
ATOM      1  C2  UNL d   1       0.239  -0.087  -0.090  0.00  0.00    -0.073 A 
ATOM      2  C3  UNL d   1       0.362   0.273   1.257  0.00  0.00    -0.002 A 
ATOM      3  C4  UNL d   1       0.306   1.615   1.636  0.00  0.00     0.004 A 
ATOM      4  C5  UNL d   1       0.118   2.609   0.675  0.00  0.00    -0.004 A 
ATOM      5  C6  UNL d   1      -0.019   2.268  -0.675  0.00  0.00    -0.075 A 
ATOM      6  C7  UNL d   1      -0.218   3.325  -1.721  0.00  0.00     0.076 C 
ATOM      7  C8  UNL d   1       0.042   0.918  -1.048  0.00  0.00     0.001 A 
ENDROOT
BRANCH   1   8
ATOM      8  C1  UNL d   1       0.293  -1.535  -0.503  0.00  0.00     0.053 C 
ATOM      9  C   UNL d   1      -1.050  -2.227  -0.334  0.00  0.00     0.018 C 
ENDBRANCH   1   8
TORSDOF 1
ENDMDL
