MODEL 1
REMARK minimizedAffinity 5.69486904
REMARK minimizedRMSD -1
REMARK  0 active torsions:
REMARK  status: ('A' for Active; 'I' for Inactive)
ROOT
ATOM      1  C   UNL d   1      -0.998  -2.368  -0.067  0.00  0.00     0.020 A 
ATOM      2  C1  UNL d   1      -2.193  -2.868   0.450  0.00  0.00     0.020 A 
ATOM      3  C2  UNL d   1      -3.224  -3.244  -0.413  0.00  0.00     0.034 A 
ATOM      4  C3  UNL d   1      -3.063  -3.121  -1.798  0.00  0.00     0.017 A 
ATOM      5  C4  UNL d   1      -1.863  -2.620  -2.316  0.00  0.00     0.017 A 
ATOM      6  C5  UNL d   1      -0.834  -2.244  -1.447  0.00  0.00     0.034 A 
ATOM      7 Cl   UNL d   1      -1.590  -2.439  -4.013  0.00  0.00    -0.070 Cl
ATOM      8 Cl1  UNL d   1      -4.379  -3.606  -2.806  0.00  0.00    -0.070 Cl
ENDROOT
TORSDOF 0
ENDMDL
