MODEL 1
REMARK minimizedAffinity 10.4325323
REMARK minimizedRMSD -1
REMARK  0 active torsions:
REMARK  status: ('A' for Active; 'I' for Inactive)
ROOT
ATOM      1  C   UNL d   1       2.131   1.466   0.326  0.00  0.00     0.020 A 
ATOM      2  C1  UNL d   1       2.877   0.704   1.225  0.00  0.00     0.020 A 
ATOM      3  C2  UNL d   1       4.068   0.104   0.810  0.00  0.00     0.034 A 
ATOM      4  C3  UNL d   1       4.516   0.265  -0.506  0.00  0.00     0.017 A 
ATOM      5  C4  UNL d   1       3.766   1.029  -1.407  0.00  0.00     0.017 A 
ATOM      6  C5  UNL d   1       2.574   1.628  -0.987  0.00  0.00     0.034 A 
ATOM      7 Cl   UNL d   1       4.254   1.273  -3.047  0.00  0.00    -0.070 Cl
ATOM      8 Cl1  UNL d   1       5.998  -0.505  -0.950  0.00  0.00    -0.070 Cl
ENDROOT
TORSDOF 0
ENDMDL
