MODEL 1
REMARK minimizedAffinity 10.5886869
REMARK minimizedRMSD -1
REMARK  0 active torsions:
REMARK  status: ('A' for Active; 'I' for Inactive)
ROOT
ATOM      1  C   UNL d   1       0.062  -2.900  -0.061  0.00  0.00     0.020 A 
ATOM      2  C1  UNL d   1      -1.005  -2.057   0.250  0.00  0.00     0.020 A 
ATOM      3  C2  UNL d   1      -2.149  -2.055  -0.551  0.00  0.00     0.034 A 
ATOM      4  C3  UNL d   1      -2.230  -2.896  -1.666  0.00  0.00     0.017 A 
ATOM      5  C4  UNL d   1      -1.159  -3.742  -1.978  0.00  0.00     0.017 A 
ATOM      6  C5  UNL d   1      -0.016  -3.740  -1.173  0.00  0.00     0.034 A 
ATOM      7 Cl   UNL d   1      -1.185  -4.808  -3.338  0.00  0.00    -0.070 Cl
ATOM      8 Cl1  UNL d   1      -3.675  -2.841  -2.612  0.00  0.00    -0.070 Cl
ENDROOT
TORSDOF 0
ENDMDL
