MODEL 1
REMARK minimizedAffinity 2.23502636
REMARK minimizedRMSD -1
REMARK  0 active torsions:
REMARK  status: ('A' for Active; 'I' for Inactive)
ROOT
ATOM      1  C   UNL d   1       2.491   0.420   1.640  0.00  0.00     0.020 A 
ATOM      2  C1  UNL d   1       3.644  -0.298   1.328  0.00  0.00     0.020 A 
ATOM      3  C2  UNL d   1       4.160  -0.262   0.030  0.00  0.00     0.034 A 
ATOM      4  C3  UNL d   1       3.521   0.494  -0.960  0.00  0.00     0.017 A 
ATOM      5  C4  UNL d   1       2.363   1.214  -0.645  0.00  0.00     0.017 A 
ATOM      6  C5  UNL d   1       1.851   1.174   0.656  0.00  0.00     0.034 A 
ATOM      7 Cl   UNL d   1       1.520   2.169  -1.813  0.00  0.00    -0.070 Cl
ATOM      8 Cl1  UNL d   1       4.214   0.494  -2.543  0.00  0.00    -0.070 Cl
ENDROOT
TORSDOF 0
ENDMDL
