MODEL 1
REMARK minimizedAffinity 1.92573452
REMARK minimizedRMSD -1
REMARK  0 active torsions:
REMARK  status: ('A' for Active; 'I' for Inactive)
ROOT
ATOM      1  C   UNL d   1      -0.832  -3.152  -3.340  0.00  0.00     0.020 A 
ATOM      2  C1  UNL d   1       0.210  -3.840  -2.718  0.00  0.00     0.020 A 
ATOM      3  C2  UNL d   1       0.201  -4.016  -1.333  0.00  0.00     0.034 A 
ATOM      4  C3  UNL d   1      -0.850  -3.504  -0.565  0.00  0.00     0.017 A 
ATOM      5  C4  UNL d   1      -1.895  -2.814  -1.189  0.00  0.00     0.017 A 
ATOM      6  C5  UNL d   1      -1.882  -2.640  -2.577  0.00  0.00     0.034 A 
ATOM      7 Cl   UNL d   1      -3.228  -2.153  -0.308  0.00  0.00    -0.070 Cl
ATOM      8 Cl1  UNL d   1      -0.796  -3.759   1.143  0.00  0.00    -0.070 Cl
ENDROOT
TORSDOF 0
ENDMDL
