MODEL 1
REMARK minimizedAffinity 0.334539384
REMARK minimizedRMSD -1
REMARK  0 active torsions:
REMARK  status: ('A' for Active; 'I' for Inactive)
ROOT
ATOM      1  C   UNL d   1       4.792  -0.631   1.117  0.00  0.00     0.020 A 
ATOM      2  C1  UNL d   1       6.000   0.065   1.141  0.00  0.00     0.020 A 
ATOM      3  C2  UNL d   1       6.000   1.461   1.178  0.00  0.00     0.034 A 
ATOM      4  C3  UNL d   1       4.790   2.165   1.192  0.00  0.00     0.017 A 
ATOM      5  C4  UNL d   1       3.579   1.465   1.168  0.00  0.00     0.017 A 
ATOM      6  C5  UNL d   1       3.584   0.067   1.131  0.00  0.00     0.034 A 
ATOM      7 Cl   UNL d   1       2.046   2.264   1.183  0.00  0.00    -0.070 Cl
ATOM      8 Cl1  UNL d   1       4.865   3.891   1.238  0.00  0.00    -0.070 Cl
ENDROOT
TORSDOF 0
ENDMDL
