MODEL 1
REMARK minimizedAffinity 0.040869534
REMARK minimizedRMSD -1
REMARK  0 active torsions:
REMARK  status: ('A' for Active; 'I' for Inactive)
ROOT
ATOM      1  C   UNL d   1      -0.126  -3.727  -2.996  0.00  0.00     0.020 A 
ATOM      2  C1  UNL d   1       0.625  -3.415  -1.863  0.00  0.00     0.020 A 
ATOM      3  C2  UNL d   1      -0.017  -3.015  -0.689  0.00  0.00     0.034 A 
ATOM      4  C3  UNL d   1      -1.413  -2.926  -0.645  0.00  0.00     0.017 A 
ATOM      5  C4  UNL d   1      -2.165  -3.239  -1.783  0.00  0.00     0.017 A 
ATOM      6  C5  UNL d   1      -1.518  -3.639  -2.956  0.00  0.00     0.034 A 
ATOM      7 Cl   UNL d   1      -3.891  -3.153  -1.806  0.00  0.00    -0.070 Cl
ATOM      8 Cl1  UNL d   1      -2.140  -2.424   0.840  0.00  0.00    -0.070 Cl
ENDROOT
TORSDOF 0
ENDMDL
