MODEL 1
REMARK minimizedAffinity 4.34862471
REMARK minimizedRMSD -1
REMARK  0 active torsions:
REMARK  status: ('A' for Active; 'I' for Inactive)
ROOT
ATOM      1  C   UNL d   1      -2.674  -2.477  -0.538  0.00  0.00     0.020 A 
ATOM      2  C1  UNL d   1      -1.592  -2.904   0.229  0.00  0.00     0.020 A 
ATOM      3  C2  UNL d   1      -0.414  -3.319  -0.395  0.00  0.00     0.034 A 
ATOM      4  C3  UNL d   1      -0.315  -3.308  -1.791  0.00  0.00     0.017 A 
ATOM      5  C4  UNL d   1      -1.403  -2.879  -2.561  0.00  0.00     0.017 A 
ATOM      6  C5  UNL d   1      -2.580  -2.465  -1.930  0.00  0.00     0.034 A 
ATOM      7 Cl   UNL d   1      -1.357  -2.837  -4.288  0.00  0.00    -0.070 Cl
ATOM      8 Cl1  UNL d   1       1.172  -3.834  -2.497  0.00  0.00    -0.070 Cl
ENDROOT
TORSDOF 0
ENDMDL
