MODEL 1
REMARK minimizedAffinity -0.395123243
REMARK minimizedRMSD -1
REMARK  0 active torsions:
REMARK  status: ('A' for Active; 'I' for Inactive)
ROOT
ATOM      1  C   UNL d   1       6.000   0.371   0.468  0.00  0.00     0.020 A 
ATOM      2  C1  UNL d   1       5.114   1.078  -0.344  0.00  0.00     0.020 A 
ATOM      3  C2  UNL d   1       3.788   1.254   0.057  0.00  0.00     0.034 A 
ATOM      4  C3  UNL d   1       3.344   0.722   1.273  0.00  0.00     0.017 A 
ATOM      5  C4  UNL d   1       4.234   0.013   2.088  0.00  0.00     0.017 A 
ATOM      6  C5  UNL d   1       5.560  -0.160   1.682  0.00  0.00     0.034 A 
ATOM      7 Cl   UNL d   1       3.759  -0.673   3.602  0.00  0.00    -0.070 Cl
ATOM      8 Cl1  UNL d   1       1.691   0.978   1.706  0.00  0.00    -0.070 Cl
ENDROOT
TORSDOF 0
ENDMDL
