MODEL 1
REMARK minimizedAffinity 3.94073272
REMARK minimizedRMSD -1
REMARK  0 active torsions:
REMARK  status: ('A' for Active; 'I' for Inactive)
ROOT
ATOM      1  C   UNL d   1      -3.624  -3.098  -2.290  0.00  0.00     0.020 A 
ATOM      2  C1  UNL d   1      -2.467  -2.358  -2.048  0.00  0.00     0.020 A 
ATOM      3  C2  UNL d   1      -1.718  -2.590  -0.893  0.00  0.00     0.034 A 
ATOM      4  C3  UNL d   1      -2.125  -3.565   0.026  0.00  0.00     0.017 A 
ATOM      5  C4  UNL d   1      -3.287  -4.307  -0.217  0.00  0.00     0.017 A 
ATOM      6  C5  UNL d   1      -4.033  -4.070  -1.376  0.00  0.00     0.034 A 
ATOM      7 Cl   UNL d   1      -3.852  -5.525   0.870  0.00  0.00    -0.070 Cl
ATOM      8 Cl1  UNL d   1      -1.151  -3.799   1.434  0.00  0.00    -0.070 Cl
ENDROOT
TORSDOF 0
ENDMDL
