MODEL 1
REMARK minimizedAffinity 6.71270084
REMARK minimizedRMSD -1
REMARK  0 active torsions:
REMARK  status: ('A' for Active; 'I' for Inactive)
ROOT
ATOM      1  C   UNL d   1       2.074   0.339   3.639  0.00  0.00     0.020 A 
ATOM      2  C1  UNL d   1       1.337   1.332   2.995  0.00  0.00     0.020 A 
ATOM      3  C2  UNL d   1       1.700   1.750   1.713  0.00  0.00     0.034 A 
ATOM      4  C3  UNL d   1       2.803   1.175   1.071  0.00  0.00     0.017 A 
ATOM      5  C4  UNL d   1       3.542   0.178   1.719  0.00  0.00     0.017 A 
ATOM      6  C5  UNL d   1       3.174  -0.237   3.002  0.00  0.00     0.034 A 
ATOM      7 Cl   UNL d   1       4.915  -0.578   0.991  0.00  0.00    -0.070 Cl
ATOM      8 Cl1  UNL d   1       3.195   1.740  -0.514  0.00  0.00    -0.070 Cl
ENDROOT
TORSDOF 0
ENDMDL
