MODEL 1
REMARK minimizedAffinity 2.37197638
REMARK minimizedRMSD -1
REMARK  0 active torsions:
REMARK  status: ('A' for Active; 'I' for Inactive)
ROOT
ATOM      1  C   UNL d   1      -1.275  -2.368  -2.966  0.00  0.00     0.020 A 
ATOM      2  C1  UNL d   1      -1.902  -2.566  -1.737  0.00  0.00     0.020 A 
ATOM      3  C2  UNL d   1      -3.066  -3.334  -1.663  0.00  0.00     0.034 A 
ATOM      4  C3  UNL d   1      -3.605  -3.908  -2.819  0.00  0.00     0.017 A 
ATOM      5  C4  UNL d   1      -2.975  -3.709  -4.053  0.00  0.00     0.017 A 
ATOM      6  C5  UNL d   1      -1.810  -2.939  -4.122  0.00  0.00     0.034 A 
ATOM      7 Cl   UNL d   1      -3.581  -4.386  -5.523  0.00  0.00    -0.070 Cl
ATOM      8 Cl1  UNL d   1      -5.046  -4.847  -2.653  0.00  0.00    -0.070 Cl
ENDROOT
TORSDOF 0
ENDMDL
