MODEL 1
REMARK minimizedAffinity 5.15040493
REMARK minimizedRMSD -1
REMARK  0 active torsions:
REMARK  status: ('A' for Active; 'I' for Inactive)
ROOT
ATOM      1  C   UNL d   1      -1.545  -3.437  -3.931  0.00  0.00     0.020 A 
ATOM      2  C1  UNL d   1      -2.875  -3.166  -3.611  0.00  0.00     0.020 A 
ATOM      3  C2  UNL d   1      -3.229  -2.869  -2.293  0.00  0.00     0.034 A 
ATOM      4  C3  UNL d   1      -2.253  -2.842  -1.290  0.00  0.00     0.017 A 
ATOM      5  C4  UNL d   1      -0.919  -3.114  -1.613  0.00  0.00     0.017 A 
ATOM      6  C5  UNL d   1      -0.569  -3.411  -2.934  0.00  0.00     0.034 A 
ATOM      7 Cl   UNL d   1       0.342  -3.099  -0.430  0.00  0.00    -0.070 Cl
ATOM      8 Cl1  UNL d   1      -2.763  -2.467   0.317  0.00  0.00    -0.070 Cl
ENDROOT
TORSDOF 0
ENDMDL
