MODEL 1
REMARK minimizedAffinity 6.91587019
REMARK minimizedRMSD -1
REMARK  0 active torsions:
REMARK  status: ('A' for Active; 'I' for Inactive)
ROOT
ATOM      1  C   UNL d   1       3.743   0.220  -1.295  0.00  0.00     0.020 A 
ATOM      2  C1  UNL d   1       2.497   0.841  -1.366  0.00  0.00     0.020 A 
ATOM      3  C2  UNL d   1       1.816   1.175  -0.193  0.00  0.00     0.034 A 
ATOM      4  C3  UNL d   1       2.381   0.889   1.055  0.00  0.00     0.017 A 
ATOM      5  C4  UNL d   1       3.633   0.267   1.125  0.00  0.00     0.017 A 
ATOM      6  C5  UNL d   1       4.310  -0.066  -0.053  0.00  0.00     0.034 A 
ATOM      7 Cl   UNL d   1       4.394  -0.118   2.628  0.00  0.00    -0.070 Cl
ATOM      8 Cl1  UNL d   1       1.484   1.331   2.464  0.00  0.00    -0.070 Cl
ENDROOT
TORSDOF 0
ENDMDL
