MODEL 1
REMARK minimizedAffinity 8.77970314
REMARK minimizedRMSD -1
REMARK  0 active torsions:
REMARK  status: ('A' for Active; 'I' for Inactive)
ROOT
ATOM      1  C   UNL d   1      -5.999  -5.630  -2.986  0.00  0.00     0.020 A 
ATOM      2  C1  UNL d   1      -5.618  -4.481  -3.677  0.00  0.00     0.020 A 
ATOM      3  C2  UNL d   1      -4.563  -3.699  -3.203  0.00  0.00     0.034 A 
ATOM      4  C3  UNL d   1      -3.886  -4.064  -2.034  0.00  0.00     0.017 A 
ATOM      5  C4  UNL d   1      -4.270  -5.218  -1.340  0.00  0.00     0.017 A 
ATOM      6  C5  UNL d   1      -5.326  -5.998  -1.820  0.00  0.00     0.034 A 
ATOM      7 Cl   UNL d   1      -3.482  -5.733   0.109  0.00  0.00    -0.070 Cl
ATOM      8 Cl1  UNL d   1      -2.591  -3.050  -1.505  0.00  0.00    -0.070 Cl
ENDROOT
TORSDOF 0
ENDMDL
