MODEL 1
REMARK minimizedAffinity 10.4270535
REMARK minimizedRMSD -1
REMARK  0 active torsions:
REMARK  status: ('A' for Active; 'I' for Inactive)
ROOT
ATOM      1  C   UNL d   1       1.848   0.907   0.372  0.00  0.00     0.020 A 
ATOM      2  C1  UNL d   1       2.741  -0.115   0.691  0.00  0.00     0.020 A 
ATOM      3  C2  UNL d   1       4.018   0.196   1.163  0.00  0.00     0.034 A 
ATOM      4  C3  UNL d   1       4.405   1.532   1.317  0.00  0.00     0.017 A 
ATOM      5  C4  UNL d   1       3.508   2.557   0.996  0.00  0.00     0.017 A 
ATOM      6  C5  UNL d   1       2.231   2.240   0.524  0.00  0.00     0.034 A 
ATOM      7 Cl   UNL d   1       3.914   4.229   1.159  0.00  0.00    -0.070 Cl
ATOM      8 Cl1  UNL d   1       6.000   1.844   1.906  0.00  0.00    -0.070 Cl
ENDROOT
TORSDOF 0
ENDMDL
