MODEL 1
REMARK minimizedAffinity 4.87194872
REMARK minimizedRMSD -1
REMARK  0 active torsions:
REMARK  status: ('A' for Active; 'I' for Inactive)
ROOT
ATOM      1  C   UNL d   1       1.550   1.251   2.887  0.00  0.00     0.020 A 
ATOM      2  C1  UNL d   1       2.456   0.368   3.474  0.00  0.00     0.020 A 
ATOM      3  C2  UNL d   1       3.507  -0.158   2.720  0.00  0.00     0.034 A 
ATOM      4  C3  UNL d   1       3.654   0.198   1.374  0.00  0.00     0.017 A 
ATOM      5  C4  UNL d   1       2.744   1.084   0.786  0.00  0.00     0.017 A 
ATOM      6  C5  UNL d   1       1.694   1.608   1.546  0.00  0.00     0.034 A 
ATOM      7 Cl   UNL d   1       2.861   1.570  -0.869  0.00  0.00    -0.070 Cl
ATOM      8 Cl1  UNL d   1       4.977  -0.491   0.501  0.00  0.00    -0.070 Cl
ENDROOT
TORSDOF 0
ENDMDL
