MODEL 1
REMARK minimizedAffinity -0.0026286249
REMARK minimizedRMSD -1
REMARK  0 active torsions:
REMARK  status: ('A' for Active; 'I' for Inactive)
ROOT
ATOM      1  C   UNL d   1       4.442   2.053   1.397  0.00  0.00     0.020 A 
ATOM      2  C1  UNL d   1       5.546   1.926   2.240  0.00  0.00     0.020 A 
ATOM      3  C2  UNL d   1       5.982   3.021   2.989  0.00  0.00     0.034 A 
ATOM      4  C3  UNL d   1       5.315   4.248   2.896  0.00  0.00     0.017 A 
ATOM      5  C4  UNL d   1       4.208   4.374   2.050  0.00  0.00     0.017 A 
ATOM      6  C5  UNL d   1       3.775   3.274   1.302  0.00  0.00     0.034 A 
ATOM      7 Cl   UNL d   1       3.333   5.856   1.882  0.00  0.00    -0.070 Cl
ATOM      8 Cl1  UNL d   1       5.909   5.560   3.851  0.00  0.00    -0.070 Cl
ENDROOT
TORSDOF 0
ENDMDL
