MODEL 1
REMARK minimizedAffinity -0.688992918
REMARK minimizedRMSD -1
REMARK  0 active torsions:
REMARK  status: ('A' for Active; 'I' for Inactive)
ROOT
ATOM      1  C   UNL d   1      -1.130  -3.443  -0.062  0.00  0.00     0.020 A 
ATOM      2  C1  UNL d   1       0.012  -3.279  -0.845  0.00  0.00     0.020 A 
ATOM      3  C2  UNL d   1      -0.110  -3.051  -2.218  0.00  0.00     0.034 A 
ATOM      4  C3  UNL d   1      -1.376  -2.985  -2.810  0.00  0.00     0.017 A 
ATOM      5  C4  UNL d   1      -2.522  -3.150  -2.023  0.00  0.00     0.017 A 
ATOM      6  C5  UNL d   1      -2.394  -3.378  -0.649  0.00  0.00     0.034 A 
ATOM      7 Cl   UNL d   1      -4.118  -3.082  -2.683  0.00  0.00    -0.070 Cl
ATOM      8 Cl1  UNL d   1      -1.453  -2.699  -4.513  0.00  0.00    -0.070 Cl
ENDROOT
TORSDOF 0
ENDMDL
