MODEL 1
REMARK minimizedAffinity 8.69258976
REMARK minimizedRMSD -1
REMARK  0 active torsions:
REMARK  status: ('A' for Active; 'I' for Inactive)
ROOT
ATOM      1  C   UNL d   1      -1.910  -2.375   0.278  0.00  0.00     0.020 A 
ATOM      2  C1  UNL d   1      -0.651  -2.974   0.262  0.00  0.00     0.020 A 
ATOM      3  C2  UNL d   1      -0.230  -3.686  -0.863  0.00  0.00     0.034 A 
ATOM      4  C3  UNL d   1      -1.070  -3.801  -1.978  0.00  0.00     0.017 A 
ATOM      5  C4  UNL d   1      -2.333  -3.200  -1.961  0.00  0.00     0.017 A 
ATOM      6  C5  UNL d   1      -2.749  -2.488  -0.831  0.00  0.00     0.034 A 
ATOM      7 Cl   UNL d   1      -3.425  -3.298  -3.297  0.00  0.00    -0.070 Cl
ATOM      8 Cl1  UNL d   1      -0.485  -4.697  -3.335  0.00  0.00    -0.070 Cl
ENDROOT
TORSDOF 0
ENDMDL
