MODEL 1
REMARK minimizedAffinity 5.41571856
REMARK minimizedRMSD -1
REMARK  0 active torsions:
REMARK  status: ('A' for Active; 'I' for Inactive)
ROOT
ATOM      1  C   UNL d   1      -4.342   0.110  -4.843  0.00  0.00     0.023 A 
ATOM      2  C1  UNL d   1      -4.351  -0.651  -3.674  0.00  0.00     0.003 A 
ATOM      3  C2  UNL d   1      -3.351  -0.473  -2.716  0.00  0.00     0.048 A 
ATOM      4  C3  UNL d   1      -2.345   0.467  -2.933  0.00  0.00     0.023 A 
ATOM      5  C4  UNL d   1      -2.331   1.231  -4.101  0.00  0.00     0.048 A 
ATOM      6  C5  UNL d   1      -3.333   1.050  -5.057  0.00  0.00     0.003 A 
ATOM      7  I   UNL d   1      -0.855   0.733  -1.509  0.00  0.00    -0.146 I 
ENDROOT
TORSDOF 0
ENDMDL
