MODEL 1
REMARK minimizedAffinity 0.254157126
REMARK minimizedRMSD -1
REMARK  0 active torsions:
REMARK  status: ('A' for Active; 'I' for Inactive)
ROOT
ATOM      1  C   UNL d   1       5.865   4.826   0.029  0.00  0.00     0.023 A 
ATOM      2  C1  UNL d   1       5.240   4.523  -1.181  0.00  0.00     0.003 A 
ATOM      3  C2  UNL d   1       4.750   3.237  -1.412  0.00  0.00     0.048 A 
ATOM      4  C3  UNL d   1       4.886   2.257  -0.429  0.00  0.00     0.023 A 
ATOM      5  C4  UNL d   1       5.510   2.556   0.784  0.00  0.00     0.048 A 
ATOM      6  C5  UNL d   1       6.000   3.843   1.010  0.00  0.00     0.003 A 
ATOM      7  I   UNL d   1       4.156   0.342  -0.771  0.00  0.00    -0.146 I 
ENDROOT
TORSDOF 0
ENDMDL
