MODEL 1
REMARK minimizedAffinity 8.26347828
REMARK minimizedRMSD -1
REMARK  0 active torsions:
REMARK  status: ('A' for Active; 'I' for Inactive)
ROOT
ATOM      1  C   UNL d   1       6.000   0.004  -0.370  0.00  0.00     0.023 A 
ATOM      2  C1  UNL d   1       5.227  -1.094   0.006  0.00  0.00     0.003 A 
ATOM      3  C2  UNL d   1       3.833  -1.001   0.009  0.00  0.00     0.048 A 
ATOM      4  C3  UNL d   1       3.220   0.194  -0.367  0.00  0.00     0.023 A 
ATOM      5  C4  UNL d   1       3.990   1.295  -0.744  0.00  0.00     0.048 A 
ATOM      6  C5  UNL d   1       5.382   1.197  -0.745  0.00  0.00     0.003 A 
ATOM      7  I   UNL d   1       1.146   0.336  -0.364  0.00  0.00    -0.146 I 
ENDROOT
TORSDOF 0
ENDMDL
