MODEL 1
REMARK minimizedAffinity 9.07178307
REMARK minimizedRMSD -1
REMARK  0 active torsions:
REMARK  status: ('A' for Active; 'I' for Inactive)
ROOT
ATOM      1  C   UNL d   1       3.283   0.481  -1.636  0.00  0.00     0.023 A 
ATOM      2  C1  UNL d   1       2.878  -0.704  -1.022  0.00  0.00     0.003 A 
ATOM      3  C2  UNL d   1       3.656  -1.269  -0.010  0.00  0.00     0.048 A 
ATOM      4  C3  UNL d   1       4.839  -0.644   0.383  0.00  0.00     0.023 A 
ATOM      5  C4  UNL d   1       5.248   0.543  -0.228  0.00  0.00     0.048 A 
ATOM      6  C5  UNL d   1       4.467   1.104  -1.240  0.00  0.00     0.003 A 
ATOM      7  I   UNL d   1       6.000  -1.483   1.889  0.00  0.00    -0.146 I 
ENDROOT
TORSDOF 0
ENDMDL
