MODEL 1
REMARK minimizedAffinity 6.0003643
REMARK minimizedRMSD -1
REMARK  0 active torsions:
REMARK  status: ('A' for Active; 'I' for Inactive)
ROOT
ATOM      1  C   UNL d   1       5.692   1.232  -0.415  0.00  0.00     0.023 A 
ATOM      2  C1  UNL d   1       4.503   1.408  -1.123  0.00  0.00     0.003 A 
ATOM      3  C2  UNL d   1       3.620   0.339  -1.286  0.00  0.00     0.048 A 
ATOM      4  C3  UNL d   1       3.932  -0.905  -0.736  0.00  0.00     0.023 A 
ATOM      5  C4  UNL d   1       5.120  -1.086  -0.027  0.00  0.00     0.048 A 
ATOM      6  C5  UNL d   1       6.000  -0.014   0.132  0.00  0.00     0.003 A 
ATOM      7  I   UNL d   1       2.619  -2.498  -0.976  0.00  0.00    -0.146 I 
ENDROOT
TORSDOF 0
ENDMDL
