MODEL 1
REMARK minimizedAffinity 6.43154144
REMARK minimizedRMSD -1
REMARK  0 active torsions:
REMARK  status: ('A' for Active; 'I' for Inactive)
ROOT
ATOM      1  C   UNL d   1       5.267   1.381  -0.373  0.00  0.00     0.023 A 
ATOM      2  C1  UNL d   1       4.439   0.522   0.350  0.00  0.00     0.003 A 
ATOM      3  C2  UNL d   1       3.791  -0.533  -0.296  0.00  0.00     0.048 A 
ATOM      4  C3  UNL d   1       3.977  -0.724  -1.665  0.00  0.00     0.023 A 
ATOM      5  C4  UNL d   1       4.806   0.132  -2.392  0.00  0.00     0.048 A 
ATOM      6  C5  UNL d   1       5.451   1.186  -1.742  0.00  0.00     0.003 A 
ATOM      7  I   UNL d   1       3.014  -2.294  -2.629  0.00  0.00    -0.146 I 
ENDROOT
TORSDOF 0
ENDMDL
