MODEL 1
REMARK minimizedAffinity 14.8402786
REMARK minimizedRMSD -1
REMARK  0 active torsions:
REMARK  status: ('A' for Active; 'I' for Inactive)
ROOT
ATOM      1  C   UNL d   1      -2.974  -5.264  -4.777  0.00  0.00     0.023 A 
ATOM      2  C1  UNL d   1      -3.246  -4.503  -3.639  0.00  0.00     0.003 A 
ATOM      3  C2  UNL d   1      -2.335  -4.477  -2.581  0.00  0.00     0.048 A 
ATOM      4  C3  UNL d   1      -1.153  -5.212  -2.668  0.00  0.00     0.023 A 
ATOM      5  C4  UNL d   1      -0.876  -5.973  -3.805  0.00  0.00     0.048 A 
ATOM      6  C5  UNL d   1      -1.791  -5.998  -4.860  0.00  0.00     0.003 A 
ATOM      7  I   UNL d   1       0.205  -5.174  -1.095  0.00  0.00    -0.146 I 
ENDROOT
TORSDOF 0
ENDMDL
