MODEL 1
REMARK minimizedAffinity 4.2910347
REMARK minimizedRMSD -1
REMARK  0 active torsions:
REMARK  status: ('A' for Active; 'I' for Inactive)
ROOT
ATOM      1  C   UNL d   1       4.894   1.711  -0.444  0.00  0.00     0.023 A 
ATOM      2  C1  UNL d   1       5.540   0.951  -1.420  0.00  0.00     0.003 A 
ATOM      3  C2  UNL d   1       4.965  -0.236  -1.876  0.00  0.00     0.048 A 
ATOM      4  C3  UNL d   1       3.743  -0.658  -1.353  0.00  0.00     0.023 A 
ATOM      5  C4  UNL d   1       3.092   0.100  -0.377  0.00  0.00     0.048 A 
ATOM      6  C5  UNL d   1       3.672   1.286   0.076  0.00  0.00     0.003 A 
ATOM      7  I   UNL d   1       2.884  -2.426  -2.030  0.00  0.00    -0.146 I 
ENDROOT
TORSDOF 0
ENDMDL
