MODEL 1
REMARK minimizedAffinity 11.9969635
REMARK minimizedRMSD -1
REMARK  0 active torsions:
REMARK  status: ('A' for Active; 'I' for Inactive)
ROOT
ATOM      1  C   UNL d   1      -0.918   1.418   1.421  0.00  0.00     0.023 A 
ATOM      2  C1  UNL d   1       0.153   1.094   2.253  0.00  0.00     0.003 A 
ATOM      3  C2  UNL d   1       1.362   0.663   1.703  0.00  0.00     0.048 A 
ATOM      4  C3  UNL d   1       1.493   0.560   0.318  0.00  0.00     0.023 A 
ATOM      5  C4  UNL d   1       0.424   0.884  -0.519  0.00  0.00     0.048 A 
ATOM      6  C5  UNL d   1      -0.783   1.314   0.036  0.00  0.00     0.003 A 
ATOM      7  I   UNL d   1       3.291  -0.080  -0.504  0.00  0.00    -0.146 I 
ENDROOT
TORSDOF 0
ENDMDL
