MODEL 1
REMARK minimizedAffinity 1.51293981
REMARK minimizedRMSD -1
REMARK  0 active torsions:
REMARK  status: ('A' for Active; 'I' for Inactive)
ROOT
ATOM      1  C   UNL d   1      -0.289  -0.871  -0.365  0.00  0.00     0.124 A 
ATOM      2  C1  UNL d   1      -1.047  -0.212   0.594  0.00  0.00     0.062 A 
ATOM      3  C2  UNL d   1      -0.757   1.107   0.930  0.00  0.00     0.162 A 
ATOM      4  C3  UNL d   1       0.295   1.778   0.306  0.00  0.00    -0.034 A 
ATOM      5  C4  UNL d   1       1.053   1.109  -0.657  0.00  0.00     0.162 A 
ATOM      6  C5  UNL d   1       0.759  -0.210  -0.989  0.00  0.00     0.062 A 
ATOM      7  F   UNL d   1       1.492  -0.844  -1.916  0.00  0.00    -0.097 F 
ATOM      8  F1  UNL d   1       2.071   1.724  -1.276  0.00  0.00    -0.096 F 
ATOM      9  I   UNL d   1       0.731   3.750   0.806  0.00  0.00    -0.060 I 
ATOM     10  F2  UNL d   1      -1.505   1.718   1.861  0.00  0.00    -0.096 F 
ATOM     11  F3  UNL d   1      -2.060  -0.849   1.199  0.00  0.00    -0.097 F 
ATOM     12  F4  UNL d   1      -0.570  -2.140  -0.686  0.00  0.00    -0.092 F 
ENDROOT
TORSDOF 0
ENDMDL
