MODEL 1
REMARK minimizedAffinity 2.31115365
REMARK minimizedRMSD -1
REMARK  0 active torsions:
REMARK  status: ('A' for Active; 'I' for Inactive)
ROOT
ATOM      1  C   UNL d   1      -0.327  -2.424   0.100  0.00  0.00     0.124 A 
ATOM      2  C1  UNL d   1      -1.278  -1.734   0.839  0.00  0.00     0.062 A 
ATOM      3  C2  UNL d   1      -1.133  -0.368   1.064  0.00  0.00     0.162 A 
ATOM      4  C3  UNL d   1      -0.032   0.317   0.549  0.00  0.00    -0.034 A 
ATOM      5  C4  UNL d   1       0.920  -0.384  -0.192  0.00  0.00     0.162 A 
ATOM      6  C5  UNL d   1       0.771  -1.749  -0.414  0.00  0.00     0.062 A 
ATOM      7  F   UNL d   1       1.691  -2.415  -1.128  0.00  0.00    -0.097 F 
ATOM      8  F1  UNL d   1       1.990   0.243  -0.701  0.00  0.00    -0.096 F 
ATOM      9  I   UNL d   1       0.188   2.359   0.884  0.00  0.00    -0.060 I 
ATOM     10  F2  UNL d   1      -2.067   0.274   1.781  0.00  0.00    -0.096 F 
ATOM     11  F3  UNL d   1      -2.339  -2.384   1.338  0.00  0.00    -0.097 F 
ATOM     12  F4  UNL d   1      -0.468  -3.739  -0.114  0.00  0.00    -0.092 F 
ENDROOT
TORSDOF 0
ENDMDL
