MODEL 1
REMARK minimizedAffinity -1.40242136
REMARK minimizedRMSD -1
REMARK  0 active torsions:
REMARK  status: ('A' for Active; 'I' for Inactive)
ROOT
ATOM      1  C   UNL d   1      -0.016  -1.888  -0.514  0.00  0.00     0.124 A 
ATOM      2  C1  UNL d   1       0.088  -1.436   0.794  0.00  0.00     0.062 A 
ATOM      3  C2  UNL d   1       0.264  -0.080   1.054  0.00  0.00     0.162 A 
ATOM      4  C3  UNL d   1       0.337   0.835   0.003  0.00  0.00    -0.034 A 
ATOM      5  C4  UNL d   1       0.232   0.372  -1.310  0.00  0.00     0.162 A 
ATOM      6  C5  UNL d   1       0.056  -0.984  -1.565  0.00  0.00     0.062 A 
ATOM      7  F   UNL d   1      -0.045  -1.419  -2.829  0.00  0.00    -0.097 F 
ATOM      8  F1  UNL d   1       0.297   1.224  -2.344  0.00  0.00    -0.096 F 
ATOM      9  I   UNL d   1       0.600   2.863   0.387  0.00  0.00    -0.060 I 
ATOM     10  F2  UNL d   1       0.362   0.329   2.328  0.00  0.00    -0.096 F 
ATOM     11  F3  UNL d   1       0.019  -2.307   1.811  0.00  0.00    -0.097 F 
ATOM     12  F4  UNL d   1      -0.185  -3.193  -0.761  0.00  0.00    -0.092 F 
ENDROOT
TORSDOF 0
ENDMDL
