MODEL 1
REMARK minimizedAffinity -1.56797719
REMARK minimizedRMSD -1
REMARK  0 active torsions:
REMARK  status: ('A' for Active; 'I' for Inactive)
ROOT
ATOM      1  C   UNL d   1      -1.012  -1.343   0.282  0.00  0.00     0.124 A 
ATOM      2  C1  UNL d   1      -1.470  -0.034   0.324  0.00  0.00     0.062 A 
ATOM      3  C2  UNL d   1      -0.569   1.025   0.270  0.00  0.00     0.162 A 
ATOM      4  C3  UNL d   1       0.801   0.779   0.173  0.00  0.00    -0.034 A 
ATOM      5  C4  UNL d   1       1.254  -0.540   0.132  0.00  0.00     0.162 A 
ATOM      6  C5  UNL d   1       0.349  -1.595   0.185  0.00  0.00     0.062 A 
ATOM      7  F   UNL d   1       0.794  -2.860   0.144  0.00  0.00    -0.097 F 
ATOM      8  F1  UNL d   1       2.564  -0.812   0.038  0.00  0.00    -0.096 F 
ATOM      9  I   UNL d   1       2.152   2.360   0.093  0.00  0.00    -0.060 I 
ATOM     10  F2  UNL d   1      -1.040   2.280   0.313  0.00  0.00    -0.096 F 
ATOM     11  F3  UNL d   1      -2.785   0.212   0.418  0.00  0.00    -0.097 F 
ATOM     12  F4  UNL d   1      -1.882  -2.361   0.334  0.00  0.00    -0.092 F 
ENDROOT
TORSDOF 0
ENDMDL
