MODEL 1
REMARK minimizedAffinity -2.00365639
REMARK minimizedRMSD -1
REMARK  0 active torsions:
REMARK  status: ('A' for Active; 'I' for Inactive)
ROOT
ATOM      1  C   UNL d   1      -0.261  -2.753  -0.124  0.00  0.00     0.124 A 
ATOM      2  C1  UNL d   1       0.562  -2.075  -1.013  0.00  0.00     0.062 A 
ATOM      3  C2  UNL d   1       0.759  -0.703  -0.877  0.00  0.00     0.162 A 
ATOM      4  C3  UNL d   1       0.133  -0.001   0.153  0.00  0.00    -0.034 A 
ATOM      5  C4  UNL d   1      -0.694  -0.690   1.042  0.00  0.00     0.162 A 
ATOM      6  C5  UNL d   1      -0.888  -2.060   0.902  0.00  0.00     0.062 A 
ATOM      7  F   UNL d   1      -1.683  -2.714   1.762  0.00  0.00    -0.097 F 
ATOM      8  F1  UNL d   1      -1.311  -0.046   2.044  0.00  0.00    -0.096 F 
ATOM      9  I   UNL d   1       0.425   2.049   0.360  0.00  0.00    -0.060 I 
ATOM     10  F2  UNL d   1       1.559  -0.074  -1.750  0.00  0.00    -0.096 F 
ATOM     11  F3  UNL d   1       1.168  -2.741  -2.006  0.00  0.00    -0.097 F 
ATOM     12  F4  UNL d   1      -0.450  -4.072  -0.258  0.00  0.00    -0.092 F 
ENDROOT
TORSDOF 0
ENDMDL
