MODEL 1
REMARK minimizedAffinity -2.91353703
REMARK minimizedRMSD -1
REMARK  0 active torsions:
REMARK  status: ('A' for Active; 'I' for Inactive)
ROOT
ATOM      1  C   UNL d   1      -0.336  -2.319  -0.508  0.00  0.00     0.124 A 
ATOM      2  C1  UNL d   1       0.092  -1.560  -1.588  0.00  0.00     0.062 A 
ATOM      3  C2  UNL d   1       0.177  -0.175  -1.481  0.00  0.00     0.162 A 
ATOM      4  C3  UNL d   1      -0.166   0.461  -0.287  0.00  0.00    -0.034 A 
ATOM      5  C4  UNL d   1      -0.595  -0.309   0.795  0.00  0.00     0.162 A 
ATOM      6  C5  UNL d   1      -0.679  -1.693   0.682  0.00  0.00     0.062 A 
ATOM      7  F   UNL d   1      -1.092  -2.425   1.727  0.00  0.00    -0.097 F 
ATOM      8  F1  UNL d   1      -0.932   0.269   1.957  0.00  0.00    -0.096 F 
ATOM      9  I   UNL d   1      -0.040   2.532  -0.122  0.00  0.00    -0.060 I 
ATOM     10  F2  UNL d   1       0.593   0.534  -2.541  0.00  0.00    -0.096 F 
ATOM     11  F3  UNL d   1       0.423  -2.162  -2.740  0.00  0.00    -0.097 F 
ATOM     12  F4  UNL d   1      -0.417  -3.651  -0.615  0.00  0.00    -0.092 F 
ENDROOT
TORSDOF 0
ENDMDL
