MODEL 1
REMARK minimizedAffinity 0.326166868
REMARK minimizedRMSD -1
REMARK  0 active torsions:
REMARK  status: ('A' for Active; 'I' for Inactive)
ROOT
ATOM      1  C   UNL d   1      -0.278  -2.354   0.042  0.00  0.00     0.124 A 
ATOM      2  C1  UNL d   1       0.644  -1.618  -0.689  0.00  0.00     0.062 A 
ATOM      3  C2  UNL d   1       0.765  -0.247  -0.486  0.00  0.00     0.162 A 
ATOM      4  C3  UNL d   1      -0.038   0.399   0.455  0.00  0.00    -0.034 A 
ATOM      5  C4  UNL d   1      -0.964  -0.347   1.186  0.00  0.00     0.162 A 
ATOM      6  C5  UNL d   1      -1.081  -1.718   0.979  0.00  0.00     0.062 A 
ATOM      7  F   UNL d   1      -1.973  -2.427   1.686  0.00  0.00    -0.097 F 
ATOM      8  F1  UNL d   1      -1.751   0.241   2.098  0.00  0.00    -0.096 F 
ATOM      9  I   UNL d   1       0.141   2.449   0.762  0.00  0.00    -0.060 I 
ATOM     10  F2  UNL d   1       1.665   0.439  -1.206  0.00  0.00    -0.096 F 
ATOM     11  F3  UNL d   1       1.420  -2.230  -1.595  0.00  0.00    -0.097 F 
ATOM     12  F4  UNL d   1      -0.394  -3.673  -0.157  0.00  0.00    -0.092 F 
ENDROOT
TORSDOF 0
ENDMDL
