MODEL 1
REMARK minimizedAffinity -2.81858516
REMARK minimizedRMSD -1
REMARK  0 active torsions:
REMARK  status: ('A' for Active; 'I' for Inactive)
ROOT
ATOM      1  C   UNL d   1      -0.234  -1.676  -0.372  0.00  0.00     0.124 A 
ATOM      2  C1  UNL d   1       0.029  -0.826  -1.438  0.00  0.00     0.062 A 
ATOM      3  C2  UNL d   1       0.195   0.539  -1.221  0.00  0.00     0.162 A 
ATOM      4  C3  UNL d   1       0.099   1.063   0.068  0.00  0.00    -0.034 A 
ATOM      5  C4  UNL d   1      -0.166   0.203   1.134  0.00  0.00     0.162 A 
ATOM      6  C5  UNL d   1      -0.331  -1.161   0.913  0.00  0.00     0.062 A 
ATOM      7  F   UNL d   1      -0.584  -1.980   1.944  0.00  0.00    -0.097 F 
ATOM      8  F1  UNL d   1      -0.264   0.674   2.387  0.00  0.00    -0.096 F 
ATOM      9  I   UNL d   1       0.346   3.103   0.396  0.00  0.00    -0.060 I 
ATOM     10  F2  UNL d   1       0.448   1.336  -2.270  0.00  0.00    -0.096 F 
ATOM     11  F3  UNL d   1       0.122  -1.321  -2.681  0.00  0.00    -0.097 F 
ATOM     12  F4  UNL d   1      -0.394  -2.988  -0.584  0.00  0.00    -0.092 F 
ENDROOT
TORSDOF 0
ENDMDL
