MODEL 1
REMARK minimizedAffinity -4.46228743
REMARK minimizedRMSD -1
REMARK  0 active torsions:
REMARK  status: ('A' for Active; 'I' for Inactive)
ROOT
ATOM      1  C   UNL d   1      -0.742   0.699  -0.058  0.00  0.00     0.124 A 
ATOM      2  C1  UNL d   1       0.087   0.124  -1.011  0.00  0.00     0.062 A 
ATOM      3  C2  UNL d   1       0.369  -1.238  -0.964  0.00  0.00     0.162 A 
ATOM      4  C3  UNL d   1      -0.181  -2.036   0.039  0.00  0.00    -0.034 A 
ATOM      5  C4  UNL d   1      -1.013  -1.451   0.995  0.00  0.00     0.162 A 
ATOM      6  C5  UNL d   1      -1.292  -0.089   0.944  0.00  0.00     0.062 A 
ATOM      7  F   UNL d   1      -2.093   0.465   1.865  0.00  0.00    -0.097 F 
ATOM      8  F1  UNL d   1      -1.558  -2.189   1.973  0.00  0.00    -0.096 F 
ATOM      9  I   UNL d   1       0.237  -4.073   0.113  0.00  0.00    -0.060 I 
ATOM     10  F2  UNL d   1       1.173  -1.766  -1.898  0.00  0.00    -0.096 F 
ATOM     11  F3  UNL d   1       0.620   0.883  -1.980  0.00  0.00    -0.097 F 
ATOM     12  F4  UNL d   1      -1.011   2.010  -0.105  0.00  0.00    -0.092 F 
ENDROOT
TORSDOF 0
ENDMDL
