MODEL 1
REMARK minimizedAffinity -4.98538494
REMARK minimizedRMSD -1
REMARK  0 active torsions:
REMARK  status: ('A' for Active; 'I' for Inactive)
ROOT
ATOM      1  C   UNL d   1      -0.054  -3.039  -0.769  0.00  0.00     0.124 A 
ATOM      2  C1  UNL d   1       0.099  -2.224  -1.882  0.00  0.00     0.062 A 
ATOM      3  C2  UNL d   1       0.156  -0.841  -1.734  0.00  0.00     0.162 A 
ATOM      4  C3  UNL d   1       0.062  -0.264  -0.467  0.00  0.00    -0.034 A 
ATOM      5  C4  UNL d   1      -0.093  -1.090   0.647  0.00  0.00     0.162 A 
ATOM      6  C5  UNL d   1      -0.149  -2.472   0.494  0.00  0.00     0.062 A 
ATOM      7  F   UNL d   1      -0.296  -3.258   1.571  0.00  0.00    -0.097 F 
ATOM      8  F1  UNL d   1      -0.186  -0.569   1.879  0.00  0.00    -0.096 F 
ATOM      9  I   UNL d   1       0.147   1.803  -0.243  0.00  0.00    -0.060 I 
ATOM     10  F2  UNL d   1       0.303  -0.078  -2.827  0.00  0.00    -0.096 F 
ATOM     11  F3  UNL d   1       0.190  -2.770  -3.103  0.00  0.00    -0.097 F 
ATOM     12  F4  UNL d   1      -0.109  -4.369  -0.914  0.00  0.00    -0.092 F 
ENDROOT
TORSDOF 0
ENDMDL
