MODEL 1
REMARK minimizedAffinity -3.94372821
REMARK minimizedRMSD -1
REMARK  0 active torsions:
REMARK  status: ('A' for Active; 'I' for Inactive)
ROOT
ATOM      1  C   UNL d   1       0.028   0.863  -1.302  0.00  0.00     0.124 A 
ATOM      2  C1  UNL d   1      -0.371   0.652   0.011  0.00  0.00     0.062 A 
ATOM      3  C2  UNL d   1      -0.412  -0.638   0.531  0.00  0.00     0.162 A 
ATOM      4  C3  UNL d   1      -0.052  -1.729  -0.261  0.00  0.00    -0.034 A 
ATOM      5  C4  UNL d   1       0.346  -1.509  -1.580  0.00  0.00     0.162 A 
ATOM      6  C5  UNL d   1       0.386  -0.218  -2.096  0.00  0.00     0.062 A 
ATOM      7  F   UNL d   1       0.771  -0.016  -3.365  0.00  0.00    -0.097 F 
ATOM      8  F1  UNL d   1       0.698  -2.535  -2.370  0.00  0.00    -0.096 F 
ATOM      9  I   UNL d   1      -0.113  -3.659   0.514  0.00  0.00    -0.060 I 
ATOM     10  F2  UNL d   1      -0.801  -0.812   1.803  0.00  0.00    -0.096 F 
ATOM     11  F3  UNL d   1      -0.718   1.694   0.780  0.00  0.00    -0.097 F 
ATOM     12  F4  UNL d   1       0.066   2.105  -1.800  0.00  0.00    -0.092 F 
ENDROOT
TORSDOF 0
ENDMDL
