MODEL 1
REMARK minimizedAffinity -0.713284254
REMARK minimizedRMSD -1
REMARK  0 active torsions:
REMARK  status: ('A' for Active; 'I' for Inactive)
ROOT
ATOM      1  C   UNL d   1       0.305  -2.318   0.549  0.00  0.00     0.124 A 
ATOM      2  C1  UNL d   1      -0.695  -1.636   1.230  0.00  0.00     0.062 A 
ATOM      3  C2  UNL d   1      -0.853  -0.265   1.051  0.00  0.00     0.162 A 
ATOM      4  C3  UNL d   1      -0.010   0.434   0.187  0.00  0.00    -0.034 A 
ATOM      5  C4  UNL d   1       0.993  -0.258  -0.493  0.00  0.00     0.162 A 
ATOM      6  C5  UNL d   1       1.147  -1.629  -0.311  0.00  0.00     0.062 A 
ATOM      7  F   UNL d   1       2.113  -2.286  -0.969  0.00  0.00    -0.097 F 
ATOM      8  F1  UNL d   1       1.821   0.383  -1.331  0.00  0.00    -0.096 F 
ATOM      9  I   UNL d   1      -0.244   2.484  -0.082  0.00  0.00    -0.060 I 
ATOM     10  F2  UNL d   1      -1.827   0.368   1.722  0.00  0.00    -0.096 F 
ATOM     11  F3  UNL d   1      -1.510  -2.300   2.063  0.00  0.00    -0.097 F 
ATOM     12  F4  UNL d   1       0.455  -3.637   0.724  0.00  0.00    -0.092 F 
ENDROOT
TORSDOF 0
ENDMDL
