MODEL 1
REMARK minimizedAffinity -2.31742859
REMARK minimizedRMSD -1
REMARK  0 active torsions:
REMARK  status: ('A' for Active; 'I' for Inactive)
ROOT
ATOM      1  C   UNL d   1      -0.302  -2.443  -0.080  0.00  0.00     0.124 A 
ATOM      2  C1  UNL d   1       0.515  -1.781  -0.986  0.00  0.00     0.062 A 
ATOM      3  C2  UNL d   1       0.692  -0.404  -0.893  0.00  0.00     0.162 A 
ATOM      4  C3  UNL d   1       0.052   0.322   0.112  0.00  0.00    -0.034 A 
ATOM      5  C4  UNL d   1      -0.769  -0.350   1.019  0.00  0.00     0.162 A 
ATOM      6  C5  UNL d   1      -0.943  -1.727   0.921  0.00  0.00     0.062 A 
ATOM      7  F   UNL d   1      -1.733  -2.365   1.798  0.00  0.00    -0.097 F 
ATOM      8  F1  UNL d   1      -1.400   0.316   1.997  0.00  0.00    -0.096 F 
ATOM      9  I   UNL d   1       0.315   2.381   0.255  0.00  0.00    -0.060 I 
ATOM     10  F2  UNL d   1       1.488   0.209  -1.782  0.00  0.00    -0.096 F 
ATOM     11  F3  UNL d   1       1.135  -2.470  -1.955  0.00  0.00    -0.097 F 
ATOM     12  F4  UNL d   1      -0.472  -3.768  -0.173  0.00  0.00    -0.092 F 
ENDROOT
TORSDOF 0
ENDMDL
