MODEL 1
REMARK minimizedAffinity -0.388887405
REMARK minimizedRMSD -1
REMARK  0 active torsions:
REMARK  status: ('A' for Active; 'I' for Inactive)
ROOT
ATOM      1  C   UNL d   1      -0.398  -2.123   0.447  0.00  0.00     0.124 A 
ATOM      2  C1  UNL d   1       0.655  -1.484  -0.191  0.00  0.00     0.062 A 
ATOM      3  C2  UNL d   1       0.991  -0.177   0.149  0.00  0.00     0.162 A 
ATOM      4  C3  UNL d   1       0.272   0.501   1.134  0.00  0.00    -0.034 A 
ATOM      5  C4  UNL d   1      -0.787  -0.148   1.771  0.00  0.00     0.162 A 
ATOM      6  C5  UNL d   1      -1.118  -1.455   1.428  0.00  0.00     0.062 A 
ATOM      7  F   UNL d   1      -2.137  -2.070   2.046  0.00  0.00    -0.097 F 
ATOM      8  F1  UNL d   1      -1.499   0.474   2.723  0.00  0.00    -0.096 F 
ATOM      9  I   UNL d   1       0.771   2.455   1.645  0.00  0.00    -0.060 I 
ATOM     10  F2  UNL d   1       2.014   0.416  -0.485  0.00  0.00    -0.096 F 
ATOM     11  F3  UNL d   1       1.352  -2.127  -1.139  0.00  0.00    -0.097 F 
ATOM     12  F4  UNL d   1      -0.720  -3.381   0.117  0.00  0.00    -0.092 F 
ENDROOT
TORSDOF 0
ENDMDL
