MODEL 1
REMARK minimizedAffinity 0.0779029503
REMARK minimizedRMSD -1
REMARK  0 active torsions:
REMARK  status: ('A' for Active; 'I' for Inactive)
ROOT
ATOM      1  C   UNL d   1       0.969   1.292   0.349  0.00  0.00     0.020 A 
ATOM      2  C1  UNL d   1       0.193   2.127  -0.454  0.00  0.00     0.020 A 
ATOM      3  C2  UNL d   1      -1.098   1.740  -0.821  0.00  0.00     0.034 A 
ATOM      4  C3  UNL d   1      -1.616   0.515  -0.386  0.00  0.00     0.017 A 
ATOM      5  C4  UNL d   1      -0.837  -0.323   0.419  0.00  0.00     0.017 A 
ATOM      6  C5  UNL d   1       0.455   0.070   0.785  0.00  0.00     0.034 A 
ATOM      7 Cl   UNL d   1      -1.407  -1.849   0.995  0.00  0.00    -0.070 Cl
ATOM      8 Cl1  UNL d   1      -3.220   0.101  -0.879  0.00  0.00    -0.070 Cl
ENDROOT
TORSDOF 0
ENDMDL
