MODEL 1
REMARK minimizedAffinity -0.775767267
REMARK minimizedRMSD -1
REMARK  0 active torsions:
REMARK  status: ('A' for Active; 'I' for Inactive)
ROOT
ATOM      1  C   UNL d   1       1.277   1.541   0.402  0.00  0.00     0.020 A 
ATOM      2  C1  UNL d   1       1.365   1.571  -0.989  0.00  0.00     0.020 A 
ATOM      3  C2  UNL d   1       0.416   0.901  -1.764  0.00  0.00     0.034 A 
ATOM      4  C3  UNL d   1      -0.625   0.198  -1.148  0.00  0.00     0.017 A 
ATOM      5  C4  UNL d   1      -0.714   0.168   0.248  0.00  0.00     0.017 A 
ATOM      6  C5  UNL d   1       0.239   0.841   1.019  0.00  0.00     0.034 A 
ATOM      7 Cl   UNL d   1      -1.970  -0.679   1.079  0.00  0.00    -0.070 Cl
ATOM      8 Cl1  UNL d   1      -1.764  -0.608  -2.169  0.00  0.00    -0.070 Cl
ENDROOT
TORSDOF 0
ENDMDL
