MODEL 1
REMARK minimizedAffinity -0.866746724
REMARK minimizedRMSD -1
REMARK  0 active torsions:
REMARK  status: ('A' for Active; 'I' for Inactive)
ROOT
ATOM      1  C   UNL d   1      -1.716   1.103  -0.798  0.00  0.00     0.020 A 
ATOM      2  C1  UNL d   1      -2.211  -0.123  -0.356  0.00  0.00     0.020 A 
ATOM      3  C2  UNL d   1      -1.414  -0.954   0.435  0.00  0.00     0.034 A 
ATOM      4  C3  UNL d   1      -0.117  -0.559   0.786  0.00  0.00     0.017 A 
ATOM      5  C4  UNL d   1       0.378   0.672   0.342  0.00  0.00     0.017 A 
ATOM      6  C5  UNL d   1      -0.424   1.500  -0.450  0.00  0.00     0.034 A 
ATOM      7 Cl   UNL d   1       1.967   1.227   0.734  0.00  0.00    -0.070 Cl
ATOM      8 Cl1  UNL d   1       0.812  -1.636   1.766  0.00  0.00    -0.070 Cl
ENDROOT
TORSDOF 0
ENDMDL
