MODEL 1
REMARK minimizedAffinity 7.33937359
REMARK minimizedRMSD -1
REMARK  0 active torsions:
REMARK  status: ('A' for Active; 'I' for Inactive)
ROOT
ATOM      1  C   UNL d   1       1.841   2.049   0.848  0.00  0.00     0.020 A 
ATOM      2  C1  UNL d   1       2.796   1.976   1.861  0.00  0.00     0.020 A 
ATOM      3  C2  UNL d   1       2.816   0.879   2.725  0.00  0.00     0.034 A 
ATOM      4  C3  UNL d   1       1.878  -0.149   2.579  0.00  0.00     0.017 A 
ATOM      5  C4  UNL d   1       0.919  -0.075   1.562  0.00  0.00     0.017 A 
ATOM      6  C5  UNL d   1       0.904   1.025   0.699  0.00  0.00     0.034 A 
ATOM      7 Cl   UNL d   1      -0.271  -1.305   1.319  0.00  0.00    -0.070 Cl
ATOM      8 Cl1  UNL d   1       1.960  -1.475   3.683  0.00  0.00    -0.070 Cl
ENDROOT
TORSDOF 0
ENDMDL
