MODEL 1
REMARK minimizedAffinity -4.06073999
REMARK minimizedRMSD -1
REMARK  0 active torsions:
REMARK  status: ('A' for Active; 'I' for Inactive)
ROOT
ATOM      1  C   UNL d   1       2.360  -2.309   1.642  0.00  0.00     0.020 A 
ATOM      2  C1  UNL d   1       3.210  -1.242   1.355  0.00  0.00     0.020 A 
ATOM      3  C2  UNL d   1       2.686  -0.044   0.864  0.00  0.00     0.034 A 
ATOM      4  C3  UNL d   1       1.308   0.089   0.659  0.00  0.00     0.017 A 
ATOM      5  C4  UNL d   1       0.456  -0.982   0.947  0.00  0.00     0.017 A 
ATOM      6  C5  UNL d   1       0.986  -2.179   1.438  0.00  0.00     0.034 A 
ATOM      7 Cl   UNL d   1      -1.256  -0.893   0.720  0.00  0.00    -0.070 Cl
ATOM      8 Cl1  UNL d   1       0.729   1.599   0.050  0.00  0.00    -0.070 Cl
ENDROOT
TORSDOF 0
ENDMDL
