MODEL 1
REMARK minimizedAffinity -2.50180006
REMARK minimizedRMSD -1
REMARK  0 active torsions:
REMARK  status: ('A' for Active; 'I' for Inactive)
ROOT
ATOM      1  C   UNL d   1       2.132   0.870   1.369  0.00  0.00     0.020 A 
ATOM      2  C1  UNL d   1       2.074   1.496   0.124  0.00  0.00     0.020 A 
ATOM      3  C2  UNL d   1       1.067   1.156  -0.782  0.00  0.00     0.034 A 
ATOM      4  C3  UNL d   1       0.114   0.187  -0.445  0.00  0.00     0.017 A 
ATOM      5  C4  UNL d   1       0.173  -0.440   0.805  0.00  0.00     0.017 A 
ATOM      6  C5  UNL d   1       1.183  -0.095   1.708  0.00  0.00     0.034 A 
ATOM      7 Cl   UNL d   1      -0.967  -1.644   1.293  0.00  0.00    -0.070 Cl
ATOM      8 Cl1  UNL d   1      -1.103  -0.184  -1.614  0.00  0.00    -0.070 Cl
ENDROOT
TORSDOF 0
ENDMDL
