MODEL 1
REMARK minimizedAffinity -1.89319825
REMARK minimizedRMSD -1
REMARK  0 active torsions:
REMARK  status: ('A' for Active; 'I' for Inactive)
ROOT
ATOM      1  C   UNL d   1       1.955   1.836  -0.060  0.00  0.00     0.020 A 
ATOM      2  C1  UNL d   1       2.196   1.143   1.126  0.00  0.00     0.020 A 
ATOM      3  C2  UNL d   1       1.309   0.151   1.548  0.00  0.00     0.034 A 
ATOM      4  C3  UNL d   1       0.176  -0.152   0.784  0.00  0.00     0.017 A 
ATOM      5  C4  UNL d   1      -0.065   0.544  -0.406  0.00  0.00     0.017 A 
ATOM      6  C5  UNL d   1       0.826   1.537  -0.824  0.00  0.00     0.034 A 
ATOM      7 Cl   UNL d   1      -1.442   0.227  -1.402  0.00  0.00    -0.070 Cl
ATOM      8 Cl1  UNL d   1      -0.878  -1.391   1.366  0.00  0.00    -0.070 Cl
ENDROOT
TORSDOF 0
ENDMDL
