MODEL 1
REMARK minimizedAffinity -1.94799757
REMARK minimizedRMSD -1
REMARK  0 active torsions:
REMARK  status: ('A' for Active; 'I' for Inactive)
ROOT
ATOM      1  C   UNL d   1      -1.748  -0.949   0.392  0.00  0.00     0.020 A 
ATOM      2  C1  UNL d   1      -0.852  -1.854   0.957  0.00  0.00     0.020 A 
ATOM      3  C2  UNL d   1       0.475  -1.477   1.179  0.00  0.00     0.034 A 
ATOM      4  C3  UNL d   1       0.908  -0.191   0.836  0.00  0.00     0.017 A 
ATOM      5  C4  UNL d   1       0.007   0.717   0.269  0.00  0.00     0.017 A 
ATOM      6  C5  UNL d   1      -1.320   0.334   0.048  0.00  0.00     0.034 A 
ATOM      7 Cl   UNL d   1       0.467   2.321  -0.181  0.00  0.00    -0.070 Cl
ATOM      8 Cl1  UNL d   1       2.561   0.207   1.139  0.00  0.00    -0.070 Cl
ENDROOT
TORSDOF 0
ENDMDL
