MODEL 1
REMARK minimizedAffinity -2.66577673
REMARK minimizedRMSD -1
REMARK  0 active torsions:
REMARK  status: ('A' for Active; 'I' for Inactive)
ROOT
ATOM      1  C   UNL d   1       2.496  -0.904   2.096  0.00  0.00     0.020 A 
ATOM      2  C1  UNL d   1       1.468  -1.847   2.100  0.00  0.00     0.020 A 
ATOM      3  C2  UNL d   1       0.300  -1.609   1.373  0.00  0.00     0.034 A 
ATOM      4  C3  UNL d   1       0.156  -0.426   0.639  0.00  0.00     0.017 A 
ATOM      5  C4  UNL d   1       1.188   0.520   0.636  0.00  0.00     0.017 A 
ATOM      6  C5  UNL d   1       2.356   0.276   1.366  0.00  0.00     0.034 A 
ATOM      7 Cl   UNL d   1       1.083   2.003  -0.245  0.00  0.00    -0.070 Cl
ATOM      8 Cl1  UNL d   1      -1.316  -0.198  -0.237  0.00  0.00    -0.070 Cl
ENDROOT
TORSDOF 0
ENDMDL
