MODEL 1
REMARK minimizedAffinity -4.69781685
REMARK minimizedRMSD -1
REMARK  0 active torsions:
REMARK  status: ('A' for Active; 'I' for Inactive)
ROOT
ATOM      1  C   UNL d   1       2.136  -1.672   1.420  0.00  0.00     0.020 A 
ATOM      2  C1  UNL d   1       2.982  -0.648   0.998  0.00  0.00     0.020 A 
ATOM      3  C2  UNL d   1       2.446   0.519   0.450  0.00  0.00     0.034 A 
ATOM      4  C3  UNL d   1       1.060   0.666   0.323  0.00  0.00     0.017 A 
ATOM      5  C4  UNL d   1       0.211  -0.363   0.748  0.00  0.00     0.017 A 
ATOM      6  C5  UNL d   1       0.753  -1.530   1.295  0.00  0.00     0.034 A 
ATOM      7 Cl   UNL d   1      -1.509  -0.256   0.624  0.00  0.00    -0.070 Cl
ATOM      8 Cl1  UNL d   1       0.467   2.136  -0.363  0.00  0.00    -0.070 Cl
ENDROOT
TORSDOF 0
ENDMDL
