MODEL 1
REMARK minimizedAffinity -1.61502314
REMARK minimizedRMSD -1
REMARK  0 active torsions:
REMARK  status: ('A' for Active; 'I' for Inactive)
ROOT
ATOM      1  C   UNL d   1      -3.085   0.797  -2.938  0.00  0.00     0.020 A 
ATOM      2  C1  UNL d   1      -3.835  -0.313  -2.550  0.00  0.00     0.020 A 
ATOM      3  C2  UNL d   1      -3.498  -1.012  -1.389  0.00  0.00     0.034 A 
ATOM      4  C3  UNL d   1      -2.408  -0.601  -0.612  0.00  0.00     0.017 A 
ATOM      5  C4  UNL d   1      -1.657   0.513  -1.002  0.00  0.00     0.017 A 
ATOM      6  C5  UNL d   1      -1.999   1.209  -2.165  0.00  0.00     0.034 A 
ATOM      7 Cl   UNL d   1      -0.300   1.080  -0.094  0.00  0.00    -0.070 Cl
ATOM      8 Cl1  UNL d   1      -2.049  -1.512   0.812  0.00  0.00    -0.070 Cl
ENDROOT
TORSDOF 0
ENDMDL
