MODEL 1
REMARK minimizedAffinity 7.1547637
REMARK minimizedRMSD -1
REMARK  2 active torsions:
REMARK  status: ('A' for Active; 'I' for Inactive)
REMARK    1  A    between atoms: C1_2  and  C2_3 
REMARK    2  A    between atoms: C2_3  and  C3_4 
ROOT
ATOM      1  C3  UNL d   1      -4.017  -1.106   1.390  0.00  0.00    -0.075 A 
ATOM      2  C4  UNL d   1      -3.353  -1.307   0.170  0.00  0.00     0.002 A 
ATOM      3  C5  UNL d   1      -3.968  -2.016  -0.862  0.00  0.00     0.002 A 
ATOM      4  C6  UNL d   1      -5.246  -2.541  -0.686  0.00  0.00    -0.004 A 
ATOM      5  C7  UNL d   1      -5.908  -2.361   0.527  0.00  0.00     0.002 A 
ATOM      6  C8  UNL d   1      -5.297  -1.649   1.560  0.00  0.00     0.002 A 
ENDROOT
BRANCH   1   7
ATOM      7  C2  UNL d   1      -3.369  -0.315   2.500  0.00  0.00     0.056 C 
BRANCH   7   8
ATOM      8  C1  UNL d   1      -2.536   0.876   2.014  0.00  0.00     0.007 C 
ATOM      9  C   UNL d   1      -1.476   1.316   3.015  0.00  0.00     0.009 C 
ENDBRANCH   7   8
ENDBRANCH   1   7
TORSDOF 2
ENDMDL
