MODEL 1
REMARK minimizedAffinity 1.83920884
REMARK minimizedRMSD -1
REMARK  2 active torsions:
REMARK  status: ('A' for Active; 'I' for Inactive)
REMARK    1  A    between atoms: C1_2  and  C2_3 
REMARK    2  A    between atoms: C2_3  and  C3_4 
ROOT
ATOM      1  C3  UNL d   1      -1.464   0.033  -0.131  0.00  0.00    -0.075 A 
ATOM      2  C4  UNL d   1      -2.326  -1.047  -0.367  0.00  0.00     0.002 A 
ATOM      3  C5  UNL d   1      -3.103  -1.573   0.666  0.00  0.00     0.002 A 
ATOM      4  C6  UNL d   1      -3.020  -1.033   1.947  0.00  0.00    -0.004 A 
ATOM      5  C7  UNL d   1      -2.155   0.030   2.197  0.00  0.00     0.002 A 
ATOM      6  C8  UNL d   1      -1.380   0.561   1.164  0.00  0.00     0.002 A 
ENDROOT
BRANCH   1   7
ATOM      7  C2  UNL d   1      -0.643   0.626  -1.252  0.00  0.00     0.056 C 
BRANCH   7   8
ATOM      8  C1  UNL d   1       0.790   0.088  -1.327  0.00  0.00     0.007 C 
ATOM      9  C   UNL d   1       0.894  -1.241  -2.063  0.00  0.00     0.009 C 
ENDBRANCH   7   8
ENDBRANCH   1   7
TORSDOF 2
ENDMDL
