MODEL 1
REMARK minimizedAffinity 2.77823591
REMARK minimizedRMSD -1
REMARK  2 active torsions:
REMARK  status: ('A' for Active; 'I' for Inactive)
REMARK    1  A    between atoms: C1_2  and  C2_3 
REMARK    2  A    between atoms: C2_3  and  C3_4 
ROOT
ATOM      1  C3  UNL d   1       5.367   5.487   3.294  0.00  0.00    -0.075 A 
ATOM      2  C4  UNL d   1       4.140   5.998   2.847  0.00  0.00     0.002 A 
ATOM      3  C5  UNL d   1       3.546   5.502   1.686  0.00  0.00     0.002 A 
ATOM      4  C6  UNL d   1       4.175   4.497   0.953  0.00  0.00    -0.004 A 
ATOM      5  C7  UNL d   1       5.403   3.994   1.379  0.00  0.00     0.002 A 
ATOM      6  C8  UNL d   1       5.997   4.486   2.543  0.00  0.00     0.002 A 
ENDROOT
BRANCH   1   7
ATOM      7  C2  UNL d   1       6.000   5.999   4.566  0.00  0.00     0.056 C 
BRANCH   7   8
ATOM      8  C1  UNL d   1       5.387   5.420   5.845  0.00  0.00     0.007 C 
ATOM      9  C   UNL d   1       5.623   3.924   6.000  0.00  0.00     0.009 C 
ENDBRANCH   7   8
ENDBRANCH   1   7
TORSDOF 2
ENDMDL
