MODEL 1
REMARK minimizedAffinity 6.84981823
REMARK minimizedRMSD -1
REMARK  2 active torsions:
REMARK  status: ('A' for Active; 'I' for Inactive)
REMARK    1  A    between atoms: C1_2  and  C2_3 
REMARK    2  A    between atoms: C2_3  and  C3_4 
ROOT
ATOM      1  C3  UNL d   1      -3.533   5.041   3.633  0.00  0.00    -0.075 A 
ATOM      2  C4  UNL d   1      -2.138   5.117   3.761  0.00  0.00     0.002 A 
ATOM      3  C5  UNL d   1      -1.560   5.589   4.940  0.00  0.00     0.002 A 
ATOM      4  C6  UNL d   1      -2.367   5.999   5.999  0.00  0.00    -0.004 A 
ATOM      5  C7  UNL d   1      -3.753   5.944   5.876  0.00  0.00     0.002 A 
ATOM      6  C8  UNL d   1      -4.334   5.468   4.699  0.00  0.00     0.002 A 
ENDROOT
BRANCH   1   7
ATOM      7  C2  UNL d   1      -4.164   4.503   2.370  0.00  0.00     0.056 C 
BRANCH   7   8
ATOM      8  C1  UNL d   1      -4.503   3.010   2.430  0.00  0.00     0.007 C 
ATOM      9  C   UNL d   1      -3.389   2.165   3.032  0.00  0.00     0.009 C 
ENDBRANCH   7   8
ENDBRANCH   1   7
TORSDOF 2
ENDMDL
