MODEL 1
REMARK minimizedAffinity 6.38303852
REMARK minimizedRMSD -1
REMARK  2 active torsions:
REMARK  status: ('A' for Active; 'I' for Inactive)
REMARK    1  A    between atoms: C1_2  and  C2_3 
REMARK    2  A    between atoms: C2_3  and  C3_4 
ROOT
ATOM      1  C3  UNL d   1      -2.612  -0.593   2.095  0.00  0.00    -0.075 A 
ATOM      2  C4  UNL d   1      -3.749  -0.056   2.715  0.00  0.00     0.002 A 
ATOM      3  C5  UNL d   1      -3.665   1.133   3.441  0.00  0.00     0.002 A 
ATOM      4  C6  UNL d   1      -2.444   1.793   3.564  0.00  0.00    -0.004 A 
ATOM      5  C7  UNL d   1      -1.305   1.259   2.966  0.00  0.00     0.002 A 
ATOM      6  C8  UNL d   1      -1.387   0.072   2.235  0.00  0.00     0.002 A 
ENDROOT
BRANCH   1   7
ATOM      7  C2  UNL d   1      -2.702  -1.864   1.284  0.00  0.00     0.056 C 
BRANCH   7   8
ATOM      8  C1  UNL d   1      -2.688  -1.638  -0.232  0.00  0.00     0.007 C 
ATOM      9  C   UNL d   1      -3.899  -2.234  -0.938  0.00  0.00     0.009 C 
ENDBRANCH   7   8
ENDBRANCH   1   7
TORSDOF 2
ENDMDL
