MODEL 1
REMARK minimizedAffinity 10.7938814
REMARK minimizedRMSD -1
REMARK  2 active torsions:
REMARK  status: ('A' for Active; 'I' for Inactive)
REMARK    1  A    between atoms: C1_2  and  C2_3 
REMARK    2  A    between atoms: C2_3  and  C3_4 
ROOT
ATOM      1  C3  UNL d   1       4.810   5.511   2.038  0.00  0.00    -0.075 A 
ATOM      2  C4  UNL d   1       4.938   4.980   0.746  0.00  0.00     0.002 A 
ATOM      3  C5  UNL d   1       3.842   4.942  -0.116  0.00  0.00     0.002 A 
ATOM      4  C6  UNL d   1       2.604   5.423   0.304  0.00  0.00    -0.004 A 
ATOM      5  C7  UNL d   1       2.461   5.938   1.591  0.00  0.00     0.002 A 
ATOM      6  C8  UNL d   1       3.557   5.981   2.454  0.00  0.00     0.002 A 
ENDROOT
BRANCH   1   7
ATOM      7  C2  UNL d   1       5.999   5.583   2.965  0.00  0.00     0.056 C 
BRANCH   7   8
ATOM      8  C1  UNL d   1       5.772   4.911   4.324  0.00  0.00     0.007 C 
ATOM      9  C   UNL d   1       5.721   5.900   5.481  0.00  0.00     0.009 C 
ENDBRANCH   7   8
ENDBRANCH   1   7
TORSDOF 2
ENDMDL
