MODEL 1
REMARK minimizedAffinity 10.5946636
REMARK minimizedRMSD -1
REMARK  2 active torsions:
REMARK  status: ('A' for Active; 'I' for Inactive)
REMARK    1  A    between atoms: C1_2  and  C2_3 
REMARK    2  A    between atoms: C2_3  and  C3_4 
ROOT
ATOM      1  C3  UNL d   1      -1.926   5.234   0.831  0.00  0.00    -0.075 A 
ATOM      2  C4  UNL d   1      -0.750   5.994   0.749  0.00  0.00     0.002 A 
ATOM      3  C5  UNL d   1       0.009   6.000  -0.422  0.00  0.00     0.002 A 
ATOM      4  C6  UNL d   1      -0.391   5.239  -1.519  0.00  0.00    -0.004 A 
ATOM      5  C7  UNL d   1      -1.548   4.467  -1.442  0.00  0.00     0.002 A 
ATOM      6  C8  UNL d   1      -2.312   4.463  -0.274  0.00  0.00     0.002 A 
ENDROOT
BRANCH   1   7
ATOM      7  C2  UNL d   1      -2.767   5.246   2.085  0.00  0.00     0.056 C 
BRANCH   7   8
ATOM      8  C1  UNL d   1      -4.252   4.957   1.842  0.00  0.00     0.007 C 
ATOM      9  C   UNL d   1      -5.171   5.661   2.832  0.00  0.00     0.009 C 
ENDBRANCH   7   8
ENDBRANCH   1   7
TORSDOF 2
ENDMDL
