MODEL 1
REMARK minimizedAffinity 2.85918546
REMARK minimizedRMSD -1
REMARK  2 active torsions:
REMARK  status: ('A' for Active; 'I' for Inactive)
REMARK    1  A    between atoms: C1_2  and  C2_3 
REMARK    2  A    between atoms: C2_3  and  C3_4 
ROOT
ATOM      1  C3  UNL d   1       4.758   5.638   2.684  0.00  0.00    -0.075 A 
ATOM      2  C4  UNL d   1       5.865   4.944   2.174  0.00  0.00     0.002 A 
ATOM      3  C5  UNL d   1       5.946   4.640   0.815  0.00  0.00     0.002 A 
ATOM      4  C6  UNL d   1       4.919   5.015  -0.048  0.00  0.00    -0.004 A 
ATOM      5  C7  UNL d   1       3.806   5.690   0.450  0.00  0.00     0.002 A 
ATOM      6  C8  UNL d   1       3.725   6.000   1.809  0.00  0.00     0.002 A 
ENDROOT
BRANCH   1   7
ATOM      7  C2  UNL d   1       4.678   5.996   4.149  0.00  0.00     0.056 C 
BRANCH   7   8
ATOM      8  C1  UNL d   1       5.997   5.815   4.908  0.00  0.00     0.007 C 
ATOM      9  C   UNL d   1       5.995   4.606   5.834  0.00  0.00     0.009 C 
ENDBRANCH   7   8
ENDBRANCH   1   7
TORSDOF 2
ENDMDL
