MODEL 1
REMARK minimizedAffinity 2.44082904
REMARK minimizedRMSD -1
REMARK  2 active torsions:
REMARK  status: ('A' for Active; 'I' for Inactive)
REMARK    1  A    between atoms: C1_2  and  C2_3 
REMARK    2  A    between atoms: C2_3  and  C3_4 
ROOT
ATOM      1  C3  UNL d   1      -2.263   1.018   1.344  0.00  0.00    -0.075 A 
ATOM      2  C4  UNL d   1      -2.931   2.244   1.216  0.00  0.00     0.002 A 
ATOM      3  C5  UNL d   1      -3.058   3.099   2.311  0.00  0.00     0.002 A 
ATOM      4  C6  UNL d   1      -2.528   2.736   3.547  0.00  0.00    -0.004 A 
ATOM      5  C7  UNL d   1      -1.877   1.513   3.690  0.00  0.00     0.002 A 
ATOM      6  C8  UNL d   1      -1.745   0.657   2.595  0.00  0.00     0.002 A 
ENDROOT
BRANCH   1   7
ATOM      7  C2  UNL d   1      -2.097   0.101   0.155  0.00  0.00     0.056 C 
BRANCH   7   8
ATOM      8  C1  UNL d   1      -1.888   0.834  -1.174  0.00  0.00     0.007 C 
ATOM      9  C   UNL d   1      -0.551   0.516  -1.831  0.00  0.00     0.009 C 
ENDBRANCH   7   8
ENDBRANCH   1   7
TORSDOF 2
ENDMDL
