MODEL 1
REMARK minimizedAffinity 5.15709257
REMARK minimizedRMSD -1
REMARK  2 active torsions:
REMARK  status: ('A' for Active; 'I' for Inactive)
REMARK    1  A    between atoms: C1_2  and  C2_3 
REMARK    2  A    between atoms: C2_3  and  C3_4 
ROOT
ATOM      1  C3  UNL d   1      -2.018   1.156  -0.262  0.00  0.00    -0.075 A 
ATOM      2  C4  UNL d   1      -2.879   2.132   0.261  0.00  0.00     0.002 A 
ATOM      3  C5  UNL d   1      -3.311   2.059   1.585  0.00  0.00     0.002 A 
ATOM      4  C6  UNL d   1      -2.898   1.007   2.399  0.00  0.00    -0.004 A 
ATOM      5  C7  UNL d   1      -2.055   0.023   1.886  0.00  0.00     0.002 A 
ATOM      6  C8  UNL d   1      -1.618   0.096   0.562  0.00  0.00     0.002 A 
ENDROOT
BRANCH   1   7
ATOM      7  C2  UNL d   1      -1.523   1.246  -1.686  0.00  0.00     0.056 C 
BRANCH   7   8
ATOM      8  C1  UNL d   1      -0.051   0.856  -1.860  0.00  0.00     0.007 C 
ATOM      9  C   UNL d   1       0.337   0.612  -3.312  0.00  0.00     0.009 C 
ENDBRANCH   7   8
ENDBRANCH   1   7
TORSDOF 2
ENDMDL
