MODEL 1
REMARK minimizedAffinity 6.92789936
REMARK minimizedRMSD -1
REMARK  2 active torsions:
REMARK  status: ('A' for Active; 'I' for Inactive)
REMARK    1  A    between atoms: C1_2  and  C2_3 
REMARK    2  A    between atoms: C2_3  and  C3_4 
ROOT
ATOM      1  C3  UNL d   1      -0.815  -0.798  -1.087  0.00  0.00    -0.075 A 
ATOM      2  C4  UNL d   1       0.227   0.097  -1.369  0.00  0.00     0.002 A 
ATOM      3  C5  UNL d   1       1.321  -0.309  -2.134  0.00  0.00     0.002 A 
ATOM      4  C6  UNL d   1       1.392  -1.613  -2.617  0.00  0.00    -0.004 A 
ATOM      5  C7  UNL d   1       0.370  -2.516  -2.329  0.00  0.00     0.002 A 
ATOM      6  C8  UNL d   1      -0.728  -2.112  -1.567  0.00  0.00     0.002 A 
ENDROOT
BRANCH   1   7
ATOM      7  C2  UNL d   1      -2.016  -0.357  -0.284  0.00  0.00     0.056 C 
BRANCH   7   8
ATOM      8  C1  UNL d   1      -2.046  -0.906   1.146  0.00  0.00     0.007 C 
ATOM      9  C   UNL d   1      -1.983   0.183   2.209  0.00  0.00     0.009 C 
ENDBRANCH   7   8
ENDBRANCH   1   7
TORSDOF 2
ENDMDL
