MODEL 1
REMARK minimizedAffinity 13.1059265
REMARK minimizedRMSD -1
REMARK  2 active torsions:
REMARK  status: ('A' for Active; 'I' for Inactive)
REMARK    1  A    between atoms: C1_2  and  C2_3 
REMARK    2  A    between atoms: C2_3  and  C3_4 
ROOT
ATOM      1  C3  UNL d   1       3.209  -0.249  -2.048  0.00  0.00    -0.075 A 
ATOM      2  C4  UNL d   1       2.255  -1.132  -2.575  0.00  0.00     0.002 A 
ATOM      3  C5  UNL d   1       0.965  -0.688  -2.870  0.00  0.00     0.002 A 
ATOM      4  C6  UNL d   1       0.610   0.638  -2.633  0.00  0.00    -0.004 A 
ATOM      5  C7  UNL d   1       1.545   1.520  -2.094  0.00  0.00     0.002 A 
ATOM      6  C8  UNL d   1       2.837   1.080  -1.803  0.00  0.00     0.002 A 
ENDROOT
BRANCH   1   7
ATOM      7  C2  UNL d   1       4.615  -0.715  -1.755  0.00  0.00     0.056 C 
BRANCH   7   8
ATOM      8  C1  UNL d   1       5.696   0.031  -2.543  0.00  0.00     0.007 C 
ATOM      9  C   UNL d   1       5.997  -0.601  -3.896  0.00  0.00     0.009 C 
ENDBRANCH   7   8
ENDBRANCH   1   7
TORSDOF 2
ENDMDL
