MODEL 1
REMARK minimizedAffinity 12.1431332
REMARK minimizedRMSD -1
REMARK  2 active torsions:
REMARK  status: ('A' for Active; 'I' for Inactive)
REMARK    1  A    between atoms: C1_2  and  C2_3 
REMARK    2  A    between atoms: C2_3  and  C3_4 
ROOT
ATOM      1  C3  UNL d   1      -2.553   0.302   0.817  0.00  0.00    -0.075 A 
ATOM      2  C4  UNL d   1      -3.649   1.169   0.933  0.00  0.00     0.002 A 
ATOM      3  C5  UNL d   1      -3.975   1.738   2.165  0.00  0.00     0.002 A 
ATOM      4  C6  UNL d   1      -3.218   1.439   3.296  0.00  0.00    -0.004 A 
ATOM      5  C7  UNL d   1      -2.137   0.567   3.195  0.00  0.00     0.002 A 
ATOM      6  C8  UNL d   1      -1.806  -0.000   1.963  0.00  0.00     0.002 A 
ENDROOT
BRANCH   1   7
ATOM      7  C2  UNL d   1      -2.177  -0.293  -0.519  0.00  0.00     0.056 C 
BRANCH   7   8
ATOM      8  C1  UNL d   1      -1.575   0.715  -1.503  0.00  0.00     0.007 C 
ATOM      9  C   UNL d   1      -0.179   0.332  -1.976  0.00  0.00     0.009 C 
ENDBRANCH   7   8
ENDBRANCH   1   7
TORSDOF 2
ENDMDL
