MODEL 1
REMARK minimizedAffinity 9.43971539
REMARK minimizedRMSD -1
REMARK  2 active torsions:
REMARK  status: ('A' for Active; 'I' for Inactive)
REMARK    1  A    between atoms: C1_2  and  C2_3 
REMARK    2  A    between atoms: C2_3  and  C3_4 
ROOT
ATOM      1  C3  UNL d   1       1.825  -1.072  -2.322  0.00  0.00    -0.075 A 
ATOM      2  C4  UNL d   1       2.937  -0.484  -2.943  0.00  0.00     0.002 A 
ATOM      3  C5  UNL d   1       2.998   0.897  -3.127  0.00  0.00     0.002 A 
ATOM      4  C6  UNL d   1       1.947   1.707  -2.702  0.00  0.00    -0.004 A 
ATOM      5  C7  UNL d   1       0.830   1.132  -2.100  0.00  0.00     0.002 A 
ATOM      6  C8  UNL d   1       0.768  -0.250  -1.910  0.00  0.00     0.002 A 
ENDROOT
BRANCH   1   7
ATOM      7  C2  UNL d   1       1.766  -2.563  -2.094  0.00  0.00     0.056 C 
BRANCH   7   8
ATOM      8  C1  UNL d   1       0.523  -3.236  -2.684  0.00  0.00     0.007 C 
ATOM      9  C   UNL d   1       0.852  -4.287  -3.736  0.00  0.00     0.009 C 
ENDBRANCH   7   8
ENDBRANCH   1   7
TORSDOF 2
ENDMDL
