MODEL 1
REMARK minimizedAffinity 9.56385803
REMARK minimizedRMSD -1
REMARK  2 active torsions:
REMARK  status: ('A' for Active; 'I' for Inactive)
REMARK    1  A    between atoms: C1_2  and  C2_3 
REMARK    2  A    between atoms: C2_3  and  C3_4 
ROOT
ATOM      1  C3  UNL d   1       4.002   5.599   0.332  0.00  0.00    -0.075 A 
ATOM      2  C4  UNL d   1       3.184   5.792   1.456  0.00  0.00     0.002 A 
ATOM      3  C5  UNL d   1       3.749   5.992   2.716  0.00  0.00     0.002 A 
ATOM      4  C6  UNL d   1       5.133   5.993   2.870  0.00  0.00    -0.004 A 
ATOM      5  C7  UNL d   1       5.954   5.786   1.764  0.00  0.00     0.002 A 
ATOM      6  C8  UNL d   1       5.392   5.589   0.501  0.00  0.00     0.002 A 
ENDROOT
BRANCH   1   7
ATOM      7  C2  UNL d   1       3.398   5.411  -1.039  0.00  0.00     0.056 C 
BRANCH   7   8
ATOM      8  C1  UNL d   1       3.782   4.090  -1.714  0.00  0.00     0.007 C 
ATOM      9  C   UNL d   1       3.025   3.835  -3.010  0.00  0.00     0.009 C 
ENDBRANCH   7   8
ENDBRANCH   1   7
TORSDOF 2
ENDMDL
