MODEL 1
REMARK minimizedAffinity 2.21647048
REMARK minimizedRMSD -1
REMARK  2 active torsions:
REMARK  status: ('A' for Active; 'I' for Inactive)
REMARK    1  A    between atoms: C1_2  and  C2_3 
REMARK    2  A    between atoms: C2_3  and  C3_4 
ROOT
ATOM      1  C3  UNL d   1       5.274   5.606   2.261  0.00  0.00    -0.075 A 
ATOM      2  C4  UNL d   1       5.983   5.032   1.195  0.00  0.00     0.002 A 
ATOM      3  C5  UNL d   1       5.371   4.848  -0.045  0.00  0.00     0.002 A 
ATOM      4  C6  UNL d   1       4.043   5.225  -0.233  0.00  0.00    -0.004 A 
ATOM      5  C7  UNL d   1       3.324   5.781   0.824  0.00  0.00     0.002 A 
ATOM      6  C8  UNL d   1       3.936   5.970   2.065  0.00  0.00     0.002 A 
ENDROOT
BRANCH   1   7
ATOM      7  C2  UNL d   1       5.940   5.834   3.597  0.00  0.00     0.056 C 
BRANCH   7   8
ATOM      8  C1  UNL d   1       5.998   4.588   4.486  0.00  0.00     0.007 C 
ATOM      9  C   UNL d   1       5.906   4.905   5.973  0.00  0.00     0.009 C 
ENDBRANCH   7   8
ENDBRANCH   1   7
TORSDOF 2
ENDMDL
