MODEL 1
REMARK minimizedAffinity 3.47867346
REMARK minimizedRMSD -1
REMARK  3 active torsions:
REMARK  status: ('A' for Active; 'I' for Inactive)
REMARK    1  A    between atoms: C3'_2  and  C2'_3 
REMARK    2  A    between atoms: C2'_3  and  C1'_4 
REMARK    3  A    between atoms: C1'_4  and  C1_5 
ROOT
ATOM      1  C1  N4B d   1      -5.228  -5.380  -3.513  0.00  0.00    -0.075 A 
ATOM      2  C2  N4B d   1      -4.194  -5.835  -2.666  0.00  0.00     0.002 A 
ATOM      3  C3  N4B d   1      -3.964  -5.209  -1.465  0.00  0.00     0.002 A 
ATOM      4  C4  N4B d   1      -4.740  -4.119  -1.101  0.00  0.00    -0.004 A 
ATOM      5  C5  N4B d   1      -5.753  -3.702  -1.913  0.00  0.00     0.002 A 
ATOM      6  C6  N4B d   1      -5.998  -4.324  -3.121  0.00  0.00     0.002 A 
ENDROOT
BRANCH   1   7
ATOM      7  C1' N4B d   1      -5.461  -5.977  -4.874  0.00  0.00     0.057 C 
BRANCH   7   8
ATOM      8  C2' N4B d   1      -4.319  -5.574  -5.801  0.00  0.00     0.009 C 
BRANCH   8   9
ATOM      9  C3' N4B d   1      -4.247  -4.068  -5.992  0.00  0.00     0.004 C 
ATOM     10  C4' N4B d   1      -5.599  -3.419  -6.000  0.00  0.00     0.003 C 
ENDBRANCH   8   9
ENDBRANCH   7   8
ENDBRANCH   1   7
TORSDOF 3
ENDMDL
