MODEL 1
REMARK minimizedAffinity 9.86240005
REMARK minimizedRMSD -1
REMARK  3 active torsions:
REMARK  status: ('A' for Active; 'I' for Inactive)
REMARK    1  A    between atoms: C3'_2  and  C2'_3 
REMARK    2  A    between atoms: C2'_3  and  C1'_4 
REMARK    3  A    between atoms: C1'_4  and  C1_5 
ROOT
ATOM      1  C1  N4B d   1      -5.795  -3.729  -2.806  0.00  0.00    -0.075 A 
ATOM      2  C2  N4B d   1      -6.000  -3.725  -4.203  0.00  0.00     0.002 A 
ATOM      3  C3  N4B d   1      -5.748  -4.858  -4.937  0.00  0.00     0.002 A 
ATOM      4  C4  N4B d   1      -5.275  -5.996  -4.302  0.00  0.00    -0.004 A 
ATOM      5  C5  N4B d   1      -5.104  -6.000  -2.949  0.00  0.00     0.002 A 
ATOM      6  C6  N4B d   1      -5.356  -4.870  -2.197  0.00  0.00     0.002 A 
ENDROOT
BRANCH   1   7
ATOM      7  C1' N4B d   1      -5.974  -2.490  -1.973  0.00  0.00     0.057 C 
BRANCH   7   8
ATOM      8  C2' N4B d   1      -4.920  -1.461  -2.372  0.00  0.00     0.009 C 
BRANCH   8   9
ATOM      9  C3' N4B d   1      -5.332  -0.049  -1.993  0.00  0.00     0.004 C 
ATOM     10  C4' N4B d   1      -4.442   0.997  -2.596  0.00  0.00     0.003 C 
ENDBRANCH   8   9
ENDBRANCH   7   8
ENDBRANCH   1   7
TORSDOF 3
ENDMDL
