MODEL 1
REMARK minimizedAffinity 8.33992672
REMARK minimizedRMSD -1
REMARK  3 active torsions:
REMARK  status: ('A' for Active; 'I' for Inactive)
REMARK    1  A    between atoms: C3'_2  and  C2'_3 
REMARK    2  A    between atoms: C2'_3  and  C1'_4 
REMARK    3  A    between atoms: C1'_4  and  C1_5 
ROOT
ATOM      1  C1  N4B d   1       3.409  -3.333   4.167  0.00  0.00    -0.075 A 
ATOM      2  C2  N4B d   1       4.476  -2.948   3.325  0.00  0.00     0.002 A 
ATOM      3  C3  N4B d   1       5.761  -2.929   3.810  0.00  0.00     0.002 A 
ATOM      4  C4  N4B d   1       6.000  -3.270   5.133  0.00  0.00    -0.004 A 
ATOM      5  C5  N4B d   1       4.967  -3.665   5.932  0.00  0.00     0.002 A 
ATOM      6  C6  N4B d   1       3.671  -3.693   5.457  0.00  0.00     0.002 A 
ENDROOT
BRANCH   1   7
ATOM      7  C1' N4B d   1       1.978  -3.287   3.706  0.00  0.00     0.057 C 
BRANCH   7   8
ATOM      8  C2' N4B d   1       1.626  -1.857   3.307  0.00  0.00     0.009 C 
BRANCH   8   9
ATOM      9  C3' N4B d   1       1.180  -1.765   1.858  0.00  0.00     0.004 C 
ATOM     10  C4' N4B d   1       1.937  -0.730   1.081  0.00  0.00     0.003 C 
ENDBRANCH   8   9
ENDBRANCH   7   8
ENDBRANCH   1   7
TORSDOF 3
ENDMDL
