MODEL 1
REMARK minimizedAffinity 8.63313961
REMARK minimizedRMSD -1
REMARK  3 active torsions:
REMARK  status: ('A' for Active; 'I' for Inactive)
REMARK    1  A    between atoms: C3'_2  and  C2'_3 
REMARK    2  A    between atoms: C2'_3  and  C1'_4 
REMARK    3  A    between atoms: C1'_4  and  C1_5 
ROOT
ATOM      1  C1  N4B d   1      -5.156  -5.182  -3.752  0.00  0.00    -0.075 A 
ATOM      2  C2  N4B d   1      -5.927  -4.154  -3.166  0.00  0.00     0.002 A 
ATOM      3  C3  N4B d   1      -5.742  -3.825  -1.846  0.00  0.00     0.002 A 
ATOM      4  C4  N4B d   1      -4.808  -4.518  -1.090  0.00  0.00    -0.004 A 
ATOM      5  C5  N4B d   1      -4.049  -5.492  -1.671  0.00  0.00     0.002 A 
ATOM      6  C6  N4B d   1      -4.222  -5.831  -2.998  0.00  0.00     0.002 A 
ENDROOT
BRANCH   1   7
ATOM      7  C1' N4B d   1      -5.382  -5.635  -5.168  0.00  0.00     0.057 C 
BRANCH   7   8
ATOM      8  C2' N4B d   1      -5.949  -4.475  -5.981  0.00  0.00     0.009 C 
BRANCH   8   9
ATOM      9  C3' N4B d   1      -5.039  -3.259  -5.946  0.00  0.00     0.004 C 
ATOM     10  C4' N4B d   1      -5.606  -2.134  -5.132  0.00  0.00     0.003 C 
ENDBRANCH   8   9
ENDBRANCH   7   8
ENDBRANCH   1   7
TORSDOF 3
ENDMDL
