MODEL 1
REMARK minimizedAffinity 1.04704034
REMARK minimizedRMSD -1
REMARK  3 active torsions:
REMARK  status: ('A' for Active; 'I' for Inactive)
REMARK    1  A    between atoms: C3'_2  and  C2'_3 
REMARK    2  A    between atoms: C2'_3  and  C1'_4 
REMARK    3  A    between atoms: C1'_4  and  C1_5 
ROOT
ATOM      1  C1  N4B d   1       4.352  -1.768  -3.963  0.00  0.00    -0.075 A 
ATOM      2  C2  N4B d   1       5.505  -2.164  -4.674  0.00  0.00     0.002 A 
ATOM      3  C3  N4B d   1       6.000  -1.368  -5.678  0.00  0.00     0.002 A 
ATOM      4  C4  N4B d   1       5.350  -0.186  -6.000  0.00  0.00    -0.004 A 
ATOM      5  C5  N4B d   1       4.251   0.202  -5.291  0.00  0.00     0.002 A 
ATOM      6  C6  N4B d   1       3.745  -0.586  -4.277  0.00  0.00     0.002 A 
ENDROOT
BRANCH   1   7
ATOM      7  C1' N4B d   1       3.724  -2.646  -2.915  0.00  0.00     0.057 C 
BRANCH   7   8
ATOM      8  C2' N4B d   1       2.216  -2.416  -2.906  0.00  0.00     0.009 C 
BRANCH   8   9
ATOM      9  C3' N4B d   1       1.443  -3.718  -2.790  0.00  0.00     0.004 C 
ATOM     10  C4' N4B d   1       1.017  -4.017  -1.383  0.00  0.00     0.003 C 
ENDBRANCH   8   9
ENDBRANCH   7   8
ENDBRANCH   1   7
TORSDOF 3
ENDMDL
