MODEL 1
REMARK minimizedAffinity 10.9177017
REMARK minimizedRMSD -1
REMARK  3 active torsions:
REMARK  status: ('A' for Active; 'I' for Inactive)
REMARK    1  A    between atoms: C3'_2  and  C2'_3 
REMARK    2  A    between atoms: C2'_3  and  C1'_4 
REMARK    3  A    between atoms: C1'_4  and  C1_5 
ROOT
ATOM      1  C1  N4B d   1       3.523  -4.462   4.091  0.00  0.00    -0.075 A 
ATOM      2  C2  N4B d   1       3.734  -3.723   5.275  0.00  0.00     0.002 A 
ATOM      3  C3  N4B d   1       4.965  -3.168   5.528  0.00  0.00     0.002 A 
ATOM      4  C4  N4B d   1       6.000  -3.354   4.623  0.00  0.00    -0.004 A 
ATOM      5  C5  N4B d   1       5.780  -4.049   3.470  0.00  0.00     0.002 A 
ATOM      6  C6  N4B d   1       4.548  -4.609   3.201  0.00  0.00     0.002 A 
ENDROOT
BRANCH   1   7
ATOM      7  C1' N4B d   1       2.220  -5.160   3.813  0.00  0.00     0.057 C 
BRANCH   7   8
ATOM      8  C2' N4B d   1       1.506  -4.450   2.666  0.00  0.00     0.009 C 
BRANCH   8   9
ATOM      9  C3' N4B d   1       1.102  -3.034   3.039  0.00  0.00     0.004 C 
ATOM     10  C4' N4B d   1       0.788  -2.186   1.843  0.00  0.00     0.003 C 
ENDBRANCH   8   9
ENDBRANCH   7   8
ENDBRANCH   1   7
TORSDOF 3
ENDMDL
