MODEL 1
REMARK minimizedAffinity 4.01155853
REMARK minimizedRMSD -1
REMARK  3 active torsions:
REMARK  status: ('A' for Active; 'I' for Inactive)
REMARK    1  A    between atoms: C3'_2  and  C2'_3 
REMARK    2  A    between atoms: C2'_3  and  C1'_4 
REMARK    3  A    between atoms: C1'_4  and  C1_5 
ROOT
ATOM      1  C1  N4B d   1       4.093  -1.383  -3.773  0.00  0.00    -0.075 A 
ATOM      2  C2  N4B d   1       4.814  -2.014  -4.810  0.00  0.00     0.002 A 
ATOM      3  C3  N4B d   1       5.221  -1.288  -5.903  0.00  0.00     0.002 A 
ATOM      4  C4  N4B d   1       4.904   0.059  -5.988  0.00  0.00    -0.004 A 
ATOM      5  C5  N4B d   1       4.230   0.667  -4.970  0.00  0.00     0.002 A 
ATOM      6  C6  N4B d   1       3.818  -0.049  -3.864  0.00  0.00     0.002 A 
ENDROOT
BRANCH   1   7
ATOM      7  C1' N4B d   1       3.552  -2.153  -2.599  0.00  0.00     0.057 C 
BRANCH   7   8
ATOM      8  C2' N4B d   1       2.435  -3.076  -3.078  0.00  0.00     0.009 C 
BRANCH   8   9
ATOM      9  C3' N4B d   1       2.275  -4.289  -2.178  0.00  0.00     0.004 C 
ATOM     10  C4' N4B d   1       1.907  -3.924  -0.771  0.00  0.00     0.003 C 
ENDBRANCH   8   9
ENDBRANCH   7   8
ENDBRANCH   1   7
TORSDOF 3
ENDMDL
