MODEL 1
REMARK minimizedAffinity -4.21813869
REMARK minimizedRMSD -1
REMARK  0 active torsions:
REMARK  status: ('A' for Active; 'I' for Inactive)
ROOT
ATOM      1  C4' PXY d   1      -0.828  -0.261   3.151  0.00  0.00     0.077 C 
ATOM      2  C1' PXY d   1       0.644   0.246  -2.416  0.00  0.00     0.077 C 
ATOM      3  C1  PXY d   1       0.270   0.109  -0.953  0.00  0.00    -0.082 A 
ATOM      4  C2  PXY d   1      -0.991  -0.110  -0.618  0.00  0.00     0.003 A 
ATOM      5  C3  PXY d   1      -1.351  -0.204   0.702  0.00  0.00     0.003 A 
ATOM      6  C4  PXY d   1      -0.403  -0.126   1.687  0.00  0.00    -0.082 A 
ATOM      7  C5  PXY d   1       0.887   0.087   1.352  0.00  0.00     0.003 A 
ATOM      8  C6  PXY d   1       1.226   0.221   0.009  0.00  0.00     0.003 A 
ENDROOT
TORSDOF 0
ENDMDL
