MODEL 1
REMARK minimizedAffinity -4.72384167
REMARK minimizedRMSD -1
REMARK  0 active torsions:
REMARK  status: ('A' for Active; 'I' for Inactive)
ROOT
ATOM      1  C4' PXY d   1      -1.486  -0.914   4.178  0.00  0.00     0.077 C 
ATOM      2  C1' PXY d   1       0.822   1.006  -0.762  0.00  0.00     0.077 C 
ATOM      3  C1  PXY d   1       0.227   0.506   0.540  0.00  0.00    -0.082 A 
ATOM      4  C2  PXY d   1      -0.690  -0.447   0.517  0.00  0.00     0.003 A 
ATOM      5  C3  PXY d   1      -1.261  -0.888   1.683  0.00  0.00     0.003 A 
ATOM      6  C4  PXY d   1      -0.852  -0.385   2.889  0.00  0.00    -0.082 A 
ATOM      7  C5  PXY d   1       0.091   0.580   2.921  0.00  0.00     0.003 A 
ATOM      8  C6  PXY d   1       0.629   1.044   1.724  0.00  0.00     0.003 A 
ENDROOT
TORSDOF 0
ENDMDL
