MODEL 1
REMARK minimizedAffinity 1.64356244
REMARK minimizedRMSD -1
REMARK  0 active torsions:
REMARK  status: ('A' for Active; 'I' for Inactive)
ROOT
ATOM      1  C4' PXY d   1      -1.933  -0.951  -2.825  0.00  0.00     0.077 C 
ATOM      2  C1' PXY d   1      -0.746   0.241   2.705  0.00  0.00     0.077 C 
ATOM      3  C1  PXY d   1      -1.051  -0.061   1.251  0.00  0.00    -0.082 A 
ATOM      4  C2  PXY d   1      -2.100  -0.806   0.944  0.00  0.00     0.003 A 
ATOM      5  C3  PXY d   1      -2.372  -1.116  -0.364  0.00  0.00     0.003 A 
ATOM      6  C4  PXY d   1      -1.593  -0.613  -1.371  0.00  0.00    -0.082 A 
ATOM      7  C5  PXY d   1      -0.527   0.158  -1.067  0.00  0.00     0.003 A 
ATOM      8  C6  PXY d   1      -0.244   0.426   0.270  0.00  0.00     0.003 A 
ENDROOT
TORSDOF 0
ENDMDL
