MODEL 1
REMARK minimizedAffinity -5.00417185
REMARK minimizedRMSD -1
REMARK  0 active torsions:
REMARK  status: ('A' for Active; 'I' for Inactive)
ROOT
ATOM      1  C4' PXY d   1       1.111   0.059  -1.546  0.00  0.00     0.077 C 
ATOM      2  C1' PXY d   1      -1.783  -0.212   3.451  0.00  0.00     0.077 C 
ATOM      3  C1  PXY d   1      -1.013  -0.138   2.147  0.00  0.00    -0.082 A 
ATOM      4  C2  PXY d   1      -1.652   0.150   1.025  0.00  0.00     0.003 A 
ATOM      5  C3  PXY d   1      -0.977   0.189  -0.168  0.00  0.00     0.003 A 
ATOM      6  C4  PXY d   1       0.376  -0.017  -0.205  0.00  0.00    -0.082 A 
ATOM      7  C5  PXY d   1       1.037  -0.301   0.937  0.00  0.00     0.003 A 
ATOM      8  C6  PXY d   1       0.326  -0.377   2.132  0.00  0.00     0.003 A 
ENDROOT
TORSDOF 0
ENDMDL
