MODEL 1
REMARK minimizedAffinity -4.25268745
REMARK minimizedRMSD -1
REMARK  0 active torsions:
REMARK  status: ('A' for Active; 'I' for Inactive)
ROOT
ATOM      1  C4' PXY d   1      -0.955  -0.985   3.626  0.00  0.00     0.077 C 
ATOM      2  C1' PXY d   1       0.814   0.961  -1.521  0.00  0.00     0.077 C 
ATOM      3  C1  PXY d   1       0.362   0.454  -0.166  0.00  0.00    -0.082 A 
ATOM      4  C2  PXY d   1      -0.604  -0.447  -0.094  0.00  0.00     0.003 A 
ATOM      5  C3  PXY d   1      -1.047  -0.893   1.124  0.00  0.00     0.003 A 
ATOM      6  C4  PXY d   1      -0.460  -0.452   2.279  0.00  0.00    -0.082 A 
ATOM      7  C5  PXY d   1       0.534   0.460   2.214  0.00  0.00     0.003 A 
ATOM      8  C6  PXY d   1       0.941   0.931   0.969  0.00  0.00     0.003 A 
ENDROOT
TORSDOF 0
ENDMDL
