MODEL 1
REMARK minimizedAffinity -4.38784027
REMARK minimizedRMSD -1
REMARK  0 active torsions:
REMARK  status: ('A' for Active; 'I' for Inactive)
ROOT
ATOM      1  C4' PXY d   1      -2.562   1.088  -1.380  0.00  0.00     0.077 C 
ATOM      2  C1' PXY d   1       0.428  -0.973   3.117  0.00  0.00     0.077 C 
ATOM      3  C1  PXY d   1      -0.345  -0.428   1.932  0.00  0.00    -0.082 A 
ATOM      4  C2  PXY d   1      -1.634  -0.159   2.060  0.00  0.00     0.003 A 
ATOM      5  C3  PXY d   1      -2.356   0.304   0.990  0.00  0.00     0.003 A 
ATOM      6  C4  PXY d   1      -1.740   0.545  -0.209  0.00  0.00    -0.082 A 
ATOM      7  C5  PXY d   1      -0.422   0.283  -0.344  0.00  0.00     0.003 A 
ATOM      8  C6  PXY d   1       0.283  -0.226   0.742  0.00  0.00     0.003 A 
ENDROOT
TORSDOF 0
ENDMDL
