MODEL 1
REMARK minimizedAffinity -3.31542158
REMARK minimizedRMSD -1
REMARK  0 active torsions:
REMARK  status: ('A' for Active; 'I' for Inactive)
ROOT
ATOM      1  C4' PXY d   1       0.778   1.521  -1.802  0.00  0.00     0.077 C 
ATOM      2  C1' PXY d   1      -0.369  -1.394   3.056  0.00  0.00     0.077 C 
ATOM      3  C1  PXY d   1      -0.061  -0.621   1.789  0.00  0.00    -0.082 A 
ATOM      4  C2  PXY d   1      -0.871  -0.722   0.748  0.00  0.00     0.003 A 
ATOM      5  C3  PXY d   1      -0.591  -0.055  -0.417  0.00  0.00     0.003 A 
ATOM      6  C4  PXY d   1       0.502   0.766  -0.499  0.00  0.00    -0.082 A 
ATOM      7  C5  PXY d   1       1.327   0.884   0.562  0.00  0.00     0.003 A 
ATOM      8  C6  PXY d   1       1.047   0.166   1.721  0.00  0.00     0.003 A 
ENDROOT
TORSDOF 0
ENDMDL
