MODEL 1
REMARK minimizedAffinity -3.32017684
REMARK minimizedRMSD -1
REMARK  0 active torsions:
REMARK  status: ('A' for Active; 'I' for Inactive)
ROOT
ATOM      1  C4' PXY d   1      -0.238  -0.812   3.597  0.00  0.00     0.077 C 
ATOM      2  C1' PXY d   1       0.390   0.788  -1.922  0.00  0.00     0.077 C 
ATOM      3  C1  PXY d   1       0.238   0.372  -0.472  0.00  0.00    -0.082 A 
ATOM      4  C2  PXY d   1      -0.634  -0.569  -0.150  0.00  0.00     0.003 A 
ATOM      5  C3  PXY d   1      -0.808  -0.934   1.160  0.00  0.00     0.003 A 
ATOM      6  C4  PXY d   1      -0.043  -0.368   2.145  0.00  0.00    -0.082 A 
ATOM      7  C5  PXY d   1       0.856   0.586   1.822  0.00  0.00     0.003 A 
ATOM      8  C6  PXY d   1       0.988   0.972   0.491  0.00  0.00     0.003 A 
ENDROOT
TORSDOF 0
ENDMDL
