MODEL 1
REMARK minimizedAffinity -1.85503554
REMARK minimizedRMSD -1
REMARK  0 active torsions:
REMARK  status: ('A' for Active; 'I' for Inactive)
ROOT
ATOM      1  C4' PXY d   1      -0.983  -0.848   4.075  0.00  0.00     0.077 C 
ATOM      2  C1' PXY d   1      -0.037  -0.566  -1.621  0.00  0.00     0.077 C 
ATOM      3  C1  PXY d   1      -0.272  -0.640  -0.125  0.00  0.00    -0.082 A 
ATOM      4  C2  PXY d   1      -1.402  -1.153   0.335  0.00  0.00     0.003 A 
ATOM      5  C3  PXY d   1      -1.644  -1.198   1.684  0.00  0.00     0.003 A 
ATOM      6  C4  PXY d   1      -0.698  -0.762   2.573  0.00  0.00    -0.082 A 
ATOM      7  C5  PXY d   1       0.461  -0.247   2.112  0.00  0.00     0.003 A 
ATOM      8  C6  PXY d   1       0.670  -0.172   0.738  0.00  0.00     0.003 A 
ENDROOT
TORSDOF 0
ENDMDL
