MODEL 1
REMARK minimizedAffinity -5.09124756
REMARK minimizedRMSD -1
REMARK  0 active torsions:
REMARK  status: ('A' for Active; 'I' for Inactive)
ROOT
ATOM      1  C4' PXY d   1       0.761   0.439  -1.875  0.00  0.00     0.077 C 
ATOM      2  C1' PXY d   1      -1.376  -0.054   3.474  0.00  0.00     0.077 C 
ATOM      3  C1  PXY d   1      -0.804   0.079   2.076  0.00  0.00    -0.082 A 
ATOM      4  C2  PXY d   1      -1.617   0.294   1.054  0.00  0.00     0.003 A 
ATOM      5  C3  PXY d   1      -1.120   0.385  -0.220  0.00  0.00     0.003 A 
ATOM      6  C4  PXY d   1       0.229   0.307  -0.445  0.00  0.00    -0.082 A 
ATOM      7  C5  PXY d   1       1.066   0.099   0.593  0.00  0.00     0.003 A 
ATOM      8  C6  PXY d   1       0.537  -0.032   1.874  0.00  0.00     0.003 A 
ENDROOT
TORSDOF 0
ENDMDL
