MODEL 1
REMARK minimizedAffinity -2.57788324
REMARK minimizedRMSD -1
REMARK  0 active torsions:
REMARK  status: ('A' for Active; 'I' for Inactive)
ROOT
ATOM      1  C4' PXY d   1      -0.353  -1.124   2.220  0.00  0.00     0.077 C 
ATOM      2  C1' PXY d   1       0.651   1.004  -3.060  0.00  0.00     0.077 C 
ATOM      3  C1  PXY d   1       0.400   0.447  -1.673  0.00  0.00    -0.082 A 
ATOM      4  C2  PXY d   1      -0.639  -0.345  -1.463  0.00  0.00     0.003 A 
ATOM      5  C3  PXY d   1      -0.898  -0.832  -0.208  0.00  0.00     0.003 A 
ATOM      6  C4  PXY d   1      -0.056  -0.547   0.833  0.00  0.00    -0.082 A 
ATOM      7  C5  PXY d   1       1.012   0.252   0.626  0.00  0.00     0.003 A 
ATOM      8  C6  PXY d   1       1.235   0.769  -0.647  0.00  0.00     0.003 A 
ENDROOT
TORSDOF 0
ENDMDL
