MODEL 1
REMARK minimizedAffinity -4.18504429
REMARK minimizedRMSD -1
REMARK  0 active torsions:
REMARK  status: ('A' for Active; 'I' for Inactive)
ROOT
ATOM      1  C4' PXY d   1       0.754   0.443  -2.326  0.00  0.00     0.077 C 
ATOM      2  C1' PXY d   1      -0.920  -0.515   3.123  0.00  0.00     0.077 C 
ATOM      3  C1  PXY d   1      -0.491  -0.271   1.690  0.00  0.00    -0.082 A 
ATOM      4  C2  PXY d   1       0.764   0.059   1.430  0.00  0.00     0.003 A 
ATOM      5  C3  PXY d   1       1.161   0.315   0.143  0.00  0.00     0.003 A 
ATOM      6  C4  PXY d   1       0.279   0.179  -0.895  0.00  0.00    -0.082 A 
ATOM      7  C5  PXY d   1      -1.000  -0.169  -0.639  0.00  0.00     0.003 A 
ATOM      8  C6  PXY d   1      -1.394  -0.383   0.679  0.00  0.00     0.003 A 
ENDROOT
TORSDOF 0
ENDMDL
