MODEL 1
REMARK minimizedAffinity -4.38507891
REMARK minimizedRMSD -1
REMARK  0 active torsions:
REMARK  status: ('A' for Active; 'I' for Inactive)
ROOT
ATOM      1  C4' PXY d   1       2.855   1.185   2.173  0.00  0.00     0.077 C 
ATOM      2  C1' PXY d   1      -2.375   0.022   0.003  0.00  0.00     0.077 C 
ATOM      3  C1  PXY d   1      -1.008   0.324   0.584  0.00  0.00    -0.082 A 
ATOM      4  C2  PXY d   1      -0.167   1.093  -0.089  0.00  0.00     0.003 A 
ATOM      5  C3  PXY d   1       1.086   1.350   0.407  0.00  0.00     0.003 A 
ATOM      6  C4  PXY d   1       1.461   0.860   1.629  0.00  0.00    -0.082 A 
ATOM      7  C5  PXY d   1       0.605   0.085   2.327  0.00  0.00     0.003 A 
ATOM      8  C6  PXY d   1      -0.647  -0.199   1.787  0.00  0.00     0.003 A 
ENDROOT
TORSDOF 0
ENDMDL
