MODEL 1
REMARK minimizedAffinity -4.4462986
REMARK minimizedRMSD -1
REMARK  0 active torsions:
REMARK  status: ('A' for Active; 'I' for Inactive)
ROOT
ATOM      1  C4' PXY d   1      -0.849   0.099   3.306  0.00  0.00     0.077 C 
ATOM      2  C1' PXY d   1       0.640   0.334  -2.274  0.00  0.00     0.077 C 
ATOM      3  C1  PXY d   1       0.237   0.274  -0.814  0.00  0.00    -0.082 A 
ATOM      4  C2  PXY d   1       1.113   0.604   0.120  0.00  0.00     0.003 A 
ATOM      5  C3  PXY d   1       0.775   0.524   1.447  0.00  0.00     0.003 A 
ATOM      6  C4  PXY d   1      -0.489   0.154   1.819  0.00  0.00    -0.082 A 
ATOM      7  C5  PXY d   1      -1.392  -0.174   0.871  0.00  0.00     0.003 A 
ATOM      8  C6  PXY d   1      -1.017  -0.126  -0.469  0.00  0.00     0.003 A 
ENDROOT
TORSDOF 0
ENDMDL
