MODEL 1
REMARK minimizedAffinity -2.64924097
REMARK minimizedRMSD -1
REMARK  0 active torsions:
REMARK  status: ('A' for Active; 'I' for Inactive)
ROOT
ATOM      1  C4' PXY d   1       0.587   0.814  -1.934  0.00  0.00     0.077 C 
ATOM      2  C1' PXY d   1      -1.382  -0.716   3.281  0.00  0.00     0.077 C 
ATOM      3  C1  PXY d   1      -0.877  -0.318   1.908  0.00  0.00    -0.082 A 
ATOM      4  C2  PXY d   1       0.425  -0.278   1.676  0.00  0.00     0.003 A 
ATOM      5  C3  PXY d   1       0.900   0.110   0.450  0.00  0.00     0.003 A 
ATOM      6  C4  PXY d   1       0.032   0.409  -0.566  0.00  0.00    -0.082 A 
ATOM      7  C5  PXY d   1      -1.298   0.361  -0.340  0.00  0.00     0.003 A 
ATOM      8  C6  PXY d   1      -1.759   0.005   0.923  0.00  0.00     0.003 A 
ENDROOT
TORSDOF 0
ENDMDL
