MODEL 1
REMARK minimizedAffinity -5.0841403
REMARK minimizedRMSD -1
REMARK  0 active torsions:
REMARK  status: ('A' for Active; 'I' for Inactive)
ROOT
ATOM      1  C4' PXY d   1       0.568  -0.048  -2.134  0.00  0.00     0.077 C 
ATOM      2  C1' PXY d   1      -0.113  -0.884   3.545  0.00  0.00     0.077 C 
ATOM      3  C1  PXY d   1       0.076  -0.657   2.058  0.00  0.00    -0.082 A 
ATOM      4  C2  PXY d   1      -0.946  -0.828   1.236  0.00  0.00     0.003 A 
ATOM      5  C3  PXY d   1      -0.785  -0.658  -0.115  0.00  0.00     0.003 A 
ATOM      6  C4  PXY d   1       0.421  -0.257  -0.624  0.00  0.00    -0.082 A 
ATOM      7  C5  PXY d   1       1.466  -0.069   0.210  0.00  0.00     0.003 A 
ATOM      8  C6  PXY d   1       1.292  -0.287   1.574  0.00  0.00     0.003 A 
ENDROOT
TORSDOF 0
ENDMDL
