MODEL 1
REMARK minimizedAffinity -5.68976021
REMARK minimizedRMSD -1
REMARK  0 active torsions:
REMARK  status: ('A' for Active; 'I' for Inactive)
ROOT
ATOM      1  C4' PXY d   1       2.929   0.705   2.150  0.00  0.00     0.077 C 
ATOM      2  C1' PXY d   1      -2.323  -0.579   0.105  0.00  0.00     0.077 C 
ATOM      3  C1  PXY d   1      -0.951  -0.241   0.653  0.00  0.00    -0.082 A 
ATOM      4  C2  PXY d   1      -0.043   0.301  -0.143  0.00  0.00     0.003 A 
ATOM      5  C3  PXY d   1       1.213   0.583   0.329  0.00  0.00     0.003 A 
ATOM      6  C4  PXY d   1       1.527   0.356   1.642  0.00  0.00    -0.082 A 
ATOM      7  C5  PXY d   1       0.604  -0.187   2.463  0.00  0.00     0.003 A 
ATOM      8  C6  PXY d   1      -0.652  -0.504   1.954  0.00  0.00     0.003 A 
ENDROOT
TORSDOF 0
ENDMDL
