MODEL 1
REMARK minimizedAffinity -4.65063667
REMARK minimizedRMSD -1
REMARK  0 active torsions:
REMARK  status: ('A' for Active; 'I' for Inactive)
ROOT
ATOM      1  C4' PXY d   1       2.871   0.402   1.888  0.00  0.00     0.077 C 
ATOM      2  C1' PXY d   1      -2.566   0.369  -0.075  0.00  0.00     0.077 C 
ATOM      3  C1  PXY d   1      -1.144   0.381   0.451  0.00  0.00    -0.082 A 
ATOM      4  C2  PXY d   1      -0.140   0.601  -0.381  0.00  0.00     0.003 A 
ATOM      5  C3  PXY d   1       1.154   0.583   0.072  0.00  0.00     0.003 A 
ATOM      6  C4  PXY d   1       1.419   0.391   1.402  0.00  0.00    -0.082 A 
ATOM      7  C5  PXY d   1       0.399   0.176   2.260  0.00  0.00     0.003 A 
ATOM      8  C6  PXY d   1      -0.904   0.157   1.772  0.00  0.00     0.003 A 
ENDROOT
TORSDOF 0
ENDMDL
