MODEL 1
REMARK minimizedAffinity -4.05066824
REMARK minimizedRMSD -1
REMARK  0 active torsions:
REMARK  status: ('A' for Active; 'I' for Inactive)
ROOT
ATOM      1  C4' PXY d   1       0.329   0.095  -2.668  0.00  0.00     0.077 C 
ATOM      2  C1' PXY d   1      -0.674  -0.775   2.958  0.00  0.00     0.077 C 
ATOM      3  C1  PXY d   1      -0.422  -0.554   1.480  0.00  0.00    -0.082 A 
ATOM      4  C2  PXY d   1       0.807  -0.303   1.056  0.00  0.00     0.003 A 
ATOM      5  C3  PXY d   1       1.048  -0.069  -0.273  0.00  0.00     0.003 A 
ATOM      6  C4  PXY d   1       0.030  -0.144  -1.185  0.00  0.00    -0.082 A 
ATOM      7  C5  PXY d   1      -1.225  -0.410  -0.762  0.00  0.00     0.003 A 
ATOM      8  C6  PXY d   1      -1.455  -0.604   0.596  0.00  0.00     0.003 A 
ENDROOT
TORSDOF 0
ENDMDL
