MODEL 1
REMARK minimizedAffinity -4.57270432
REMARK minimizedRMSD -1
REMARK  0 active torsions:
REMARK  status: ('A' for Active; 'I' for Inactive)
ROOT
ATOM      1  C4' PXY d   1      -2.764  -0.744   0.737  0.00  0.00     0.077 C 
ATOM      2  C1' PXY d   1       2.674   0.738   2.020  0.00  0.00     0.077 C 
ATOM      3  C1  PXY d   1       1.249   0.355   1.672  0.00  0.00    -0.082 A 
ATOM      4  C2  PXY d   1       0.383   0.106   2.641  0.00  0.00     0.003 A 
ATOM      5  C3  PXY d   1      -0.901  -0.273   2.344  0.00  0.00     0.003 A 
ATOM      6  C4  PXY d   1      -1.318  -0.345   1.042  0.00  0.00    -0.082 A 
ATOM      7  C5  PXY d   1      -0.444  -0.081   0.048  0.00  0.00     0.003 A 
ATOM      8  C6  PXY d   1       0.867   0.261   0.370  0.00  0.00     0.003 A 
ENDROOT
TORSDOF 0
ENDMDL
