MODEL 1
REMARK minimizedAffinity -1.79870772
REMARK minimizedRMSD -1
REMARK  1 active torsions:
REMARK  status: ('A' for Active; 'I' for Inactive)
REMARK    1  A    between atoms: C1_2  and  C2_3 
ROOT
ATOM      1  C2  UNL d   1       0.267   0.974   0.386  0.00  0.00    -0.081 A 
ATOM      2  C3  UNL d   1      -0.845   0.409   1.021  0.00  0.00     0.006 A 
ATOM      3  C4  UNL d   1      -1.105  -0.959   0.912  0.00  0.00     0.002 A 
ATOM      4  C5  UNL d   1      -0.252  -1.786   0.173  0.00  0.00    -0.080 A 
ATOM      5  C6  UNL d   1      -0.502  -3.262   0.073  0.00  0.00     0.076 C 
ATOM      6  C7  UNL d   1       0.850  -1.219  -0.476  0.00  0.00     0.002 A 
ATOM      7  C8  UNL d   1       1.109   0.149  -0.368  0.00  0.00     0.006 A 
ENDROOT
BRANCH   1   8
ATOM      8  C1  UNL d   1       0.586   2.438   0.555  0.00  0.00     0.054 C 
ATOM      9  C   UNL d   1       2.087   2.684   0.524  0.00  0.00     0.018 C 
ENDBRANCH   1   8
TORSDOF 1
ENDMDL
