MODEL 1
REMARK minimizedAffinity -3.65677476
REMARK minimizedRMSD -1
REMARK  1 active torsions:
REMARK  status: ('A' for Active; 'I' for Inactive)
REMARK    1  A    between atoms: C1_2  and  C2_3 
ROOT
ATOM      1  C2  UNL d   1       0.497   0.955   0.159  0.00  0.00    -0.081 A 
ATOM      2  C3  UNL d   1      -0.889   0.782   0.260  0.00  0.00     0.006 A 
ATOM      3  C4  UNL d   1      -1.435  -0.497   0.395  0.00  0.00     0.002 A 
ATOM      4  C5  UNL d   1      -0.604  -1.622   0.440  0.00  0.00    -0.080 A 
ATOM      5  C6  UNL d   1      -1.175  -2.998   0.615  0.00  0.00     0.076 C 
ATOM      6  C7  UNL d   1       0.779  -1.450   0.322  0.00  0.00     0.002 A 
ATOM      7  C8  UNL d   1       1.325  -0.172   0.186  0.00  0.00     0.006 A 
ENDROOT
BRANCH   1   8
ATOM      8  C1  UNL d   1       1.092   2.338   0.078  0.00  0.00     0.054 C 
ATOM      9  C   UNL d   1       2.613   2.287   0.095  0.00  0.00     0.018 C 
ENDBRANCH   1   8
TORSDOF 1
ENDMDL
