MODEL 1
REMARK minimizedAffinity -5.37887621
REMARK minimizedRMSD -1
REMARK  1 active torsions:
REMARK  status: ('A' for Active; 'I' for Inactive)
REMARK    1  A    between atoms: C1_2  and  C2_3 
ROOT
ATOM      1  C2  UNL d   1       0.267   1.054   0.226  0.00  0.00    -0.081 A 
ATOM      2  C3  UNL d   1      -0.334   0.386   1.300  0.00  0.00     0.006 A 
ATOM      3  C4  UNL d   1      -0.352  -1.011   1.343  0.00  0.00     0.002 A 
ATOM      4  C5  UNL d   1       0.236  -1.760   0.319  0.00  0.00    -0.080 A 
ATOM      5  C6  UNL d   1       0.249  -3.259   0.368  0.00  0.00     0.076 C 
ATOM      6  C7  UNL d   1       0.821  -1.092  -0.762  0.00  0.00     0.002 A 
ATOM      7  C8  UNL d   1       0.839   0.303  -0.807  0.00  0.00     0.006 A 
ENDROOT
BRANCH   1   8
ATOM      8  C1  UNL d   1       0.346   2.560   0.208  0.00  0.00     0.054 C 
ATOM      9  C   UNL d   1       1.488   3.064   1.078  0.00  0.00     0.018 C 
ENDBRANCH   1   8
TORSDOF 1
ENDMDL
