MODEL 1
REMARK minimizedAffinity -0.414507061
REMARK minimizedRMSD -1
REMARK  1 active torsions:
REMARK  status: ('A' for Active; 'I' for Inactive)
REMARK    1  A    between atoms: C1_2  and  C2_3 
ROOT
ATOM      1  C2  UNL d   1       0.371   1.920   0.179  0.00  0.00    -0.081 A 
ATOM      2  C3  UNL d   1       0.487   0.657   0.771  0.00  0.00     0.006 A 
ATOM      3  C4  UNL d   1       0.478  -0.498  -0.015  0.00  0.00     0.002 A 
ATOM      4  C5  UNL d   1       0.360  -0.407  -1.406  0.00  0.00    -0.080 A 
ATOM      5  C6  UNL d   1       0.378  -1.637  -2.265  0.00  0.00     0.076 C 
ATOM      6  C7  UNL d   1       0.226   0.854  -1.997  0.00  0.00     0.002 A 
ATOM      7  C8  UNL d   1       0.235   2.008  -1.210  0.00  0.00     0.006 A 
ENDROOT
BRANCH   1   8
ATOM      8  C1  UNL d   1       0.446   3.170   1.019  0.00  0.00     0.054 C 
ATOM      9  C   UNL d   1       1.863   3.724   1.060  0.00  0.00     0.018 C 
ENDBRANCH   1   8
TORSDOF 1
ENDMDL
