MODEL 1
REMARK minimizedAffinity -5.86041546
REMARK minimizedRMSD -1
REMARK  1 active torsions:
REMARK  status: ('A' for Active; 'I' for Inactive)
REMARK    1  A    between atoms: C1_2  and  C2_3 
ROOT
ATOM      1  C2  UNL d   1       0.011   1.441  -0.002  0.00  0.00    -0.081 A 
ATOM      2  C3  UNL d   1      -0.367   0.880   1.224  0.00  0.00     0.006 A 
ATOM      3  C4  UNL d   1      -0.497  -0.504   1.360  0.00  0.00     0.002 A 
ATOM      4  C5  UNL d   1      -0.244  -1.351   0.275  0.00  0.00    -0.080 A 
ATOM      5  C6  UNL d   1      -0.350  -2.840   0.415  0.00  0.00     0.076 C 
ATOM      6  C7  UNL d   1       0.116  -0.789  -0.955  0.00  0.00     0.002 A 
ATOM      7  C8  UNL d   1       0.246   0.594  -1.091  0.00  0.00     0.006 A 
ENDROOT
BRANCH   1   8
ATOM      8  C1  UNL d   1       0.215   2.928  -0.134  0.00  0.00     0.054 C 
ATOM      9  C   UNL d   1       1.645   3.323   0.206  0.00  0.00     0.018 C 
ENDBRANCH   1   8
TORSDOF 1
ENDMDL
