MODEL 1
REMARK minimizedAffinity -4.50198841
REMARK minimizedRMSD -1
REMARK  1 active torsions:
REMARK  status: ('A' for Active; 'I' for Inactive)
REMARK    1  A    between atoms: C1_2  and  C2_3 
ROOT
ATOM      1  C2  UNL d   1      -0.334   0.299  -0.039  0.00  0.00    -0.081 A 
ATOM      2  C3  UNL d   1      -1.049  -0.410   0.934  0.00  0.00     0.006 A 
ATOM      3  C4  UNL d   1      -0.945  -1.801   1.016  0.00  0.00     0.002 A 
ATOM      4  C5  UNL d   1      -0.120  -2.504   0.132  0.00  0.00    -0.080 A 
ATOM      5  C6  UNL d   1       0.024  -3.994   0.229  0.00  0.00     0.076 C 
ATOM      6  C7  UNL d   1       0.581  -1.798  -0.851  0.00  0.00     0.002 A 
ATOM      7  C8  UNL d   1       0.477  -0.407  -0.934  0.00  0.00     0.006 A 
ENDROOT
BRANCH   1   8
ATOM      8  C1  UNL d   1      -0.393   1.804  -0.088  0.00  0.00     0.054 C 
ATOM      9  C   UNL d   1       0.894   2.426   0.435  0.00  0.00     0.018 C 
ENDBRANCH   1   8
TORSDOF 1
ENDMDL
