MODEL 1
REMARK minimizedAffinity -5.25626564
REMARK minimizedRMSD -1
REMARK  1 active torsions:
REMARK  status: ('A' for Active; 'I' for Inactive)
REMARK    1  A    between atoms: C1_2  and  C2_3 
ROOT
ATOM      1  C2  UNL d   1      -0.267   1.182   0.064  0.00  0.00    -0.081 A 
ATOM      2  C3  UNL d   1      -1.137   0.622   1.007  0.00  0.00     0.006 A 
ATOM      3  C4  UNL d   1      -1.192  -0.762   1.186  0.00  0.00     0.002 A 
ATOM      4  C5  UNL d   1      -0.373  -1.608   0.431  0.00  0.00    -0.080 A 
ATOM      5  C6  UNL d   1      -0.400  -3.094   0.635  0.00  0.00     0.076 C 
ATOM      6  C7  UNL d   1       0.484  -1.050  -0.523  0.00  0.00     0.002 A 
ATOM      7  C8  UNL d   1       0.539   0.334  -0.703  0.00  0.00     0.006 A 
ENDROOT
BRANCH   1   8
ATOM      8  C1  UNL d   1      -0.158   2.678  -0.086  0.00  0.00     0.054 C 
ATOM      9  C   UNL d   1       1.170   3.193   0.450  0.00  0.00     0.018 C 
ENDBRANCH   1   8
TORSDOF 1
ENDMDL
