MODEL 1
REMARK minimizedAffinity -5.14366722
REMARK minimizedRMSD -1
REMARK  1 active torsions:
REMARK  status: ('A' for Active; 'I' for Inactive)
REMARK    1  A    between atoms: C1_2  and  C2_3 
ROOT
ATOM      1  C2  UNL d   1      -0.199   0.392  -0.108  0.00  0.00    -0.081 A 
ATOM      2  C3  UNL d   1      -0.538  -0.625   0.793  0.00  0.00     0.006 A 
ATOM      3  C4  UNL d   1      -0.481  -1.965   0.402  0.00  0.00     0.002 A 
ATOM      4  C5  UNL d   1      -0.077  -2.311  -0.892  0.00  0.00    -0.080 A 
ATOM      5  C6  UNL d   1       0.018  -3.747  -1.315  0.00  0.00     0.076 C 
ATOM      6  C7  UNL d   1       0.245  -1.294  -1.797  0.00  0.00     0.002 A 
ATOM      7  C8  UNL d   1       0.188   0.046  -1.407  0.00  0.00     0.006 A 
ENDROOT
BRANCH   1   8
ATOM      8  C1  UNL d   1      -0.197   1.834   0.330  0.00  0.00     0.054 C 
ATOM      9  C   UNL d   1       1.219   2.387   0.407  0.00  0.00     0.018 C 
ENDBRANCH   1   8
TORSDOF 1
ENDMDL
