MODEL 1
REMARK minimizedAffinity -6.33391953
REMARK minimizedRMSD -1
REMARK  1 active torsions:
REMARK  status: ('A' for Active; 'I' for Inactive)
REMARK    1  A    between atoms: C1_2  and  C2_3 
ROOT
ATOM      1  C2  UNL d   1       0.102   0.067  -0.685  0.00  0.00    -0.081 A 
ATOM      2  C3  UNL d   1       0.603  -0.911  -1.553  0.00  0.00     0.006 A 
ATOM      3  C4  UNL d   1       0.552  -2.262  -1.201  0.00  0.00     0.002 A 
ATOM      4  C5  UNL d   1      -0.006  -2.658   0.019  0.00  0.00    -0.080 A 
ATOM      5  C6  UNL d   1      -0.094  -4.107   0.395  0.00  0.00     0.076 C 
ATOM      6  C7  UNL d   1      -0.490  -1.679   0.894  0.00  0.00     0.002 A 
ATOM      7  C8  UNL d   1      -0.440  -0.328   0.543  0.00  0.00     0.006 A 
ENDROOT
BRANCH   1   8
ATOM      8  C1  UNL d   1       0.096   1.519  -1.089  0.00  0.00     0.054 C 
ATOM      9  C   UNL d   1       0.394   2.425   0.097  0.00  0.00     0.018 C 
ENDBRANCH   1   8
TORSDOF 1
ENDMDL
