MODEL 1
REMARK minimizedAffinity -2.43003988
REMARK minimizedRMSD -1
REMARK  1 active torsions:
REMARK  status: ('A' for Active; 'I' for Inactive)
REMARK    1  A    between atoms: C1_2  and  C2_3 
ROOT
ATOM      1  C2  UNL d   1       0.661   1.582   0.192  0.00  0.00    -0.081 A 
ATOM      2  C3  UNL d   1       0.519   0.951   1.434  0.00  0.00     0.006 A 
ATOM      3  C4  UNL d   1      -0.217  -0.231   1.548  0.00  0.00     0.002 A 
ATOM      4  C5  UNL d   1      -0.815  -0.806   0.422  0.00  0.00    -0.080 A 
ATOM      5  C6  UNL d   1      -1.582  -2.091   0.525  0.00  0.00     0.076 C 
ATOM      6  C7  UNL d   1      -0.688  -0.166  -0.816  0.00  0.00     0.002 A 
ATOM      7  C8  UNL d   1       0.046   1.016  -0.931  0.00  0.00     0.006 A 
ENDROOT
BRANCH   1   8
ATOM      8  C1  UNL d   1       1.507   2.822   0.054  0.00  0.00     0.054 C 
ATOM      9  C   UNL d   1       2.333   3.071   1.308  0.00  0.00     0.018 C 
ENDBRANCH   1   8
TORSDOF 1
ENDMDL
