MODEL 1
REMARK minimizedAffinity -4.08843803
REMARK minimizedRMSD -1
REMARK  1 active torsions:
REMARK  status: ('A' for Active; 'I' for Inactive)
REMARK    1  A    between atoms: C1_2  and  C2_3 
ROOT
ATOM      1  C2  UNL d   1       0.010   0.496  -0.133  0.00  0.00    -0.081 A 
ATOM      2  C3  UNL d   1      -0.835  -0.160   0.771  0.00  0.00     0.006 A 
ATOM      3  C4  UNL d   1      -0.610  -1.497   1.108  0.00  0.00     0.002 A 
ATOM      4  C5  UNL d   1       0.468  -2.197   0.555  0.00  0.00    -0.080 A 
ATOM      5  C6  UNL d   1       0.739  -3.623   0.932  0.00  0.00     0.076 C 
ATOM      6  C7  UNL d   1       1.301  -1.547  -0.362  0.00  0.00     0.002 A 
ATOM      7  C8  UNL d   1       1.076  -0.211  -0.700  0.00  0.00     0.006 A 
ENDROOT
BRANCH   1   8
ATOM      8  C1  UNL d   1      -0.193   1.955  -0.450  0.00  0.00     0.054 C 
ATOM      9  C   UNL d   1       0.867   2.819   0.220  0.00  0.00     0.018 C 
ENDBRANCH   1   8
TORSDOF 1
ENDMDL
