MODEL 1
REMARK minimizedAffinity -4.33108091
REMARK minimizedRMSD -1
REMARK  1 active torsions:
REMARK  status: ('A' for Active; 'I' for Inactive)
REMARK    1  A    between atoms: C1_2  and  C2_3 
ROOT
ATOM      1  C2  UNL d   1      -0.211  -0.471   0.870  0.00  0.00    -0.081 A 
ATOM      2  C3  UNL d   1       0.239   0.020  -0.362  0.00  0.00     0.006 A 
ATOM      3  C4  UNL d   1       0.850   1.274  -0.443  0.00  0.00     0.002 A 
ATOM      4  C5  UNL d   1       1.028   2.053   0.705  0.00  0.00    -0.080 A 
ATOM      5  C6  UNL d   1       1.710   3.387   0.636  0.00  0.00     0.076 C 
ATOM      6  C7  UNL d   1       0.563   1.569   1.933  0.00  0.00     0.002 A 
ATOM      7  C8  UNL d   1      -0.049   0.316   2.015  0.00  0.00     0.006 A 
ENDROOT
BRANCH   1   8
ATOM      8  C1  UNL d   1      -0.812  -1.850   0.971  0.00  0.00     0.054 C 
ATOM      9  C   UNL d   1       0.246  -2.929   0.790  0.00  0.00     0.018 C 
ENDBRANCH   1   8
TORSDOF 1
ENDMDL
