MODEL 1
REMARK minimizedAffinity -3.99240971
REMARK minimizedRMSD -1
REMARK  0 active torsions:
REMARK  status: ('A' for Active; 'I' for Inactive)
ROOT
ATOM      1  C   UNL d   1       2.807  -0.787   1.646  0.00  0.00     0.023 A 
ATOM      2  C1  UNL d   1       1.698  -1.614   1.828  0.00  0.00     0.003 A 
ATOM      3  C2  UNL d   1       0.492  -1.318   1.190  0.00  0.00     0.048 A 
ATOM      4  C3  UNL d   1       0.401  -0.193   0.371  0.00  0.00     0.023 A 
ATOM      5  C4  UNL d   1       1.508   0.638   0.186  0.00  0.00     0.048 A 
ATOM      6  C5  UNL d   1       2.712   0.338   0.826  0.00  0.00     0.003 A 
ATOM      7  I   UNL d   1      -1.393   0.251  -0.580  0.00  0.00    -0.146 I 
ENDROOT
TORSDOF 0
ENDMDL
