MODEL 1
REMARK minimizedAffinity -4.6807704
REMARK minimizedRMSD -1
REMARK  0 active torsions:
REMARK  status: ('A' for Active; 'I' for Inactive)
ROOT
ATOM      1  C   UNL d   1       3.357  -0.922   1.377  0.00  0.00     0.023 A 
ATOM      2  C1  UNL d   1       3.176   0.111   0.458  0.00  0.00     0.003 A 
ATOM      3  C2  UNL d   1       1.900   0.397  -0.030  0.00  0.00     0.048 A 
ATOM      4  C3  UNL d   1       0.808  -0.353   0.406  0.00  0.00     0.023 A 
ATOM      5  C4  UNL d   1       0.985  -1.388   1.326  0.00  0.00     0.048 A 
ATOM      6  C5  UNL d   1       2.263  -1.671   1.811  0.00  0.00     0.003 A 
ATOM      7  I   UNL d   1      -1.093   0.071  -0.320  0.00  0.00    -0.146 I 
ENDROOT
TORSDOF 0
ENDMDL
