MODEL 1
REMARK minimizedAffinity -2.56804824
REMARK minimizedRMSD -1
REMARK  0 active torsions:
REMARK  status: ('A' for Active; 'I' for Inactive)
ROOT
ATOM      1  C   UNL d   1       3.048  -0.055   0.856  0.00  0.00     0.023 A 
ATOM      2  C1  UNL d   1       2.442  -1.182   0.301  0.00  0.00     0.003 A 
ATOM      3  C2  UNL d   1       1.082  -1.161  -0.016  0.00  0.00     0.048 A 
ATOM      4  C3  UNL d   1       0.335  -0.008   0.224  0.00  0.00     0.023 A 
ATOM      5  C4  UNL d   1       0.937   1.122   0.778  0.00  0.00     0.048 A 
ATOM      6  C5  UNL d   1       2.297   1.096   1.094  0.00  0.00     0.003 A 
ATOM      7  I   UNL d   1      -1.689   0.026  -0.247  0.00  0.00    -0.146 I 
ENDROOT
TORSDOF 0
ENDMDL
