MODEL 1
REMARK minimizedAffinity -4.6125989
REMARK minimizedRMSD -1
REMARK  0 active torsions:
REMARK  status: ('A' for Active; 'I' for Inactive)
ROOT
ATOM      1  C   UNL d   1       3.030  -0.406   0.844  0.00  0.00     0.023 A 
ATOM      2  C1  UNL d   1       2.526   0.872   0.599  0.00  0.00     0.003 A 
ATOM      3  C2  UNL d   1       1.220   1.030   0.128  0.00  0.00     0.048 A 
ATOM      4  C3  UNL d   1       0.425  -0.094  -0.094  0.00  0.00     0.023 A 
ATOM      5  C4  UNL d   1       0.925  -1.374   0.150  0.00  0.00     0.048 A 
ATOM      6  C5  UNL d   1       2.231  -1.527   0.620  0.00  0.00     0.003 A 
ATOM      7  I   UNL d   1      -1.518   0.139  -0.795  0.00  0.00    -0.146 I 
ENDROOT
TORSDOF 0
ENDMDL
