MODEL 1
REMARK minimizedAffinity -2.53060412
REMARK minimizedRMSD -1
REMARK  0 active torsions:
REMARK  status: ('A' for Active; 'I' for Inactive)
ROOT
ATOM      1  C   UNL d   1       3.375  -0.430   0.749  0.00  0.00     0.023 A 
ATOM      2  C1  UNL d   1       2.858  -1.402  -0.108  0.00  0.00     0.003 A 
ATOM      3  C2  UNL d   1       1.512  -1.365  -0.476  0.00  0.00     0.048 A 
ATOM      4  C3  UNL d   1       0.688  -0.352   0.016  0.00  0.00     0.023 A 
ATOM      5  C4  UNL d   1       1.202   0.622   0.873  0.00  0.00     0.048 A 
ATOM      6  C5  UNL d   1       2.548   0.580   1.239  0.00  0.00     0.003 A 
ATOM      7  I   UNL d   1      -1.316  -0.295  -0.531  0.00  0.00    -0.146 I 
ENDROOT
TORSDOF 0
ENDMDL
