MODEL 1
REMARK minimizedAffinity -2.26518226
REMARK minimizedRMSD -1
REMARK  0 active torsions:
REMARK  status: ('A' for Active; 'I' for Inactive)
ROOT
ATOM      1  C   UNL d   1       3.163   0.224   1.074  0.00  0.00     0.023 A 
ATOM      2  C1  UNL d   1       2.791  -0.863   0.283  0.00  0.00     0.003 A 
ATOM      3  C2  UNL d   1       1.516  -0.912  -0.284  0.00  0.00     0.048 A 
ATOM      4  C3  UNL d   1       0.618   0.131  -0.057  0.00  0.00     0.023 A 
ATOM      5  C4  UNL d   1       0.987   1.221   0.733  0.00  0.00     0.048 A 
ATOM      6  C5  UNL d   1       2.262   1.265   1.299  0.00  0.00     0.003 A 
ATOM      7  I   UNL d   1      -1.280   0.062  -0.900  0.00  0.00    -0.146 I 
ENDROOT
TORSDOF 0
ENDMDL
