MODEL 1
REMARK minimizedAffinity -2.55745912
REMARK minimizedRMSD -1
REMARK  0 active torsions:
REMARK  status: ('A' for Active; 'I' for Inactive)
ROOT
ATOM      1  C   UNL d   1       2.935  -0.286   0.946  0.00  0.00     0.023 A 
ATOM      2  C1  UNL d   1       2.399  -1.313   0.170  0.00  0.00     0.003 A 
ATOM      3  C2  UNL d   1       1.114  -1.189  -0.364  0.00  0.00     0.048 A 
ATOM      4  C3  UNL d   1       0.372  -0.034  -0.119  0.00  0.00     0.023 A 
ATOM      5  C4  UNL d   1       0.906   0.997   0.656  0.00  0.00     0.048 A 
ATOM      6  C5  UNL d   1       2.190   0.868   1.189  0.00  0.00     0.003 A 
ATOM      7  I   UNL d   1      -1.539   0.153  -0.913  0.00  0.00    -0.146 I 
ENDROOT
TORSDOF 0
ENDMDL
