MODEL 1
REMARK minimizedAffinity -2.40058684
REMARK minimizedRMSD -1
REMARK  0 active torsions:
REMARK  status: ('A' for Active; 'I' for Inactive)
ROOT
ATOM      1  C   UNL d   1      -0.512   0.482  -0.130  0.00  0.00     0.172 C 
ATOM      2  N   UNL d   1       0.732  -0.251  -0.142  0.00  0.00    -0.070 N 
ATOM      3  C1  UNL d   1       1.974   0.281   0.083  0.00  0.00    -0.004 A 
ATOM      4  C2  UNL d   1       2.894  -0.740  -0.015  0.00  0.00    -0.047 A 
ATOM      5  C3  UNL d   1       2.181  -1.926  -0.310  0.00  0.00    -0.047 A 
ATOM      6  C4  UNL d   1       0.844  -1.594  -0.383  0.00  0.00    -0.004 A 
ENDROOT
TORSDOF 0
ENDMDL
