MODEL 1
REMARK minimizedAffinity -2.88588762
REMARK minimizedRMSD -1
REMARK  0 active torsions:
REMARK  status: ('A' for Active; 'I' for Inactive)
ROOT
ATOM      1  C   UNL d   1       2.293  -1.686   0.487  0.00  0.00     0.172 C 
ATOM      2  N   UNL d   1       1.102  -0.940   0.156  0.00  0.00    -0.070 N 
ATOM      3  C1  UNL d   1       0.929   0.407   0.332  0.00  0.00    -0.004 A 
ATOM      4  C2  UNL d   1      -0.337   0.731  -0.105  0.00  0.00    -0.047 A 
ATOM      5  C3  UNL d   1      -0.947  -0.463  -0.559  0.00  0.00    -0.047 A 
ATOM      6  C4  UNL d   1      -0.034  -1.482  -0.386  0.00  0.00    -0.004 A 
ENDROOT
TORSDOF 0
ENDMDL
