MODEL 1
REMARK minimizedAffinity -2.66796589
REMARK minimizedRMSD -1
REMARK  0 active torsions:
REMARK  status: ('A' for Active; 'I' for Inactive)
ROOT
ATOM      1  C   UNL d   1      -1.529   1.071  -0.306  0.00  0.00     0.172 C 
ATOM      2  N   UNL d   1      -0.136   0.834  -0.005  0.00  0.00    -0.070 N 
ATOM      3  C1  UNL d   1       0.435  -0.391   0.216  0.00  0.00    -0.004 A 
ATOM      4  C2  UNL d   1       1.775  -0.192   0.467  0.00  0.00    -0.047 A 
ATOM      5  C3  UNL d   1       2.018   1.200   0.396  0.00  0.00    -0.047 A 
ATOM      6  C4  UNL d   1       0.817   1.811   0.102  0.00  0.00    -0.004 A 
ENDROOT
TORSDOF 0
ENDMDL
