MODEL 1
REMARK minimizedAffinity -4.53604746
REMARK minimizedRMSD -1
REMARK  0 active torsions:
REMARK  status: ('A' for Active; 'I' for Inactive)
ROOT
ATOM      1  C1  DEN d   1      -1.620   2.383   0.686  0.00  0.00     0.130 A 
ATOM      2  C2  DEN d   1      -1.489   2.756   2.092  0.00  0.00    -0.031 A 
ATOM      3  C3  DEN d   1      -0.538   1.822   2.725  0.00  0.00     0.027 A 
ATOM      4  C4  DEN d   1       0.743  -0.153   1.671  0.00  0.00     0.027 A 
ATOM      5  C5  DEN d   1       0.948  -0.866   0.510  0.00  0.00    -0.003 A 
ATOM      6  C6  DEN d   1       0.292  -0.570  -0.655  0.00  0.00     0.001 A 
ATOM      7  C7  DEN d   1      -0.569   0.495  -0.697  0.00  0.00     0.017 A 
ATOM      8  C8  DEN d   1      -0.786   1.214   0.471  0.00  0.00    -0.094 A 
ATOM      9  C9  DEN d   1      -0.104   0.907   1.635  0.00  0.00    -0.072 A 
ENDROOT
TORSDOF 0
ENDMDL
