MODEL 1
REMARK minimizedAffinity 1.08235574
REMARK minimizedRMSD -1
REMARK  0 active torsions:
REMARK  status: ('A' for Active; 'I' for Inactive)
ROOT
ATOM      1  C1  DEN d   1      -0.204   2.255  -1.865  0.00  0.00     0.130 A 
ATOM      2  C2  DEN d   1      -0.126   3.644  -1.421  0.00  0.00    -0.031 A 
ATOM      3  C3  DEN d   1       0.020   3.646   0.048  0.00  0.00     0.027 A 
ATOM      4  C4  DEN d   1       0.139   1.643   1.670  0.00  0.00     0.027 A 
ATOM      5  C5  DEN d   1       0.104   0.269   1.761  0.00  0.00    -0.003 A 
ATOM      6  C6  DEN d   1      -0.068  -0.532   0.663  0.00  0.00     0.001 A 
ATOM      7  C7  DEN d   1      -0.167   0.034  -0.581  0.00  0.00     0.017 A 
ATOM      8  C8  DEN d   1      -0.141   1.419  -0.680  0.00  0.00    -0.094 A 
ATOM      9  C9  DEN d   1       0.047   2.211   0.440  0.00  0.00    -0.072 A 
ENDROOT
TORSDOF 0
ENDMDL
