MODEL 1
REMARK minimizedAffinity -5.40178013
REMARK minimizedRMSD -1
REMARK  0 active torsions:
REMARK  status: ('A' for Active; 'I' for Inactive)
ROOT
ATOM      1  C1  DEN d   1      -1.188  -0.365  -0.033  0.00  0.00     0.130 A 
ATOM      2  C2  DEN d   1      -0.005   0.393   0.363  0.00  0.00    -0.031 A 
ATOM      3  C3  DEN d   1       1.180  -0.458   0.135  0.00  0.00     0.027 A 
ATOM      4  C4  DEN d   1       1.297  -2.861  -0.794  0.00  0.00     0.027 A 
ATOM      5  C5  DEN d   1       0.551  -3.923  -1.259  0.00  0.00    -0.003 A 
ATOM      6  C6  DEN d   1      -0.817  -3.885  -1.315  0.00  0.00     0.001 A 
ATOM      7  C7  DEN d   1      -1.480  -2.746  -0.942  0.00  0.00     0.017 A 
ATOM      8  C8  DEN d   1      -0.736  -1.675  -0.465  0.00  0.00    -0.094 A 
ATOM      9  C9  DEN d   1       0.647  -1.728  -0.428  0.00  0.00    -0.072 A 
ENDROOT
TORSDOF 0
ENDMDL
