MODEL 1
REMARK minimizedAffinity 4.9230032
REMARK minimizedRMSD -1
REMARK  0 active torsions:
REMARK  status: ('A' for Active; 'I' for Inactive)
ROOT
ATOM      1  C1  DEN d   1       1.141   0.495   0.693  0.00  0.00     0.130 A 
ATOM      2  C2  DEN d   1       0.653  -0.490   1.654  0.00  0.00    -0.031 A 
ATOM      3  C3  DEN d   1      -0.669  -0.960   1.195  0.00  0.00     0.027 A 
ATOM      4  C4  DEN d   1      -2.000  -0.266  -0.902  0.00  0.00     0.027 A 
ATOM      5  C5  DEN d   1      -1.999   0.548  -2.014  0.00  0.00    -0.003 A 
ATOM      6  C6  DEN d   1      -0.976   1.419  -2.281  0.00  0.00     0.001 A 
ATOM      7  C7  DEN d   1       0.111   1.464  -1.449  0.00  0.00     0.017 A 
ATOM      8  C8  DEN d   1       0.114   0.652  -0.322  0.00  0.00    -0.094 A 
ATOM      9  C9  DEN d   1      -0.924  -0.231  -0.076  0.00  0.00    -0.072 A 
ENDROOT
TORSDOF 0
ENDMDL
