MODEL 1
REMARK minimizedAffinity -4.45166588
REMARK minimizedRMSD -1
REMARK  0 active torsions:
REMARK  status: ('A' for Active; 'I' for Inactive)
ROOT
ATOM      1  C1  DEN d   1       0.579   0.366  -1.272  0.00  0.00     0.130 A 
ATOM      2  C2  DEN d   1      -0.000   1.248  -2.282  0.00  0.00    -0.031 A 
ATOM      3  C3  DEN d   1      -0.854   2.235  -1.590  0.00  0.00     0.027 A 
ATOM      4  C4  DEN d   1      -1.331   2.483   0.932  0.00  0.00     0.027 A 
ATOM      5  C5  DEN d   1      -1.075   1.959   2.180  0.00  0.00    -0.003 A 
ATOM      6  C6  DEN d   1      -0.284   0.855   2.360  0.00  0.00     0.001 A 
ATOM      7  C7  DEN d   1       0.317   0.267   1.278  0.00  0.00     0.017 A 
ATOM      8  C8  DEN d   1       0.057   0.785   0.016  0.00  0.00    -0.094 A 
ATOM      9  C9  DEN d   1      -0.736   1.909  -0.144  0.00  0.00    -0.072 A 
ENDROOT
TORSDOF 0
ENDMDL
