MODEL 1
REMARK minimizedAffinity 9.30216026
REMARK minimizedRMSD -1
REMARK  0 active torsions:
REMARK  status: ('A' for Active; 'I' for Inactive)
ROOT
ATOM      1  C1  DEN d   1      -0.333   2.354   0.090  0.00  0.00     0.130 A 
ATOM      2  C2  DEN d   1      -0.689   1.319   1.056  0.00  0.00    -0.031 A 
ATOM      3  C3  DEN d   1      -0.073   1.670   2.351  0.00  0.00     0.027 A 
ATOM      4  C4  DEN d   1       1.387   3.710   2.952  0.00  0.00     0.027 A 
ATOM      5  C5  DEN d   1       1.971   4.857   2.461  0.00  0.00    -0.003 A 
ATOM      6  C6  DEN d   1       1.857   5.229   1.147  0.00  0.00     0.001 A 
ATOM      7  C7  DEN d   1       1.105   4.470   0.290  0.00  0.00     0.017 A 
ATOM      8  C8  DEN d   1       0.519   3.309   0.776  0.00  0.00    -0.094 A 
ATOM      9  C9  DEN d   1       0.636   2.956   2.110  0.00  0.00    -0.072 A 
ENDROOT
TORSDOF 0
ENDMDL
