MODEL 1
REMARK minimizedAffinity 4.13488817
REMARK minimizedRMSD -1
REMARK  0 active torsions:
REMARK  status: ('A' for Active; 'I' for Inactive)
ROOT
ATOM      1  C1  DEN d   1      -0.564  -1.122  -1.800  0.00  0.00     0.130 A 
ATOM      2  C2  DEN d   1      -1.741  -0.881  -2.629  0.00  0.00    -0.031 A 
ATOM      3  C3  DEN d   1      -2.236  -2.186  -3.110  0.00  0.00     0.027 A 
ATOM      4  C4  DEN d   1      -1.302  -4.546  -2.648  0.00  0.00     0.027 A 
ATOM      5  C5  DEN d   1      -0.309  -5.254  -2.009  0.00  0.00    -0.003 A 
ATOM      6  C6  DEN d   1       0.681  -4.638  -1.290  0.00  0.00     0.001 A 
ATOM      7  C7  DEN d   1       0.673  -3.275  -1.154  0.00  0.00     0.017 A 
ATOM      8  C8  DEN d   1      -0.321  -2.553  -1.802  0.00  0.00    -0.094 A 
ATOM      9  C9  DEN d   1      -1.320  -3.195  -2.514  0.00  0.00    -0.072 A 
ENDROOT
TORSDOF 0
ENDMDL
