MODEL 1
REMARK minimizedAffinity 6.28618574
REMARK minimizedRMSD -1
REMARK  0 active torsions:
REMARK  status: ('A' for Active; 'I' for Inactive)
ROOT
ATOM      1  C1  DEN d   1       4.812  -2.822  -0.735  0.00  0.00     0.130 A 
ATOM      2  C2  DEN d   1       5.887  -2.054  -1.357  0.00  0.00    -0.031 A 
ATOM      3  C3  DEN d   1       5.985  -2.467  -2.771  0.00  0.00     0.027 A 
ATOM      4  C4  DEN d   1       4.580  -4.210  -4.053  0.00  0.00     0.027 A 
ATOM      5  C5  DEN d   1       3.558  -5.127  -3.944  0.00  0.00    -0.003 A 
ATOM      6  C6  DEN d   1       2.911  -5.363  -2.761  0.00  0.00     0.001 A 
ATOM      7  C7  DEN d   1       3.248  -4.640  -1.647  0.00  0.00     0.017 A 
ATOM      8  C8  DEN d   1       4.282  -3.719  -1.747  0.00  0.00    -0.094 A 
ATOM      9  C9  DEN d   1       4.916  -3.486  -2.955  0.00  0.00    -0.072 A 
ENDROOT
TORSDOF 0
ENDMDL
