MODEL 1
REMARK minimizedAffinity -0.117264606
REMARK minimizedRMSD -1
REMARK  1 active torsions:
REMARK  status: ('A' for Active; 'I' for Inactive)
REMARK    1  A    between atoms: C1_2  and  C2_3 
ROOT
ATOM      1  C2  UNL d   1       4.871  -2.918   4.959  0.00  0.00    -0.076 A 
ATOM      2  C3  UNL d   1       4.699  -1.986   5.997  0.00  0.00     0.004 A 
ATOM      3  C4  UNL d   1       3.704  -1.012   5.929  0.00  0.00    -0.003 A 
ATOM      4  C5  UNL d   1       2.864  -0.955   4.822  0.00  0.00     0.000 A 
ATOM      5  C6  UNL d   1       3.009  -1.882   3.791  0.00  0.00     0.000 A 
ATOM      6  C7  UNL d   1       3.997  -2.881   3.852  0.00  0.00    -0.073 A 
ATOM      7  C8  UNL d   1       4.112  -3.852   2.709  0.00  0.00     0.078 C 
ENDROOT
BRANCH   1   8
ATOM      8  C1  UNL d   1       5.984  -3.934   5.075  0.00  0.00     0.053 C 
ATOM      9  C   UNL d   1       5.626  -5.087   5.999  0.00  0.00     0.018 C 
ENDBRANCH   1   8
TORSDOF 1
ENDMDL
