MODEL 1
REMARK minimizedAffinity -1.28015506
REMARK minimizedRMSD -1
REMARK  1 active torsions:
REMARK  status: ('A' for Active; 'I' for Inactive)
REMARK    1  A    between atoms: C1_2  and  C2_3 
ROOT
ATOM      1  C2  UNL d   1       4.862   5.034  -3.328  0.00  0.00    -0.076 A 
ATOM      2  C3  UNL d   1       5.923   4.125  -3.482  0.00  0.00     0.004 A 
ATOM      3  C4  UNL d   1       5.928   3.197  -4.522  0.00  0.00    -0.003 A 
ATOM      4  C5  UNL d   1       4.873   3.164  -5.427  0.00  0.00     0.000 A 
ATOM      5  C6  UNL d   1       3.821   4.070  -5.300  0.00  0.00     0.000 A 
ATOM      6  C7  UNL d   1       3.808   5.023  -4.266  0.00  0.00    -0.073 A 
ATOM      7  C8  UNL d   1       2.644   5.972  -4.173  0.00  0.00     0.078 C 
ENDROOT
BRANCH   1   8
ATOM      8  C1  UNL d   1       4.897   5.999  -2.164  0.00  0.00     0.053 C 
ATOM      9  C   UNL d   1       5.999   5.670  -1.168  0.00  0.00     0.018 C 
ENDBRANCH   1   8
TORSDOF 1
ENDMDL
