MODEL 1
REMARK minimizedAffinity -1.90616667
REMARK minimizedRMSD -1
REMARK  1 active torsions:
REMARK  status: ('A' for Active; 'I' for Inactive)
REMARK    1  A    between atoms: C1_2  and  C2_3 
ROOT
ATOM      1  C2  UNL d   1       4.995  -3.809   5.176  0.00  0.00    -0.076 A 
ATOM      2  C3  UNL d   1       4.440  -2.811   5.996  0.00  0.00     0.004 A 
ATOM      3  C4  UNL d   1       4.162  -1.541   5.493  0.00  0.00    -0.003 A 
ATOM      4  C5  UNL d   1       4.435  -1.248   4.162  0.00  0.00     0.000 A 
ATOM      5  C6  UNL d   1       4.970  -2.231   3.329  0.00  0.00     0.000 A 
ATOM      6  C7  UNL d   1       5.240  -3.521   3.816  0.00  0.00    -0.073 A 
ATOM      7  C8  UNL d   1       5.822  -4.540   2.876  0.00  0.00     0.078 C 
ENDROOT
BRANCH   1   8
ATOM      8  C1  UNL d   1       5.300  -5.159   5.784  0.00  0.00     0.053 C 
ATOM      9  C   UNL d   1       4.049  -5.998   5.997  0.00  0.00     0.018 C 
ENDBRANCH   1   8
TORSDOF 1
ENDMDL
