MODEL 1
REMARK minimizedAffinity 1.4768436
REMARK minimizedRMSD -1
REMARK  1 active torsions:
REMARK  status: ('A' for Active; 'I' for Inactive)
REMARK    1  A    between atoms: C1_2  and  C2_3 
ROOT
ATOM      1  C2  UNL d   1       4.584  -2.869   5.322  0.00  0.00    -0.076 A 
ATOM      2  C3  UNL d   1       5.512  -3.677   6.000  0.00  0.00     0.004 A 
ATOM      3  C4  UNL d   1       5.984  -4.859   5.432  0.00  0.00    -0.003 A 
ATOM      4  C5  UNL d   1       5.534  -5.252   4.176  0.00  0.00     0.000 A 
ATOM      5  C6  UNL d   1       4.626  -4.453   3.481  0.00  0.00     0.000 A 
ATOM      6  C7  UNL d   1       4.154  -3.250   4.033  0.00  0.00    -0.073 A 
ATOM      7  C8  UNL d   1       3.171  -2.430   3.243  0.00  0.00     0.078 C 
ENDROOT
BRANCH   1   8
ATOM      8  C1  UNL d   1       4.087  -1.611   6.000  0.00  0.00     0.053 C 
ATOM      9  C   UNL d   1       2.570  -1.506   5.994  0.00  0.00     0.018 C 
ENDBRANCH   1   8
TORSDOF 1
ENDMDL
