MODEL 1
REMARK minimizedAffinity 3.93141365
REMARK minimizedRMSD -1
REMARK  1 active torsions:
REMARK  status: ('A' for Active; 'I' for Inactive)
REMARK    1  A    between atoms: C1_2  and  C2_3 
ROOT
ATOM      1  C2  UNL d   1       4.950   5.099  -3.002  0.00  0.00    -0.076 A 
ATOM      2  C3  UNL d   1       6.000   4.240  -3.371  0.00  0.00     0.004 A 
ATOM      3  C4  UNL d   1       5.870   3.373  -4.454  0.00  0.00    -0.003 A 
ATOM      4  C5  UNL d   1       4.688   3.351  -5.187  0.00  0.00     0.000 A 
ATOM      5  C6  UNL d   1       3.643   4.209  -4.846  0.00  0.00     0.000 A 
ATOM      6  C7  UNL d   1       3.764   5.101  -3.766  0.00  0.00    -0.073 A 
ATOM      7  C8  UNL d   1       2.603   5.999  -3.439  0.00  0.00     0.078 C 
ENDROOT
BRANCH   1   8
ATOM      8  C1  UNL d   1       5.139   5.999  -1.801  0.00  0.00     0.053 C 
ATOM      9  C   UNL d   1       4.738   5.323  -0.499  0.00  0.00     0.018 C 
ENDBRANCH   1   8
TORSDOF 1
ENDMDL
