MODEL 1
REMARK minimizedAffinity 7.6515193
REMARK minimizedRMSD -1
REMARK  1 active torsions:
REMARK  status: ('A' for Active; 'I' for Inactive)
REMARK    1  A    between atoms: C1_2  and  C2_3 
ROOT
ATOM      1  C2  UNL d   1       5.166   4.887  -3.080  0.00  0.00    -0.076 A 
ATOM      2  C3  UNL d   1       5.998   3.821  -3.465  0.00  0.00     0.004 A 
ATOM      3  C4  UNL d   1       5.499   2.757  -4.215  0.00  0.00    -0.003 A 
ATOM      4  C5  UNL d   1       4.161   2.743  -4.594  0.00  0.00     0.000 A 
ATOM      5  C6  UNL d   1       3.326   3.801  -4.236  0.00  0.00     0.000 A 
ATOM      6  C7  UNL d   1       3.817   4.889  -3.493  0.00  0.00    -0.073 A 
ATOM      7  C8  UNL d   1       2.870   6.000  -3.129  0.00  0.00     0.078 C 
ENDROOT
BRANCH   1   8
ATOM      8  C1  UNL d   1       5.756   6.000  -2.243  0.00  0.00     0.053 C 
ATOM      9  C   UNL d   1       5.996   5.580  -0.801  0.00  0.00     0.018 C 
ENDBRANCH   1   8
TORSDOF 1
ENDMDL
