MODEL 1
REMARK minimizedAffinity 10.6351395
REMARK minimizedRMSD -1
REMARK  1 active torsions:
REMARK  status: ('A' for Active; 'I' for Inactive)
REMARK    1  A    between atoms: C1_2  and  C2_3 
ROOT
ATOM      1  C2  UNL d   1       4.960   5.024  -2.818  0.00  0.00    -0.076 A 
ATOM      2  C3  UNL d   1       5.997   4.097  -3.019  0.00  0.00     0.004 A 
ATOM      3  C4  UNL d   1       5.939   3.169  -4.057  0.00  0.00    -0.003 A 
ATOM      4  C5  UNL d   1       4.843   3.154  -4.913  0.00  0.00     0.000 A 
ATOM      5  C6  UNL d   1       3.813   4.078  -4.739  0.00  0.00     0.000 A 
ATOM      6  C7  UNL d   1       3.864   5.031  -3.707  0.00  0.00    -0.073 A 
ATOM      7  C8  UNL d   1       2.723   6.000  -3.562  0.00  0.00     0.078 C 
ENDROOT
BRANCH   1   8
ATOM      8  C1  UNL d   1       5.065   5.989  -1.658  0.00  0.00     0.053 C 
ATOM      9  C   UNL d   1       5.999   5.488  -0.567  0.00  0.00     0.018 C 
ENDBRANCH   1   8
TORSDOF 1
ENDMDL
