MODEL 1
REMARK minimizedAffinity 22.2129478
REMARK minimizedRMSD -1
REMARK  1 active torsions:
REMARK  status: ('A' for Active; 'I' for Inactive)
REMARK    1  A    between atoms: C1_2  and  C2_3 
ROOT
ATOM      1  C2  UNL d   1      -0.357   3.779   0.977  0.00  0.00    -0.076 A 
ATOM      2  C3  UNL d   1       1.042   3.789   0.836  0.00  0.00     0.004 A 
ATOM      3  C4  UNL d   1       1.796   4.890   1.238  0.00  0.00    -0.003 A 
ATOM      4  C5  UNL d   1       1.163   5.999   1.788  0.00  0.00     0.000 A 
ATOM      5  C6  UNL d   1      -0.222   5.999   1.952  0.00  0.00     0.000 A 
ATOM      6  C7  UNL d   1      -0.995   4.891   1.567  0.00  0.00    -0.073 A 
ATOM      7  C8  UNL d   1      -2.485   4.947   1.762  0.00  0.00     0.078 C 
ENDROOT
BRANCH   1   8
ATOM      8  C1  UNL d   1      -1.124   2.567   0.499  0.00  0.00     0.053 C 
ATOM      9  C   UNL d   1      -2.574   2.578   0.956  0.00  0.00     0.018 C 
ENDBRANCH   1   8
TORSDOF 1
ENDMDL
