MODEL 1
REMARK minimizedAffinity 9.72102928
REMARK minimizedRMSD -1
REMARK  1 active torsions:
REMARK  status: ('A' for Active; 'I' for Inactive)
REMARK    1  A    between atoms: C1_2  and  C2_3 
ROOT
ATOM      1  C2  UNL d   1       4.584   3.842  -4.058  0.00  0.00    -0.076 A 
ATOM      2  C3  UNL d   1       3.416   3.228  -3.572  0.00  0.00     0.004 A 
ATOM      3  C4  UNL d   1       2.313   3.989  -3.188  0.00  0.00    -0.003 A 
ATOM      4  C5  UNL d   1       2.359   5.375  -3.286  0.00  0.00     0.000 A 
ATOM      5  C6  UNL d   1       3.502   5.999  -3.782  0.00  0.00     0.000 A 
ATOM      6  C7  UNL d   1       4.618   5.246  -4.189  0.00  0.00    -0.073 A 
ATOM      7  C8  UNL d   1       5.827   5.972  -4.712  0.00  0.00     0.078 C 
ENDROOT
BRANCH   1   8
ATOM      8  C1  UNL d   1       5.759   2.967  -4.433  0.00  0.00     0.053 C 
ATOM      9  C   UNL d   1       5.856   2.734  -5.933  0.00  0.00     0.018 C 
ENDBRANCH   1   8
TORSDOF 1
ENDMDL
