MODEL 1
REMARK minimizedAffinity 8.89645863
REMARK minimizedRMSD -1
REMARK  1 active torsions:
REMARK  status: ('A' for Active; 'I' for Inactive)
REMARK    1  A    between atoms: C1_2  and  C2_3 
ROOT
ATOM      1  C2  UNL d   1       5.025   4.771  -4.121  0.00  0.00    -0.076 A 
ATOM      2  C3  UNL d   1       5.998   4.462  -3.155  0.00  0.00     0.004 A 
ATOM      3  C4  UNL d   1       5.879   4.922  -1.845  0.00  0.00    -0.003 A 
ATOM      4  C5  UNL d   1       4.785   5.697  -1.479  0.00  0.00     0.000 A 
ATOM      5  C6  UNL d   1       3.800   5.998  -2.420  0.00  0.00     0.000 A 
ATOM      6  C7  UNL d   1       3.897   5.529  -3.741  0.00  0.00    -0.073 A 
ATOM      7  C8  UNL d   1       2.810   5.890  -4.716  0.00  0.00     0.078 C 
ENDROOT
BRANCH   1   8
ATOM      8  C1  UNL d   1       5.221   4.268  -5.534  0.00  0.00     0.053 C 
ATOM      9  C   UNL d   1       4.827   2.808  -5.692  0.00  0.00     0.018 C 
ENDBRANCH   1   8
TORSDOF 1
ENDMDL
