MODEL 1
REMARK minimizedAffinity 4.60356712
REMARK minimizedRMSD -1
REMARK  1 active torsions:
REMARK  status: ('A' for Active; 'I' for Inactive)
REMARK    1  A    between atoms: C1_2  and  C2_3 
ROOT
ATOM      1  C2  UNL d   1       4.834   4.859  -3.387  0.00  0.00    -0.076 A 
ATOM      2  C3  UNL d   1       5.486   5.994  -3.901  0.00  0.00     0.004 A 
ATOM      3  C4  UNL d   1       6.000   6.000  -5.197  0.00  0.00    -0.003 A 
ATOM      4  C5  UNL d   1       5.869   4.872  -6.000  0.00  0.00     0.000 A 
ATOM      5  C6  UNL d   1       5.209   3.744  -5.512  0.00  0.00     0.000 A 
ATOM      6  C7  UNL d   1       4.671   3.727  -4.214  0.00  0.00    -0.073 A 
ATOM      7  C8  UNL d   1       3.975   2.482  -3.737  0.00  0.00     0.078 C 
ENDROOT
BRANCH   1   8
ATOM      8  C1  UNL d   1       4.322   4.901  -1.965  0.00  0.00     0.053 C 
ATOM      9  C   UNL d   1       5.257   5.653  -1.030  0.00  0.00     0.018 C 
ENDBRANCH   1   8
TORSDOF 1
ENDMDL
