MODEL 1
REMARK minimizedAffinity 8.5386734
REMARK minimizedRMSD -1
REMARK  1 active torsions:
REMARK  status: ('A' for Active; 'I' for Inactive)
REMARK    1  A    between atoms: C1_2  and  C2_3 
ROOT
ATOM      1  C2  UNL d   1       4.591  -2.863   4.768  0.00  0.00    -0.076 A 
ATOM      2  C3  UNL d   1       4.626  -3.697   3.637  0.00  0.00     0.004 A 
ATOM      3  C4  UNL d   1       3.713  -3.534   2.597  0.00  0.00    -0.003 A 
ATOM      4  C5  UNL d   1       2.751  -2.533   2.670  0.00  0.00     0.000 A 
ATOM      5  C6  UNL d   1       2.713  -1.685   3.776  0.00  0.00     0.000 A 
ATOM      6  C7  UNL d   1       3.636  -1.826   4.827  0.00  0.00    -0.073 A 
ATOM      7  C8  UNL d   1       3.545  -0.887   5.999  0.00  0.00     0.078 C 
ENDROOT
BRANCH   1   8
ATOM      8  C1  UNL d   1       5.590  -3.105   5.878  0.00  0.00     0.053 C 
ATOM      9  C   UNL d   1       5.998  -4.566   5.986  0.00  0.00     0.018 C 
ENDBRANCH   1   8
TORSDOF 1
ENDMDL
