MODEL 1
REMARK minimizedAffinity 1.3261013
REMARK minimizedRMSD -1
REMARK  0 active torsions:
REMARK  status: ('A' for Active; 'I' for Inactive)
ROOT
ATOM      1  C   UNL d   1       1.500  -0.694   0.921  0.00  0.00    -0.002 A 
ATOM      2  C1  UNL d   1       0.674  -1.599   1.572  0.00  0.00     0.010 A 
ATOM      3  C2  UNL d   1      -0.627  -1.827   1.118  0.00  0.00     0.041 A 
ATOM      4  C3  UNL d   1      -1.087  -1.125  -0.014  0.00  0.00    -0.075 A 
ATOM      5  S   UNL d   1      -2.641  -1.243  -0.750  0.00  0.00     0.015 SA
ATOM      6  C4  UNL d   1      -2.244  -0.097  -1.947  0.00  0.00     0.022 A 
ATOM      7  C5  UNL d   1      -0.961   0.375  -1.803  0.00  0.00     0.026 A 
ATOM      8  C6  UNL d   1      -0.272  -0.210  -0.687  0.00  0.00    -0.082 A 
ATOM      9  C7  UNL d   1       1.041  -0.000  -0.202  0.00  0.00     0.045 A 
ENDROOT
TORSDOF 0
ENDMDL
