MODEL 1
REMARK minimizedAffinity 1.55753887
REMARK minimizedRMSD -1
REMARK  0 active torsions:
REMARK  status: ('A' for Active; 'I' for Inactive)
ROOT
ATOM      1  C   UNL d   1       1.238  -0.039   2.329  0.00  0.00    -0.002 A 
ATOM      2  C1  UNL d   1       0.712  -1.319   2.431  0.00  0.00     0.010 A 
ATOM      3  C2  UNL d   1      -0.193  -1.793   1.480  0.00  0.00     0.041 A 
ATOM      4  C3  UNL d   1      -0.563  -0.951   0.412  0.00  0.00    -0.075 A 
ATOM      5  S   UNL d   1      -1.655  -1.318  -0.871  0.00  0.00     0.015 SA
ATOM      6  C4  UNL d   1      -1.448   0.216  -1.585  0.00  0.00     0.022 A 
ATOM      7  C5  UNL d   1      -0.571   1.001  -0.875  0.00  0.00     0.026 A 
ATOM      8  C6  UNL d   1      -0.046   0.342   0.287  0.00  0.00    -0.082 A 
ATOM      9  C7  UNL d   1       0.869   0.793   1.269  0.00  0.00     0.045 A 
ENDROOT
TORSDOF 0
ENDMDL
