MODEL 1
REMARK minimizedAffinity -0.929831982
REMARK minimizedRMSD -1
REMARK  0 active torsions:
REMARK  status: ('A' for Active; 'I' for Inactive)
ROOT
ATOM      1  C   UNL d   1      -2.728  -1.102  -1.903  0.00  0.00    -0.002 A 
ATOM      2  C1  UNL d   1      -1.945  -0.110  -2.474  0.00  0.00     0.010 A 
ATOM      3  C2  UNL d   1      -0.733   0.263  -1.888  0.00  0.00     0.041 A 
ATOM      4  C3  UNL d   1      -0.318  -0.386  -0.709  0.00  0.00    -0.075 A 
ATOM      5  S   UNL d   1       1.129  -0.096   0.183  0.00  0.00     0.015 SA
ATOM      6  C4  UNL d   1       0.741  -1.283   1.342  0.00  0.00     0.022 A 
ATOM      7  C5  UNL d   1      -0.460  -1.896   1.071  0.00  0.00     0.026 A 
ATOM      8  C6  UNL d   1      -1.089  -1.389  -0.116  0.00  0.00    -0.082 A 
ATOM      9  C7  UNL d   1      -2.313  -1.744  -0.733  0.00  0.00     0.045 A 
ENDROOT
TORSDOF 0
ENDMDL
