MODEL 1
REMARK minimizedAffinity 1.32478678
REMARK minimizedRMSD -1
REMARK  0 active torsions:
REMARK  status: ('A' for Active; 'I' for Inactive)
ROOT
ATOM      1  C   UNL d   1       1.589   0.605  -0.883  0.00  0.00    -0.002 A 
ATOM      2  C1  UNL d   1       1.608  -0.024   0.354  0.00  0.00     0.010 A 
ATOM      3  C2  UNL d   1       0.530  -0.808   0.768  0.00  0.00     0.041 A 
ATOM      4  C3  UNL d   1      -0.577  -0.954  -0.091  0.00  0.00    -0.075 A 
ATOM      5  S   UNL d   1      -2.009  -1.867   0.204  0.00  0.00     0.015 SA
ATOM      6  C4  UNL d   1      -2.679  -1.445  -1.305  0.00  0.00     0.022 A 
ATOM      7  C5  UNL d   1      -1.844  -0.627  -2.029  0.00  0.00     0.026 A 
ATOM      8  C6  UNL d   1      -0.619  -0.331  -1.342  0.00  0.00    -0.082 A 
ATOM      9  C7  UNL d   1       0.489   0.459  -1.732  0.00  0.00     0.045 A 
ENDROOT
TORSDOF 0
ENDMDL
