MODEL 1
REMARK minimizedAffinity 0.648996234
REMARK minimizedRMSD -1
REMARK  0 active torsions:
REMARK  status: ('A' for Active; 'I' for Inactive)
ROOT
ATOM      1  C   UNL d   1      -1.885  -0.005  -2.040  0.00  0.00    -0.002 A 
ATOM      2  C1  UNL d   1      -2.336  -0.960  -1.140  0.00  0.00     0.010 A 
ATOM      3  C2  UNL d   1      -1.549  -1.337  -0.050  0.00  0.00     0.041 A 
ATOM      4  C3  UNL d   1      -0.289  -0.731   0.123  0.00  0.00    -0.075 A 
ATOM      5  S   UNL d   1       0.847  -1.035   1.384  0.00  0.00     0.015 SA
ATOM      6  C4  UNL d   1       1.957   0.096   0.758  0.00  0.00     0.022 A 
ATOM      7  C5  UNL d   1       1.490   0.700  -0.385  0.00  0.00     0.026 A 
ATOM      8  C6  UNL d   1       0.187   0.233  -0.770  0.00  0.00    -0.082 A 
ATOM      9  C7  UNL d   1      -0.634   0.593  -1.866  0.00  0.00     0.045 A 
ENDROOT
TORSDOF 0
ENDMDL
