MODEL 1
REMARK minimizedAffinity 3.18121409
REMARK minimizedRMSD -1
REMARK  0 active torsions:
REMARK  status: ('A' for Active; 'I' for Inactive)
ROOT
ATOM      1  C   UNL d   1      -2.984  -2.306  -1.274  0.00  0.00    -0.002 A 
ATOM      2  C1  UNL d   1      -2.592  -3.290  -0.377  0.00  0.00     0.010 A 
ATOM      3  C2  UNL d   1      -1.467  -3.107   0.431  0.00  0.00     0.041 A 
ATOM      4  C3  UNL d   1      -0.738  -1.907   0.322  0.00  0.00    -0.075 A 
ATOM      5  S   UNL d   1       0.672  -1.464   1.210  0.00  0.00     0.015 SA
ATOM      6  C4  UNL d   1       0.786   0.042   0.420  0.00  0.00     0.022 A 
ATOM      7  C5  UNL d   1      -0.218   0.219  -0.502  0.00  0.00     0.026 A 
ATOM      8  C6  UNL d   1      -1.113  -0.901  -0.573  0.00  0.00    -0.082 A 
ATOM      9  C7  UNL d   1      -2.258  -1.117  -1.379  0.00  0.00     0.045 A 
ENDROOT
TORSDOF 0
ENDMDL
