MODEL 1
REMARK minimizedAffinity -5.15047598
REMARK minimizedRMSD -1
REMARK  0 active torsions:
REMARK  status: ('A' for Active; 'I' for Inactive)
ROOT
ATOM      1  C   UNL d   1      -2.393  -1.446  -1.077  0.00  0.00    -0.002 A 
ATOM      2  C1  UNL d   1      -2.414  -2.459  -0.129  0.00  0.00     0.010 A 
ATOM      3  C2  UNL d   1      -1.357  -2.612   0.771  0.00  0.00     0.041 A 
ATOM      4  C3  UNL d   1      -0.270  -1.718   0.703  0.00  0.00    -0.075 A 
ATOM      5  S   UNL d   1       1.134  -1.712   1.703  0.00  0.00     0.015 SA
ATOM      6  C4  UNL d   1       1.794  -0.364   0.897  0.00  0.00     0.022 A 
ATOM      7  C5  UNL d   1       0.977   0.083  -0.114  0.00  0.00     0.026 A 
ATOM      8  C6  UNL d   1      -0.227  -0.689  -0.242  0.00  0.00    -0.082 A 
ATOM      9  C7  UNL d   1      -1.313  -0.562  -1.141  0.00  0.00     0.045 A 
ENDROOT
TORSDOF 0
ENDMDL
