MODEL 1
REMARK minimizedAffinity -0.752690852
REMARK minimizedRMSD -1
REMARK  0 active torsions:
REMARK  status: ('A' for Active; 'I' for Inactive)
ROOT
ATOM      1  C   UNL d   1       0.683   1.377  -0.865  0.00  0.00    -0.002 A 
ATOM      2  C1  UNL d   1       1.157   0.561   0.153  0.00  0.00     0.010 A 
ATOM      3  C2  UNL d   1       0.446  -0.576   0.540  0.00  0.00     0.041 A 
ATOM      4  C3  UNL d   1      -0.759  -0.885  -0.120  0.00  0.00    -0.075 A 
ATOM      5  S   UNL d   1      -1.797  -2.227   0.185  0.00  0.00     0.015 SA
ATOM      6  C4  UNL d   1      -2.894  -1.750  -1.030  0.00  0.00     0.022 A 
ATOM      7  C5  UNL d   1      -2.494  -0.597  -1.662  0.00  0.00     0.026 A 
ATOM      8  C6  UNL d   1      -1.257  -0.080  -1.149  0.00  0.00    -0.082 A 
ATOM      9  C7  UNL d   1      -0.514   1.068  -1.518  0.00  0.00     0.045 A 
ENDROOT
TORSDOF 0
ENDMDL
