MODEL 1
REMARK minimizedAffinity 3.82034421
REMARK minimizedRMSD -1
REMARK  0 active torsions:
REMARK  status: ('A' for Active; 'I' for Inactive)
ROOT
ATOM      1  C   UNL d   1      -2.401  -0.575  -1.527  0.00  0.00    -0.002 A 
ATOM      2  C1  UNL d   1      -1.674   0.339  -2.276  0.00  0.00     0.010 A 
ATOM      3  C2  UNL d   1      -0.396   0.732  -1.872  0.00  0.00     0.041 A 
ATOM      4  C3  UNL d   1       0.145   0.183  -0.693  0.00  0.00    -0.075 A 
ATOM      5  S   UNL d   1       1.690   0.515  -0.005  0.00  0.00     0.015 SA
ATOM      6  C4  UNL d   1       1.422  -0.550   1.299  0.00  0.00     0.022 A 
ATOM      7  C5  UNL d   1       0.188  -1.152   1.227  0.00  0.00     0.026 A 
ATOM      8  C6  UNL d   1      -0.568  -0.740   0.078  0.00  0.00    -0.082 A 
ATOM      9  C7  UNL d   1      -1.861  -1.117  -0.357  0.00  0.00     0.045 A 
ENDROOT
TORSDOF 0
ENDMDL
