MODEL 1
REMARK minimizedAffinity -4.89616156
REMARK minimizedRMSD -1
REMARK  0 active torsions:
REMARK  status: ('A' for Active; 'I' for Inactive)
ROOT
ATOM      1  C   UNL d   1      -1.984   2.152   1.334  0.00  0.00     0.020 A 
ATOM      2  C1  UNL d   1      -1.452   2.311   0.055  0.00  0.00     0.020 A 
ATOM      3  C2  UNL d   1      -0.697   1.286  -0.520  0.00  0.00     0.034 A 
ATOM      4  C3  UNL d   1      -0.473   0.098   0.184  0.00  0.00     0.017 A 
ATOM      5  C4  UNL d   1      -1.007  -0.061   1.468  0.00  0.00     0.017 A 
ATOM      6  C5  UNL d   1      -1.762   0.968   2.039  0.00  0.00     0.034 A 
ATOM      7 Cl   UNL d   1      -0.772  -1.499   2.398  0.00  0.00    -0.070 Cl
ATOM      8 Cl1  UNL d   1       0.469  -1.128  -0.588  0.00  0.00    -0.070 Cl
ENDROOT
TORSDOF 0
ENDMDL
