MODEL 1
REMARK minimizedAffinity -5.50244093
REMARK minimizedRMSD -1
REMARK  0 active torsions:
REMARK  status: ('A' for Active; 'I' for Inactive)
ROOT
ATOM      1  C   UNL d   1      -1.346   2.747   1.215  0.00  0.00     0.020 A 
ATOM      2  C1  UNL d   1      -0.778   2.840  -0.055  0.00  0.00     0.020 A 
ATOM      3  C2  UNL d   1      -0.269   1.699  -0.677  0.00  0.00     0.034 A 
ATOM      4  C3  UNL d   1      -0.326   0.459  -0.030  0.00  0.00     0.017 A 
ATOM      5  C4  UNL d   1      -0.897   0.366   1.244  0.00  0.00     0.017 A 
ATOM      6  C5  UNL d   1      -1.405   1.512   1.863  0.00  0.00     0.034 A 
ATOM      7 Cl   UNL d   1      -1.003  -1.128   2.106  0.00  0.00    -0.070 Cl
ATOM      8 Cl1  UNL d   1       0.323  -0.911  -0.860  0.00  0.00    -0.070 Cl
ENDROOT
TORSDOF 0
ENDMDL
