MODEL 1
REMARK minimizedAffinity -1.38462627
REMARK minimizedRMSD -1
REMARK  0 active torsions:
REMARK  status: ('A' for Active; 'I' for Inactive)
ROOT
ATOM      1  C   UNL d   1       0.810   0.567  -1.224  0.00  0.00     0.020 A 
ATOM      2  C1  UNL d   1       1.396  -0.660  -0.914  0.00  0.00     0.020 A 
ATOM      3  C2  UNL d   1       1.074  -1.305   0.282  0.00  0.00     0.034 A 
ATOM      4  C3  UNL d   1       0.164  -0.723   1.173  0.00  0.00     0.017 A 
ATOM      5  C4  UNL d   1      -0.423   0.508   0.860  0.00  0.00     0.017 A 
ATOM      6  C5  UNL d   1      -0.098   1.149  -0.339  0.00  0.00     0.034 A 
ATOM      7 Cl   UNL d   1      -1.555   1.288   1.909  0.00  0.00    -0.070 Cl
ATOM      8 Cl1  UNL d   1      -0.187  -1.576   2.633  0.00  0.00    -0.070 Cl
ENDROOT
TORSDOF 0
ENDMDL
