MODEL 1
REMARK minimizedAffinity -3.71325445
REMARK minimizedRMSD -1
REMARK  0 active torsions:
REMARK  status: ('A' for Active; 'I' for Inactive)
ROOT
ATOM      1  C   UNL d   1      -2.412   1.653   1.195  0.00  0.00     0.020 A 
ATOM      2  C1  UNL d   1      -2.083   2.058  -0.097  0.00  0.00     0.020 A 
ATOM      3  C2  UNL d   1      -0.927   1.569  -0.709  0.00  0.00     0.034 A 
ATOM      4  C3  UNL d   1      -0.096   0.672  -0.028  0.00  0.00     0.017 A 
ATOM      5  C4  UNL d   1      -0.427   0.266   1.270  0.00  0.00     0.017 A 
ATOM      6  C5  UNL d   1      -1.586   0.759   1.878  0.00  0.00     0.034 A 
ATOM      7 Cl   UNL d   1       0.548  -0.838   2.174  0.00  0.00    -0.070 Cl
ATOM      8 Cl1  UNL d   1       1.318   0.107  -0.845  0.00  0.00    -0.070 Cl
ENDROOT
TORSDOF 0
ENDMDL
