MODEL 1
REMARK minimizedAffinity -4.95877504
REMARK minimizedRMSD -1
REMARK  0 active torsions:
REMARK  status: ('A' for Active; 'I' for Inactive)
ROOT
ATOM      1  C   UNL d   1      -1.832   0.069   1.976  0.00  0.00     0.020 A 
ATOM      2  C1  UNL d   1      -2.267   1.348   1.630  0.00  0.00     0.020 A 
ATOM      3  C2  UNL d   1      -1.623   2.053   0.611  0.00  0.00     0.034 A 
ATOM      4  C3  UNL d   1      -0.540   1.479  -0.066  0.00  0.00     0.017 A 
ATOM      5  C4  UNL d   1      -0.104   0.195   0.282  0.00  0.00     0.017 A 
ATOM      6  C5  UNL d   1      -0.753  -0.506   1.303  0.00  0.00     0.034 A 
ATOM      7 Cl   UNL d   1       1.224  -0.578  -0.508  0.00  0.00    -0.070 Cl
ATOM      8 Cl1  UNL d   1       0.209   2.407  -1.316  0.00  0.00    -0.070 Cl
ENDROOT
TORSDOF 0
ENDMDL
