MODEL 1
REMARK minimizedAffinity -2.5659945
REMARK minimizedRMSD -1
REMARK  0 active torsions:
REMARK  status: ('A' for Active; 'I' for Inactive)
ROOT
ATOM      1  C   UNL d   1       0.297  -1.780   0.029  0.00  0.00     0.020 A 
ATOM      2  C1  UNL d   1       1.011  -1.343  -1.086  0.00  0.00     0.020 A 
ATOM      3  C2  UNL d   1       0.949  -0.003  -1.473  0.00  0.00     0.034 A 
ATOM      4  C3  UNL d   1       0.171   0.905  -0.746  0.00  0.00     0.017 A 
ATOM      5  C4  UNL d   1      -0.546   0.466   0.373  0.00  0.00     0.017 A 
ATOM      6  C5  UNL d   1      -0.480  -0.877   0.757  0.00  0.00     0.034 A 
ATOM      7 Cl   UNL d   1      -1.527   1.527   1.321  0.00  0.00    -0.070 Cl
ATOM      8 Cl1  UNL d   1       0.141   2.548  -1.281  0.00  0.00    -0.070 Cl
ENDROOT
TORSDOF 0
ENDMDL
