MODEL 1
REMARK minimizedAffinity -3.74227715
REMARK minimizedRMSD -1
REMARK  0 active torsions:
REMARK  status: ('A' for Active; 'I' for Inactive)
ROOT
ATOM      1  C   UNL d   1       0.007  -0.852   1.321  0.00  0.00     0.020 A 
ATOM      2  C1  UNL d   1       0.669  -0.835   0.095  0.00  0.00     0.020 A 
ATOM      3  C2  UNL d   1       0.498   0.244  -0.775  0.00  0.00     0.034 A 
ATOM      4  C3  UNL d   1      -0.337   1.310  -0.420  0.00  0.00     0.017 A 
ATOM      5  C4  UNL d   1      -1.001   1.292   0.812  0.00  0.00     0.017 A 
ATOM      6  C5  UNL d   1      -0.826   0.209   1.679  0.00  0.00     0.034 A 
ATOM      7 Cl   UNL d   1      -2.047   2.570   1.320  0.00  0.00    -0.070 Cl
ATOM      8 Cl1  UNL d   1      -0.501   2.612  -1.544  0.00  0.00    -0.070 Cl
ENDROOT
TORSDOF 0
ENDMDL
