MODEL 1
REMARK minimizedAffinity -1.98629546
REMARK minimizedRMSD -1
REMARK  0 active torsions:
REMARK  status: ('A' for Active; 'I' for Inactive)
ROOT
ATOM      1  C   UNL d   1       0.488   0.558  -1.371  0.00  0.00     0.020 A 
ATOM      2  C1  UNL d   1       1.176  -0.407  -0.636  0.00  0.00     0.020 A 
ATOM      3  C2  UNL d   1       0.759  -0.729   0.657  0.00  0.00     0.034 A 
ATOM      4  C3  UNL d   1      -0.350  -0.087   1.219  0.00  0.00     0.017 A 
ATOM      5  C4  UNL d   1      -1.040   0.882   0.481  0.00  0.00     0.017 A 
ATOM      6  C5  UNL d   1      -0.618   1.201  -0.813  0.00  0.00     0.034 A 
ATOM      7 Cl   UNL d   1      -2.417   1.718   1.108  0.00  0.00    -0.070 Cl
ATOM      8 Cl1  UNL d   1      -0.811  -0.536   2.823  0.00  0.00    -0.070 Cl
ENDROOT
TORSDOF 0
ENDMDL
