MODEL 1
REMARK minimizedAffinity -4.31891441
REMARK minimizedRMSD -1
REMARK  0 active torsions:
REMARK  status: ('A' for Active; 'I' for Inactive)
ROOT
ATOM      1  C   UNL d   1       0.958  -0.780  -0.053  0.00  0.00     0.020 A 
ATOM      2  C1  UNL d   1       0.310  -0.840   1.180  0.00  0.00     0.020 A 
ATOM      3  C2  UNL d   1      -0.675   0.098   1.498  0.00  0.00     0.034 A 
ATOM      4  C3  UNL d   1      -1.015   1.099   0.581  0.00  0.00     0.017 A 
ATOM      5  C4  UNL d   1      -0.365   1.159  -0.657  0.00  0.00     0.017 A 
ATOM      6  C5  UNL d   1       0.621   0.217  -0.969  0.00  0.00     0.034 A 
ATOM      7 Cl   UNL d   1      -0.731   2.365  -1.839  0.00  0.00    -0.070 Cl
ATOM      8 Cl1  UNL d   1      -2.243   2.225   1.040  0.00  0.00    -0.070 Cl
ENDROOT
TORSDOF 0
ENDMDL
