MODEL 1
REMARK minimizedAffinity -2.83361554
REMARK minimizedRMSD -1
REMARK  0 active torsions:
REMARK  status: ('A' for Active; 'I' for Inactive)
ROOT
ATOM      1  C   UNL d   1       0.773  -0.903  -0.321  0.00  0.00     0.020 A 
ATOM      2  C1  UNL d   1       0.079  -1.083   0.874  0.00  0.00     0.020 A 
ATOM      3  C2  UNL d   1      -0.807  -0.101   1.322  0.00  0.00     0.034 A 
ATOM      4  C3  UNL d   1      -1.001   1.066   0.574  0.00  0.00     0.017 A 
ATOM      5  C4  UNL d   1      -0.304   1.246  -0.627  0.00  0.00     0.017 A 
ATOM      6  C5  UNL d   1       0.582   0.259  -1.070  0.00  0.00     0.034 A 
ATOM      7 Cl   UNL d   1      -0.491   2.658  -1.605  0.00  0.00    -0.070 Cl
ATOM      8 Cl1  UNL d   1      -2.112   2.239   1.187  0.00  0.00    -0.070 Cl
ENDROOT
TORSDOF 0
ENDMDL
