MODEL 1
REMARK minimizedAffinity -3.91735482
REMARK minimizedRMSD -1
REMARK  0 active torsions:
REMARK  status: ('A' for Active; 'I' for Inactive)
ROOT
ATOM      1  C   UNL d   1       0.320   1.248  -1.483  0.00  0.00     0.020 A 
ATOM      2  C1  UNL d   1       0.940   0.032  -1.197  0.00  0.00     0.020 A 
ATOM      3  C2  UNL d   1       0.663  -0.628   0.002  0.00  0.00     0.034 A 
ATOM      4  C3  UNL d   1      -0.236  -0.073   0.920  0.00  0.00     0.017 A 
ATOM      5  C4  UNL d   1      -0.858   1.148   0.632  0.00  0.00     0.017 A 
ATOM      6  C5  UNL d   1      -0.577   1.804  -0.571  0.00  0.00     0.034 A 
ATOM      7 Cl   UNL d   1      -1.979   1.896   1.714  0.00  0.00    -0.070 Cl
ATOM      8 Cl1  UNL d   1      -0.532  -0.943   2.382  0.00  0.00    -0.070 Cl
ENDROOT
TORSDOF 0
ENDMDL
