MODEL 1
REMARK minimizedAffinity -5.73675919
REMARK minimizedRMSD -1
REMARK  0 active torsions:
REMARK  status: ('A' for Active; 'I' for Inactive)
ROOT
ATOM      1  C   UNL d   1      -1.499   2.599   1.336  0.00  0.00     0.020 A 
ATOM      2  C1  UNL d   1      -1.208   2.792  -0.014  0.00  0.00     0.020 A 
ATOM      3  C2  UNL d   1      -0.566   1.788  -0.741  0.00  0.00     0.034 A 
ATOM      4  C3  UNL d   1      -0.211   0.585  -0.118  0.00  0.00     0.017 A 
ATOM      5  C4  UNL d   1      -0.503   0.393   1.237  0.00  0.00     0.017 A 
ATOM      6  C5  UNL d   1      -1.147   1.402   1.960  0.00  0.00     0.034 A 
ATOM      7 Cl   UNL d   1      -0.097  -1.064   2.075  0.00  0.00    -0.070 Cl
ATOM      8 Cl1  UNL d   1       0.581  -0.614  -1.077  0.00  0.00    -0.070 Cl
ENDROOT
TORSDOF 0
ENDMDL
