MODEL 1
REMARK minimizedAffinity -2.44087267
REMARK minimizedRMSD -1
REMARK  0 active torsions:
REMARK  status: ('A' for Active; 'I' for Inactive)
ROOT
ATOM      1  C   UNL d   1       0.779   0.081   1.848  0.00  0.00     0.020 A 
ATOM      2  C1  UNL d   1      -0.270   0.666   2.556  0.00  0.00     0.020 A 
ATOM      3  C2  UNL d   1      -1.409   1.109   1.880  0.00  0.00     0.034 A 
ATOM      4  C3  UNL d   1      -1.501   0.968   0.490  0.00  0.00     0.017 A 
ATOM      5  C4  UNL d   1      -0.448   0.380  -0.220  0.00  0.00     0.017 A 
ATOM      6  C5  UNL d   1       0.690  -0.061   0.463  0.00  0.00     0.034 A 
ATOM      7 Cl   UNL d   1      -0.489   0.171  -1.935  0.00  0.00    -0.070 Cl
ATOM      8 Cl1  UNL d   1      -2.938   1.537  -0.281  0.00  0.00    -0.070 Cl
ENDROOT
TORSDOF 0
ENDMDL
