MODEL 1
REMARK minimizedAffinity -5.70858097
REMARK minimizedRMSD -1
REMARK  0 active torsions:
REMARK  status: ('A' for Active; 'I' for Inactive)
ROOT
ATOM      1  C   UNL d   1      -1.083   3.162   0.953  0.00  0.00     0.020 A 
ATOM      2  C1  UNL d   1      -0.307   3.210  -0.205  0.00  0.00     0.020 A 
ATOM      3  C2  UNL d   1       0.322   2.055  -0.672  0.00  0.00     0.034 A 
ATOM      4  C3  UNL d   1       0.178   0.846   0.019  0.00  0.00     0.017 A 
ATOM      5  C4  UNL d   1      -0.600   0.799   1.181  0.00  0.00     0.017 A 
ATOM      6  C5  UNL d   1      -1.229   1.959   1.644  0.00  0.00     0.034 A 
ATOM      7 Cl   UNL d   1      -0.825  -0.656   2.087  0.00  0.00    -0.070 Cl
ATOM      8 Cl1  UNL d   1       0.985  -0.543  -0.617  0.00  0.00    -0.070 Cl
ENDROOT
TORSDOF 0
ENDMDL
