MODEL 1
REMARK minimizedAffinity -5.99716806
REMARK minimizedRMSD -1
REMARK  0 active torsions:
REMARK  status: ('A' for Active; 'I' for Inactive)
ROOT
ATOM      1  C   UNL d   1      -0.699   3.097  -0.414  0.00  0.00     0.020 A 
ATOM      2  C1  UNL d   1      -1.346   3.007   0.818  0.00  0.00     0.020 A 
ATOM      3  C2  UNL d   1      -1.322   1.808   1.533  0.00  0.00     0.034 A 
ATOM      4  C3  UNL d   1      -0.649   0.694   1.016  0.00  0.00     0.017 A 
ATOM      5  C4  UNL d   1      -0.000   0.786  -0.220  0.00  0.00     0.017 A 
ATOM      6  C5  UNL d   1      -0.028   1.989  -0.932  0.00  0.00     0.034 A 
ATOM      7 Cl   UNL d   1       0.850  -0.545  -0.922  0.00  0.00    -0.070 Cl
ATOM      8 Cl1  UNL d   1      -0.659  -0.757   1.955  0.00  0.00    -0.070 Cl
ENDROOT
TORSDOF 0
ENDMDL
