MODEL 1
REMARK minimizedAffinity -3.89406681
REMARK minimizedRMSD -1
REMARK  0 active torsions:
REMARK  status: ('A' for Active; 'I' for Inactive)
ROOT
ATOM      1  C   UNL d   1      -2.301   1.287   1.620  0.00  0.00     0.020 A 
ATOM      2  C1  UNL d   1      -1.910  -0.005   1.966  0.00  0.00     0.020 A 
ATOM      3  C2  UNL d   1      -0.846  -0.616   1.298  0.00  0.00     0.034 A 
ATOM      4  C3  UNL d   1      -0.171   0.066   0.280  0.00  0.00     0.017 A 
ATOM      5  C4  UNL d   1      -0.565   1.363  -0.068  0.00  0.00     0.017 A 
ATOM      6  C5  UNL d   1      -1.630   1.970   0.605  0.00  0.00     0.034 A 
ATOM      7 Cl   UNL d   1       0.221   2.268  -1.314  0.00  0.00    -0.070 Cl
ATOM      8 Cl1  UNL d   1       1.135  -0.750  -0.504  0.00  0.00    -0.070 Cl
ENDROOT
TORSDOF 0
ENDMDL
