MODEL 1
REMARK minimizedAffinity -4.5025878
REMARK minimizedRMSD -1
REMARK  0 active torsions:
REMARK  status: ('A' for Active; 'I' for Inactive)
ROOT
ATOM      1  C   UNL d   1       1.066  -0.878   0.074  0.00  0.00     0.020 A 
ATOM      2  C1  UNL d   1       0.317  -1.087   1.231  0.00  0.00     0.020 A 
ATOM      3  C2  UNL d   1      -0.650  -0.155   1.615  0.00  0.00     0.034 A 
ATOM      4  C3  UNL d   1      -0.871   0.990   0.840  0.00  0.00     0.017 A 
ATOM      5  C4  UNL d   1      -0.118   1.198  -0.321  0.00  0.00     0.017 A 
ATOM      6  C5  UNL d   1       0.848   0.262  -0.701  0.00  0.00     0.034 A 
ATOM      7 Cl   UNL d   1      -0.333   2.586  -1.328  0.00  0.00    -0.070 Cl
ATOM      8 Cl1  UNL d   1      -2.083   2.100   1.374  0.00  0.00    -0.070 Cl
ENDROOT
TORSDOF 0
ENDMDL
