MODEL 1
REMARK minimizedAffinity -2.6758275
REMARK minimizedRMSD -1
REMARK  0 active torsions:
REMARK  status: ('A' for Active; 'I' for Inactive)
ROOT
ATOM      1  C   UNL d   1      -1.548   2.094   1.846  0.00  0.00     0.020 A 
ATOM      2  C1  UNL d   1      -1.348   2.303   0.482  0.00  0.00     0.020 A 
ATOM      3  C2  UNL d   1      -0.608   1.384  -0.264  0.00  0.00     0.034 A 
ATOM      4  C3  UNL d   1      -0.064   0.252   0.353  0.00  0.00     0.017 A 
ATOM      5  C4  UNL d   1      -0.265   0.043   1.722  0.00  0.00     0.017 A 
ATOM      6  C5  UNL d   1      -1.007   0.966   2.465  0.00  0.00     0.034 A 
ATOM      7 Cl   UNL d   1       0.375  -1.331   2.554  0.00  0.00    -0.070 Cl
ATOM      8 Cl1  UNL d   1       0.841  -0.843  -0.631  0.00  0.00    -0.070 Cl
ENDROOT
TORSDOF 0
ENDMDL
