MODEL 1
REMARK minimizedAffinity -3.69978476
REMARK minimizedRMSD -1
REMARK  0 active torsions:
REMARK  status: ('A' for Active; 'I' for Inactive)
ROOT
ATOM      1  C   UNL d   1      -1.921   2.493   1.601  0.00  0.00     0.020 A 
ATOM      2  C1  UNL d   1      -1.976   2.675   0.219  0.00  0.00     0.020 A 
ATOM      3  C2  UNL d   1      -1.366   1.750  -0.631  0.00  0.00     0.034 A 
ATOM      4  C3  UNL d   1      -0.699   0.640  -0.101  0.00  0.00     0.017 A 
ATOM      5  C4  UNL d   1      -0.644   0.459   1.286  0.00  0.00     0.017 A 
ATOM      6  C5  UNL d   1      -1.257   1.388   2.133  0.00  0.00     0.034 A 
ATOM      7 Cl   UNL d   1       0.161  -0.886   2.014  0.00  0.00    -0.070 Cl
ATOM      8 Cl1  UNL d   1       0.033  -0.463  -1.211  0.00  0.00    -0.070 Cl
ENDROOT
TORSDOF 0
ENDMDL
