MODEL 1
REMARK minimizedAffinity -4.7150321
REMARK minimizedRMSD -1
REMARK  0 active torsions:
REMARK  status: ('A' for Active; 'I' for Inactive)
ROOT
ATOM      1  C   UNL d   1      -1.106   3.454   0.848  0.00  0.00     0.020 A 
ATOM      2  C1  UNL d   1      -0.541   3.307  -0.418  0.00  0.00     0.020 A 
ATOM      3  C2  UNL d   1      -0.157   2.042  -0.869  0.00  0.00     0.034 A 
ATOM      4  C3  UNL d   1      -0.337   0.919  -0.053  0.00  0.00     0.017 A 
ATOM      5  C4  UNL d   1      -0.905   1.068   1.217  0.00  0.00     0.017 A 
ATOM      6  C5  UNL d   1      -1.287   2.336   1.664  0.00  0.00     0.034 A 
ATOM      7 Cl   UNL d   1      -1.159  -0.271   2.281  0.00  0.00    -0.070 Cl
ATOM      8 Cl1  UNL d   1       0.160  -0.614  -0.675  0.00  0.00    -0.070 Cl
ENDROOT
TORSDOF 0
ENDMDL
