MODEL 1
REMARK minimizedAffinity -4.35683632
REMARK minimizedRMSD -1
REMARK  2 active torsions:
REMARK  status: ('A' for Active; 'I' for Inactive)
REMARK    1  A    between atoms: C1_2  and  C2_3 
REMARK    2  A    between atoms: C2_3  and  C3_4 
ROOT
ATOM      1  C3  UNL d   1       0.475   1.257   0.175  0.00  0.00    -0.075 A 
ATOM      2  C4  UNL d   1       1.594   1.080   1.001  0.00  0.00     0.002 A 
ATOM      3  C5  UNL d   1       2.233   2.180   1.574  0.00  0.00     0.002 A 
ATOM      4  C6  UNL d   1       1.769   3.468   1.322  0.00  0.00    -0.004 A 
ATOM      5  C7  UNL d   1       0.668   3.658   0.489  0.00  0.00     0.002 A 
ATOM      6  C8  UNL d   1       0.024   2.559  -0.082  0.00  0.00     0.002 A 
ENDROOT
BRANCH   1   7
ATOM      7  C2  UNL d   1      -0.239   0.070  -0.424  0.00  0.00     0.056 C 
BRANCH   7   8
ATOM      8  C1  UNL d   1      -1.105  -0.707   0.574  0.00  0.00     0.007 C 
ATOM      9  C   UNL d   1      -0.970  -2.218   0.437  0.00  0.00     0.009 C 
ENDBRANCH   7   8
ENDBRANCH   1   7
TORSDOF 2
ENDMDL
