MODEL 1
REMARK minimizedAffinity -4.69310999
REMARK minimizedRMSD -1
REMARK  2 active torsions:
REMARK  status: ('A' for Active; 'I' for Inactive)
REMARK    1  A    between atoms: C1_2  and  C2_3 
REMARK    2  A    between atoms: C2_3  and  C3_4 
ROOT
ATOM      1  C3  UNL d   1       0.516   1.528   0.234  0.00  0.00    -0.075 A 
ATOM      2  C4  UNL d   1       1.909   1.412   0.128  0.00  0.00     0.002 A 
ATOM      3  C5  UNL d   1       2.739   2.474   0.489  0.00  0.00     0.002 A 
ATOM      4  C6  UNL d   1       2.186   3.667   0.950  0.00  0.00    -0.004 A 
ATOM      5  C7  UNL d   1       0.803   3.800   1.044  0.00  0.00     0.002 A 
ATOM      6  C8  UNL d   1      -0.029   2.737   0.687  0.00  0.00     0.002 A 
ENDROOT
BRANCH   1   7
ATOM      7  C2  UNL d   1      -0.386   0.372  -0.128  0.00  0.00     0.056 C 
BRANCH   7   8
ATOM      8  C1  UNL d   1      -1.035  -0.313   1.079  0.00  0.00     0.007 C 
ATOM      9  C   UNL d   1      -1.260  -1.805   0.873  0.00  0.00     0.009 C 
ENDBRANCH   7   8
ENDBRANCH   1   7
TORSDOF 2
ENDMDL
