MODEL 1
REMARK minimizedAffinity -2.76538515
REMARK minimizedRMSD -1
REMARK  2 active torsions:
REMARK  status: ('A' for Active; 'I' for Inactive)
REMARK    1  A    between atoms: C1_2  and  C2_3 
REMARK    2  A    between atoms: C2_3  and  C3_4 
ROOT
ATOM      1  C3  UNL d   1      -0.202  -0.991   0.505  0.00  0.00    -0.075 A 
ATOM      2  C4  UNL d   1       0.871  -1.488  -0.250  0.00  0.00     0.002 A 
ATOM      3  C5  UNL d   1       0.928  -2.838  -0.595  0.00  0.00     0.002 A 
ATOM      4  C6  UNL d   1      -0.077  -3.710  -0.182  0.00  0.00    -0.004 A 
ATOM      5  C7  UNL d   1      -1.138  -3.230   0.583  0.00  0.00     0.002 A 
ATOM      6  C8  UNL d   1      -1.201  -1.879   0.926  0.00  0.00     0.002 A 
ENDROOT
BRANCH   1   7
ATOM      7  C2  UNL d   1      -0.285   0.475   0.857  0.00  0.00     0.056 C 
BRANCH   7   8
ATOM      8  C1  UNL d   1       0.238   1.410  -0.238  0.00  0.00     0.007 C 
ATOM      9  C   UNL d   1       1.030   2.590   0.308  0.00  0.00     0.009 C 
ENDBRANCH   7   8
ENDBRANCH   1   7
TORSDOF 2
ENDMDL
