MODEL 1
REMARK minimizedAffinity 1.14714265
REMARK minimizedRMSD -1
REMARK  2 active torsions:
REMARK  status: ('A' for Active; 'I' for Inactive)
REMARK    1  A    between atoms: C1_2  and  C2_3 
REMARK    2  A    between atoms: C2_3  and  C3_4 
ROOT
ATOM      1  C3  UNL d   1       5.303  -2.293  -0.843  0.00  0.00    -0.075 A 
ATOM      2  C4  UNL d   1       4.054  -1.744  -1.169  0.00  0.00     0.002 A 
ATOM      3  C5  UNL d   1       3.506  -1.935  -2.437  0.00  0.00     0.002 A 
ATOM      4  C6  UNL d   1       4.201  -2.667  -3.397  0.00  0.00    -0.004 A 
ATOM      5  C7  UNL d   1       5.450  -3.203  -3.090  0.00  0.00     0.002 A 
ATOM      6  C8  UNL d   1       5.999  -3.017  -1.820  0.00  0.00     0.002 A 
ENDROOT
BRANCH   1   7
ATOM      7  C2  UNL d   1       5.889  -2.114   0.537  0.00  0.00     0.056 C 
BRANCH   7   8
ATOM      8  C1  UNL d   1       6.000  -3.414   1.341  0.00  0.00     0.007 C 
ATOM      9  C   UNL d   1       5.802  -3.214   2.837  0.00  0.00     0.009 C 
ENDBRANCH   7   8
ENDBRANCH   1   7
TORSDOF 2
ENDMDL
