MODEL 1
REMARK minimizedAffinity -2.54081631
REMARK minimizedRMSD -1
REMARK  2 active torsions:
REMARK  status: ('A' for Active; 'I' for Inactive)
REMARK    1  A    between atoms: C1_2  and  C2_3 
REMARK    2  A    between atoms: C2_3  and  C3_4 
ROOT
ATOM      1  C3  UNL d   1      -0.175   0.294  -0.018  0.00  0.00    -0.075 A 
ATOM      2  C4  UNL d   1      -0.943  -0.262   1.015  0.00  0.00     0.002 A 
ATOM      3  C5  UNL d   1      -1.266  -1.619   1.006  0.00  0.00     0.002 A 
ATOM      4  C6  UNL d   1      -0.836  -2.433  -0.039  0.00  0.00    -0.004 A 
ATOM      5  C7  UNL d   1      -0.086  -1.888  -1.079  0.00  0.00     0.002 A 
ATOM      6  C8  UNL d   1       0.242  -0.532  -1.070  0.00  0.00     0.002 A 
ENDROOT
BRANCH   1   7
ATOM      7  C2  UNL d   1       0.203   1.756   0.001  0.00  0.00     0.056 C 
BRANCH   7   8
ATOM      8  C1  UNL d   1       1.713   2.009   0.068  0.00  0.00     0.007 C 
ATOM      9  C   UNL d   1       2.095   3.102   1.058  0.00  0.00     0.009 C 
ENDBRANCH   7   8
ENDBRANCH   1   7
TORSDOF 2
ENDMDL
