MODEL 1
REMARK minimizedAffinity -4.08719349
REMARK minimizedRMSD -1
REMARK  2 active torsions:
REMARK  status: ('A' for Active; 'I' for Inactive)
REMARK    1  A    between atoms: C1_2  and  C2_3 
REMARK    2  A    between atoms: C2_3  and  C3_4 
ROOT
ATOM      1  C3  UNL d   1       0.970   1.792   0.271  0.00  0.00    -0.075 A 
ATOM      2  C4  UNL d   1       0.553   3.130   0.210  0.00  0.00     0.002 A 
ATOM      3  C5  UNL d   1       1.362   4.147   0.716  0.00  0.00     0.002 A 
ATOM      4  C6  UNL d   1       2.590   3.841   1.299  0.00  0.00    -0.004 A 
ATOM      5  C7  UNL d   1       3.006   2.514   1.381  0.00  0.00     0.002 A 
ATOM      6  C8  UNL d   1       2.201   1.494   0.871  0.00  0.00     0.002 A 
ENDROOT
BRANCH   1   7
ATOM      7  C2  UNL d   1       0.112   0.689  -0.302  0.00  0.00     0.056 C 
BRANCH   7   8
ATOM      8  C1  UNL d   1      -0.677  -0.098   0.750  0.00  0.00     0.007 C 
ATOM      9  C   UNL d   1      -0.826  -1.574   0.408  0.00  0.00     0.009 C 
ENDBRANCH   7   8
ENDBRANCH   1   7
TORSDOF 2
ENDMDL
