MODEL 1
REMARK minimizedAffinity -4.84008026
REMARK minimizedRMSD -1
REMARK  2 active torsions:
REMARK  status: ('A' for Active; 'I' for Inactive)
REMARK    1  A    between atoms: C1_2  and  C2_3 
REMARK    2  A    between atoms: C2_3  and  C3_4 
ROOT
ATOM      1  C3  UNL d   1      -0.235  -0.107  -0.085  0.00  0.00    -0.075 A 
ATOM      2  C4  UNL d   1       0.060  -0.891  -1.209  0.00  0.00     0.002 A 
ATOM      3  C5  UNL d   1      -0.185  -2.265  -1.199  0.00  0.00     0.002 A 
ATOM      4  C6  UNL d   1      -0.717  -2.872  -0.064  0.00  0.00    -0.004 A 
ATOM      5  C7  UNL d   1      -0.999  -2.105   1.065  0.00  0.00     0.002 A 
ATOM      6  C8  UNL d   1      -0.759  -0.730   1.056  0.00  0.00     0.002 A 
ENDROOT
BRANCH   1   7
ATOM      7  C2  UNL d   1      -0.000   1.385  -0.100  0.00  0.00     0.056 C 
BRANCH   7   8
ATOM      8  C1  UNL d   1       1.466   1.787   0.096  0.00  0.00     0.007 C 
ATOM      9  C   UNL d   1       1.632   3.106   0.839  0.00  0.00     0.009 C 
ENDBRANCH   7   8
ENDBRANCH   1   7
TORSDOF 2
ENDMDL
