MODEL 1
REMARK minimizedAffinity -3.66404033
REMARK minimizedRMSD -1
REMARK  2 active torsions:
REMARK  status: ('A' for Active; 'I' for Inactive)
REMARK    1  A    between atoms: C1_2  and  C2_3 
REMARK    2  A    between atoms: C2_3  and  C3_4 
ROOT
ATOM      1  C3  UNL d   1      -0.274   0.345  -0.033  0.00  0.00    -0.075 A 
ATOM      2  C4  UNL d   1      -0.790  -0.425   1.019  0.00  0.00     0.002 A 
ATOM      3  C5  UNL d   1      -0.819  -1.817   0.931  0.00  0.00     0.002 A 
ATOM      4  C6  UNL d   1      -0.342  -2.455  -0.212  0.00  0.00    -0.004 A 
ATOM      5  C7  UNL d   1       0.158  -1.699  -1.270  0.00  0.00     0.002 A 
ATOM      6  C8  UNL d   1       0.192  -0.307  -1.183  0.00  0.00     0.002 A 
ENDROOT
BRANCH   1   7
ATOM      7  C2  UNL d   1      -0.213   1.851   0.069  0.00  0.00     0.056 C 
BRANCH   7   8
ATOM      8  C1  UNL d   1       1.211   2.416   0.110  0.00  0.00     0.007 C 
ATOM      9  C   UNL d   1       1.374   3.562   1.099  0.00  0.00     0.009 C 
ENDBRANCH   7   8
ENDBRANCH   1   7
TORSDOF 2
ENDMDL
