MODEL 1
REMARK minimizedAffinity -3.83667827
REMARK minimizedRMSD -1
REMARK  2 active torsions:
REMARK  status: ('A' for Active; 'I' for Inactive)
REMARK    1  A    between atoms: C1_2  and  C2_3 
REMARK    2  A    between atoms: C2_3  and  C3_4 
ROOT
ATOM      1  C3  UNL d   1       0.750   1.661   0.450  0.00  0.00    -0.075 A 
ATOM      2  C4  UNL d   1       2.137   1.826   0.323  0.00  0.00     0.002 A 
ATOM      3  C5  UNL d   1       2.740   3.039   0.657  0.00  0.00     0.002 A 
ATOM      4  C6  UNL d   1       1.965   4.103   1.113  0.00  0.00    -0.004 A 
ATOM      5  C7  UNL d   1       0.584   3.956   1.228  0.00  0.00     0.002 A 
ATOM      6  C8  UNL d   1      -0.021   2.742   0.898  0.00  0.00     0.002 A 
ENDROOT
BRANCH   1   7
ATOM      7  C2  UNL d   1       0.095   0.341   0.118  0.00  0.00     0.056 C 
BRANCH   7   8
ATOM      8  C1  UNL d   1      -0.717  -0.260   1.270  0.00  0.00     0.007 C 
ATOM      9  C   UNL d   1      -0.752  -1.782   1.249  0.00  0.00     0.009 C 
ENDBRANCH   7   8
ENDBRANCH   1   7
TORSDOF 2
ENDMDL
