MODEL 1
REMARK minimizedAffinity 0.285862654
REMARK minimizedRMSD -1
REMARK  2 active torsions:
REMARK  status: ('A' for Active; 'I' for Inactive)
REMARK    1  A    between atoms: C1_2  and  C2_3 
REMARK    2  A    between atoms: C2_3  and  C3_4 
ROOT
ATOM      1  C3  UNL d   1      -0.073   0.773   0.004  0.00  0.00    -0.075 A 
ATOM      2  C4  UNL d   1       0.292  -0.263  -0.867  0.00  0.00     0.002 A 
ATOM      3  C5  UNL d   1      -0.009  -1.590  -0.555  0.00  0.00     0.002 A 
ATOM      4  C6  UNL d   1      -0.667  -1.897   0.634  0.00  0.00    -0.004 A 
ATOM      5  C7  UNL d   1      -1.020  -0.876   1.514  0.00  0.00     0.002 A 
ATOM      6  C8  UNL d   1      -0.724   0.452   1.203  0.00  0.00     0.002 A 
ENDROOT
BRANCH   1   7
ATOM      7  C2  UNL d   1       0.223   2.213  -0.341  0.00  0.00     0.056 C 
BRANCH   7   8
ATOM      8  C1  UNL d   1       0.830   3.019   0.812  0.00  0.00     0.007 C 
ATOM      9  C   UNL d   1      -0.122   4.063   1.381  0.00  0.00     0.009 C 
ENDBRANCH   7   8
ENDBRANCH   1   7
TORSDOF 2
ENDMDL
