MODEL 1
REMARK minimizedAffinity -1.44661856
REMARK minimizedRMSD -1
REMARK  2 active torsions:
REMARK  status: ('A' for Active; 'I' for Inactive)
REMARK    1  A    between atoms: C1_2  and  C2_3 
REMARK    2  A    between atoms: C2_3  and  C3_4 
ROOT
ATOM      1  C3  UNL d   1      -0.247   0.123  -0.001  0.00  0.00    -0.075 A 
ATOM      2  C4  UNL d   1      -0.055  -1.111  -0.640  0.00  0.00     0.002 A 
ATOM      3  C5  UNL d   1      -0.547  -2.286  -0.072  0.00  0.00     0.002 A 
ATOM      4  C6  UNL d   1      -1.226  -2.245   1.144  0.00  0.00    -0.004 A 
ATOM      5  C7  UNL d   1      -1.408  -1.027   1.795  0.00  0.00     0.002 A 
ATOM      6  C8  UNL d   1      -0.920   0.151   1.227  0.00  0.00     0.002 A 
ENDROOT
BRANCH   1   7
ATOM      7  C2  UNL d   1       0.257   1.403  -0.625  0.00  0.00     0.056 C 
BRANCH   7   8
ATOM      8  C1  UNL d   1       0.352   2.578   0.353  0.00  0.00     0.007 C 
ATOM      9  C   UNL d   1       1.762   3.139   0.483  0.00  0.00     0.009 C 
ENDBRANCH   7   8
ENDBRANCH   1   7
TORSDOF 2
ENDMDL
