MODEL 1
REMARK minimizedAffinity -5.02641773
REMARK minimizedRMSD -1
REMARK  2 active torsions:
REMARK  status: ('A' for Active; 'I' for Inactive)
REMARK    1  A    between atoms: C1_2  and  C2_3 
REMARK    2  A    between atoms: C2_3  and  C3_4 
ROOT
ATOM      1  C3  UNL d   1       0.475  -1.324  -2.236  0.00  0.00    -0.075 A 
ATOM      2  C4  UNL d   1       0.543   0.065  -2.050  0.00  0.00     0.002 A 
ATOM      3  C5  UNL d   1       0.117   0.640  -0.852  0.00  0.00     0.002 A 
ATOM      4  C6  UNL d   1      -0.391  -0.162   0.168  0.00  0.00    -0.004 A 
ATOM      5  C7  UNL d   1      -0.478  -1.540  -0.013  0.00  0.00     0.002 A 
ATOM      6  C8  UNL d   1      -0.049  -2.119  -1.209  0.00  0.00     0.002 A 
ENDROOT
BRANCH   1   7
ATOM      7  C2  UNL d   1       0.962  -1.955  -3.519  0.00  0.00     0.056 C 
BRANCH   7   8
ATOM      8  C1  UNL d   1       2.297  -2.694  -3.382  0.00  0.00     0.007 C 
ATOM      9  C   UNL d   1       2.392  -3.932  -4.264  0.00  0.00     0.009 C 
ENDBRANCH   7   8
ENDBRANCH   1   7
TORSDOF 2
ENDMDL
