MODEL 1
REMARK minimizedAffinity -4.1892705
REMARK minimizedRMSD -1
REMARK  2 active torsions:
REMARK  status: ('A' for Active; 'I' for Inactive)
REMARK    1  A    between atoms: C2'_3  and  C1'_4 
REMARK    2  A    between atoms: C1'_4  and  C1_5 
ROOT
ATOM      1  C1  I4B d   1      -1.455   0.877   1.418  0.00  0.00    -0.075 A 
ATOM      2  C2  I4B d   1      -1.098   2.022   2.086  0.00  0.00     0.003 A 
ATOM      3  C3  I4B d   1      -1.687   2.330   3.336  0.00  0.00     0.002 A 
ATOM      4  C4  I4B d   1      -2.659   1.498   3.853  0.00  0.00    -0.004 A 
ATOM      5  C5  I4B d   1      -3.003   0.326   3.185  0.00  0.00     0.002 A 
ATOM      6  C6  I4B d   1      -2.388   0.007   1.966  0.00  0.00     0.003 A 
ENDROOT
BRANCH   1   7
ATOM      7  C1' I4B d   1      -0.837   0.598   0.085  0.00  0.00     0.060 C 
BRANCH   7   8
ATOM      8  C2' I4B d   1       0.425  -0.208   0.314  0.00  0.00    -0.013 C 
ATOM      9  C4' I4B d   1       0.212  -1.661  -0.020  0.00  0.00     0.013 C 
ATOM     10  C3' I4B d   1       1.515   0.387  -0.527  0.00  0.00     0.013 C 
ENDBRANCH   7   8
ENDBRANCH   1   7
TORSDOF 2
ENDMDL
