MODEL 1
REMARK minimizedAffinity -2.8255837
REMARK minimizedRMSD -1
REMARK  2 active torsions:
REMARK  status: ('A' for Active; 'I' for Inactive)
REMARK    1  A    between atoms: C2'_3  and  C1'_4 
REMARK    2  A    between atoms: C1'_4  and  C1_5 
ROOT
ATOM      1  C1  I4B d   1      -1.507  -0.688   0.159  0.00  0.00    -0.075 A 
ATOM      2  C2  I4B d   1      -1.841  -2.005   0.354  0.00  0.00     0.003 A 
ATOM      3  C3  I4B d   1      -2.801  -2.359   1.332  0.00  0.00     0.002 A 
ATOM      4  C4  I4B d   1      -3.361  -1.376   2.123  0.00  0.00    -0.004 A 
ATOM      5  C5  I4B d   1      -3.038  -0.039   1.908  0.00  0.00     0.002 A 
ATOM      6  C6  I4B d   1      -2.114   0.309   0.912  0.00  0.00     0.003 A 
ENDROOT
BRANCH   1   7
ATOM      7  C1' I4B d   1      -0.464  -0.352  -0.860  0.00  0.00     0.060 C 
BRANCH   7   8
ATOM      8  C2' I4B d   1       0.849  -0.952  -0.400  0.00  0.00    -0.013 C 
ATOM      9  C4' I4B d   1       1.913  -0.809  -1.456  0.00  0.00     0.013 C 
ATOM     10  C3' I4B d   1       1.252  -0.264   0.871  0.00  0.00     0.013 C 
ENDBRANCH   7   8
ENDBRANCH   1   7
TORSDOF 2
ENDMDL
