MODEL 1
REMARK minimizedAffinity -1.71824825
REMARK minimizedRMSD -1
REMARK  2 active torsions:
REMARK  status: ('A' for Active; 'I' for Inactive)
REMARK    1  A    between atoms: C2'_3  and  C1'_4 
REMARK    2  A    between atoms: C1'_4  and  C1_5 
ROOT
ATOM      1  C1  I4B d   1      -0.495   0.114   0.181  0.00  0.00    -0.075 A 
ATOM      2  C2  I4B d   1       0.103   0.427  -1.014  0.00  0.00     0.003 A 
ATOM      3  C3  I4B d   1       1.107  -0.415  -1.552  0.00  0.00     0.002 A 
ATOM      4  C4  I4B d   1       1.514  -1.526  -0.841  0.00  0.00    -0.004 A 
ATOM      5  C5  I4B d   1       0.891  -1.854   0.359  0.00  0.00     0.002 A 
ATOM      6  C6  I4B d   1      -0.129  -1.037   0.868  0.00  0.00     0.003 A 
ENDROOT
BRANCH   1   7
ATOM      7  C1' I4B d   1      -1.528   1.043   0.735  0.00  0.00     0.060 C 
BRANCH   7   8
ATOM      8  C2' I4B d   1      -1.749   0.681   2.190  0.00  0.00    -0.013 C 
ATOM      9  C4' I4B d   1      -1.565   1.878   3.084  0.00  0.00     0.013 C 
ATOM     10  C3' I4B d   1      -3.132   0.115   2.321  0.00  0.00     0.013 C 
ENDBRANCH   7   8
ENDBRANCH   1   7
TORSDOF 2
ENDMDL
