MODEL 1
REMARK minimizedAffinity -3.53434372
REMARK minimizedRMSD -1
REMARK  2 active torsions:
REMARK  status: ('A' for Active; 'I' for Inactive)
REMARK    1  A    between atoms: C2'_3  and  C1'_4 
REMARK    2  A    between atoms: C1'_4  and  C1_5 
ROOT
ATOM      1  C1  I4B d   1      -1.006   0.032   1.010  0.00  0.00    -0.075 A 
ATOM      2  C2  I4B d   1      -0.395   0.384   2.188  0.00  0.00     0.003 A 
ATOM      3  C3  I4B d   1      -1.172   0.649   3.342  0.00  0.00     0.002 A 
ATOM      4  C4  I4B d   1      -2.549   0.601   3.260  0.00  0.00    -0.004 A 
ATOM      5  C5  I4B d   1      -3.165   0.222   2.072  0.00  0.00     0.002 A 
ATOM      6  C6  I4B d   1      -2.389  -0.077   0.942  0.00  0.00     0.003 A 
ENDROOT
BRANCH   1   7
ATOM      7  C1' I4B d   1      -0.157  -0.209  -0.198  0.00  0.00     0.060 C 
BRANCH   7   8
ATOM      8  C2' I4B d   1       0.786  -1.352   0.115  0.00  0.00    -0.013 C 
ATOM      9  C4' I4B d   1       0.041  -2.655   0.242  0.00  0.00     0.013 C 
ATOM     10  C3' I4B d   1       1.812  -1.419  -0.977  0.00  0.00     0.013 C 
ENDBRANCH   7   8
ENDBRANCH   1   7
TORSDOF 2
ENDMDL
