MODEL 1
REMARK minimizedAffinity -4.70576334
REMARK minimizedRMSD -1
REMARK  2 active torsions:
REMARK  status: ('A' for Active; 'I' for Inactive)
REMARK    1  A    between atoms: C2'_3  and  C1'_4 
REMARK    2  A    between atoms: C1'_4  and  C1_5 
ROOT
ATOM      1  C1  I4B d   1       0.751   0.191  -1.187  0.00  0.00    -0.075 A 
ATOM      2  C2  I4B d   1       1.619  -0.677  -0.574  0.00  0.00     0.003 A 
ATOM      3  C3  I4B d   1       2.961  -0.774  -1.015  0.00  0.00     0.002 A 
ATOM      4  C4  I4B d   1       3.375  -0.027  -2.099  0.00  0.00    -0.004 A 
ATOM      5  C5  I4B d   1       2.500   0.870  -2.705  0.00  0.00     0.002 A 
ATOM      6  C6  I4B d   1       1.182   0.989  -2.239  0.00  0.00     0.003 A 
ENDROOT
BRANCH   1   7
ATOM      7  C1' I4B d   1      -0.668   0.244  -0.717  0.00  0.00     0.060 C 
BRANCH   7   8
ATOM      8  C2' I4B d   1      -0.703  -0.243   0.718  0.00  0.00    -0.013 C 
ATOM      9  C4' I4B d   1      -1.805   0.428   1.495  0.00  0.00     0.013 C 
ATOM     10  C3' I4B d   1      -0.883  -1.732   0.697  0.00  0.00     0.013 C 
ENDBRANCH   7   8
ENDBRANCH   1   7
TORSDOF 2
ENDMDL
