MODEL 1
REMARK minimizedAffinity -5.11077356
REMARK minimizedRMSD -1
REMARK  2 active torsions:
REMARK  status: ('A' for Active; 'I' for Inactive)
REMARK    1  A    between atoms: C2'_3  and  C1'_4 
REMARK    2  A    between atoms: C1'_4  and  C1_5 
ROOT
ATOM      1  C1  I4B d   1      -0.259   0.281  -0.022  0.00  0.00    -0.075 A 
ATOM      2  C2  I4B d   1       0.033  -0.921   0.572  0.00  0.00     0.003 A 
ATOM      3  C3  I4B d   1       0.989  -1.789  -0.010  0.00  0.00     0.002 A 
ATOM      4  C4  I4B d   1       1.586  -1.441  -1.204  0.00  0.00    -0.004 A 
ATOM      5  C5  I4B d   1       1.305  -0.211  -1.792  0.00  0.00     0.002 A 
ATOM      6  C6  I4B d   1       0.386   0.661  -1.192  0.00  0.00     0.003 A 
ENDROOT
BRANCH   1   7
ATOM      7  C1' I4B d   1      -1.297   1.159   0.602  0.00  0.00     0.060 C 
BRANCH   7   8
ATOM      8  C2' I4B d   1      -1.223   0.976   2.104  0.00  0.00    -0.013 C 
ATOM      9  C4' I4B d   1      -1.264   2.301   2.818  0.00  0.00     0.013 C 
ATOM     10  C3' I4B d   1      -2.367   0.100   2.520  0.00  0.00     0.013 C 
ENDBRANCH   7   8
ENDBRANCH   1   7
TORSDOF 2
ENDMDL
