MODEL 1
REMARK minimizedAffinity 0.149789482
REMARK minimizedRMSD -1
REMARK  2 active torsions:
REMARK  status: ('A' for Active; 'I' for Inactive)
REMARK    1  A    between atoms: C2'_3  and  C1'_4 
REMARK    2  A    between atoms: C1'_4  and  C1_5 
ROOT
ATOM      1  C1  I4B d   1       0.814   0.712  -0.823  0.00  0.00    -0.075 A 
ATOM      2  C2  I4B d   1      -0.277   1.540  -0.735  0.00  0.00     0.003 A 
ATOM      3  C3  I4B d   1      -1.490   1.066  -0.177  0.00  0.00     0.002 A 
ATOM      4  C4  I4B d   1      -1.581  -0.249   0.230  0.00  0.00    -0.004 A 
ATOM      5  C5  I4B d   1      -0.467  -1.081   0.162  0.00  0.00     0.002 A 
ATOM      6  C6  I4B d   1       0.742  -0.594  -0.357  0.00  0.00     0.003 A 
ENDROOT
BRANCH   1   7
ATOM      7  C1' I4B d   1       2.068   1.236  -1.447  0.00  0.00     0.060 C 
BRANCH   7   8
ATOM      8  C2' I4B d   1       2.925   0.050  -1.838  0.00  0.00    -0.013 C 
ATOM      9  C4' I4B d   1       2.184  -0.877  -2.766  0.00  0.00     0.013 C 
ATOM     10  C3' I4B d   1       4.175   0.574  -2.481  0.00  0.00     0.013 C 
ENDBRANCH   7   8
ENDBRANCH   1   7
TORSDOF 2
ENDMDL
