MODEL 1
REMARK minimizedAffinity -2.85964751
REMARK minimizedRMSD -1
REMARK  1 active torsions:
REMARK  status: ('A' for Active; 'I' for Inactive)
REMARK    1  A    between atoms: C1_2  and  C2_3 
ROOT
ATOM      1  C2  UNL d   1      -1.395   1.339   2.208  0.00  0.00    -0.073 A 
ATOM      2  C3  UNL d   1      -2.581   2.082   2.225  0.00  0.00    -0.002 A 
ATOM      3  C4  UNL d   1      -2.776   3.076   3.185  0.00  0.00     0.004 A 
ATOM      4  C5  UNL d   1      -1.787   3.342   4.132  0.00  0.00    -0.004 A 
ATOM      5  C6  UNL d   1      -0.590   2.618   4.124  0.00  0.00    -0.075 A 
ATOM      6  C7  UNL d   1       0.483   2.890   5.137  0.00  0.00     0.076 C 
ATOM      7  C8  UNL d   1      -0.403   1.620   3.158  0.00  0.00     0.001 A 
ENDROOT
BRANCH   1   8
ATOM      8  C1  UNL d   1      -1.177   0.269   1.170  0.00  0.00     0.053 C 
ATOM      9  C   UNL d   1      -1.182   0.835  -0.241  0.00  0.00     0.018 C 
ENDBRANCH   1   8
TORSDOF 1
ENDMDL
