MODEL 1
REMARK minimizedAffinity -2.02568173
REMARK minimizedRMSD -1
REMARK  1 active torsions:
REMARK  status: ('A' for Active; 'I' for Inactive)
REMARK    1  A    between atoms: C1_2  and  C2_3 
ROOT
ATOM      1  C2  UNL d   1      -0.648   0.762   0.720  0.00  0.00    -0.073 A 
ATOM      2  C3  UNL d   1       0.355   0.586   1.680  0.00  0.00    -0.002 A 
ATOM      3  C4  UNL d   1       0.257   1.211   2.924  0.00  0.00     0.004 A 
ATOM      4  C5  UNL d   1      -0.846   2.012   3.223  0.00  0.00    -0.004 A 
ATOM      5  C6  UNL d   1      -1.864   2.190   2.280  0.00  0.00    -0.075 A 
ATOM      6  C7  UNL d   1      -3.056   3.049   2.586  0.00  0.00     0.076 C 
ATOM      7  C8  UNL d   1      -1.757   1.561   1.033  0.00  0.00     0.001 A 
ENDROOT
BRANCH   1   8
ATOM      8  C1  UNL d   1      -0.550   0.084  -0.623  0.00  0.00     0.053 C 
ATOM      9  C   UNL d   1      -1.918  -0.264  -1.187  0.00  0.00     0.018 C 
ENDBRANCH   1   8
TORSDOF 1
ENDMDL
