MODEL 1
REMARK minimizedAffinity -4.6619339
REMARK minimizedRMSD -1
REMARK  1 active torsions:
REMARK  status: ('A' for Active; 'I' for Inactive)
REMARK    1  A    between atoms: C1_2  and  C2_3 
ROOT
ATOM      1  C2  UNL d   1       0.396  -0.141  -0.895  0.00  0.00    -0.073 A 
ATOM      2  C3  UNL d   1      -0.955  -0.344  -0.587  0.00  0.00    -0.002 A 
ATOM      3  C4  UNL d   1      -1.374  -0.397   0.743  0.00  0.00     0.004 A 
ATOM      4  C5  UNL d   1      -0.451  -0.242   1.777  0.00  0.00    -0.004 A 
ATOM      5  C6  UNL d   1       0.901  -0.027   1.489  0.00  0.00    -0.075 A 
ATOM      6  C7  UNL d   1       1.907   0.140   2.590  0.00  0.00     0.076 C 
ATOM      7  C8  UNL d   1       1.315   0.023   0.151  0.00  0.00     0.001 A 
ENDROOT
BRANCH   1   8
ATOM      8  C1  UNL d   1       0.852  -0.077  -2.329  0.00  0.00     0.053 C 
ATOM      9  C   UNL d   1       0.194  -1.147  -3.186  0.00  0.00     0.018 C 
ENDBRANCH   1   8
TORSDOF 1
ENDMDL
