MODEL 1
REMARK minimizedAffinity -2.64462852
REMARK minimizedRMSD -1
REMARK  1 active torsions:
REMARK  status: ('A' for Active; 'I' for Inactive)
REMARK    1  A    between atoms: C1_2  and  C2_3 
ROOT
ATOM      1  C2  UNL d   1      -0.296  -0.384  -1.210  0.00  0.00    -0.073 A 
ATOM      2  C3  UNL d   1      -1.214   0.600  -1.594  0.00  0.00    -0.002 A 
ATOM      3  C4  UNL d   1      -2.344   0.851  -0.815  0.00  0.00     0.004 A 
ATOM      4  C5  UNL d   1      -2.564   0.127   0.357  0.00  0.00    -0.004 A 
ATOM      5  C6  UNL d   1      -1.652  -0.852   0.763  0.00  0.00    -0.075 A 
ATOM      6  C7  UNL d   1      -1.876  -1.641   2.019  0.00  0.00     0.076 C 
ATOM      7  C8  UNL d   1      -0.521  -1.100  -0.026  0.00  0.00     0.001 A 
ENDROOT
BRANCH   1   8
ATOM      8  C1  UNL d   1       0.930  -0.655  -2.045  0.00  0.00     0.053 C 
ATOM      9  C   UNL d   1       0.690  -1.750  -3.071  0.00  0.00     0.018 C 
ENDBRANCH   1   8
TORSDOF 1
ENDMDL
