MODEL 1
REMARK minimizedAffinity -1.21246052
REMARK minimizedRMSD -1
REMARK  1 active torsions:
REMARK  status: ('A' for Active; 'I' for Inactive)
REMARK    1  A    between atoms: C1_2  and  C2_3 
ROOT
ATOM      1  C2  UNL d   1      -0.070   1.186   2.925  0.00  0.00    -0.073 A 
ATOM      2  C3  UNL d   1      -0.878   0.157   3.424  0.00  0.00    -0.002 A 
ATOM      3  C4  UNL d   1      -1.233  -0.918   2.609  0.00  0.00     0.004 A 
ATOM      4  C5  UNL d   1      -0.779  -0.980   1.291  0.00  0.00    -0.004 A 
ATOM      5  C6  UNL d   1       0.038   0.032   0.778  0.00  0.00    -0.075 A 
ATOM      6  C7  UNL d   1       0.532  -0.018  -0.638  0.00  0.00     0.076 C 
ATOM      7  C8  UNL d   1       0.388   1.111   1.602  0.00  0.00     0.001 A 
ENDROOT
BRANCH   1   8
ATOM      8  C1  UNL d   1       0.321   2.346   3.804  0.00  0.00     0.053 C 
ATOM      9  C   UNL d   1      -0.859   3.256   4.106  0.00  0.00     0.018 C 
ENDBRANCH   1   8
TORSDOF 1
ENDMDL
