MODEL 1
REMARK minimizedAffinity -2.93748212
REMARK minimizedRMSD -1
REMARK  1 active torsions:
REMARK  status: ('A' for Active; 'I' for Inactive)
REMARK    1  A    between atoms: C1_2  and  C2_3 
ROOT
ATOM      1  C2  UNL d   1       0.530  -0.721  -0.728  0.00  0.00    -0.073 A 
ATOM      2  C3  UNL d   1      -0.108  -1.942  -0.484  0.00  0.00    -0.002 A 
ATOM      3  C4  UNL d   1      -0.722  -2.184   0.746  0.00  0.00     0.004 A 
ATOM      4  C5  UNL d   1      -0.711  -1.205   1.740  0.00  0.00    -0.004 A 
ATOM      5  C6  UNL d   1      -0.089   0.026   1.511  0.00  0.00    -0.075 A 
ATOM      6  C7  UNL d   1      -0.067   1.088   2.571  0.00  0.00     0.076 C 
ATOM      7  C8  UNL d   1       0.528   0.260   0.275  0.00  0.00     0.001 A 
ENDROOT
BRANCH   1   8
ATOM      8  C1  UNL d   1       1.189  -0.453  -2.056  0.00  0.00     0.053 C 
ATOM      9  C   UNL d   1       1.141  -1.667  -2.971  0.00  0.00     0.018 C 
ENDBRANCH   1   8
TORSDOF 1
ENDMDL
