MODEL 1
REMARK minimizedAffinity -5.61712027
REMARK minimizedRMSD -1
REMARK  1 active torsions:
REMARK  status: ('A' for Active; 'I' for Inactive)
REMARK    1  A    between atoms: C1_2  and  C2_3 
ROOT
ATOM      1  C2  UNL d   1      -0.025   0.272  -0.302  0.00  0.00    -0.073 A 
ATOM      2  C3  UNL d   1       1.210   0.839   0.035  0.00  0.00    -0.002 A 
ATOM      3  C4  UNL d   1       1.625   0.883   1.366  0.00  0.00     0.004 A 
ATOM      4  C5  UNL d   1       0.815   0.356   2.372  0.00  0.00    -0.004 A 
ATOM      5  C6  UNL d   1      -0.417  -0.225   2.054  0.00  0.00    -0.075 A 
ATOM      6  C7  UNL d   1      -1.301  -0.794   3.125  0.00  0.00     0.076 C 
ATOM      7  C8  UNL d   1      -0.828  -0.263   0.715  0.00  0.00     0.001 A 
ENDROOT
BRANCH   1   8
ATOM      8  C1  UNL d   1      -0.474   0.216  -1.739  0.00  0.00     0.053 C 
ATOM      9  C   UNL d   1       0.642  -0.233  -2.669  0.00  0.00     0.018 C 
ENDBRANCH   1   8
TORSDOF 1
ENDMDL
