MODEL 1
REMARK minimizedAffinity -4.26734257
REMARK minimizedRMSD -1
REMARK  1 active torsions:
REMARK  status: ('A' for Active; 'I' for Inactive)
REMARK    1  A    between atoms: C1_2  and  C2_3 
ROOT
ATOM      1  C2  UNL d   1       1.090   0.743   1.069  0.00  0.00    -0.073 A 
ATOM      2  C3  UNL d   1       0.267   0.844  -0.058  0.00  0.00    -0.002 A 
ATOM      3  C4  UNL d   1      -1.031   0.333  -0.030  0.00  0.00     0.004 A 
ATOM      4  C5  UNL d   1      -1.521  -0.277   1.125  0.00  0.00    -0.004 A 
ATOM      5  C6  UNL d   1      -0.718  -0.376   2.265  0.00  0.00    -0.075 A 
ATOM      6  C7  UNL d   1      -1.229  -1.030   3.515  0.00  0.00     0.076 C 
ATOM      7  C8  UNL d   1       0.586   0.137   2.229  0.00  0.00     0.001 A 
ENDROOT
BRANCH   1   8
ATOM      8  C1  UNL d   1       2.491   1.299   1.046  0.00  0.00     0.053 C 
ATOM      9  C   UNL d   1       3.363   0.693   2.134  0.00  0.00     0.018 C 
ENDBRANCH   1   8
TORSDOF 1
ENDMDL
