MODEL 1
REMARK minimizedAffinity -4.87921572
REMARK minimizedRMSD -1
REMARK  1 active torsions:
REMARK  status: ('A' for Active; 'I' for Inactive)
REMARK    1  A    between atoms: C1_2  and  C2_3 
ROOT
ATOM      1  C2  UNL d   1      -0.271   0.063  -0.060  0.00  0.00    -0.073 A 
ATOM      2  C3  UNL d   1       0.821  -0.811  -0.004  0.00  0.00    -0.002 A 
ATOM      3  C4  UNL d   1       1.103  -1.512   1.169  0.00  0.00     0.004 A 
ATOM      4  C5  UNL d   1       0.295  -1.352   2.294  0.00  0.00    -0.004 A 
ATOM      5  C6  UNL d   1      -0.807  -0.492   2.254  0.00  0.00    -0.075 A 
ATOM      6  C7  UNL d   1      -1.685  -0.307   3.457  0.00  0.00     0.076 C 
ATOM      7  C8  UNL d   1      -1.083   0.211   1.073  0.00  0.00     0.001 A 
ENDROOT
BRANCH   1   8
ATOM      8  C1  UNL d   1      -0.583   0.818  -1.327  0.00  0.00     0.053 C 
ATOM      9  C   UNL d   1       0.237   0.318  -2.505  0.00  0.00     0.018 C 
ENDBRANCH   1   8
TORSDOF 1
ENDMDL
