MODEL 1
REMARK minimizedAffinity -2.57578564
REMARK minimizedRMSD -1
REMARK  1 active torsions:
REMARK  status: ('A' for Active; 'I' for Inactive)
REMARK    1  A    between atoms: C1_2  and  C2_3 
ROOT
ATOM      1  C2  UNL d   1      -0.654   0.127   0.271  0.00  0.00    -0.073 A 
ATOM      2  C3  UNL d   1      -1.576  -0.781   0.805  0.00  0.00    -0.002 A 
ATOM      3  C4  UNL d   1      -1.627  -1.006   2.182  0.00  0.00     0.004 A 
ATOM      4  C5  UNL d   1      -0.764  -0.322   3.037  0.00  0.00    -0.004 A 
ATOM      5  C6  UNL d   1       0.155   0.598   2.524  0.00  0.00    -0.075 A 
ATOM      6  C7  UNL d   1       1.092   1.341   3.431  0.00  0.00     0.076 C 
ATOM      7  C8  UNL d   1       0.203   0.817   1.140  0.00  0.00     0.001 A 
ENDROOT
BRANCH   1   8
ATOM      8  C1  UNL d   1      -0.600   0.377  -1.214  0.00  0.00     0.053 C 
ATOM      9  C   UNL d   1       0.748   0.930  -1.649  0.00  0.00     0.018 C 
ENDBRANCH   1   8
TORSDOF 1
ENDMDL
