MODEL 1
REMARK minimizedAffinity -4.98153639
REMARK minimizedRMSD -1
REMARK  1 active torsions:
REMARK  status: ('A' for Active; 'I' for Inactive)
REMARK    1  A    between atoms: C1_2  and  C2_3 
ROOT
ATOM      1  C2  UNL d   1       0.072   0.016  -0.160  0.00  0.00    -0.073 A 
ATOM      2  C3  UNL d   1       1.209   0.761   0.174  0.00  0.00    -0.002 A 
ATOM      3  C4  UNL d   1       1.595   0.897   1.508  0.00  0.00     0.004 A 
ATOM      4  C5  UNL d   1       0.854   0.286   2.519  0.00  0.00    -0.004 A 
ATOM      5  C6  UNL d   1      -0.279  -0.472   2.204  0.00  0.00    -0.075 A 
ATOM      6  C7  UNL d   1      -1.088  -1.134   3.280  0.00  0.00     0.076 C 
ATOM      7  C8  UNL d   1      -0.662  -0.602   0.862  0.00  0.00     0.001 A 
ENDROOT
BRANCH   1   8
ATOM      8  C1  UNL d   1      -0.345  -0.139  -1.600  0.00  0.00     0.053 C 
ATOM      9  C   UNL d   1       0.819  -0.545  -2.490  0.00  0.00     0.018 C 
ENDBRANCH   1   8
TORSDOF 1
ENDMDL
