MODEL 1
REMARK minimizedAffinity -2.89115024
REMARK minimizedRMSD -1
REMARK  1 active torsions:
REMARK  status: ('A' for Active; 'I' for Inactive)
REMARK    1  A    between atoms: C1_2  and  C2_3 
ROOT
ATOM      1  C2  UNL d   1       0.266   0.265   0.130  0.00  0.00    -0.073 A 
ATOM      2  C3  UNL d   1       1.205   1.218   0.541  0.00  0.00    -0.002 A 
ATOM      3  C4  UNL d   1       1.473   1.403   1.898  0.00  0.00     0.004 A 
ATOM      4  C5  UNL d   1       0.812   0.635   2.856  0.00  0.00    -0.004 A 
ATOM      5  C6  UNL d   1      -0.121  -0.331   2.464  0.00  0.00    -0.075 A 
ATOM      6  C7  UNL d   1      -0.843  -1.165   3.482  0.00  0.00     0.076 C 
ATOM      7  C8  UNL d   1      -0.387  -0.509   1.100  0.00  0.00     0.001 A 
ENDROOT
BRANCH   1   8
ATOM      8  C1  UNL d   1      -0.022   0.057  -1.334  0.00  0.00     0.053 C 
ATOM      9  C   UNL d   1       1.250  -0.143  -2.143  0.00  0.00     0.018 C 
ENDBRANCH   1   8
TORSDOF 1
ENDMDL
