MODEL 1
REMARK minimizedAffinity -5.06634569
REMARK minimizedRMSD -1
REMARK  1 active torsions:
REMARK  status: ('A' for Active; 'I' for Inactive)
REMARK    1  A    between atoms: C1_2  and  C2_3 
ROOT
ATOM      1  C2  UNL d   1       0.756  -0.212  -1.537  0.00  0.00    -0.073 A 
ATOM      2  C3  UNL d   1      -0.073  -1.060  -2.280  0.00  0.00    -0.002 A 
ATOM      3  C4  UNL d   1       0.449  -1.809  -3.335  0.00  0.00     0.004 A 
ATOM      4  C5  UNL d   1       1.804  -1.724  -3.654  0.00  0.00    -0.004 A 
ATOM      5  C6  UNL d   1       2.651  -0.891  -2.915  0.00  0.00    -0.075 A 
ATOM      6  C7  UNL d   1       4.111  -0.786  -3.247  0.00  0.00     0.076 C 
ATOM      7  C8  UNL d   1       2.119  -0.140  -1.859  0.00  0.00     0.001 A 
ENDROOT
BRANCH   1   8
ATOM      8  C1  UNL d   1       0.198   0.594  -0.392  0.00  0.00     0.053 C 
ATOM      9  C   UNL d   1       0.232  -0.177   0.918  0.00  0.00     0.018 C 
ENDBRANCH   1   8
TORSDOF 1
ENDMDL
