MODEL 1
REMARK minimizedAffinity -5.20566225
REMARK minimizedRMSD -1
REMARK  1 active torsions:
REMARK  status: ('A' for Active; 'I' for Inactive)
REMARK    1  A    between atoms: C1_2  and  C2_3 
ROOT
ATOM      1  C2  UNL d   1       0.010   0.496  -0.511  0.00  0.00    -0.073 A 
ATOM      2  C3  UNL d   1      -1.309   0.714  -0.925  0.00  0.00    -0.002 A 
ATOM      3  C4  UNL d   1      -2.375   0.395  -0.082  0.00  0.00     0.004 A 
ATOM      4  C5  UNL d   1      -2.133  -0.139   1.184  0.00  0.00    -0.004 A 
ATOM      5  C6  UNL d   1      -0.821  -0.353   1.620  0.00  0.00    -0.075 A 
ATOM      6  C7  UNL d   1      -0.544  -0.928   2.978  0.00  0.00     0.076 C 
ATOM      7  C8  UNL d   1       0.243  -0.032   0.767  0.00  0.00     0.001 A 
ENDROOT
BRANCH   1   8
ATOM      8  C1  UNL d   1       1.163   0.846  -1.415  0.00  0.00     0.053 C 
ATOM      9  C   UNL d   1       1.379  -0.202  -2.495  0.00  0.00     0.018 C 
ENDBRANCH   1   8
TORSDOF 1
ENDMDL
