MODEL 1
REMARK minimizedAffinity -4.1736784
REMARK minimizedRMSD -1
REMARK  1 active torsions:
REMARK  status: ('A' for Active; 'I' for Inactive)
REMARK    1  A    between atoms: C1_2  and  C2_3 
ROOT
ATOM      1  C2  UNL d   1       0.069   0.754   0.351  0.00  0.00    -0.077 A 
ATOM      2  C3  UNL d   1       1.432   0.432   0.405  0.00  0.00     0.002 A 
ATOM      3  C4  UNL d   1       2.371   1.396   0.776  0.00  0.00     0.002 A 
ATOM      4  C5  UNL d   1       1.957   2.686   1.100  0.00  0.00    -0.004 A 
ATOM      5  C6  UNL d   1       0.604   3.017   1.048  0.00  0.00     0.002 A 
ATOM      6  C7  UNL d   1      -0.336   2.055   0.675  0.00  0.00     0.002 A 
ENDROOT
BRANCH   1   7
ATOM      7  C1  UNL d   1      -0.951  -0.297  -0.002  0.00  0.00     0.055 C 
ATOM      8  C   UNL d   1      -0.282  -1.597  -0.424  0.00  0.00     0.019 C 
ENDBRANCH   1   7
TORSDOF 1
ENDMDL
