MODEL 1
REMARK minimizedAffinity -3.56137347
REMARK minimizedRMSD -1
REMARK  1 active torsions:
REMARK  status: ('A' for Active; 'I' for Inactive)
REMARK    1  A    between atoms: C1_2  and  C2_3 
ROOT
ATOM      1  C2  UNL d   1       0.111  -0.038   0.268  0.00  0.00    -0.077 A 
ATOM      2  C3  UNL d   1       1.321   0.613   0.547  0.00  0.00     0.002 A 
ATOM      3  C4  UNL d   1       1.342   1.985   0.804  0.00  0.00     0.002 A 
ATOM      4  C5  UNL d   1       0.157   2.717   0.788  0.00  0.00    -0.004 A 
ATOM      5  C6  UNL d   1      -1.052   2.079   0.510  0.00  0.00     0.002 A 
ATOM      6  C7  UNL d   1      -1.075   0.708   0.251  0.00  0.00     0.002 A 
ENDROOT
BRANCH   1   7
ATOM      7  C1  UNL d   1       0.080  -1.526   0.039  0.00  0.00     0.055 C 
ATOM      8  C   UNL d   1      -0.226  -1.856  -1.415  0.00  0.00     0.019 C 
ENDBRANCH   1   7
TORSDOF 1
ENDMDL
