MODEL 1
REMARK minimizedAffinity -4.10066509
REMARK minimizedRMSD -1
REMARK  1 active torsions:
REMARK  status: ('A' for Active; 'I' for Inactive)
REMARK    1  A    between atoms: C1_2  and  C2_3 
ROOT
ATOM      1  C2  UNL d   1      -0.758  -0.933  -0.594  0.00  0.00    -0.077 A 
ATOM      2  C3  UNL d   1       0.342  -1.385   0.148  0.00  0.00     0.002 A 
ATOM      3  C4  UNL d   1       0.705  -2.733   0.123  0.00  0.00     0.002 A 
ATOM      4  C5  UNL d   1      -0.024  -3.638  -0.645  0.00  0.00    -0.004 A 
ATOM      5  C6  UNL d   1      -1.122  -3.199  -1.385  0.00  0.00     0.002 A 
ATOM      6  C7  UNL d   1      -1.486  -1.852  -1.360  0.00  0.00     0.002 A 
ENDROOT
BRANCH   1   7
ATOM      7  C1  UNL d   1      -1.121   0.529  -0.607  0.00  0.00     0.055 C 
ATOM      8  C   UNL d   1      -1.179   1.098   0.803  0.00  0.00     0.019 C 
ENDBRANCH   1   7
TORSDOF 1
ENDMDL
