MODEL 1
REMARK minimizedAffinity -3.46231747
REMARK minimizedRMSD -1
REMARK  1 active torsions:
REMARK  status: ('A' for Active; 'I' for Inactive)
REMARK    1  A    between atoms: C1_2  and  C2_3 
ROOT
ATOM      1  C2  UNL d   1      -0.149  -0.139   0.035  0.00  0.00    -0.077 A 
ATOM      2  C3  UNL d   1       0.701   0.868   0.514  0.00  0.00     0.002 A 
ATOM      3  C4  UNL d   1       0.230   2.172   0.678  0.00  0.00     0.002 A 
ATOM      4  C5  UNL d   1      -1.093   2.480   0.369  0.00  0.00    -0.004 A 
ATOM      5  C6  UNL d   1      -1.946   1.487  -0.110  0.00  0.00     0.002 A 
ATOM      6  C7  UNL d   1      -1.477   0.183  -0.276  0.00  0.00     0.002 A 
ENDROOT
BRANCH   1   7
ATOM      7  C1  UNL d   1       0.343  -1.556  -0.096  0.00  0.00     0.055 C 
ATOM      8  C   UNL d   1      -0.531  -2.361  -1.047  0.00  0.00     0.019 C 
ENDBRANCH   1   7
TORSDOF 1
ENDMDL
