MODEL 1
REMARK minimizedAffinity -2.53522444
REMARK minimizedRMSD -1
REMARK  1 active torsions:
REMARK  status: ('A' for Active; 'I' for Inactive)
REMARK    1  A    between atoms: C1_2  and  C2_3 
ROOT
ATOM      1  C2  UNL d   1      -0.533  -1.112  -0.118  0.00  0.00    -0.077 A 
ATOM      2  C3  UNL d   1      -0.730  -0.551   1.151  0.00  0.00     0.002 A 
ATOM      3  C4  UNL d   1      -1.097   0.790   1.281  0.00  0.00     0.002 A 
ATOM      4  C5  UNL d   1      -1.276   1.578   0.146  0.00  0.00    -0.004 A 
ATOM      5  C6  UNL d   1      -1.081   1.030  -1.120  0.00  0.00     0.002 A 
ATOM      6  C7  UNL d   1      -0.712  -0.310  -1.252  0.00  0.00     0.002 A 
ENDROOT
BRANCH   1   7
ATOM      7  C1  UNL d   1      -0.185  -2.571  -0.262  0.00  0.00     0.055 C 
ATOM      8  C   UNL d   1      -0.654  -3.123  -1.600  0.00  0.00     0.019 C 
ENDBRANCH   1   7
TORSDOF 1
ENDMDL
