MODEL 1
REMARK minimizedAffinity -4.12160826
REMARK minimizedRMSD -1
REMARK  1 active torsions:
REMARK  status: ('A' for Active; 'I' for Inactive)
REMARK    1  A    between atoms: C1_2  and  C2_3 
ROOT
ATOM      1  C2  UNL d   1      -0.198  -1.419  -0.944  0.00  0.00    -0.077 A 
ATOM      2  C3  UNL d   1      -0.163  -1.321   0.454  0.00  0.00     0.002 A 
ATOM      3  C4  UNL d   1      -0.598  -0.157   1.091  0.00  0.00     0.002 A 
ATOM      4  C5  UNL d   1      -1.075   0.914   0.338  0.00  0.00    -0.004 A 
ATOM      5  C6  UNL d   1      -1.111   0.827  -1.053  0.00  0.00     0.002 A 
ATOM      6  C7  UNL d   1      -0.676  -0.335  -1.691  0.00  0.00     0.002 A 
ENDROOT
BRANCH   1   7
ATOM      7  C1  UNL d   1       0.225  -2.692  -1.631  0.00  0.00     0.055 C 
ATOM      8  C   UNL d   1      -0.908  -3.708  -1.660  0.00  0.00     0.019 C 
ENDBRANCH   1   7
TORSDOF 1
ENDMDL
