MODEL 1
REMARK minimizedAffinity -1.416448
REMARK minimizedRMSD -1
REMARK  1 active torsions:
REMARK  status: ('A' for Active; 'I' for Inactive)
REMARK    1  A    between atoms: C1_2  and  C2_3 
ROOT
ATOM      1  C2  UNL d   1      -0.313  -1.175  -0.901  0.00  0.00    -0.077 A 
ATOM      2  C3  UNL d   1       0.006  -1.103   0.462  0.00  0.00     0.002 A 
ATOM      3  C4  UNL d   1      -0.382   0.003   1.221  0.00  0.00     0.002 A 
ATOM      4  C5  UNL d   1      -1.095   1.042   0.627  0.00  0.00    -0.004 A 
ATOM      5  C6  UNL d   1      -1.416   0.981  -0.728  0.00  0.00     0.002 A 
ATOM      6  C7  UNL d   1      -1.028  -0.123  -1.489  0.00  0.00     0.002 A 
ENDROOT
BRANCH   1   7
ATOM      7  C1  UNL d   1       0.062  -2.389  -1.710  0.00  0.00     0.055 C 
ATOM      8  C   UNL d   1      -1.054  -3.424  -1.704  0.00  0.00     0.019 C 
ENDBRANCH   1   7
TORSDOF 1
ENDMDL
