MODEL 1
REMARK minimizedAffinity -4.29770184
REMARK minimizedRMSD -1
REMARK  1 active torsions:
REMARK  status: ('A' for Active; 'I' for Inactive)
REMARK    1  A    between atoms: C1_2  and  C2_3 
ROOT
ATOM      1  C2  UNL d   1      -0.488  -0.961  -0.055  0.00  0.00    -0.077 A 
ATOM      2  C3  UNL d   1      -0.961  -0.330   1.104  0.00  0.00     0.002 A 
ATOM      3  C4  UNL d   1      -1.142   1.054   1.131  0.00  0.00     0.002 A 
ATOM      4  C5  UNL d   1      -0.856   1.818   0.001  0.00  0.00    -0.004 A 
ATOM      5  C6  UNL d   1      -0.383   1.199  -1.156  0.00  0.00     0.002 A 
ATOM      6  C7  UNL d   1      -0.200  -0.184  -1.184  0.00  0.00     0.002 A 
ENDROOT
BRANCH   1   7
ATOM      7  C1  UNL d   1      -0.339  -2.460  -0.102  0.00  0.00     0.055 C 
ATOM      8  C   UNL d   1      -0.478  -2.986  -1.523  0.00  0.00     0.019 C 
ENDBRANCH   1   7
TORSDOF 1
ENDMDL
