MODEL 1
REMARK minimizedAffinity -2.00959682
REMARK minimizedRMSD -1
REMARK  1 active torsions:
REMARK  status: ('A' for Active; 'I' for Inactive)
REMARK    1  A    between atoms: C1_2  and  C2_3 
ROOT
ATOM      1  C2  UNL d   1      -0.394  -1.789  -0.604  0.00  0.00    -0.077 A 
ATOM      2  C3  UNL d   1      -1.345  -0.884  -1.096  0.00  0.00     0.002 A 
ATOM      3  C4  UNL d   1      -1.450   0.397  -0.549  0.00  0.00     0.002 A 
ATOM      4  C5  UNL d   1      -0.605   0.785   0.489  0.00  0.00    -0.004 A 
ATOM      5  C6  UNL d   1       0.343  -0.109   0.986  0.00  0.00     0.002 A 
ATOM      6  C7  UNL d   1       0.449  -1.390   0.442  0.00  0.00     0.002 A 
ENDROOT
BRANCH   1   7
ATOM      7  C1  UNL d   1      -0.245  -3.153  -1.225  0.00  0.00     0.055 C 
ATOM      8  C   UNL d   1      -1.599  -3.820  -1.426  0.00  0.00     0.019 C 
ENDBRANCH   1   7
TORSDOF 1
ENDMDL
