MODEL 1
REMARK minimizedAffinity -2.99072099
REMARK minimizedRMSD -1
REMARK  1 active torsions:
REMARK  status: ('A' for Active; 'I' for Inactive)
REMARK    1  A    between atoms: C1_2  and  C2_3 
ROOT
ATOM      1  C2  UNL d   1      -0.193  -2.539  -1.239  0.00  0.00    -0.077 A 
ATOM      2  C3  UNL d   1       0.387  -2.643   0.033  0.00  0.00     0.002 A 
ATOM      3  C4  UNL d   1       0.496  -1.518   0.853  0.00  0.00     0.002 A 
ATOM      4  C5  UNL d   1       0.023  -0.284   0.412  0.00  0.00    -0.004 A 
ATOM      5  C6  UNL d   1      -0.553  -0.170  -0.852  0.00  0.00     0.002 A 
ATOM      6  C7  UNL d   1      -0.661  -1.293  -1.674  0.00  0.00     0.002 A 
ENDROOT
BRANCH   1   7
ATOM      7  C1  UNL d   1      -0.355  -3.761  -2.105  0.00  0.00     0.055 C 
ATOM      8  C   UNL d   1      -1.682  -3.739  -2.850  0.00  0.00     0.019 C 
ENDBRANCH   1   7
TORSDOF 1
ENDMDL
