MODEL 1
REMARK minimizedAffinity -2.94826603
REMARK minimizedRMSD -1
REMARK  1 active torsions:
REMARK  status: ('A' for Active; 'I' for Inactive)
REMARK    1  A    between atoms: C1_2  and  C2_3 
ROOT
ATOM      1  C2  UNL d   1      -0.348  -0.352  -0.742  0.00  0.00    -0.077 A 
ATOM      2  C3  UNL d   1       0.579   0.029   0.239  0.00  0.00     0.002 A 
ATOM      3  C4  UNL d   1       0.428   1.237   0.922  0.00  0.00     0.002 A 
ATOM      4  C5  UNL d   1      -0.650   2.072   0.635  0.00  0.00    -0.004 A 
ATOM      5  C6  UNL d   1      -1.576   1.703  -0.340  0.00  0.00     0.002 A 
ATOM      6  C7  UNL d   1      -1.427   0.497  -1.024  0.00  0.00     0.002 A 
ENDROOT
BRANCH   1   7
ATOM      7  C1  UNL d   1      -0.215  -1.677  -1.445  0.00  0.00     0.055 C 
ATOM      8  C   UNL d   1      -0.823  -2.804  -0.623  0.00  0.00     0.019 C 
ENDBRANCH   1   7
TORSDOF 1
ENDMDL
