MODEL 1
REMARK minimizedAffinity 3.43607593
REMARK minimizedRMSD -1
REMARK  0 active torsions:
REMARK  status: ('A' for Active; 'I' for Inactive)
ROOT
ATOM      1  N1  IND d   1       0.675   2.363  -1.485  0.00  0.00    -0.196 N 
ATOM      2  C2  IND d   1      -0.100   2.352  -0.359  0.00  0.00     0.054 A 
ATOM      3  C3  IND d   1      -1.058   1.402  -0.457  0.00  0.00    -0.031 A 
ATOM      4  C4  IND d   1      -1.473  -0.315  -2.330  0.00  0.00     0.051 A 
ATOM      5  C5  IND d   1      -1.047  -0.671  -3.578  0.00  0.00    -0.031 A 
ATOM      6  C6  IND d   1      -0.002  -0.023  -4.205  0.00  0.00     0.015 A 
ATOM      7  C7  IND d   1       0.666   1.003  -3.598  0.00  0.00    -0.016 A 
ATOM      8  C8  IND d   1       0.231   1.372  -2.333  0.00  0.00    -0.047 A 
ATOM      9  C9  IND d   1      -0.856   0.746  -1.710  0.00  0.00    -0.096 A 
ATOM     10  HN1 IND d   1       1.330   2.899  -1.638  0.00  0.00     0.298 HD
ENDROOT
TORSDOF 0
ENDMDL
