MODEL 1
REMARK minimizedAffinity 5.15374088
REMARK minimizedRMSD -1
REMARK  0 active torsions:
REMARK  status: ('A' for Active; 'I' for Inactive)
ROOT
ATOM      1  N1  IND d   1       0.545   2.207  -1.148  0.00  0.00    -0.196 N 
ATOM      2  C2  IND d   1      -0.517   2.256  -0.289  0.00  0.00     0.054 A 
ATOM      3  C3  IND d   1      -1.540   1.510  -0.763  0.00  0.00    -0.031 A 
ATOM      4  C4  IND d   1      -1.652   0.044  -2.876  0.00  0.00     0.051 A 
ATOM      5  C5  IND d   1      -0.941  -0.292  -3.994  0.00  0.00    -0.031 A 
ATOM      6  C6  IND d   1       0.329   0.197  -4.223  0.00  0.00     0.015 A 
ATOM      7  C7  IND d   1       0.942   1.033  -3.334  0.00  0.00    -0.016 A 
ATOM      8  C8  IND d   1       0.220   1.381  -2.201  0.00  0.00    -0.047 A 
ATOM      9  C9  IND d   1      -1.086   0.923  -1.984  0.00  0.00    -0.096 A 
ATOM     10  HN1 IND d   1       1.291   2.623  -1.048  0.00  0.00     0.298 HD
ENDROOT
TORSDOF 0
ENDMDL
