MODEL 1
REMARK minimizedAffinity 8.66221809
REMARK minimizedRMSD -1
REMARK  0 active torsions:
REMARK  status: ('A' for Active; 'I' for Inactive)
ROOT
ATOM      1  N1  IND d   1       0.087   3.481  -1.397  0.00  0.00    -0.196 N 
ATOM      2  C2  IND d   1       0.563   2.339  -1.979  0.00  0.00     0.054 A 
ATOM      3  C3  IND d   1       0.451   1.295  -1.126  0.00  0.00    -0.031 A 
ATOM      4  C4  IND d   1      -0.577   1.213   1.232  0.00  0.00     0.051 A 
ATOM      5  C5  IND d   1      -1.110   2.014   2.204  0.00  0.00    -0.031 A 
ATOM      6  C6  IND d   1      -1.277   3.371   2.020  0.00  0.00     0.015 A 
ATOM      7  C7  IND d   1      -0.926   3.979   0.848  0.00  0.00    -0.016 A 
ATOM      8  C8  IND d   1      -0.378   3.171  -0.138  0.00  0.00    -0.047 A 
ATOM      9  C9  IND d   1      -0.167   1.800   0.058  0.00  0.00    -0.096 A 
ATOM     10  HN1 IND d   1       0.079   4.262  -1.758  0.00  0.00     0.298 HD
ENDROOT
TORSDOF 0
ENDMDL
