MODEL 1
REMARK minimizedAffinity 13.7797136
REMARK minimizedRMSD -1
REMARK  0 active torsions:
REMARK  status: ('A' for Active; 'I' for Inactive)
ROOT
ATOM      1  N1  IND d   1       0.672  -2.963  -2.364  0.00  0.00    -0.196 N 
ATOM      2  C2  IND d   1       1.546  -3.636  -1.556  0.00  0.00     0.054 A 
ATOM      3  C3  IND d   1       2.323  -4.464  -2.289  0.00  0.00    -0.031 A 
ATOM      4  C4  IND d   1       2.401  -4.802  -4.840  0.00  0.00     0.051 A 
ATOM      5  C5  IND d   1       1.768  -4.436  -5.995  0.00  0.00    -0.031 A 
ATOM      6  C6  IND d   1       0.719  -3.541  -5.999  0.00  0.00     0.015 A 
ATOM      7  C7  IND d   1       0.268  -2.966  -4.844  0.00  0.00    -0.016 A 
ATOM      8  C8  IND d   1       0.903  -3.341  -3.669  0.00  0.00    -0.047 A 
ATOM      9  C9  IND d   1       1.941  -4.281  -3.654  0.00  0.00    -0.096 A 
ATOM     10  HN1 IND d   1       0.079  -2.400  -2.102  0.00  0.00     0.298 HD
ENDROOT
TORSDOF 0
ENDMDL
