MODEL 1
REMARK minimizedAffinity 8.68712234
REMARK minimizedRMSD -1
REMARK  0 active torsions:
REMARK  status: ('A' for Active; 'I' for Inactive)
ROOT
ATOM      1  N1  IND d   1       0.842   3.223   0.872  0.00  0.00    -0.196 N 
ATOM      2  C2  IND d   1      -0.001   3.512  -0.165  0.00  0.00     0.054 A 
ATOM      3  C3  IND d   1      -1.238   3.026   0.085  0.00  0.00    -0.031 A 
ATOM      4  C4  IND d   1      -2.127   1.813   2.174  0.00  0.00     0.051 A 
ATOM      5  C5  IND d   1      -1.722   1.289   3.370  0.00  0.00    -0.031 A 
ATOM      6  C6  IND d   1      -0.415   1.387   3.804  0.00  0.00     0.015 A 
ATOM      7  C7  IND d   1       0.536   2.026   3.060  0.00  0.00    -0.016 A 
ATOM      8  C8  IND d   1       0.130   2.553   1.842  0.00  0.00    -0.047 A 
ATOM      9  C9  IND d   1      -1.185   2.419   1.377  0.00  0.00    -0.096 A 
ATOM     10  HN1 IND d   1       1.677   3.425   0.911  0.00  0.00     0.298 HD
ENDROOT
TORSDOF 0
ENDMDL
