MODEL 1
REMARK minimizedAffinity 5.79508114
REMARK minimizedRMSD -1
REMARK  0 active torsions:
REMARK  status: ('A' for Active; 'I' for Inactive)
ROOT
ATOM      1  N1  IND d   1       0.812   3.191  -0.631  0.00  0.00    -0.196 N 
ATOM      2  C2  IND d   1      -0.149   3.516  -1.547  0.00  0.00     0.054 A 
ATOM      3  C3  IND d   1      -1.381   3.279  -1.042  0.00  0.00    -0.031 A 
ATOM      4  C4  IND d   1      -2.056   2.453   1.301  0.00  0.00     0.051 A 
ATOM      5  C5  IND d   1      -1.528   1.990   2.474  0.00  0.00    -0.031 A 
ATOM      6  C6  IND d   1      -0.165   1.904   2.676  0.00  0.00     0.015 A 
ATOM      7  C7  IND d   1       0.724   2.291   1.713  0.00  0.00    -0.016 A 
ATOM      8  C8  IND d   1       0.191   2.755   0.519  0.00  0.00    -0.047 A 
ATOM      9  C9  IND d   1      -1.190   2.804   0.292  0.00  0.00    -0.096 A 
ATOM     10  HN1 IND d   1       1.661   3.248  -0.753  0.00  0.00     0.298 HD
ENDROOT
TORSDOF 0
ENDMDL
