MODEL 1
REMARK minimizedAffinity 16.5145054
REMARK minimizedRMSD -1
REMARK  0 active torsions:
REMARK  status: ('A' for Active; 'I' for Inactive)
ROOT
ATOM      1  N1  IND d   1      -2.005   2.062  -3.314  0.00  0.00    -0.196 N 
ATOM      2  C2  IND d   1      -2.962   1.147  -2.973  0.00  0.00     0.054 A 
ATOM      3  C3  IND d   1      -2.791   0.743  -1.695  0.00  0.00    -0.031 A 
ATOM      4  C4  IND d   1      -1.071   1.526   0.053  0.00  0.00     0.051 A 
ATOM      5  C5  IND d   1       0.031   2.322   0.199  0.00  0.00    -0.031 A 
ATOM      6  C6  IND d   1       0.519   3.089  -0.840  0.00  0.00     0.015 A 
ATOM      7  C7  IND d   1      -0.087   3.098  -2.064  0.00  0.00    -0.016 A 
ATOM      8  C8  IND d   1      -1.202   2.286  -2.218  0.00  0.00    -0.047 A 
ATOM      9  C9  IND d   1      -1.676   1.473  -1.181  0.00  0.00    -0.096 A 
ATOM     10  HN1 IND d   1      -1.919   2.435  -4.084  0.00  0.00     0.298 HD
ENDROOT
TORSDOF 0
ENDMDL
