MODEL 1
REMARK minimizedAffinity 9.07646847
REMARK minimizedRMSD -1
REMARK  0 active torsions:
REMARK  status: ('A' for Active; 'I' for Inactive)
ROOT
ATOM      1  N1  IND d   1       0.575   3.278  -0.891  0.00  0.00    -0.196 N 
ATOM      2  C2  IND d   1       0.507   4.510  -1.481  0.00  0.00     0.054 A 
ATOM      3  C3  IND d   1      -0.587   5.177  -1.050  0.00  0.00    -0.031 A 
ATOM      4  C4  IND d   1      -2.347   4.480   0.694  0.00  0.00     0.051 A 
ATOM      5  C5  IND d   1      -2.728   3.428   1.479  0.00  0.00    -0.031 A 
ATOM      6  C6  IND d   1      -2.011   2.250   1.517  0.00  0.00     0.015 A 
ATOM      7  C7  IND d   1      -0.875   2.083   0.776  0.00  0.00    -0.016 A 
ATOM      8  C8  IND d   1      -0.490   3.146  -0.027  0.00  0.00    -0.047 A 
ATOM      9  C9  IND d   1      -1.237   4.329  -0.102  0.00  0.00    -0.096 A 
ATOM     10  HN1 IND d   1       1.181   2.686  -1.036  0.00  0.00     0.298 HD
ENDROOT
TORSDOF 0
ENDMDL
