MODEL 1
REMARK minimizedAffinity 17.5593872
REMARK minimizedRMSD -1
REMARK  0 active torsions:
REMARK  status: ('A' for Active; 'I' for Inactive)
ROOT
ATOM      1  N1  IND d   1       0.993  -3.415  -0.177  0.00  0.00    -0.196 N 
ATOM      2  C2  IND d   1       1.914  -2.892   0.688  0.00  0.00     0.054 A 
ATOM      3  C3  IND d   1       3.124  -3.461   0.487  0.00  0.00    -0.031 A 
ATOM      4  C4  IND d   1       3.843  -5.196  -1.273  0.00  0.00     0.051 A 
ATOM      5  C5  IND d   1       3.345  -5.999  -2.261  0.00  0.00    -0.031 A 
ATOM      6  C6  IND d   1       2.011  -5.978  -2.614  0.00  0.00     0.015 A 
ATOM      7  C7  IND d   1       1.124  -5.143  -1.997  0.00  0.00    -0.016 A 
ATOM      8  C8  IND d   1       1.625  -4.332  -0.988  0.00  0.00    -0.047 A 
ATOM      9  C9  IND d   1       2.969  -4.379  -0.597  0.00  0.00    -0.096 A 
ATOM     10  HN1 IND d   1       0.160  -3.206  -0.209  0.00  0.00     0.298 HD
ENDROOT
TORSDOF 0
ENDMDL
