MODEL 1
REMARK minimizedAffinity 5.93200111
REMARK minimizedRMSD -1
REMARK  0 active torsions:
REMARK  status: ('A' for Active; 'I' for Inactive)
ROOT
ATOM      1  N1  IND d   1       0.429   3.544  -0.810  0.00  0.00    -0.196 N 
ATOM      2  C2  IND d   1       0.335   2.840   0.358  0.00  0.00     0.054 A 
ATOM      3  C3  IND d   1      -0.659   1.926   0.277  0.00  0.00    -0.031 A 
ATOM      4  C4  IND d   1      -2.189   1.345  -1.710  0.00  0.00     0.051 A 
ATOM      5  C5  IND d   1      -2.504   1.742  -2.979  0.00  0.00    -0.031 A 
ATOM      6  C6  IND d   1      -1.842   2.779  -3.604  0.00  0.00     0.015 A 
ATOM      7  C7  IND d   1      -0.828   3.453  -2.984  0.00  0.00    -0.016 A 
ATOM      8  C8  IND d   1      -0.511   3.058  -1.693  0.00  0.00    -0.047 A 
ATOM      9  C9  IND d   1      -1.207   2.034  -1.037  0.00  0.00    -0.096 A 
ATOM     10  HN1 IND d   1       0.982   4.183  -0.967  0.00  0.00     0.298 HD
ENDROOT
TORSDOF 0
ENDMDL
