MODEL 1
REMARK minimizedAffinity 10.8289051
REMARK minimizedRMSD -1
REMARK  0 active torsions:
REMARK  status: ('A' for Active; 'I' for Inactive)
ROOT
ATOM      1  N1  IND d   1      -1.984   2.171  -2.653  0.00  0.00    -0.196 N 
ATOM      2  C2  IND d   1      -1.876   3.152  -3.599  0.00  0.00     0.054 A 
ATOM      3  C3  IND d   1      -0.925   4.045  -3.245  0.00  0.00    -0.031 A 
ATOM      4  C4  IND d   1       0.648   4.038  -1.206  0.00  0.00     0.051 A 
ATOM      5  C5  IND d   1       0.901   3.365  -0.044  0.00  0.00    -0.031 A 
ATOM      6  C6  IND d   1       0.194   2.235   0.314  0.00  0.00     0.015 A 
ATOM      7  C7  IND d   1      -0.791   1.728  -0.486  0.00  0.00    -0.016 A 
ATOM      8  C8  IND d   1      -1.056   2.413  -1.664  0.00  0.00    -0.047 A 
ATOM      9  C9  IND d   1      -0.370   3.584  -2.012  0.00  0.00    -0.096 A 
ATOM     10  HN1 IND d   1      -2.538   1.514  -2.672  0.00  0.00     0.298 HD
ENDROOT
TORSDOF 0
ENDMDL
