MODEL 1
REMARK minimizedAffinity 5.74577093
REMARK minimizedRMSD -1
REMARK  0 active torsions:
REMARK  status: ('A' for Active; 'I' for Inactive)
ROOT
ATOM      1  N1  IND d   1       1.222   2.942   1.063  0.00  0.00    -0.196 N 
ATOM      2  C2  IND d   1       1.481   3.317   2.352  0.00  0.00     0.054 A 
ATOM      3  C3  IND d   1       0.404   3.087   3.135  0.00  0.00    -0.031 A 
ATOM      4  C4  IND d   1      -1.854   2.006   2.533  0.00  0.00     0.051 A 
ATOM      5  C5  IND d   1      -2.573   1.534   1.471  0.00  0.00    -0.031 A 
ATOM      6  C6  IND d   1      -2.052   1.503   0.194  0.00  0.00     0.015 A 
ATOM      7  C7  IND d   1      -0.783   1.936  -0.069  0.00  0.00    -0.016 A 
ATOM      8  C8  IND d   1      -0.053   2.423   1.006  0.00  0.00    -0.047 A 
ATOM      9  C9  IND d   1      -0.591   2.496   2.297  0.00  0.00    -0.096 A 
ATOM     10  HN1 IND d   1       1.764   3.018   0.400  0.00  0.00     0.298 HD
ENDROOT
TORSDOF 0
ENDMDL
