MODEL 1
REMARK minimizedAffinity 17.7377548
REMARK minimizedRMSD -1
REMARK  0 active torsions:
REMARK  status: ('A' for Active; 'I' for Inactive)
ROOT
ATOM      1  N1  IND d   1       0.854   3.190   0.111  0.00  0.00    -0.196 N 
ATOM      2  C2  IND d   1       1.612   4.287  -0.192  0.00  0.00     0.054 A 
ATOM      3  C3  IND d   1       1.233   4.807  -1.381  0.00  0.00    -0.031 A 
ATOM      4  C4  IND d   1      -0.676   4.083  -2.949  0.00  0.00     0.051 A 
ATOM      5  C5  IND d   1      -1.623   3.112  -3.116  0.00  0.00    -0.031 A 
ATOM      6  C6  IND d   1      -1.798   2.099  -2.196  0.00  0.00     0.015 A 
ATOM      7  C7  IND d   1      -1.037   2.025  -1.064  0.00  0.00    -0.016 A 
ATOM      8  C8  IND d   1      -0.070   3.005  -0.895  0.00  0.00    -0.047 A 
ATOM      9  C9  IND d   1       0.141   4.012  -1.846  0.00  0.00    -0.096 A 
ATOM     10  HN1 IND d   1       0.939   2.699   0.812  0.00  0.00     0.298 HD
ENDROOT
TORSDOF 0
ENDMDL
