MODEL 1
REMARK minimizedAffinity 20.4439735
REMARK minimizedRMSD -1
REMARK  0 active torsions:
REMARK  status: ('A' for Active; 'I' for Inactive)
ROOT
ATOM      1  N1  IND d   1      -4.947   4.950  -2.005  0.00  0.00    -0.196 N 
ATOM      2  C2  IND d   1      -3.940   4.042  -2.182  0.00  0.00     0.054 A 
ATOM      3  C3  IND d   1      -3.425   3.672  -0.988  0.00  0.00    -0.031 A 
ATOM      4  C4  IND d   1      -4.150   4.353   1.387  0.00  0.00     0.051 A 
ATOM      5  C5  IND d   1      -5.001   5.188   2.056  0.00  0.00    -0.031 A 
ATOM      6  C6  IND d   1      -5.897   6.000   1.392  0.00  0.00     0.015 A 
ATOM      7  C7  IND d   1      -5.984   6.000   0.029  0.00  0.00    -0.016 A 
ATOM      8  C8  IND d   1      -5.117   5.159  -0.654  0.00  0.00    -0.047 A 
ATOM      9  C9  IND d   1      -4.176   4.363   0.012  0.00  0.00    -0.096 A 
ATOM     10  HN1 IND d   1      -5.398   5.327  -2.632  0.00  0.00     0.298 HD
ENDROOT
TORSDOF 0
ENDMDL
