MODEL 1
REMARK minimizedAffinity -4.60451508
REMARK minimizedRMSD -1
REMARK  0 active torsions:
REMARK  status: ('A' for Active; 'I' for Inactive)
ROOT
ATOM      1  N1  IND d   1      -0.420   2.807   3.143  0.00  0.00    -0.196 N 
ATOM      2  C2  IND d   1      -1.178   1.700   3.405  0.00  0.00     0.054 A 
ATOM      3  C3  IND d   1      -1.550   1.101   2.252  0.00  0.00    -0.031 A 
ATOM      4  C4  IND d   1      -0.945   1.707  -0.176  0.00  0.00     0.051 A 
ATOM      5  C5  IND d   1      -0.307   2.657  -0.921  0.00  0.00    -0.031 A 
ATOM      6  C6  IND d   1       0.342   3.727  -0.339  0.00  0.00     0.015 A 
ATOM      7  C7  IND d   1       0.386   3.880   1.018  0.00  0.00    -0.016 A 
ATOM      8  C8  IND d   1      -0.267   2.920   1.778  0.00  0.00    -0.047 A 
ATOM      9  C9  IND d   1      -0.963   1.856   1.191  0.00  0.00    -0.096 A 
ATOM     10  HN1 IND d   1      -0.095   3.343   3.731  0.00  0.00     0.298 HD
ENDROOT
TORSDOF 0
ENDMDL
