MODEL 1
REMARK minimizedAffinity 8.77454185
REMARK minimizedRMSD -1
REMARK  0 active torsions:
REMARK  status: ('A' for Active; 'I' for Inactive)
ROOT
ATOM      1  N1  IND d   1      -2.400   1.811  -1.952  0.00  0.00    -0.196 N 
ATOM      2  C2  IND d   1      -2.331   2.188  -3.264  0.00  0.00     0.054 A 
ATOM      3  C3  IND d   1      -1.248   2.969  -3.472  0.00  0.00    -0.031 A 
ATOM      4  C4  IND d   1       0.602   3.673  -1.826  0.00  0.00     0.051 A 
ATOM      5  C5  IND d   1       0.953   3.605  -0.507  0.00  0.00    -0.031 A 
ATOM      6  C6  IND d   1       0.191   2.919   0.416  0.00  0.00     0.015 A 
ATOM      7  C7  IND d   1      -0.951   2.263   0.050  0.00  0.00    -0.016 A 
ATOM      8  C8  IND d   1      -1.314   2.336  -1.287  0.00  0.00    -0.047 A 
ATOM      9  C9  IND d   1      -0.567   3.067  -2.220  0.00  0.00    -0.096 A 
ATOM     10  HN1 IND d   1      -3.019   1.327  -1.601  0.00  0.00     0.298 HD
ENDROOT
TORSDOF 0
ENDMDL
