MODEL 1
REMARK minimizedAffinity 14.8692808
REMARK minimizedRMSD -1
REMARK  0 active torsions:
REMARK  status: ('A' for Active; 'I' for Inactive)
ROOT
ATOM      1  C   UNL d   1       1.600  -1.795   1.233  0.00  0.00    -0.002 A 
ATOM      2  C1  UNL d   1       0.339  -1.609   0.682  0.00  0.00     0.010 A 
ATOM      3  C2  UNL d   1      -0.288  -0.363   0.748  0.00  0.00     0.041 A 
ATOM      4  C3  UNL d   1       0.380   0.703   1.381  0.00  0.00    -0.075 A 
ATOM      5  S   UNL d   1      -0.193   2.317   1.581  0.00  0.00     0.015 SA
ATOM      6  C4  UNL d   1       1.222   2.798   2.400  0.00  0.00     0.022 A 
ATOM      7  C5  UNL d   1       2.121   1.765   2.528  0.00  0.00     0.026 A 
ATOM      8  C6  UNL d   1       1.650   0.541   1.942  0.00  0.00    -0.082 A 
ATOM      9  C7  UNL d   1       2.259  -0.735   1.860  0.00  0.00     0.045 A 
ENDROOT
TORSDOF 0
ENDMDL
