MODEL 1
REMARK minimizedAffinity 9.90387058
REMARK minimizedRMSD -1
REMARK  0 active torsions:
REMARK  status: ('A' for Active; 'I' for Inactive)
ROOT
ATOM      1  C   UNL d   1       3.178   2.197   2.285  0.00  0.00    -0.002 A 
ATOM      2  C1  UNL d   1       2.845   2.157   0.939  0.00  0.00     0.010 A 
ATOM      3  C2  UNL d   1       2.272   1.012   0.382  0.00  0.00     0.041 A 
ATOM      4  C3  UNL d   1       2.036  -0.103   1.210  0.00  0.00    -0.075 A 
ATOM      5  S   UNL d   1       1.344  -1.613   0.748  0.00  0.00     0.015 SA
ATOM      6  C4  UNL d   1       1.473  -2.240   2.328  0.00  0.00     0.022 A 
ATOM      7  C5  UNL d   1       2.029  -1.334   3.199  0.00  0.00     0.026 A 
ATOM      8  C6  UNL d   1       2.362  -0.087   2.569  0.00  0.00    -0.082 A 
ATOM      9  C7  UNL d   1       2.942   1.089   3.103  0.00  0.00     0.045 A 
ENDROOT
TORSDOF 0
ENDMDL
