MODEL 1
REMARK minimizedAffinity 22.3201942
REMARK minimizedRMSD -1
REMARK  0 active torsions:
REMARK  status: ('A' for Active; 'I' for Inactive)
ROOT
ATOM      1  C   UNL d   1      -5.652  -1.255  -5.298  0.00  0.00    -0.002 A 
ATOM      2  C1  UNL d   1      -4.966  -1.310  -4.093  0.00  0.00     0.010 A 
ATOM      3  C2  UNL d   1      -4.569  -2.537  -3.558  0.00  0.00     0.041 A 
ATOM      4  C3  UNL d   1      -4.874  -3.719  -4.262  0.00  0.00    -0.075 A 
ATOM      5  S   UNL d   1      -4.487  -5.334  -3.799  0.00  0.00     0.015 SA
ATOM      6  C4  UNL d   1      -5.222  -5.988  -5.190  0.00  0.00     0.022 A 
ATOM      7  C5  UNL d   1      -5.755  -5.012  -5.999  0.00  0.00     0.026 A 
ATOM      8  C6  UNL d   1      -5.563  -3.688  -5.477  0.00  0.00    -0.082 A 
ATOM      9  C7  UNL d   1      -5.953  -2.429  -5.993  0.00  0.00     0.045 A 
ENDROOT
TORSDOF 0
ENDMDL
