MODEL 1
REMARK minimizedAffinity 15.8928118
REMARK minimizedRMSD -1
REMARK  0 active torsions:
REMARK  status: ('A' for Active; 'I' for Inactive)
ROOT
ATOM      1  C   UNL d   1      -5.863   4.499   2.100  0.00  0.00    -0.002 A 
ATOM      2  C1  UNL d   1      -6.000   4.784   0.749  0.00  0.00     0.010 A 
ATOM      3  C2  UNL d   1      -5.046   4.344  -0.170  0.00  0.00     0.041 A 
ATOM      4  C3  UNL d   1      -3.942   3.603   0.295  0.00  0.00    -0.075 A 
ATOM      5  S   UNL d   1      -2.649   2.960  -0.647  0.00  0.00     0.015 SA
ATOM      6  C4  UNL d   1      -1.885   2.290   0.721  0.00  0.00     0.022 A 
ATOM      7  C5  UNL d   1      -2.585   2.542   1.877  0.00  0.00     0.026 A 
ATOM      8  C6  UNL d   1      -3.782   3.302   1.651  0.00  0.00    -0.082 A 
ATOM      9  C7  UNL d   1      -4.766   3.763   2.558  0.00  0.00     0.045 A 
ENDROOT
TORSDOF 0
ENDMDL
