MODEL 1
REMARK minimizedAffinity 14.7580919
REMARK minimizedRMSD -1
REMARK  0 active torsions:
REMARK  status: ('A' for Active; 'I' for Inactive)
ROOT
ATOM      1  C   UNL d   1       1.969   4.353  -0.826  0.00  0.00    -0.002 A 
ATOM      2  C1  UNL d   1       0.927   4.478   0.081  0.00  0.00     0.010 A 
ATOM      3  C2  UNL d   1       0.618   3.435   0.957  0.00  0.00     0.041 A 
ATOM      4  C3  UNL d   1       1.383   2.254   0.907  0.00  0.00    -0.075 A 
ATOM      5  S   UNL d   1       1.187   0.846   1.883  0.00  0.00     0.015 SA
ATOM      6  C4  UNL d   1       2.484   0.046   1.120  0.00  0.00     0.022 A 
ATOM      7  C5  UNL d   1       3.063   0.819   0.141  0.00  0.00     0.026 A 
ATOM      8  C6  UNL d   1       2.439   2.104   0.003  0.00  0.00    -0.082 A 
ATOM      9  C7  UNL d   1       2.726   3.179  -0.873  0.00  0.00     0.045 A 
ENDROOT
TORSDOF 0
ENDMDL
