MODEL 1
REMARK minimizedAffinity 5.79645348
REMARK minimizedRMSD -1
REMARK  0 active torsions:
REMARK  status: ('A' for Active; 'I' for Inactive)
ROOT
ATOM      1  C   UNL d   1      -4.519  -6.000  -4.961  0.00  0.00    -0.002 A 
ATOM      2  C1  UNL d   1      -5.476  -5.680  -5.915  0.00  0.00     0.010 A 
ATOM      3  C2  UNL d   1      -5.988  -4.383  -6.000  0.00  0.00     0.041 A 
ATOM      4  C3  UNL d   1      -5.517  -3.404  -5.103  0.00  0.00    -0.075 A 
ATOM      5  S   UNL d   1      -5.999  -1.751  -5.021  0.00  0.00     0.015 SA
ATOM      6  C4  UNL d   1      -4.947  -1.430  -3.720  0.00  0.00     0.022 A 
ATOM      7  C5  UNL d   1      -4.237  -2.546  -3.344  0.00  0.00     0.026 A 
ATOM      8  C6  UNL d   1      -4.554  -3.702  -4.135  0.00  0.00    -0.082 A 
ATOM      9  C7  UNL d   1      -4.055  -5.026  -4.073  0.00  0.00     0.045 A 
ENDROOT
TORSDOF 0
ENDMDL
