MODEL 1
REMARK minimizedAffinity 18.9727592
REMARK minimizedRMSD -1
REMARK  0 active torsions:
REMARK  status: ('A' for Active; 'I' for Inactive)
ROOT
ATOM      1  C   UNL d   1       0.818   0.034   1.166  0.00  0.00    -0.002 A 
ATOM      2  C1  UNL d   1       2.167   0.315   1.002  0.00  0.00     0.010 A 
ATOM      3  C2  UNL d   1       3.126  -0.327   1.787  0.00  0.00     0.041 A 
ATOM      4  C3  UNL d   1       2.703  -1.266   2.748  0.00  0.00    -0.075 A 
ATOM      5  S   UNL d   1       3.700  -2.176   3.822  0.00  0.00     0.015 SA
ATOM      6  C4  UNL d   1       2.358  -2.959   4.523  0.00  0.00     0.022 A 
ATOM      7  C5  UNL d   1       1.171  -2.548   3.964  0.00  0.00     0.026 A 
ATOM      8  C6  UNL d   1       1.350  -1.567   2.931  0.00  0.00    -0.082 A 
ATOM      9  C7  UNL d   1       0.402  -0.898   2.120  0.00  0.00     0.045 A 
ENDROOT
TORSDOF 0
ENDMDL
