MODEL 1
REMARK minimizedAffinity 14.3688784
REMARK minimizedRMSD -1
REMARK  0 active torsions:
REMARK  status: ('A' for Active; 'I' for Inactive)
ROOT
ATOM      1  C   UNL d   1      -5.362   2.031  -4.267  0.00  0.00    -0.002 A 
ATOM      2  C1  UNL d   1      -4.252   1.342  -3.799  0.00  0.00     0.010 A 
ATOM      3  C2  UNL d   1      -3.757   1.581  -2.516  0.00  0.00     0.041 A 
ATOM      4  C3  UNL d   1      -4.402   2.533  -1.702  0.00  0.00    -0.075 A 
ATOM      5  S   UNL d   1      -3.973   2.991  -0.097  0.00  0.00     0.015 SA
ATOM      6  C4  UNL d   1      -5.253   4.112   0.006  0.00  0.00     0.022 A 
ATOM      7  C5  UNL d   1      -6.000   4.149  -1.148  0.00  0.00     0.026 A 
ATOM      8  C6  UNL d   1      -5.522   3.239  -2.152  0.00  0.00    -0.082 A 
ATOM      9  C7  UNL d   1      -6.000   2.974  -3.458  0.00  0.00     0.045 A 
ENDROOT
TORSDOF 0
ENDMDL
