MODEL 1
REMARK minimizedAffinity 13.3852863
REMARK minimizedRMSD -1
REMARK  0 active torsions:
REMARK  status: ('A' for Active; 'I' for Inactive)
ROOT
ATOM      1  C   UNL d   1      -4.483  -1.482  -5.213  0.00  0.00    -0.002 A 
ATOM      2  C1  UNL d   1      -4.009  -1.777  -3.942  0.00  0.00     0.010 A 
ATOM      3  C2  UNL d   1      -4.191  -3.047  -3.393  0.00  0.00     0.041 A 
ATOM      4  C3  UNL d   1      -4.863  -4.027  -4.151  0.00  0.00    -0.075 A 
ATOM      5  S   UNL d   1      -5.200  -5.652  -3.683  0.00  0.00     0.015 SA
ATOM      6  C4  UNL d   1      -5.981  -5.993  -5.159  0.00  0.00     0.022 A 
ATOM      7  C5  UNL d   1      -5.994  -4.906  -6.000  0.00  0.00     0.026 A 
ATOM      8  C6  UNL d   1      -5.349  -3.755  -5.433  0.00  0.00    -0.082 A 
ATOM      9  C7  UNL d   1      -5.149  -2.456  -5.961  0.00  0.00     0.045 A 
ENDROOT
TORSDOF 0
ENDMDL
