MODEL 1
REMARK minimizedAffinity 0.367898136
REMARK minimizedRMSD -1
REMARK  2 active torsions:
REMARK  status: ('A' for Active; 'I' for Inactive)
REMARK    1  A    between atoms: C1_2  and  C2_3 
REMARK    2  A    between atoms: C2_3  and  C3_4 
ROOT
ATOM      1  C3  UNL d   1       0.991   2.312  -1.550  0.00  0.00    -0.075 A 
ATOM      2  C4  UNL d   1       0.437   2.047  -0.289  0.00  0.00     0.002 A 
ATOM      3  C5  UNL d   1       0.525   0.772   0.270  0.00  0.00     0.002 A 
ATOM      4  C6  UNL d   1       1.157  -0.256  -0.428  0.00  0.00    -0.004 A 
ATOM      5  C7  UNL d   1       1.695  -0.008  -1.689  0.00  0.00     0.002 A 
ATOM      6  C8  UNL d   1       1.613   1.269  -2.248  0.00  0.00     0.002 A 
ENDROOT
BRANCH   1   7
ATOM      7  C2  UNL d   1       0.925   3.698  -2.147  0.00  0.00     0.056 C 
BRANCH   7   8
ATOM      8  C1  UNL d   1       0.928   4.825  -1.109  0.00  0.00     0.007 C 
ATOM      9  C   UNL d   1       1.816   5.998  -1.499  0.00  0.00     0.009 C 
ENDBRANCH   7   8
ENDBRANCH   1   7
TORSDOF 2
ENDMDL
