MODEL 1
REMARK minimizedAffinity 0.00303630996
REMARK minimizedRMSD -1
REMARK  2 active torsions:
REMARK  status: ('A' for Active; 'I' for Inactive)
REMARK    1  A    between atoms: C1_2  and  C2_3 
REMARK    2  A    between atoms: C2_3  and  C3_4 
ROOT
ATOM      1  C3  UNL d   1       0.806   2.096   0.141  0.00  0.00    -0.075 A 
ATOM      2  C4  UNL d   1       0.953   0.702   0.106  0.00  0.00     0.002 A 
ATOM      3  C5  UNL d   1       1.061   0.032  -1.113  0.00  0.00     0.002 A 
ATOM      4  C6  UNL d   1       1.013   0.744  -2.310  0.00  0.00    -0.004 A 
ATOM      5  C7  UNL d   1       0.851   2.128  -2.287  0.00  0.00     0.002 A 
ATOM      6  C8  UNL d   1       0.747   2.801  -1.068  0.00  0.00     0.002 A 
ENDROOT
BRANCH   1   7
ATOM      7  C2  UNL d   1       0.718   2.830   1.458  0.00  0.00     0.056 C 
BRANCH   7   8
ATOM      8  C1  UNL d   1       1.281   4.255   1.416  0.00  0.00     0.007 C 
ATOM      9  C   UNL d   1       2.271   4.543   2.537  0.00  0.00     0.009 C 
ENDBRANCH   7   8
ENDBRANCH   1   7
TORSDOF 2
ENDMDL
