MODEL 1
REMARK minimizedAffinity 3.79264259
REMARK minimizedRMSD -1
REMARK  2 active torsions:
REMARK  status: ('A' for Active; 'I' for Inactive)
REMARK    1  A    between atoms: C1_2  and  C2_3 
REMARK    2  A    between atoms: C2_3  and  C3_4 
ROOT
ATOM      1  C3  UNL d   1      -2.364   2.110   3.710  0.00  0.00    -0.075 A 
ATOM      2  C4  UNL d   1      -1.347   1.145   3.729  0.00  0.00     0.002 A 
ATOM      3  C5  UNL d   1      -1.131   0.365   4.866  0.00  0.00     0.002 A 
ATOM      4  C6  UNL d   1      -1.919   0.548   6.000  0.00  0.00    -0.004 A 
ATOM      5  C7  UNL d   1      -2.921   1.516   5.998  0.00  0.00     0.002 A 
ATOM      6  C8  UNL d   1      -3.143   2.294   4.861  0.00  0.00     0.002 A 
ENDROOT
BRANCH   1   7
ATOM      7  C2  UNL d   1      -2.622   2.937   2.473  0.00  0.00     0.056 C 
BRANCH   7   8
ATOM      8  C1  UNL d   1      -3.396   2.195   1.378  0.00  0.00     0.007 C 
ATOM      9  C   UNL d   1      -4.096   0.940   1.883  0.00  0.00     0.009 C 
ENDBRANCH   7   8
ENDBRANCH   1   7
TORSDOF 2
ENDMDL
