MODEL 1
REMARK minimizedAffinity 3.90119672
REMARK minimizedRMSD -1
REMARK  2 active torsions:
REMARK  status: ('A' for Active; 'I' for Inactive)
REMARK    1  A    between atoms: C1_2  and  C2_3 
REMARK    2  A    between atoms: C2_3  and  C3_4 
ROOT
ATOM      1  C3  UNL d   1       1.008   2.414  -0.900  0.00  0.00    -0.075 A 
ATOM      2  C4  UNL d   1       0.997   3.674  -1.515  0.00  0.00     0.002 A 
ATOM      3  C5  UNL d   1       1.078   4.837  -0.749  0.00  0.00     0.002 A 
ATOM      4  C6  UNL d   1       1.160   4.756   0.640  0.00  0.00    -0.004 A 
ATOM      5  C7  UNL d   1       1.156   3.509   1.262  0.00  0.00     0.002 A 
ATOM      6  C8  UNL d   1       1.080   2.344   0.498  0.00  0.00     0.002 A 
ENDROOT
BRANCH   1   7
ATOM      7  C2  UNL d   1       0.951   1.151  -1.726  0.00  0.00     0.056 C 
BRANCH   7   8
ATOM      8  C1  UNL d   1       1.766  -0.011  -1.146  0.00  0.00     0.007 C 
ATOM      9  C   UNL d   1       0.968  -1.302  -1.024  0.00  0.00     0.009 C 
ENDBRANCH   7   8
ENDBRANCH   1   7
TORSDOF 2
ENDMDL
