MODEL 1
REMARK minimizedAffinity -0.124635167
REMARK minimizedRMSD -1
REMARK  2 active torsions:
REMARK  status: ('A' for Active; 'I' for Inactive)
REMARK    1  A    between atoms: C1_2  and  C2_3 
REMARK    2  A    between atoms: C2_3  and  C3_4 
ROOT
ATOM      1  C3  UNL d   1      -4.430  -0.241   2.846  0.00  0.00    -0.075 A 
ATOM      2  C4  UNL d   1      -4.717   0.996   2.250  0.00  0.00     0.002 A 
ATOM      3  C5  UNL d   1      -3.897   2.100   2.480  0.00  0.00     0.002 A 
ATOM      4  C6  UNL d   1      -2.787   1.986   3.315  0.00  0.00    -0.004 A 
ATOM      5  C7  UNL d   1      -2.502   0.767   3.926  0.00  0.00     0.002 A 
ATOM      6  C8  UNL d   1      -3.319  -0.341   3.694  0.00  0.00     0.002 A 
ENDROOT
BRANCH   1   7
ATOM      7  C2  UNL d   1      -5.298  -1.448   2.578  0.00  0.00     0.056 C 
BRANCH   7   8
ATOM      8  C1  UNL d   1      -4.755  -2.751   3.174  0.00  0.00     0.007 C 
ATOM      9  C   UNL d   1      -5.851  -3.706   3.627  0.00  0.00     0.009 C 
ENDBRANCH   7   8
ENDBRANCH   1   7
TORSDOF 2
ENDMDL
