MODEL 1
REMARK minimizedAffinity 4.37077188
REMARK minimizedRMSD -1
REMARK  2 active torsions:
REMARK  status: ('A' for Active; 'I' for Inactive)
REMARK    1  A    between atoms: C1_2  and  C2_3 
REMARK    2  A    between atoms: C2_3  and  C3_4 
ROOT
ATOM      1  C3  UNL d   1       1.382   2.774  -1.058  0.00  0.00    -0.075 A 
ATOM      2  C4  UNL d   1       0.654   2.645  -2.249  0.00  0.00     0.002 A 
ATOM      3  C5  UNL d   1       0.536   1.405  -2.877  0.00  0.00     0.002 A 
ATOM      4  C6  UNL d   1       1.152   0.282  -2.329  0.00  0.00    -0.004 A 
ATOM      5  C7  UNL d   1       1.892   0.401  -1.155  0.00  0.00     0.002 A 
ATOM      6  C8  UNL d   1       2.008   1.640  -0.522  0.00  0.00     0.002 A 
ENDROOT
BRANCH   1   7
ATOM      7  C2  UNL d   1       1.489   4.107  -0.358  0.00  0.00     0.056 C 
BRANCH   7   8
ATOM      8  C1  UNL d   1       1.515   5.310  -1.307  0.00  0.00     0.007 C 
ATOM      9  C   UNL d   1       2.872   5.998  -1.367  0.00  0.00     0.009 C 
ENDBRANCH   7   8
ENDBRANCH   1   7
TORSDOF 2
ENDMDL
