MODEL 1
REMARK minimizedAffinity -3.35115981
REMARK minimizedRMSD -1
REMARK  2 active torsions:
REMARK  status: ('A' for Active; 'I' for Inactive)
REMARK    1  A    between atoms: C1_2  and  C2_3 
REMARK    2  A    between atoms: C2_3  and  C3_4 
ROOT
ATOM      1  C3  UNL d   1       1.505   1.108  -1.177  0.00  0.00    -0.075 A 
ATOM      2  C4  UNL d   1       1.969   0.988   0.141  0.00  0.00     0.002 A 
ATOM      3  C5  UNL d   1       1.893   2.070   1.019  0.00  0.00     0.002 A 
ATOM      4  C6  UNL d   1       1.364   3.285   0.589  0.00  0.00    -0.004 A 
ATOM      5  C7  UNL d   1       0.916   3.420  -0.723  0.00  0.00     0.002 A 
ATOM      6  C8  UNL d   1       0.986   2.338  -1.602  0.00  0.00     0.002 A 
ENDROOT
BRANCH   1   7
ATOM      7  C2  UNL d   1       1.556  -0.068  -2.123  0.00  0.00     0.056 C 
BRANCH   7   8
ATOM      8  C1  UNL d   1       1.475   0.320  -3.604  0.00  0.00     0.007 C 
ATOM      9  C   UNL d   1       1.978  -0.772  -4.539  0.00  0.00     0.009 C 
ENDBRANCH   7   8
ENDBRANCH   1   7
TORSDOF 2
ENDMDL
