MODEL 1
REMARK minimizedAffinity 4.11120701
REMARK minimizedRMSD -1
REMARK  2 active torsions:
REMARK  status: ('A' for Active; 'I' for Inactive)
REMARK    1  A    between atoms: C1_2  and  C2_3 
REMARK    2  A    between atoms: C2_3  and  C3_4 
ROOT
ATOM      1  C3  UNL d   1       0.551  -0.193  -1.181  0.00  0.00    -0.075 A 
ATOM      2  C4  UNL d   1       0.683  -0.506   0.180  0.00  0.00     0.002 A 
ATOM      3  C5  UNL d   1       0.936   0.498   1.116  0.00  0.00     0.002 A 
ATOM      4  C6  UNL d   1       1.070   1.821   0.703  0.00  0.00    -0.004 A 
ATOM      5  C7  UNL d   1       0.958   2.141  -0.648  0.00  0.00     0.002 A 
ATOM      6  C8  UNL d   1       0.701   1.140  -1.586  0.00  0.00     0.002 A 
ENDROOT
BRANCH   1   7
ATOM      7  C2  UNL d   1       0.249  -1.270  -2.195  0.00  0.00     0.056 C 
BRANCH   7   8
ATOM      8  C1  UNL d   1      -1.190  -1.794  -2.138  0.00  0.00     0.007 C 
ATOM      9  C   UNL d   1      -1.272  -3.298  -1.912  0.00  0.00     0.009 C 
ENDBRANCH   7   8
ENDBRANCH   1   7
TORSDOF 2
ENDMDL
