MODEL 1
REMARK minimizedAffinity 6.06646729
REMARK minimizedRMSD -1
REMARK  2 active torsions:
REMARK  status: ('A' for Active; 'I' for Inactive)
REMARK    1  A    between atoms: C1_2  and  C2_3 
REMARK    2  A    between atoms: C2_3  and  C3_4 
ROOT
ATOM      1  C3  UNL d   1       1.078   2.411   0.148  0.00  0.00    -0.075 A 
ATOM      2  C4  UNL d   1       0.951   3.557  -0.651  0.00  0.00     0.002 A 
ATOM      3  C5  UNL d   1       0.680   3.444  -2.015  0.00  0.00     0.002 A 
ATOM      4  C6  UNL d   1       0.542   2.186  -2.599  0.00  0.00    -0.004 A 
ATOM      5  C7  UNL d   1       0.683   1.041  -1.818  0.00  0.00     0.002 A 
ATOM      6  C8  UNL d   1       0.949   1.151  -0.452  0.00  0.00     0.002 A 
ENDROOT
BRANCH   1   7
ATOM      7  C2  UNL d   1       1.342   2.528   1.630  0.00  0.00     0.056 C 
BRANCH   7   8
ATOM      8  C1  UNL d   1       1.698   3.945   2.090  0.00  0.00     0.007 C 
ATOM      9  C   UNL d   1       2.932   3.994   2.983  0.00  0.00     0.009 C 
ENDBRANCH   7   8
ENDBRANCH   1   7
TORSDOF 2
ENDMDL
