MODEL 1
REMARK minimizedAffinity 10.7815437
REMARK minimizedRMSD -1
REMARK  2 active torsions:
REMARK  status: ('A' for Active; 'I' for Inactive)
REMARK    1  A    between atoms: C1_2  and  C2_3 
REMARK    2  A    between atoms: C2_3  and  C3_4 
ROOT
ATOM      1  C3  UNL d   1      -0.012   2.564  -1.962  0.00  0.00    -0.075 A 
ATOM      2  C4  UNL d   1      -0.998   1.971  -1.159  0.00  0.00     0.002 A 
ATOM      3  C5  UNL d   1      -2.323   2.401  -1.231  0.00  0.00     0.002 A 
ATOM      4  C6  UNL d   1      -2.677   3.434  -2.097  0.00  0.00    -0.004 A 
ATOM      5  C7  UNL d   1      -1.704   4.041  -2.887  0.00  0.00     0.002 A 
ATOM      6  C8  UNL d   1      -0.378   3.609  -2.820  0.00  0.00     0.002 A 
ENDROOT
BRANCH   1   7
ATOM      7  C2  UNL d   1       1.418   2.083  -1.910  0.00  0.00     0.056 C 
BRANCH   7   8
ATOM      8  C1  UNL d   1       1.625   0.832  -1.050  0.00  0.00     0.007 C 
ATOM      9  C   UNL d   1       1.207  -0.454  -1.751  0.00  0.00     0.009 C 
ENDBRANCH   7   8
ENDBRANCH   1   7
TORSDOF 2
ENDMDL
