MODEL 1
REMARK minimizedAffinity 11.4640884
REMARK minimizedRMSD -1
REMARK  2 active torsions:
REMARK  status: ('A' for Active; 'I' for Inactive)
REMARK    1  A    between atoms: C1_2  and  C2_3 
REMARK    2  A    between atoms: C2_3  and  C3_4 
ROOT
ATOM      1  C3  UNL d   1       0.874   3.424  -1.311  0.00  0.00    -0.075 A 
ATOM      2  C4  UNL d   1      -0.055   3.349  -2.360  0.00  0.00     0.002 A 
ATOM      3  C5  UNL d   1      -0.261   2.149  -3.039  0.00  0.00     0.002 A 
ATOM      4  C6  UNL d   1       0.465   1.012  -2.688  0.00  0.00    -0.004 A 
ATOM      5  C7  UNL d   1       1.402   1.079  -1.659  0.00  0.00     0.002 A 
ATOM      6  C8  UNL d   1       1.607   2.278  -0.975  0.00  0.00     0.002 A 
ENDROOT
BRANCH   1   7
ATOM      7  C2  UNL d   1       1.080   4.713  -0.552  0.00  0.00     0.056 C 
BRANCH   7   8
ATOM      8  C1  UNL d   1       1.407   5.916  -1.443  0.00  0.00     0.007 C 
ATOM      9  C   UNL d   1       2.879   5.999  -1.825  0.00  0.00     0.009 C 
ENDBRANCH   7   8
ENDBRANCH   1   7
TORSDOF 2
ENDMDL
