MODEL 1
REMARK minimizedAffinity -1.73338485
REMARK minimizedRMSD -1
REMARK  2 active torsions:
REMARK  status: ('A' for Active; 'I' for Inactive)
REMARK    1  A    between atoms: C1_2  and  C2_3 
REMARK    2  A    between atoms: C2_3  and  C3_4 
ROOT
ATOM      1  C3  UNL d   1       1.077  -0.960  -1.088  0.00  0.00    -0.075 A 
ATOM      2  C4  UNL d   1       0.232  -1.416  -2.110  0.00  0.00     0.002 A 
ATOM      3  C5  UNL d   1      -0.440  -2.632  -1.984  0.00  0.00     0.002 A 
ATOM      4  C6  UNL d   1      -0.267  -3.412  -0.842  0.00  0.00    -0.004 A 
ATOM      5  C7  UNL d   1       0.584  -2.976   0.172  0.00  0.00     0.002 A 
ATOM      6  C8  UNL d   1       1.253  -1.757   0.050  0.00  0.00     0.002 A 
ENDROOT
BRANCH   1   7
ATOM      7  C2  UNL d   1       1.784   0.370  -1.206  0.00  0.00     0.056 C 
BRANCH   7   8
ATOM      8  C1  UNL d   1       0.983   1.437  -1.959  0.00  0.00     0.007 C 
ATOM      9  C   UNL d   1       0.626   2.640  -1.097  0.00  0.00     0.009 C 
ENDBRANCH   7   8
ENDBRANCH   1   7
TORSDOF 2
ENDMDL
