MODEL 1
REMARK minimizedAffinity -0.151992917
REMARK minimizedRMSD -1
REMARK  2 active torsions:
REMARK  status: ('A' for Active; 'I' for Inactive)
REMARK    1  A    between atoms: C1_2  and  C2_3 
REMARK    2  A    between atoms: C2_3  and  C3_4 
ROOT
ATOM      1  C3  UNL d   1       0.975  -0.501  -0.498  0.00  0.00    -0.075 A 
ATOM      2  C4  UNL d   1       1.184  -0.138   0.840  0.00  0.00     0.002 A 
ATOM      3  C5  UNL d   1       1.090   1.197   1.234  0.00  0.00     0.002 A 
ATOM      4  C6  UNL d   1       0.797   2.185   0.296  0.00  0.00    -0.004 A 
ATOM      5  C7  UNL d   1       0.604   1.837  -1.039  0.00  0.00     0.002 A 
ATOM      6  C8  UNL d   1       0.693   0.502  -1.435  0.00  0.00     0.002 A 
ENDROOT
BRANCH   1   7
ATOM      7  C2  UNL d   1       1.047  -1.948  -0.926  0.00  0.00     0.056 C 
BRANCH   7   8
ATOM      8  C1  UNL d   1       1.310  -2.926   0.223  0.00  0.00     0.007 C 
ATOM      9  C   UNL d   1       2.642  -3.654   0.100  0.00  0.00     0.009 C 
ENDBRANCH   7   8
ENDBRANCH   1   7
TORSDOF 2
ENDMDL
