MODEL 1
REMARK minimizedAffinity 2.1909399
REMARK minimizedRMSD -1
REMARK  2 active torsions:
REMARK  status: ('A' for Active; 'I' for Inactive)
REMARK    1  A    between atoms: C1_2  and  C2_3 
REMARK    2  A    between atoms: C2_3  and  C3_4 
ROOT
ATOM      1  C3  UNL d   1       1.209   2.985  -1.004  0.00  0.00    -0.075 A 
ATOM      2  C4  UNL d   1       1.316   4.210  -1.678  0.00  0.00     0.002 A 
ATOM      3  C5  UNL d   1       1.306   5.412  -0.970  0.00  0.00     0.002 A 
ATOM      4  C6  UNL d   1       1.180   5.406   0.417  0.00  0.00    -0.004 A 
ATOM      5  C7  UNL d   1       1.056   4.195   1.096  0.00  0.00     0.002 A 
ATOM      6  C8  UNL d   1       1.070   2.991   0.391  0.00  0.00     0.002 A 
ENDROOT
BRANCH   1   7
ATOM      7  C2  UNL d   1       1.248   1.680  -1.762  0.00  0.00     0.056 C 
BRANCH   7   8
ATOM      8  C1  UNL d   1       2.109   0.599  -1.099  0.00  0.00     0.007 C 
ATOM      9  C   UNL d   1       1.515  -0.798  -1.216  0.00  0.00     0.009 C 
ENDBRANCH   7   8
ENDBRANCH   1   7
TORSDOF 2
ENDMDL
