MODEL 1
REMARK minimizedAffinity 2.16738105
REMARK minimizedRMSD -1
REMARK  2 active torsions:
REMARK  status: ('A' for Active; 'I' for Inactive)
REMARK    1  A    between atoms: C1_2  and  C2_3 
REMARK    2  A    between atoms: C2_3  and  C3_4 
ROOT
ATOM      1  C3  UNL d   1       0.888   2.594  -1.497  0.00  0.00    -0.075 A 
ATOM      2  C4  UNL d   1       1.349   1.895  -0.372  0.00  0.00     0.002 A 
ATOM      3  C5  UNL d   1       1.713   0.552  -0.473  0.00  0.00     0.002 A 
ATOM      4  C6  UNL d   1       1.611  -0.111  -1.694  0.00  0.00    -0.004 A 
ATOM      5  C7  UNL d   1       1.139   0.569  -2.815  0.00  0.00     0.002 A 
ATOM      6  C8  UNL d   1       0.778   1.914  -2.718  0.00  0.00     0.002 A 
ENDROOT
BRANCH   1   7
ATOM      7  C2  UNL d   1       0.520   4.055  -1.402  0.00  0.00     0.056 C 
BRANCH   7   8
ATOM      8  C1  UNL d   1       1.305   4.828  -0.336  0.00  0.00     0.007 C 
ATOM      9  C   UNL d   1       2.096   5.998  -0.905  0.00  0.00     0.009 C 
ENDBRANCH   7   8
ENDBRANCH   1   7
TORSDOF 2
ENDMDL
