MODEL 1
REMARK minimizedAffinity 5.1458621
REMARK minimizedRMSD -1
REMARK  2 active torsions:
REMARK  status: ('A' for Active; 'I' for Inactive)
REMARK    1  A    between atoms: C1_2  and  C2_3 
REMARK    2  A    between atoms: C2_3  and  C3_4 
ROOT
ATOM      1  C3  UNL d   1       0.807   2.698  -1.274  0.00  0.00    -0.075 A 
ATOM      2  C4  UNL d   1       1.364   2.122  -0.123  0.00  0.00     0.002 A 
ATOM      3  C5  UNL d   1       1.536   0.741  -0.034  0.00  0.00     0.002 A 
ATOM      4  C6  UNL d   1       1.145  -0.083  -1.087  0.00  0.00    -0.004 A 
ATOM      5  C7  UNL d   1       0.576   0.477  -2.229  0.00  0.00     0.002 A 
ATOM      6  C8  UNL d   1       0.407   1.859  -2.323  0.00  0.00     0.002 A 
ENDROOT
BRANCH   1   7
ATOM      7  C2  UNL d   1       0.646   4.195  -1.389  0.00  0.00     0.056 C 
BRANCH   7   8
ATOM      8  C1  UNL d   1       1.467   4.991  -0.370  0.00  0.00     0.007 C 
ATOM      9  C   UNL d   1       2.410   5.998  -1.014  0.00  0.00     0.009 C 
ENDBRANCH   7   8
ENDBRANCH   1   7
TORSDOF 2
ENDMDL
