MODEL 1
REMARK minimizedAffinity 3.89443874
REMARK minimizedRMSD -1
REMARK  0 active torsions:
REMARK  status: ('A' for Active; 'I' for Inactive)
ROOT
ATOM      1  C1  BNZ d   1      -0.089  -4.704  -1.525  0.00  0.00     0.000 A 
ATOM      2  C2  BNZ d   1      -1.101  -4.365  -2.383  0.00  0.00     0.000 A 
ATOM      3  C3  BNZ d   1      -2.125  -3.559  -1.973  0.00  0.00     0.000 A 
ATOM      4  C4  BNZ d   1      -2.158  -3.125  -0.697  0.00  0.00     0.000 A 
ATOM      5  C5  BNZ d   1      -1.150  -3.466   0.183  0.00  0.00     0.000 A 
ATOM      6  C6  BNZ d   1      -0.100  -4.246  -0.243  0.00  0.00     0.000 A 
ENDROOT
TORSDOF 0
ENDMDL
