MODEL 1
REMARK minimizedAffinity 0.243235841
REMARK minimizedRMSD -1
REMARK  0 active torsions:
REMARK  status: ('A' for Active; 'I' for Inactive)
ROOT
ATOM      1  C1  BNZ d   1      -1.258  -4.616  -1.905  0.00  0.00     0.000 A 
ATOM      2  C2  BNZ d   1      -0.055  -4.447  -1.273  0.00  0.00     0.000 A 
ATOM      3  C3  BNZ d   1       0.006  -3.925  -0.012  0.00  0.00     0.000 A 
ATOM      4  C4  BNZ d   1      -1.131  -3.536   0.601  0.00  0.00     0.000 A 
ATOM      5  C5  BNZ d   1      -2.351  -3.691  -0.027  0.00  0.00     0.000 A 
ATOM      6  C6  BNZ d   1      -2.412  -4.253  -1.282  0.00  0.00     0.000 A 
ENDROOT
TORSDOF 0
ENDMDL
