MODEL 1
REMARK minimizedAffinity -0.508699775
REMARK minimizedRMSD -1
REMARK  0 active torsions:
REMARK  status: ('A' for Active; 'I' for Inactive)
ROOT
ATOM      1  C1  BNZ d   1       0.775   3.367   1.082  0.00  0.00     0.000 A 
ATOM      2  C2  BNZ d   1       1.871   3.012   0.342  0.00  0.00     0.000 A 
ATOM      3  C3  BNZ d   1       2.487   1.807   0.536  0.00  0.00     0.000 A 
ATOM      4  C4  BNZ d   1       2.031   0.977   1.496  0.00  0.00     0.000 A 
ATOM      5  C5  BNZ d   1       0.933   1.324   2.257  0.00  0.00     0.000 A 
ATOM      6  C6  BNZ d   1       0.292   2.521   2.032  0.00  0.00     0.000 A 
ENDROOT
TORSDOF 0
ENDMDL
