MODEL 1
REMARK minimizedAffinity -1.10389268
REMARK minimizedRMSD -1
REMARK  0 active torsions:
REMARK  status: ('A' for Active; 'I' for Inactive)
ROOT
ATOM      1  C1  BNZ d   1      -1.427   3.742  -5.999  0.00  0.00     0.000 A 
ATOM      2  C2  BNZ d   1      -0.089   3.462  -5.924  0.00  0.00     0.000 A 
ATOM      3  C3  BNZ d   1       0.408   2.684  -4.915  0.00  0.00     0.000 A 
ATOM      4  C4  BNZ d   1      -0.428   2.221  -3.963  0.00  0.00     0.000 A 
ATOM      5  C5  BNZ d   1      -1.778   2.502  -4.020  0.00  0.00     0.000 A 
ATOM      6  C6  BNZ d   1      -2.280   3.254  -5.058  0.00  0.00     0.000 A 
ENDROOT
TORSDOF 0
ENDMDL
