MODEL 1
REMARK minimizedAffinity -2.07205248
REMARK minimizedRMSD -1
REMARK  0 active torsions:
REMARK  status: ('A' for Active; 'I' for Inactive)
ROOT
ATOM      1  C1  BNZ d   1      -2.297  -3.742   0.347  0.00  0.00     0.000 A 
ATOM      2  C2  BNZ d   1      -1.721  -2.778   1.132  0.00  0.00     0.000 A 
ATOM      3  C3  BNZ d   1      -0.788  -1.922   0.617  0.00  0.00     0.000 A 
ATOM      4  C4  BNZ d   1      -0.403  -2.055  -0.668  0.00  0.00     0.000 A 
ATOM      5  C5  BNZ d   1      -0.967  -3.027  -1.470  0.00  0.00     0.000 A 
ATOM      6  C6  BNZ d   1      -1.935  -3.863  -0.959  0.00  0.00     0.000 A 
ENDROOT
TORSDOF 0
ENDMDL
