MODEL 1
REMARK minimizedAffinity 4.47374964
REMARK minimizedRMSD -1
REMARK  0 active torsions:
REMARK  status: ('A' for Active; 'I' for Inactive)
ROOT
ATOM      1  C1  BNZ d   1      -3.941   0.047   2.147  0.00  0.00     0.000 A 
ATOM      2  C2  BNZ d   1      -4.979  -0.766   1.779  0.00  0.00     0.000 A 
ATOM      3  C3  BNZ d   1      -5.999  -0.292   1.002  0.00  0.00     0.000 A 
ATOM      4  C4  BNZ d   1      -5.999   1.004   0.628  0.00  0.00     0.000 A 
ATOM      5  C5  BNZ d   1      -4.964   1.839   0.998  0.00  0.00     0.000 A 
ATOM      6  C6  BNZ d   1      -3.920   1.348   1.748  0.00  0.00     0.000 A 
ENDROOT
TORSDOF 0
ENDMDL
