MODEL 1
REMARK minimizedAffinity 1.33152807
REMARK minimizedRMSD -1
REMARK  0 active torsions:
REMARK  status: ('A' for Active; 'I' for Inactive)
ROOT
ATOM      1  C1  BNZ d   1       5.692   5.996   0.805  0.00  0.00     0.000 A 
ATOM      2  C2  BNZ d   1       5.649   6.000   2.174  0.00  0.00     0.000 A 
ATOM      3  C3  BNZ d   1       5.806   4.842   2.882  0.00  0.00     0.000 A 
ATOM      4  C4  BNZ d   1       5.964   3.677   2.222  0.00  0.00     0.000 A 
ATOM      5  C5  BNZ d   1       6.000   3.655   0.842  0.00  0.00     0.000 A 
ATOM      6  C6  BNZ d   1       5.881   4.828   0.132  0.00  0.00     0.000 A 
ENDROOT
TORSDOF 0
ENDMDL
