MODEL 1
REMARK minimizedAffinity -0.197351992
REMARK minimizedRMSD -1
REMARK  0 active torsions:
REMARK  status: ('A' for Active; 'I' for Inactive)
ROOT
ATOM      1  C1  BNZ d   1      -3.371   1.923  -5.335  0.00  0.00     0.000 A 
ATOM      2  C2  BNZ d   1      -2.256   1.503  -4.660  0.00  0.00     0.000 A 
ATOM      3  C3  BNZ d   1      -1.126   2.270  -4.630  0.00  0.00     0.000 A 
ATOM      4  C4  BNZ d   1      -1.098   3.436  -5.306  0.00  0.00     0.000 A 
ATOM      5  C5  BNZ d   1      -2.210   3.870  -5.999  0.00  0.00     0.000 A 
ATOM      6  C6  BNZ d   1      -3.360   3.113  -5.995  0.00  0.00     0.000 A 
ENDROOT
TORSDOF 0
ENDMDL
