MODEL 1
REMARK minimizedAffinity 2.27444291
REMARK minimizedRMSD -1
REMARK  0 active torsions:
REMARK  status: ('A' for Active; 'I' for Inactive)
ROOT
ATOM      1  C1  BNZ d   1      -3.895   1.440   0.354  0.00  0.00     0.000 A 
ATOM      2  C2  BNZ d   1      -2.795   0.977   1.027  0.00  0.00     0.000 A 
ATOM      3  C3  BNZ d   1      -2.902  -0.057   1.915  0.00  0.00     0.000 A 
ATOM      4  C4  BNZ d   1      -4.112  -0.599   2.159  0.00  0.00     0.000 A 
ATOM      5  C5  BNZ d   1      -5.232  -0.137   1.496  0.00  0.00     0.000 A 
ATOM      6  C6  BNZ d   1      -5.114   0.877   0.574  0.00  0.00     0.000 A 
ENDROOT
TORSDOF 0
ENDMDL
