MODEL 1
REMARK minimizedAffinity -2.68280649
REMARK minimizedRMSD -1
REMARK  0 active torsions:
REMARK  status: ('A' for Active; 'I' for Inactive)
ROOT
ATOM      1  C1  BNZ d   1      -1.025  -3.489  -0.660  0.00  0.00     0.000 A 
ATOM      2  C2  BNZ d   1       0.328  -3.286  -0.738  0.00  0.00     0.000 A 
ATOM      3  C3  BNZ d   1       1.041  -2.897   0.362  0.00  0.00     0.000 A 
ATOM      4  C4  BNZ d   1       0.397  -2.673   1.525  0.00  0.00     0.000 A 
ATOM      5  C5  BNZ d   1      -0.968  -2.864   1.617  0.00  0.00     0.000 A 
ATOM      6  C6  BNZ d   1      -1.677  -3.293   0.518  0.00  0.00     0.000 A 
ENDROOT
TORSDOF 0
ENDMDL
