MODEL 1
REMARK minimizedAffinity -0.406624734
REMARK minimizedRMSD -1
REMARK  0 active torsions:
REMARK  status: ('A' for Active; 'I' for Inactive)
ROOT
ATOM      1  C1  BNZ d   1      -0.030  -5.998   2.252  0.00  0.00     0.000 A 
ATOM      2  C2  BNZ d   1       0.325  -5.995   3.574  0.00  0.00     0.000 A 
ATOM      3  C3  BNZ d   1       0.417  -4.823   4.272  0.00  0.00     0.000 A 
ATOM      4  C4  BNZ d   1       0.192  -3.654   3.637  0.00  0.00     0.000 A 
ATOM      5  C5  BNZ d   1      -0.158  -3.640   2.302  0.00  0.00     0.000 A 
ATOM      6  C6  BNZ d   1      -0.287  -4.824   1.613  0.00  0.00     0.000 A 
ENDROOT
TORSDOF 0
ENDMDL
