MODEL 1
REMARK minimizedAffinity 3.96140432
REMARK minimizedRMSD -1
REMARK  0 active torsions:
REMARK  status: ('A' for Active; 'I' for Inactive)
ROOT
ATOM      1  C1  BNZ d   1      -0.896   2.832  -4.863  0.00  0.00     0.000 A 
ATOM      2  C2  BNZ d   1       0.367   2.304  -4.879  0.00  0.00     0.000 A 
ATOM      3  C3  BNZ d   1       1.409   2.996  -5.430  0.00  0.00     0.000 A 
ATOM      4  C4  BNZ d   1       1.179   4.197  -6.000  0.00  0.00     0.000 A 
ATOM      5  C5  BNZ d   1      -0.090   4.739  -6.000  0.00  0.00     0.000 A 
ATOM      6  C6  BNZ d   1      -1.129   4.056  -5.409  0.00  0.00     0.000 A 
ENDROOT
TORSDOF 0
ENDMDL
