MODEL 1
REMARK minimizedAffinity -4.6566906
REMARK minimizedRMSD -1
REMARK  0 active torsions:
REMARK  status: ('A' for Active; 'I' for Inactive)
ROOT
ATOM      1  O1  BZF d   1      -0.764  -0.214   0.195  0.00  0.00    -0.204 OA
ATOM      2  C2  BZF d   1       0.033   0.141  -0.876  0.00  0.00     0.174 A 
ATOM      3  C3  BZF d   1       1.205  -0.524  -0.842  0.00  0.00    -0.012 A 
ATOM      4  C3A BZF d   1       1.100  -1.415   0.273  0.00  0.00    -0.107 A 
ATOM      5  C4  BZF d   1       1.939  -2.348   0.811  0.00  0.00     0.055 A 
ATOM      6  C5  BZF d   1       1.565  -2.997   1.945  0.00  0.00    -0.016 A 
ATOM      7  C6  BZF d   1       0.364  -2.734   2.569  0.00  0.00     0.022 A 
ATOM      8  C7  BZF d   1      -0.504  -1.820   2.070  0.00  0.00     0.029 A 
ATOM      9  C7A BZF d   1      -0.143  -1.187   0.906  0.00  0.00     0.058 A 
ENDROOT
TORSDOF 0
ENDMDL
