MODEL 1
REMARK minimizedAffinity -4.41485071
REMARK minimizedRMSD -1
REMARK  0 active torsions:
REMARK  status: ('A' for Active; 'I' for Inactive)
ROOT
ATOM      1  O1  BZF d   1       0.148   1.587  -0.333  0.00  0.00    -0.204 OA
ATOM      2  C2  BZF d   1      -1.211   1.408  -0.507  0.00  0.00     0.174 A 
ATOM      3  C3  BZF d   1      -1.544   0.109  -0.369  0.00  0.00    -0.012 A 
ATOM      4  C3A BZF d   1      -0.331  -0.554  -0.000  0.00  0.00    -0.107 A 
ATOM      5  C4  BZF d   1      -0.021  -1.852   0.291  0.00  0.00     0.055 A 
ATOM      6  C5  BZF d   1       1.273  -2.182   0.541  0.00  0.00    -0.016 A 
ATOM      7  C6  BZF d   1       2.282  -1.242   0.502  0.00  0.00     0.022 A 
ATOM      8  C7  BZF d   1       2.023   0.058   0.222  0.00  0.00     0.029 A 
ATOM      9  C7A BZF d   1       0.712   0.401   0.002  0.00  0.00     0.058 A 
ENDROOT
TORSDOF 0
ENDMDL
