MODEL 1
REMARK minimizedAffinity -1.79219353
REMARK minimizedRMSD -1
REMARK  0 active torsions:
REMARK  status: ('A' for Active; 'I' for Inactive)
ROOT
ATOM      1  O1  BZF d   1       0.309   0.760  -0.224  0.00  0.00    -0.204 OA
ATOM      2  C2  BZF d   1       1.602   0.733  -0.710  0.00  0.00     0.174 A 
ATOM      3  C3  BZF d   1       2.186  -0.454  -0.451  0.00  0.00    -0.012 A 
ATOM      4  C3A BZF d   1       1.166  -1.251   0.158  0.00  0.00    -0.107 A 
ATOM      5  C4  BZF d   1       1.130  -2.533   0.626  0.00  0.00     0.055 A 
ATOM      6  C5  BZF d   1      -0.001  -2.984   1.230  0.00  0.00    -0.016 A 
ATOM      7  C6  BZF d   1      -1.110  -2.180   1.388  0.00  0.00     0.022 A 
ATOM      8  C7  BZF d   1      -1.124  -0.903   0.935  0.00  0.00     0.029 A 
ATOM      9  C7A BZF d   1       0.005  -0.455   0.294  0.00  0.00     0.058 A 
ENDROOT
TORSDOF 0
ENDMDL
