MODEL 1
REMARK minimizedAffinity -4.16117144
REMARK minimizedRMSD -1
REMARK  0 active torsions:
REMARK  status: ('A' for Active; 'I' for Inactive)
ROOT
ATOM      1  O1  BZF d   1       3.366  -1.096   0.139  0.00  0.00    -0.204 OA
ATOM      2  C2  BZF d   1       3.383   0.136  -0.486  0.00  0.00     0.174 A 
ATOM      3  C3  BZF d   1       2.132   0.621  -0.620  0.00  0.00    -0.012 A 
ATOM      4  C3A BZF d   1       1.288  -0.327   0.040  0.00  0.00    -0.107 A 
ATOM      5  C4  BZF d   1      -0.059  -0.392   0.259  0.00  0.00     0.055 A 
ATOM      6  C5  BZF d   1      -0.575  -1.488   0.875  0.00  0.00    -0.016 A 
ATOM      7  C6  BZF d   1       0.224  -2.538   1.279  0.00  0.00     0.022 A 
ATOM      8  C7  BZF d   1       1.565  -2.516   1.088  0.00  0.00     0.029 A 
ATOM      9  C7A BZF d   1       2.094  -1.395   0.496  0.00  0.00     0.058 A 
ENDROOT
TORSDOF 0
ENDMDL
