MODEL 1
REMARK minimizedAffinity -4.2001853
REMARK minimizedRMSD -1
REMARK  0 active torsions:
REMARK  status: ('A' for Active; 'I' for Inactive)
ROOT
ATOM      1  O1  BZF d   1       2.011  -2.359   0.582  0.00  0.00    -0.204 OA
ATOM      2  C2  BZF d   1       1.093  -3.213   1.163  0.00  0.00     0.174 A 
ATOM      3  C3  BZF d   1      -0.130  -2.647   1.199  0.00  0.00    -0.012 A 
ATOM      4  C3A BZF d   1       0.013  -1.395   0.521  0.00  0.00    -0.107 A 
ATOM      5  C4  BZF d   1      -0.855  -0.385   0.220  0.00  0.00     0.055 A 
ATOM      6  C5  BZF d   1      -0.381   0.734  -0.387  0.00  0.00    -0.016 A 
ATOM      7  C6  BZF d   1       0.954   0.880  -0.702  0.00  0.00     0.022 A 
ATOM      8  C7  BZF d   1       1.853  -0.096  -0.427  0.00  0.00     0.029 A 
ATOM      9  C7A BZF d   1       1.371  -1.243   0.157  0.00  0.00     0.058 A 
ENDROOT
TORSDOF 0
ENDMDL
