MODEL 1
REMARK minimizedAffinity -3.18502378
REMARK minimizedRMSD -1
REMARK  0 active torsions:
REMARK  status: ('A' for Active; 'I' for Inactive)
ROOT
ATOM      1  O1  BZF d   1      -1.127  -0.420   0.256  0.00  0.00    -0.204 OA
ATOM      2  C2  BZF d   1      -1.086   0.790  -0.409  0.00  0.00     0.174 A 
ATOM      3  C3  BZF d   1       0.188   1.157  -0.657  0.00  0.00    -0.012 A 
ATOM      4  C3A BZF d   1       0.990   0.066  -0.195  0.00  0.00    -0.107 A 
ATOM      5  C4  BZF d   1       2.335  -0.171  -0.182  0.00  0.00     0.055 A 
ATOM      6  C5  BZF d   1       2.801  -1.303   0.408  0.00  0.00    -0.016 A 
ATOM      7  C6  BZF d   1       1.952  -2.217   0.997  0.00  0.00     0.022 A 
ATOM      8  C7  BZF d   1       0.610  -2.028   1.005  0.00  0.00     0.029 A 
ATOM      9  C7A BZF d   1       0.134  -0.901   0.381  0.00  0.00     0.058 A 
ENDROOT
TORSDOF 0
ENDMDL
