MODEL 1
REMARK minimizedAffinity -4.11681271
REMARK minimizedRMSD -1
REMARK  0 active torsions:
REMARK  status: ('A' for Active; 'I' for Inactive)
ROOT
ATOM      1  O1  BZF d   1      -1.197   0.182   0.250  0.00  0.00    -0.204 OA
ATOM      2  C2  BZF d   1      -1.000   1.336  -0.484  0.00  0.00     0.174 A 
ATOM      3  C3  BZF d   1       0.308   1.509  -0.762  0.00  0.00    -0.012 A 
ATOM      4  C3A BZF d   1       0.960   0.346  -0.244  0.00  0.00    -0.107 A 
ATOM      5  C4  BZF d   1       2.260  -0.073  -0.228  0.00  0.00     0.055 A 
ATOM      6  C5  BZF d   1       2.574  -1.224   0.423  0.00  0.00    -0.016 A 
ATOM      7  C6  BZF d   1       1.617  -1.977   1.070  0.00  0.00     0.022 A 
ATOM      8  C7  BZF d   1       0.314  -1.605   1.077  0.00  0.00     0.029 A 
ATOM      9  C7A BZF d   1      -0.012  -0.460   0.392  0.00  0.00     0.058 A 
ENDROOT
TORSDOF 0
ENDMDL
