MODEL 1
REMARK minimizedAffinity -2.56730747
REMARK minimizedRMSD -1
REMARK  0 active torsions:
REMARK  status: ('A' for Active; 'I' for Inactive)
ROOT
ATOM      1  O1  BZF d   1      -1.879   1.027   0.704  0.00  0.00    -0.204 OA
ATOM      2  C2  BZF d   1      -1.271   1.621  -0.385  0.00  0.00     0.174 A 
ATOM      3  C3  BZF d   1      -0.260   0.856  -0.844  0.00  0.00    -0.012 A 
ATOM      4  C3A BZF d   1      -0.293  -0.331  -0.046  0.00  0.00    -0.107 A 
ATOM      5  C4  BZF d   1       0.452  -1.475  -0.032  0.00  0.00     0.055 A 
ATOM      6  C5  BZF d   1       0.210  -2.410   0.923  0.00  0.00    -0.016 A 
ATOM      7  C6  BZF d   1      -0.766  -2.233   1.882  0.00  0.00     0.022 A 
ATOM      8  C7  BZF d   1      -1.535  -1.117   1.906  0.00  0.00     0.029 A 
ATOM      9  C7A BZF d   1      -1.314  -0.185   0.922  0.00  0.00     0.058 A 
ENDROOT
TORSDOF 0
ENDMDL
