MODEL 1
REMARK minimizedAffinity -3.95466161
REMARK minimizedRMSD -1
REMARK  0 active torsions:
REMARK  status: ('A' for Active; 'I' for Inactive)
ROOT
ATOM      1  O1  BZF d   1      -1.194  -0.367  -0.163  0.00  0.00    -0.204 OA
ATOM      2  C2  BZF d   1      -1.234   0.875  -0.767  0.00  0.00     0.174 A 
ATOM      3  C3  BZF d   1      -0.002   1.422  -0.818  0.00  0.00    -0.012 A 
ATOM      4  C3A BZF d   1       0.875   0.423  -0.290  0.00  0.00    -0.107 A 
ATOM      5  C4  BZF d   1       2.226   0.368  -0.096  0.00  0.00     0.055 A 
ATOM      6  C5  BZF d   1       2.762  -0.725   0.509  0.00  0.00    -0.016 A 
ATOM      7  C6  BZF d   1       1.978  -1.776   0.936  0.00  0.00     0.022 A 
ATOM      8  C7  BZF d   1       0.634  -1.769   0.761  0.00  0.00     0.029 A 
ATOM      9  C7A BZF d   1       0.093  -0.681   0.120  0.00  0.00     0.058 A 
ENDROOT
TORSDOF 0
ENDMDL
