MODEL 1
REMARK minimizedAffinity -4.13273764
REMARK minimizedRMSD -1
REMARK  0 active torsions:
REMARK  status: ('A' for Active; 'I' for Inactive)
ROOT
ATOM      1  O1  BZF d   1      -1.125  -0.735  -0.225  0.00  0.00    -0.204 OA
ATOM      2  C2  BZF d   1      -1.047   0.628  -0.436  0.00  0.00     0.174 A 
ATOM      3  C3  BZF d   1       0.203   1.077  -0.201  0.00  0.00    -0.012 A 
ATOM      4  C3A BZF d   1       0.975  -0.091   0.090  0.00  0.00    -0.107 A 
ATOM      5  C4  BZF d   1       2.291  -0.296   0.390  0.00  0.00     0.055 A 
ATOM      6  C5  BZF d   1       2.711  -1.552   0.694  0.00  0.00    -0.016 A 
ATOM      7  C6  BZF d   1       1.843  -2.624   0.711  0.00  0.00     0.022 A 
ATOM      8  C7  BZF d   1       0.530  -2.471   0.415  0.00  0.00     0.029 A 
ATOM      9  C7A BZF d   1       0.108  -1.209   0.076  0.00  0.00     0.058 A 
ENDROOT
TORSDOF 0
ENDMDL
