MODEL 1
REMARK minimizedAffinity -5.0252924
REMARK minimizedRMSD -1
REMARK  0 active torsions:
REMARK  status: ('A' for Active; 'I' for Inactive)
ROOT
ATOM      1  O1  BZF d   1       1.192   1.100   0.207  0.00  0.00    -0.204 OA
ATOM      2  C2  BZF d   1      -0.038   1.729   0.208  0.00  0.00     0.174 A 
ATOM      3  C3  BZF d   1      -1.016   0.866   0.551  0.00  0.00    -0.012 A 
ATOM      4  C3A BZF d   1      -0.345  -0.357   0.867  0.00  0.00    -0.107 A 
ATOM      5  C4  BZF d   1      -0.776  -1.582   1.290  0.00  0.00     0.055 A 
ATOM      6  C5  BZF d   1       0.128  -2.586   1.438  0.00  0.00    -0.016 A 
ATOM      7  C6  BZF d   1       1.468  -2.401   1.167  0.00  0.00     0.022 A 
ATOM      8  C7  BZF d   1       1.943  -1.203   0.750  0.00  0.00     0.029 A 
ATOM      9  C7A BZF d   1       1.037  -0.177   0.631  0.00  0.00     0.058 A 
ENDROOT
TORSDOF 0
ENDMDL
