MODEL 1
REMARK minimizedAffinity -2.85438848
REMARK minimizedRMSD -1
REMARK  0 active torsions:
REMARK  status: ('A' for Active; 'I' for Inactive)
ROOT
ATOM      1  O1  BZF d   1       0.445   1.444  -0.606  0.00  0.00    -0.204 OA
ATOM      2  C2  BZF d   1      -0.923   1.519  -0.779  0.00  0.00     0.174 A 
ATOM      3  C3  BZF d   1      -1.511   0.347  -0.462  0.00  0.00    -0.012 A 
ATOM      4  C3A BZF d   1      -0.453  -0.485   0.022  0.00  0.00    -0.107 A 
ATOM      5  C4  BZF d   1      -0.408  -1.763   0.503  0.00  0.00     0.055 A 
ATOM      6  C5  BZF d   1       0.795  -2.306   0.824  0.00  0.00    -0.016 A 
ATOM      7  C6  BZF d   1       1.973  -1.605   0.670  0.00  0.00     0.022 A 
ATOM      8  C7  BZF d   1       1.979  -0.333   0.201  0.00  0.00     0.029 A 
ATOM      9  C7A BZF d   1       0.761   0.231  -0.092  0.00  0.00     0.058 A 
ENDROOT
TORSDOF 0
ENDMDL
