MODEL 1
REMARK minimizedAffinity -2.7356987
REMARK minimizedRMSD -1
REMARK  0 active torsions:
REMARK  status: ('A' for Active; 'I' for Inactive)
ROOT
ATOM      1  O1  BZF d   1      -1.583  -0.097   0.072  0.00  0.00    -0.204 OA
ATOM      2  C2  BZF d   1      -1.123   0.931  -0.728  0.00  0.00     0.174 A 
ATOM      3  C3  BZF d   1       0.216   0.862  -0.873  0.00  0.00    -0.012 A 
ATOM      4  C3A BZF d   1       0.607  -0.334  -0.192  0.00  0.00    -0.107 A 
ATOM      5  C4  BZF d   1       1.808  -0.954   0.003  0.00  0.00     0.055 A 
ATOM      6  C5  BZF d   1       1.858  -2.070   0.777  0.00  0.00    -0.016 A 
ATOM      7  C6  BZF d   1       0.728  -2.590   1.374  0.00  0.00     0.022 A 
ATOM      8  C7  BZF d   1      -0.486  -2.014   1.205  0.00  0.00     0.029 A 
ATOM      9  C7A BZF d   1      -0.545  -0.905   0.397  0.00  0.00     0.058 A 
ENDROOT
TORSDOF 0
ENDMDL
