MODEL 1
REMARK minimizedAffinity -1.81070852
REMARK minimizedRMSD -1
REMARK  0 active torsions:
REMARK  status: ('A' for Active; 'I' for Inactive)
ROOT
ATOM      1  O1  BZF d   1       2.646  -2.163   0.793  0.00  0.00    -0.204 OA
ATOM      2  C2  BZF d   1       1.853  -3.262   1.063  0.00  0.00     0.174 A 
ATOM      3  C3  BZF d   1       0.551  -2.976   0.858  0.00  0.00    -0.012 A 
ATOM      4  C3A BZF d   1       0.537  -1.640   0.343  0.00  0.00    -0.107 A 
ATOM      5  C4  BZF d   1      -0.461  -0.803  -0.067  0.00  0.00     0.055 A 
ATOM      6  C5  BZF d   1      -0.147   0.463  -0.446  0.00  0.00    -0.016 A 
ATOM      7  C6  BZF d   1       1.152   0.927  -0.421  0.00  0.00     0.022 A 
ATOM      8  C7  BZF d   1       2.176   0.132  -0.026  0.00  0.00     0.029 A 
ATOM      9  C7A BZF d   1       1.866  -1.159   0.326  0.00  0.00     0.058 A 
ENDROOT
TORSDOF 0
ENDMDL
