MODEL 1
REMARK minimizedAffinity -4.42339945
REMARK minimizedRMSD -1
REMARK  0 active torsions:
REMARK  status: ('A' for Active; 'I' for Inactive)
ROOT
ATOM      1  O1  BZF d   1       2.466  -1.742   0.550  0.00  0.00    -0.204 OA
ATOM      2  C2  BZF d   1       3.198  -0.650   0.123  0.00  0.00     0.174 A 
ATOM      3  C3  BZF d   1       2.383   0.379  -0.188  0.00  0.00    -0.012 A 
ATOM      4  C3A BZF d   1       1.066  -0.068   0.148  0.00  0.00    -0.107 A 
ATOM      5  C4  BZF d   1      -0.168   0.513   0.082  0.00  0.00     0.055 A 
ATOM      6  C5  BZF d   1      -1.262  -0.220   0.418  0.00  0.00    -0.016 A 
ATOM      7  C6  BZF d   1      -1.159  -1.536   0.819  0.00  0.00     0.022 A 
ATOM      8  C7  BZF d   1       0.045  -2.154   0.905  0.00  0.00     0.029 A 
ATOM      9  C7A BZF d   1       1.155  -1.406   0.598  0.00  0.00     0.058 A 
ENDROOT
TORSDOF 0
ENDMDL
