MODEL 1
REMARK minimizedAffinity -2.8881917
REMARK minimizedRMSD -1
REMARK  0 active torsions:
REMARK  status: ('A' for Active; 'I' for Inactive)
ROOT
ATOM      1  O1  BZF d   1      -0.046   3.244  -2.529  0.00  0.00    -0.204 OA
ATOM      2  C2  BZF d   1      -0.026   3.738  -3.819  0.00  0.00     0.174 A 
ATOM      3  C3  BZF d   1      -0.978   3.150  -4.571  0.00  0.00    -0.012 A 
ATOM      4  C3A BZF d   1      -1.694   2.297  -3.673  0.00  0.00    -0.107 A 
ATOM      5  C4  BZF d   1      -2.763   1.461  -3.823  0.00  0.00     0.055 A 
ATOM      6  C5  BZF d   1      -3.173   0.715  -2.764  0.00  0.00    -0.016 A 
ATOM      7  C6  BZF d   1      -2.533   0.776  -1.543  0.00  0.00     0.022 A 
ATOM      8  C7  BZF d   1      -1.471   1.594  -1.344  0.00  0.00     0.029 A 
ATOM      9  C7A BZF d   1      -1.076   2.374  -2.403  0.00  0.00     0.058 A 
ENDROOT
TORSDOF 0
ENDMDL
