MODEL 1
REMARK minimizedAffinity -0.888455629
REMARK minimizedRMSD -1
REMARK  0 active torsions:
REMARK  status: ('A' for Active; 'I' for Inactive)
ROOT
ATOM      1  O1  BZF d   1      -1.581   0.031   0.929  0.00  0.00    -0.204 OA
ATOM      2  C2  BZF d   1      -0.922   0.396  -0.229  0.00  0.00     0.174 A 
ATOM      3  C3  BZF d   1       0.221  -0.306  -0.370  0.00  0.00    -0.012 A 
ATOM      4  C3A BZF d   1       0.234  -1.228   0.724  0.00  0.00    -0.107 A 
ATOM      5  C4  BZF d   1       1.104  -2.204   1.120  0.00  0.00     0.055 A 
ATOM      6  C5  BZF d   1       0.861  -2.876   2.276  0.00  0.00    -0.016 A 
ATOM      7  C6  BZF d   1      -0.237  -2.596   3.062  0.00  0.00     0.022 A 
ATOM      8  C7  BZF d   1      -1.131  -1.640   2.708  0.00  0.00     0.029 A 
ATOM      9  C7A BZF d   1      -0.906  -0.982   1.524  0.00  0.00     0.058 A 
ENDROOT
TORSDOF 0
ENDMDL
