MODEL 1
REMARK minimizedAffinity -2.02932215
REMARK minimizedRMSD -1
REMARK  1 active torsions:
REMARK  status: ('A' for Active; 'I' for Inactive)
REMARK    1  A    between atoms: C1_2  and  C2_3 
ROOT
ATOM      1  C2  UNL d   1       0.028  -0.911  -0.320  0.00  0.00    -0.081 A 
ATOM      2  C3  UNL d   1       0.747  -0.719   0.867  0.00  0.00     0.006 A 
ATOM      3  C4  UNL d   1       0.681   0.501   1.545  0.00  0.00     0.002 A 
ATOM      4  C5  UNL d   1      -0.109   1.545   1.053  0.00  0.00    -0.080 A 
ATOM      5  C6  UNL d   1      -0.212   2.849   1.787  0.00  0.00     0.076 C 
ATOM      6  C7  UNL d   1      -0.813   1.360  -0.142  0.00  0.00     0.002 A 
ATOM      7  C8  UNL d   1      -0.747   0.141  -0.821  0.00  0.00     0.006 A 
ENDROOT
BRANCH   1   8
ATOM      8  C1  UNL d   1       0.045  -2.246  -1.019  0.00  0.00     0.054 C 
ATOM      9  C   UNL d   1       1.222  -3.095  -0.560  0.00  0.00     0.018 C 
ENDBRANCH   1   8
TORSDOF 1
ENDMDL
