MODEL 1
REMARK minimizedAffinity -6.23282814
REMARK minimizedRMSD -1
REMARK  1 active torsions:
REMARK  status: ('A' for Active; 'I' for Inactive)
REMARK    1  A    between atoms: C1_2  and  C2_3 
ROOT
ATOM      1  C2  UNL d   1       0.180  -0.777  -0.606  0.00  0.00    -0.081 A 
ATOM      2  C3  UNL d   1       0.489  -0.686   0.757  0.00  0.00     0.006 A 
ATOM      3  C4  UNL d   1       0.051   0.406   1.510  0.00  0.00     0.002 A 
ATOM      4  C5  UNL d   1      -0.708   1.420   0.916  0.00  0.00    -0.080 A 
ATOM      5  C6  UNL d   1      -1.210   2.582   1.720  0.00  0.00     0.076 C 
ATOM      6  C7  UNL d   1      -1.002   1.337  -0.449  0.00  0.00     0.002 A 
ATOM      7  C8  UNL d   1      -0.564   0.246  -1.203  0.00  0.00     0.006 A 
ENDROOT
BRANCH   1   8
ATOM      8  C1  UNL d   1       0.595  -1.985  -1.406  0.00  0.00     0.054 C 
ATOM      9  C   UNL d   1      -0.580  -2.567  -2.179  0.00  0.00     0.018 C 
ENDBRANCH   1   8
TORSDOF 1
ENDMDL
