MODEL 1
REMARK minimizedAffinity -4.65063143
REMARK minimizedRMSD -1
REMARK  1 active torsions:
REMARK  status: ('A' for Active; 'I' for Inactive)
REMARK    1  A    between atoms: C1_2  and  C2_3 
ROOT
ATOM      1  C2  UNL d   1      -0.245  -0.802  -0.492  0.00  0.00    -0.081 A 
ATOM      2  C3  UNL d   1      -0.536  -0.896   0.875  0.00  0.00     0.006 A 
ATOM      3  C4  UNL d   1      -0.854   0.247   1.611  0.00  0.00     0.002 A 
ATOM      4  C5  UNL d   1      -0.894   1.502   0.993  0.00  0.00    -0.080 A 
ATOM      5  C6  UNL d   1      -1.264   2.733   1.766  0.00  0.00     0.076 C 
ATOM      6  C7  UNL d   1      -0.586   1.598  -0.368  0.00  0.00     0.002 A 
ATOM      7  C8  UNL d   1      -0.268   0.455  -1.105  0.00  0.00     0.006 A 
ENDROOT
BRANCH   1   8
ATOM      8  C1  UNL d   1       0.035  -2.042  -1.303  0.00  0.00     0.054 C 
ATOM      9  C   UNL d   1      -1.255  -2.730  -1.724  0.00  0.00     0.018 C 
ENDBRANCH   1   8
TORSDOF 1
ENDMDL
