MODEL 1
REMARK minimizedAffinity -4.4224205
REMARK minimizedRMSD -1
REMARK  1 active torsions:
REMARK  status: ('A' for Active; 'I' for Inactive)
REMARK    1  A    between atoms: C1_2  and  C2_3 
ROOT
ATOM      1  C2  UNL d   1      -0.045  -1.049  -0.342  0.00  0.00    -0.081 A 
ATOM      2  C3  UNL d   1       0.377  -0.933   0.988  0.00  0.00     0.006 A 
ATOM      3  C4  UNL d   1       0.048   0.198   1.740  0.00  0.00     0.002 A 
ATOM      4  C5  UNL d   1      -0.715   1.227   1.176  0.00  0.00    -0.080 A 
ATOM      5  C6  UNL d   1      -1.101   2.432   1.981  0.00  0.00     0.076 C 
ATOM      6  C7  UNL d   1      -1.122   1.119  -0.158  0.00  0.00     0.002 A 
ATOM      7  C8  UNL d   1      -0.793  -0.012  -0.909  0.00  0.00     0.006 A 
ENDROOT
BRANCH   1   8
ATOM      8  C1  UNL d   1       0.253  -2.296  -1.134  0.00  0.00     0.054 C 
ATOM      9  C   UNL d   1      -0.935  -3.247  -1.138  0.00  0.00     0.018 C 
ENDBRANCH   1   8
TORSDOF 1
ENDMDL
