MODEL 1
REMARK minimizedAffinity -5.46078014
REMARK minimizedRMSD -1
REMARK  1 active torsions:
REMARK  status: ('A' for Active; 'I' for Inactive)
REMARK    1  A    between atoms: C1_2  and  C2_3 
ROOT
ATOM      1  C2  UNL d   1       0.273  -0.178  -0.078  0.00  0.00    -0.081 A 
ATOM      2  C3  UNL d   1       0.127   0.178   1.269  0.00  0.00     0.006 A 
ATOM      3  C4  UNL d   1      -0.354   1.441   1.619  0.00  0.00     0.002 A 
ATOM      4  C5  UNL d   1      -0.704   2.367   0.630  0.00  0.00    -0.080 A 
ATOM      5  C6  UNL d   1      -1.251   3.716   0.993  0.00  0.00     0.076 C 
ATOM      6  C7  UNL d   1      -0.542   2.018  -0.715  0.00  0.00     0.002 A 
ATOM      7  C8  UNL d   1      -0.061   0.755  -1.066  0.00  0.00     0.006 A 
ENDROOT
BRANCH   1   8
ATOM      8  C1  UNL d   1       0.730  -1.563  -0.459  0.00  0.00     0.054 C 
ATOM      9  C   UNL d   1      -0.389  -2.351  -1.124  0.00  0.00     0.018 C 
ENDBRANCH   1   8
TORSDOF 1
ENDMDL
