MODEL 1
REMARK minimizedAffinity -5.89547777
REMARK minimizedRMSD -1
REMARK  1 active torsions:
REMARK  status: ('A' for Active; 'I' for Inactive)
REMARK    1  A    between atoms: C1_2  and  C2_3 
ROOT
ATOM      1  C2  UNL d   1       0.181  -1.092  -0.226  0.00  0.00    -0.081 A 
ATOM      2  C3  UNL d   1       0.493  -0.927   1.129  0.00  0.00     0.006 A 
ATOM      3  C4  UNL d   1       0.094   0.224   1.812  0.00  0.00     0.002 A 
ATOM      4  C5  UNL d   1      -0.629   1.225   1.155  0.00  0.00    -0.080 A 
ATOM      5  C6  UNL d   1      -1.089   2.452   1.884  0.00  0.00     0.076 C 
ATOM      6  C7  UNL d   1      -0.925   1.068  -0.203  0.00  0.00     0.002 A 
ATOM      7  C8  UNL d   1      -0.526  -0.082  -0.887  0.00  0.00     0.006 A 
ENDROOT
BRANCH   1   8
ATOM      8  C1  UNL d   1       0.554  -2.361  -0.949  0.00  0.00     0.054 C 
ATOM      9  C   UNL d   1      -0.592  -2.859  -1.819  0.00  0.00     0.018 C 
ENDBRANCH   1   8
TORSDOF 1
ENDMDL
