MODEL 1
REMARK minimizedAffinity -5.47650957
REMARK minimizedRMSD -1
REMARK  1 active torsions:
REMARK  status: ('A' for Active; 'I' for Inactive)
REMARK    1  A    between atoms: C1_2  and  C2_3 
ROOT
ATOM      1  C2  UNL d   1       0.390  -0.458  -0.293  0.00  0.00    -0.081 A 
ATOM      2  C3  UNL d   1       0.672  -0.305   1.070  0.00  0.00     0.006 A 
ATOM      3  C4  UNL d   1       0.039   0.691   1.817  0.00  0.00     0.002 A 
ATOM      4  C5  UNL d   1      -0.891   1.546   1.216  0.00  0.00    -0.080 A 
ATOM      5  C6  UNL d   1      -1.600   2.600   2.013  0.00  0.00     0.076 C 
ATOM      6  C7  UNL d   1      -1.160   1.405  -0.150  0.00  0.00     0.002 A 
ATOM      7  C8  UNL d   1      -0.527   0.409  -0.897  0.00  0.00     0.006 A 
ENDROOT
BRANCH   1   8
ATOM      8  C1  UNL d   1       1.022  -1.573  -1.087  0.00  0.00     0.054 C 
ATOM      9  C   UNL d   1       0.026  -2.691  -1.360  0.00  0.00     0.018 C 
ENDBRANCH   1   8
TORSDOF 1
ENDMDL
