MODEL 1
REMARK minimizedAffinity -4.19243908
REMARK minimizedRMSD -1
REMARK  1 active torsions:
REMARK  status: ('A' for Active; 'I' for Inactive)
REMARK    1  A    between atoms: C1_2  and  C2_3 
ROOT
ATOM      1  C2  UNL d   1       0.438  -0.424  -0.534  0.00  0.00    -0.081 A 
ATOM      2  C3  UNL d   1       0.303  -0.514   0.856  0.00  0.00     0.006 A 
ATOM      3  C4  UNL d   1      -0.242   0.546   1.586  0.00  0.00     0.002 A 
ATOM      4  C5  UNL d   1      -0.667   1.709   0.936  0.00  0.00    -0.080 A 
ATOM      5  C6  UNL d   1      -1.282   2.842   1.704  0.00  0.00     0.076 C 
ATOM      6  C7  UNL d   1      -0.516   1.807  -0.451  0.00  0.00     0.002 A 
ATOM      7  C8  UNL d   1       0.029   0.748  -1.181  0.00  0.00     0.006 A 
ENDROOT
BRANCH   1   8
ATOM      8  C1  UNL d   1       0.965  -1.590  -1.331  0.00  0.00     0.054 C 
ATOM      9  C   UNL d   1      -0.029  -2.743  -1.346  0.00  0.00     0.018 C 
ENDBRANCH   1   8
TORSDOF 1
ENDMDL
