MODEL 1
REMARK minimizedAffinity -5.16676569
REMARK minimizedRMSD -1
REMARK  1 active torsions:
REMARK  status: ('A' for Active; 'I' for Inactive)
REMARK    1  A    between atoms: C1_2  and  C2_3 
ROOT
ATOM      1  C2  UNL d   1      -1.277  -1.738  -0.820  0.00  0.00    -0.081 A 
ATOM      2  C3  UNL d   1       0.091  -1.545  -0.589  0.00  0.00     0.006 A 
ATOM      3  C4  UNL d   1       0.541  -0.412   0.093  0.00  0.00     0.002 A 
ATOM      4  C5  UNL d   1      -0.368   0.542   0.561  0.00  0.00    -0.080 A 
ATOM      5  C6  UNL d   1       0.100   1.748   1.321  0.00  0.00     0.076 C 
ATOM      6  C7  UNL d   1      -1.733   0.359   0.314  0.00  0.00     0.002 A 
ATOM      7  C8  UNL d   1      -2.184  -0.773  -0.368  0.00  0.00     0.006 A 
ENDROOT
BRANCH   1   8
ATOM      8  C1  UNL d   1      -1.771  -2.990  -1.498  0.00  0.00     0.054 C 
ATOM      9  C   UNL d   1      -3.256  -3.206  -1.247  0.00  0.00     0.018 C 
ENDBRANCH   1   8
TORSDOF 1
ENDMDL
