MODEL 1
REMARK minimizedAffinity -2.69247913
REMARK minimizedRMSD -1
REMARK  1 active torsions:
REMARK  status: ('A' for Active; 'I' for Inactive)
REMARK    1  A    between atoms: C1_2  and  C2_3 
ROOT
ATOM      1  C2  UNL d   1      -1.142  -1.409  -0.869  0.00  0.00    -0.081 A 
ATOM      2  C3  UNL d   1       0.233  -1.146  -0.814  0.00  0.00     0.006 A 
ATOM      3  C4  UNL d   1       0.739  -0.213   0.094  0.00  0.00     0.002 A 
ATOM      4  C5  UNL d   1      -0.118   0.466   0.966  0.00  0.00    -0.080 A 
ATOM      5  C6  UNL d   1       0.416   1.448   1.966  0.00  0.00     0.076 C 
ATOM      6  C7  UNL d   1      -1.493   0.217   0.899  0.00  0.00     0.002 A 
ATOM      7  C8  UNL d   1      -2.000  -0.715  -0.009  0.00  0.00     0.006 A 
ENDROOT
BRANCH   1   8
ATOM      8  C1  UNL d   1      -1.684  -2.461  -1.802  0.00  0.00     0.054 C 
ATOM      9  C   UNL d   1      -2.662  -3.383  -1.088  0.00  0.00     0.018 C 
ENDBRANCH   1   8
TORSDOF 1
ENDMDL
