MODEL 1
REMARK minimizedAffinity 0.00716943899
REMARK minimizedRMSD -1
REMARK  1 active torsions:
REMARK  status: ('A' for Active; 'I' for Inactive)
REMARK    1  A    between atoms: C1_2  and  C2_3 
ROOT
ATOM      1  C2  UNL d   1      -1.203  -0.926   0.029  0.00  0.00    -0.081 A 
ATOM      2  C3  UNL d   1      -0.016  -0.183   0.036  0.00  0.00     0.006 A 
ATOM      3  C4  UNL d   1       0.245   0.725   1.065  0.00  0.00     0.002 A 
ATOM      4  C5  UNL d   1      -0.671   0.899   2.108  0.00  0.00    -0.080 A 
ATOM      5  C6  UNL d   1      -0.388   1.848   3.234  0.00  0.00     0.076 C 
ATOM      6  C7  UNL d   1      -1.864   0.170   2.092  0.00  0.00     0.002 A 
ATOM      7  C8  UNL d   1      -2.127  -0.738   1.063  0.00  0.00     0.006 A 
ENDROOT
BRANCH   1   8
ATOM      8  C1  UNL d   1      -1.458  -1.952  -1.045  0.00  0.00     0.054 C 
ATOM      9  C   UNL d   1      -2.644  -2.839  -0.692  0.00  0.00     0.018 C 
ENDBRANCH   1   8
TORSDOF 1
ENDMDL
