MODEL 1
REMARK minimizedAffinity -3.21081042
REMARK minimizedRMSD -1
REMARK  1 active torsions:
REMARK  status: ('A' for Active; 'I' for Inactive)
REMARK    1  A    between atoms: C1_2  and  C2_3 
ROOT
ATOM      1  C2  UNL d   1       0.587  -0.689  -2.583  0.00  0.00    -0.081 A 
ATOM      2  C3  UNL d   1      -0.150  -1.493  -3.460  0.00  0.00     0.006 A 
ATOM      3  C4  UNL d   1      -1.125  -2.366  -2.971  0.00  0.00     0.002 A 
ATOM      4  C5  UNL d   1      -1.383  -2.444  -1.598  0.00  0.00    -0.080 A 
ATOM      5  C6  UNL d   1      -2.448  -3.355  -1.062  0.00  0.00     0.076 C 
ATOM      6  C7  UNL d   1      -0.635  -1.653  -0.720  0.00  0.00     0.002 A 
ATOM      7  C8  UNL d   1       0.340  -0.780  -1.209  0.00  0.00     0.006 A 
ENDROOT
BRANCH   1   8
ATOM      8  C1  UNL d   1       1.593   0.301  -3.113  0.00  0.00     0.054 C 
ATOM      9  C   UNL d   1       0.964   1.235  -4.136  0.00  0.00     0.018 C 
ENDBRANCH   1   8
TORSDOF 1
ENDMDL
