MODEL 1
REMARK minimizedAffinity -0.651011348
REMARK minimizedRMSD -1
REMARK  1 active torsions:
REMARK  status: ('A' for Active; 'I' for Inactive)
REMARK    1  A    between atoms: C1_2  and  C2_3 
ROOT
ATOM      1  C2  UNL d   1      -0.804  -1.490  -0.721  0.00  0.00    -0.081 A 
ATOM      2  C3  UNL d   1       0.565  -1.448  -0.431  0.00  0.00     0.006 A 
ATOM      3  C4  UNL d   1       1.062  -0.543   0.510  0.00  0.00     0.002 A 
ATOM      4  C5  UNL d   1       0.199   0.329   1.182  0.00  0.00    -0.080 A 
ATOM      5  C6  UNL d   1       0.715   1.284   2.216  0.00  0.00     0.076 C 
ATOM      6  C7  UNL d   1      -1.167   0.299   0.879  0.00  0.00     0.002 A 
ATOM      7  C8  UNL d   1      -1.664  -0.605  -0.062  0.00  0.00     0.006 A 
ENDROOT
BRANCH   1   8
ATOM      8  C1  UNL d   1      -1.352  -2.509  -1.688  0.00  0.00     0.054 C 
ATOM      9  C   UNL d   1      -2.772  -2.913  -1.320  0.00  0.00     0.018 C 
ENDBRANCH   1   8
TORSDOF 1
ENDMDL
