MODEL 1
REMARK minimizedAffinity -6.25830317
REMARK minimizedRMSD -1
REMARK  0 active torsions:
REMARK  status: ('A' for Active; 'I' for Inactive)
ROOT
ATOM      1  C1  DEN d   1       0.408   0.023  -0.756  0.00  0.00     0.130 A 
ATOM      2  C2  DEN d   1      -0.818   0.434  -0.077  0.00  0.00    -0.031 A 
ATOM      3  C3  DEN d   1      -0.686   0.086   1.352  0.00  0.00     0.027 A 
ATOM      4  C4  DEN d   1       1.289  -1.038   2.573  0.00  0.00     0.027 A 
ATOM      5  C5  DEN d   1       2.545  -1.579   2.414  0.00  0.00    -0.003 A 
ATOM      6  C6  DEN d   1       3.158  -1.655   1.191  0.00  0.00     0.001 A 
ATOM      7  C7  DEN d   1       2.534  -1.140   0.086  0.00  0.00     0.017 A 
ATOM      8  C8  DEN d   1       1.264  -0.599   0.237  0.00  0.00    -0.094 A 
ATOM      9  C9  DEN d   1       0.666  -0.521   1.484  0.00  0.00    -0.072 A 
ENDROOT
TORSDOF 0
ENDMDL
