MODEL 1
REMARK minimizedAffinity -0.955347002
REMARK minimizedRMSD -1
REMARK  0 active torsions:
REMARK  status: ('A' for Active; 'I' for Inactive)
ROOT
ATOM      1  C1  DEN d   1       2.485  -0.665   0.716  0.00  0.00     0.130 A 
ATOM      2  C2  DEN d   1       2.001  -0.493   2.083  0.00  0.00    -0.031 A 
ATOM      3  C3  DEN d   1       0.541  -0.281   2.028  0.00  0.00     0.027 A 
ATOM      4  C4  DEN d   1      -1.011  -0.209  -0.031  0.00  0.00     0.027 A 
ATOM      5  C5  DEN d   1      -1.057  -0.291  -1.406  0.00  0.00    -0.003 A 
ATOM      6  C6  DEN d   1       0.069  -0.469  -2.165  0.00  0.00     0.001 A 
ATOM      7  C7  DEN d   1       1.285  -0.615  -1.551  0.00  0.00     0.017 A 
ATOM      8  C8  DEN d   1       1.341  -0.525  -0.167  0.00  0.00    -0.094 A 
ATOM      9  C9  DEN d   1       0.189  -0.357   0.584  0.00  0.00    -0.072 A 
ENDROOT
TORSDOF 0
ENDMDL
