MODEL 1
REMARK minimizedAffinity -2.86923337
REMARK minimizedRMSD -1
REMARK  0 active torsions:
REMARK  status: ('A' for Active; 'I' for Inactive)
ROOT
ATOM      1  C1  DEN d   1       0.489   1.732  -0.508  0.00  0.00     0.130 A 
ATOM      2  C2  DEN d   1      -0.114   1.123  -1.690  0.00  0.00    -0.031 A 
ATOM      3  C3  DEN d   1      -0.554  -0.239  -1.328  0.00  0.00     0.027 A 
ATOM      4  C4  DEN d   1      -0.365  -1.456   0.939  0.00  0.00     0.027 A 
ATOM      5  C5  DEN d   1       0.082  -1.348   2.237  0.00  0.00    -0.003 A 
ATOM      6  C6  DEN d   1       0.722  -0.228   2.698  0.00  0.00     0.001 A 
ATOM      7  C7  DEN d   1       0.892   0.847   1.866  0.00  0.00     0.017 A 
ATOM      8  C8  DEN d   1       0.450   0.743   0.554  0.00  0.00    -0.094 A 
ATOM      9  C9  DEN d   1      -0.205  -0.393   0.110  0.00  0.00    -0.072 A 
ENDROOT
TORSDOF 0
ENDMDL
