MODEL 1
REMARK minimizedAffinity -3.72328591
REMARK minimizedRMSD -1
REMARK  0 active torsions:
REMARK  status: ('A' for Active; 'I' for Inactive)
ROOT
ATOM      1  C1  DEN d   1      -0.585  -0.648  -1.024  0.00  0.00     0.130 A 
ATOM      2  C2  DEN d   1      -0.443   0.703  -1.560  0.00  0.00    -0.031 A 
ATOM      3  C3  DEN d   1       0.251   1.525  -0.548  0.00  0.00     0.027 A 
ATOM      4  C4  DEN d   1       1.120   0.839   1.781  0.00  0.00     0.027 A 
ATOM      5  C5  DEN d   1       1.221  -0.199   2.681  0.00  0.00    -0.003 A 
ATOM      6  C6  DEN d   1       0.701  -1.441   2.424  0.00  0.00     0.001 A 
ATOM      7  C7  DEN d   1       0.096  -1.688   1.220  0.00  0.00     0.017 A 
ATOM      8  C8  DEN d   1      -0.016  -0.644   0.311  0.00  0.00    -0.094 A 
ATOM      9  C9  DEN d   1       0.527   0.600   0.584  0.00  0.00    -0.072 A 
ENDROOT
TORSDOF 0
ENDMDL
