MODEL 1
REMARK minimizedAffinity -6.03341341
REMARK minimizedRMSD -1
REMARK  0 active torsions:
REMARK  status: ('A' for Active; 'I' for Inactive)
ROOT
ATOM      1  C1  DEN d   1       1.051  -0.973   2.658  0.00  0.00     0.130 A 
ATOM      2  C2  DEN d   1       2.229  -1.827   2.537  0.00  0.00    -0.031 A 
ATOM      3  C3  DEN d   1       2.407  -2.159   1.109  0.00  0.00     0.027 A 
ATOM      4  C4  DEN d   1       0.982  -1.435  -0.915  0.00  0.00     0.027 A 
ATOM      5  C5  DEN d   1      -0.126  -0.719  -1.309  0.00  0.00    -0.003 A 
ATOM      6  C6  DEN d   1      -0.933  -0.071  -0.412  0.00  0.00     0.001 A 
ATOM      7  C7  DEN d   1      -0.618  -0.088   0.921  0.00  0.00     0.017 A 
ATOM      8  C8  DEN d   1       0.495  -0.814   1.327  0.00  0.00    -0.094 A 
ATOM      9  C9  DEN d   1       1.305  -1.453   0.403  0.00  0.00    -0.072 A 
ENDROOT
TORSDOF 0
ENDMDL
