MODEL 1
REMARK minimizedAffinity -3.40769744
REMARK minimizedRMSD -1
REMARK  0 active torsions:
REMARK  status: ('A' for Active; 'I' for Inactive)
ROOT
ATOM      1  C1  DEN d   1       1.140   0.709  -0.664  0.00  0.00     0.130 A 
ATOM      2  C2  DEN d   1      -0.031   0.676  -1.536  0.00  0.00    -0.031 A 
ATOM      3  C3  DEN d   1      -1.084  -0.104  -0.856  0.00  0.00     0.027 A 
ATOM      4  C4  DEN d   1      -1.017  -1.254   1.452  0.00  0.00     0.027 A 
ATOM      5  C5  DEN d   1      -0.234  -1.511   2.556  0.00  0.00    -0.003 A 
ATOM      6  C6  DEN d   1       1.063  -1.080   2.648  0.00  0.00     0.001 A 
ATOM      7  C7  DEN d   1       1.601  -0.328   1.637  0.00  0.00     0.017 A 
ATOM      8  C8  DEN d   1       0.820  -0.070   0.518  0.00  0.00    -0.094 A 
ATOM      9  C9  DEN d   1      -0.493  -0.505   0.449  0.00  0.00    -0.072 A 
ENDROOT
TORSDOF 0
ENDMDL
