MODEL 1
REMARK minimizedAffinity -5.05526829
REMARK minimizedRMSD -1
REMARK  0 active torsions:
REMARK  status: ('A' for Active; 'I' for Inactive)
ROOT
ATOM      1  C1  DEN d   1      -0.825   0.819  -1.357  0.00  0.00     0.130 A 
ATOM      2  C2  DEN d   1      -0.418   0.078  -2.547  0.00  0.00    -0.031 A 
ATOM      3  C3  DEN d   1       0.669  -0.845  -2.160  0.00  0.00     0.027 A 
ATOM      4  C4  DEN d   1       1.750  -1.199   0.155  0.00  0.00     0.027 A 
ATOM      5  C5  DEN d   1       1.746  -0.790   1.470  0.00  0.00    -0.003 A 
ATOM      6  C6  DEN d   1       0.915   0.200   1.924  0.00  0.00     0.001 A 
ATOM      7  C7  DEN d   1       0.021   0.783   1.065  0.00  0.00     0.017 A 
ATOM      8  C8  DEN d   1       0.024   0.381  -0.264  0.00  0.00    -0.094 A 
ATOM      9  C9  DEN d   1       0.864  -0.630  -0.701  0.00  0.00    -0.072 A 
ENDROOT
TORSDOF 0
ENDMDL
