MODEL 1
REMARK minimizedAffinity -1.8394798
REMARK minimizedRMSD -1
REMARK  1 active torsions:
REMARK  status: ('A' for Active; 'I' for Inactive)
REMARK    1  A    between atoms: C1_2  and  C2_3 
ROOT
ATOM      1  C2  UNL d   1      -1.291  -0.220   0.923  0.00  0.00    -0.073 A 
ATOM      2  C3  UNL d   1      -0.779  -1.476   1.268  0.00  0.00    -0.002 A 
ATOM      3  C4  UNL d   1       0.208  -2.075   0.485  0.00  0.00     0.004 A 
ATOM      4  C5  UNL d   1       0.700  -1.422  -0.645  0.00  0.00    -0.004 A 
ATOM      5  C6  UNL d   1       0.210  -0.161  -1.000  0.00  0.00    -0.075 A 
ATOM      6  C7  UNL d   1       0.726   0.554  -2.214  0.00  0.00     0.076 C 
ATOM      7  C8  UNL d   1      -0.784   0.433  -0.210  0.00  0.00     0.001 A 
ENDROOT
BRANCH   1   8
ATOM      8  C1  UNL d   1      -2.353   0.433   1.769  0.00  0.00     0.053 C 
ATOM      9  C   UNL d   1      -3.734  -0.139   1.493  0.00  0.00     0.018 C 
ENDBRANCH   1   8
TORSDOF 1
ENDMDL
