MODEL 1
REMARK minimizedAffinity -4.1265645
REMARK minimizedRMSD -1
REMARK  1 active torsions:
REMARK  status: ('A' for Active; 'I' for Inactive)
REMARK    1  A    between atoms: C1_2  and  C2_3 
ROOT
ATOM      1  C2  UNL d   1      -1.014   0.183   0.357  0.00  0.00    -0.073 A 
ATOM      2  C3  UNL d   1      -0.209   1.229   0.823  0.00  0.00    -0.002 A 
ATOM      3  C4  UNL d   1       0.921   1.622   0.105  0.00  0.00     0.004 A 
ATOM      4  C5  UNL d   1       1.254   0.979  -1.087  0.00  0.00    -0.004 A 
ATOM      5  C6  UNL d   1       0.456  -0.060  -1.575  0.00  0.00    -0.075 A 
ATOM      6  C7  UNL d   1       0.802  -0.763  -2.855  0.00  0.00     0.076 C 
ATOM      7  C8  UNL d   1      -0.676  -0.451  -0.847  0.00  0.00     0.001 A 
ENDROOT
BRANCH   1   8
ATOM      8  C1  UNL d   1      -2.239  -0.240   1.125  0.00  0.00     0.053 C 
ATOM      9  C   UNL d   1      -2.888   0.927   1.853  0.00  0.00     0.018 C 
ENDBRANCH   1   8
TORSDOF 1
ENDMDL
