MODEL 1
REMARK minimizedAffinity -4.15823936
REMARK minimizedRMSD -1
REMARK  1 active torsions:
REMARK  status: ('A' for Active; 'I' for Inactive)
REMARK    1  A    between atoms: C1_2  and  C2_3 
ROOT
ATOM      1  C2  UNL d   1       0.229  -0.352  -0.249  0.00  0.00    -0.073 A 
ATOM      2  C3  UNL d   1       0.512  -1.697   0.016  0.00  0.00    -0.002 A 
ATOM      3  C4  UNL d   1      -0.242  -2.404   0.954  0.00  0.00     0.004 A 
ATOM      4  C5  UNL d   1      -1.288  -1.777   1.630  0.00  0.00    -0.004 A 
ATOM      5  C6  UNL d   1      -1.593  -0.437   1.371  0.00  0.00    -0.075 A 
ATOM      6  C7  UNL d   1      -2.714   0.253   2.091  0.00  0.00     0.076 C 
ATOM      7  C8  UNL d   1      -0.830   0.267   0.429  0.00  0.00     0.001 A 
ENDROOT
BRANCH   1   8
ATOM      8  C1  UNL d   1       1.036   0.414  -1.266  0.00  0.00     0.053 C 
ATOM      9  C   UNL d   1       0.915  -0.185  -2.658  0.00  0.00     0.018 C 
ENDBRANCH   1   8
TORSDOF 1
ENDMDL
