MODEL 1
REMARK minimizedAffinity -4.78137589
REMARK minimizedRMSD -1
REMARK  1 active torsions:
REMARK  status: ('A' for Active; 'I' for Inactive)
REMARK    1  A    between atoms: C1_2  and  C2_3 
ROOT
ATOM      1  C2  UNL d   1       0.141   0.395   0.251  0.00  0.00    -0.073 A 
ATOM      2  C3  UNL d   1       0.924   1.505  -0.084  0.00  0.00    -0.002 A 
ATOM      3  C4  UNL d   1       1.761   1.466  -1.200  0.00  0.00     0.004 A 
ATOM      4  C5  UNL d   1       1.817   0.322  -1.996  0.00  0.00    -0.004 A 
ATOM      5  C6  UNL d   1       1.033  -0.793  -1.684  0.00  0.00    -0.075 A 
ATOM      6  C7  UNL d   1       1.084  -2.033  -2.528  0.00  0.00     0.076 C 
ATOM      7  C8  UNL d   1       0.197  -0.747  -0.560  0.00  0.00     0.001 A 
ENDROOT
BRANCH   1   8
ATOM      8  C1  UNL d   1      -0.769   0.435   1.452  0.00  0.00     0.053 C 
ATOM      9  C   UNL d   1      -2.237   0.436   1.055  0.00  0.00     0.018 C 
ENDBRANCH   1   8
TORSDOF 1
ENDMDL
