MODEL 1
REMARK minimizedAffinity -2.64595866
REMARK minimizedRMSD -1
REMARK  1 active torsions:
REMARK  status: ('A' for Active; 'I' for Inactive)
REMARK    1  A    between atoms: C1_2  and  C2_3 
ROOT
ATOM      1  C2  UNL d   1      -0.723   0.626   0.174  0.00  0.00    -0.073 A 
ATOM      2  C3  UNL d   1      -0.295   0.008   1.354  0.00  0.00    -0.002 A 
ATOM      3  C4  UNL d   1      -1.205  -0.269   2.375  0.00  0.00     0.004 A 
ATOM      4  C5  UNL d   1      -2.552   0.061   2.225  0.00  0.00    -0.004 A 
ATOM      5  C6  UNL d   1      -3.001   0.669   1.048  0.00  0.00    -0.075 A 
ATOM      6  C7  UNL d   1      -4.446   1.033   0.871  0.00  0.00     0.076 C 
ATOM      7  C8  UNL d   1      -2.081   0.947   0.028  0.00  0.00     0.001 A 
ENDROOT
BRANCH   1   8
ATOM      8  C1  UNL d   1       0.254   0.922  -0.934  0.00  0.00     0.053 C 
ATOM      9  C   UNL d   1       1.041  -0.313  -1.344  0.00  0.00     0.018 C 
ENDBRANCH   1   8
TORSDOF 1
ENDMDL
