MODEL 1
REMARK minimizedAffinity -3.75730753
REMARK minimizedRMSD -1
REMARK  1 active torsions:
REMARK  status: ('A' for Active; 'I' for Inactive)
REMARK    1  A    between atoms: C1_2  and  C2_3 
ROOT
ATOM      1  C2  UNL d   1      -0.609  -0.157   0.538  0.00  0.00    -0.073 A 
ATOM      2  C3  UNL d   1       0.156   0.678   1.361  0.00  0.00    -0.002 A 
ATOM      3  C4  UNL d   1       1.222   1.405   0.831  0.00  0.00     0.004 A 
ATOM      4  C5  UNL d   1       1.531   1.311  -0.526  0.00  0.00    -0.004 A 
ATOM      5  C6  UNL d   1       0.772   0.491  -1.367  0.00  0.00    -0.075 A 
ATOM      6  C7  UNL d   1       1.093   0.376  -2.828  0.00  0.00     0.076 C 
ATOM      7  C8  UNL d   1      -0.296  -0.239  -0.827  0.00  0.00     0.001 A 
ENDROOT
BRANCH   1   8
ATOM      8  C1  UNL d   1      -1.765  -0.939   1.104  0.00  0.00     0.053 C 
ATOM      9  C   UNL d   1      -3.002  -0.075   1.289  0.00  0.00     0.018 C 
ENDBRANCH   1   8
TORSDOF 1
ENDMDL
