MODEL 1
REMARK minimizedAffinity -2.70340919
REMARK minimizedRMSD -1
REMARK  1 active torsions:
REMARK  status: ('A' for Active; 'I' for Inactive)
REMARK    1  A    between atoms: C1_2  and  C2_3 
ROOT
ATOM      1  C2  UNL d   1      -1.198   0.413   0.647  0.00  0.00    -0.073 A 
ATOM      2  C3  UNL d   1      -0.357   1.412   0.143  0.00  0.00    -0.002 A 
ATOM      3  C4  UNL d   1       0.777   1.073  -0.595  0.00  0.00     0.004 A 
ATOM      4  C5  UNL d   1       1.078  -0.266  -0.843  0.00  0.00    -0.004 A 
ATOM      5  C6  UNL d   1       0.244  -1.278  -0.358  0.00  0.00    -0.075 A 
ATOM      6  C7  UNL d   1       0.555  -2.724  -0.615  0.00  0.00     0.076 C 
ATOM      7  C8  UNL d   1      -0.892  -0.930   0.385  0.00  0.00     0.001 A 
ENDROOT
BRANCH   1   8
ATOM      8  C1  UNL d   1      -2.428   0.775   1.439  0.00  0.00     0.053 C 
ATOM      9  C   UNL d   1      -3.616  -0.102   1.079  0.00  0.00     0.018 C 
ENDBRANCH   1   8
TORSDOF 1
ENDMDL
