MODEL 1
REMARK minimizedAffinity -3.52941155
REMARK minimizedRMSD -1
REMARK  1 active torsions:
REMARK  status: ('A' for Active; 'I' for Inactive)
REMARK    1  A    between atoms: C1_2  and  C2_3 
ROOT
ATOM      1  C2  UNL d   1       0.547   0.247  -1.462  0.00  0.00    -0.073 A 
ATOM      2  C3  UNL d   1      -0.467  -0.558  -0.931  0.00  0.00    -0.002 A 
ATOM      3  C4  UNL d   1      -0.793  -0.479   0.424  0.00  0.00     0.004 A 
ATOM      4  C5  UNL d   1      -0.116   0.409   1.259  0.00  0.00    -0.004 A 
ATOM      5  C6  UNL d   1       0.893   1.231   0.744  0.00  0.00    -0.075 A 
ATOM      6  C7  UNL d   1       1.633   2.190   1.630  0.00  0.00     0.076 C 
ATOM      7  C8  UNL d   1       1.217   1.144  -0.616  0.00  0.00     0.001 A 
ENDROOT
BRANCH   1   8
ATOM      8  C1  UNL d   1       0.899   0.170  -2.925  0.00  0.00     0.053 C 
ATOM      9  C   UNL d   1       2.385   0.379  -3.166  0.00  0.00     0.018 C 
ENDBRANCH   1   8
TORSDOF 1
ENDMDL
