MODEL 1
REMARK minimizedAffinity -2.67074776
REMARK minimizedRMSD -1
REMARK  1 active torsions:
REMARK  status: ('A' for Active; 'I' for Inactive)
REMARK    1  A    between atoms: C1_2  and  C2_3 
ROOT
ATOM      1  C2  UNL d   1      -0.301   0.002   0.116  0.00  0.00    -0.073 A 
ATOM      2  C3  UNL d   1       0.264   1.117   0.745  0.00  0.00    -0.002 A 
ATOM      3  C4  UNL d   1       1.329   1.796   0.152  0.00  0.00     0.004 A 
ATOM      4  C5  UNL d   1       1.835   1.373  -1.076  0.00  0.00    -0.004 A 
ATOM      5  C6  UNL d   1       1.276   0.268  -1.726  0.00  0.00    -0.075 A 
ATOM      6  C7  UNL d   1       1.810  -0.202  -3.048  0.00  0.00     0.076 C 
ATOM      7  C8  UNL d   1       0.208  -0.411  -1.123  0.00  0.00     0.001 A 
ENDROOT
BRANCH   1   8
ATOM      8  C1  UNL d   1      -1.455  -0.731   0.750  0.00  0.00     0.053 C 
ATOM      9  C   UNL d   1      -2.667   0.168   0.938  0.00  0.00     0.018 C 
ENDBRANCH   1   8
TORSDOF 1
ENDMDL
