MODEL 1
REMARK minimizedAffinity -4.37397051
REMARK minimizedRMSD -1
REMARK  1 active torsions:
REMARK  status: ('A' for Active; 'I' for Inactive)
REMARK    1  A    between atoms: C1_2  and  C2_3 
ROOT
ATOM      1  C2  UNL d   1      -0.087   0.129  -0.237  0.00  0.00    -0.073 A 
ATOM      2  C3  UNL d   1       0.244  -1.225  -0.114  0.00  0.00    -0.002 A 
ATOM      3  C4  UNL d   1      -0.295  -1.991   0.920  0.00  0.00     0.004 A 
ATOM      4  C5  UNL d   1      -1.175  -1.415   1.835  0.00  0.00    -0.004 A 
ATOM      5  C6  UNL d   1      -1.528  -0.067   1.722  0.00  0.00    -0.075 A 
ATOM      6  C7  UNL d   1      -2.472   0.569   2.700  0.00  0.00     0.076 C 
ATOM      7  C8  UNL d   1      -0.980   0.697   0.683  0.00  0.00     0.001 A 
ENDROOT
BRANCH   1   8
ATOM      8  C1  UNL d   1       0.488   0.960  -1.356  0.00  0.00     0.053 C 
ATOM      9  C   UNL d   1       1.855   0.459  -1.792  0.00  0.00     0.018 C 
ENDBRANCH   1   8
TORSDOF 1
ENDMDL
