MODEL 1
REMARK minimizedAffinity -2.75618815
REMARK minimizedRMSD -1
REMARK  0 active torsions:
REMARK  status: ('A' for Active; 'I' for Inactive)
ROOT
ATOM      1  C   UNL d   1      -1.005   2.663  -1.715  0.00  0.00     0.077 C 
ATOM      2  C1  UNL d   1      -0.707   1.539  -0.769  0.00  0.00    -0.074 A 
ATOM      3  C2  UNL d   1      -0.916   1.682   0.606  0.00  0.00    -0.005 A 
ATOM      4  C3  UNL d   1      -0.644   0.624   1.473  0.00  0.00     0.006 A 
ATOM      5  C4  UNL d   1      -0.159  -0.586   0.975  0.00  0.00    -0.005 A 
ATOM      6  C5  UNL d   1       0.056  -0.748  -0.398  0.00  0.00    -0.074 A 
ATOM      7  C6  UNL d   1       0.567  -2.045  -0.951  0.00  0.00     0.077 C 
ATOM      8  C7  UNL d   1      -0.227   0.318  -1.263  0.00  0.00    -0.001 A 
ENDROOT
TORSDOF 0
ENDMDL
