MODEL 1
REMARK minimizedAffinity -2.69267273
REMARK minimizedRMSD -1
REMARK  0 active torsions:
REMARK  status: ('A' for Active; 'I' for Inactive)
ROOT
ATOM      1  C   UNL d   1       0.296   1.057  -2.413  0.00  0.00     0.077 C 
ATOM      2  C1  UNL d   1       0.170   0.796  -0.941  0.00  0.00    -0.074 A 
ATOM      3  C2  UNL d   1       0.655  -0.388  -0.377  0.00  0.00    -0.005 A 
ATOM      4  C3  UNL d   1       0.540  -0.612   0.995  0.00  0.00     0.006 A 
ATOM      5  C4  UNL d   1      -0.062   0.344   1.815  0.00  0.00    -0.005 A 
ATOM      6  C5  UNL d   1      -0.552   1.534   1.268  0.00  0.00    -0.074 A 
ATOM      7  C6  UNL d   1      -1.192   2.577   2.136  0.00  0.00     0.077 C 
ATOM      8  C7  UNL d   1      -0.426   1.755  -0.110  0.00  0.00    -0.001 A 
ENDROOT
TORSDOF 0
ENDMDL
