MODEL 1
REMARK minimizedAffinity -5.1055851
REMARK minimizedRMSD -1
REMARK  0 active torsions:
REMARK  status: ('A' for Active; 'I' for Inactive)
ROOT
ATOM      1  C   UNL d   1       0.379   0.025  -2.336  0.00  0.00     0.077 C 
ATOM      2  C1  UNL d   1       0.231   0.225  -0.857  0.00  0.00    -0.074 A 
ATOM      3  C2  UNL d   1       0.772  -0.692   0.050  0.00  0.00    -0.005 A 
ATOM      4  C3  UNL d   1       0.635  -0.489   1.423  0.00  0.00     0.006 A 
ATOM      5  C4  UNL d   1      -0.044   0.632   1.903  0.00  0.00    -0.005 A 
ATOM      6  C5  UNL d   1      -0.592   1.560   1.011  0.00  0.00    -0.074 A 
ATOM      7  C6  UNL d   1      -1.316   2.775   1.510  0.00  0.00     0.077 C 
ATOM      8  C7  UNL d   1      -0.443   1.352  -0.367  0.00  0.00    -0.001 A 
ENDROOT
TORSDOF 0
ENDMDL
