MODEL 1
REMARK minimizedAffinity -4.25437975
REMARK minimizedRMSD -1
REMARK  0 active torsions:
REMARK  status: ('A' for Active; 'I' for Inactive)
ROOT
ATOM      1  C   UNL d   1      -0.802  -0.862  -0.894  0.00  0.00     0.077 C 
ATOM      2  C1  UNL d   1      -0.535  -0.158   0.403  0.00  0.00    -0.074 A 
ATOM      3  C2  UNL d   1       0.277  -0.739   1.383  0.00  0.00    -0.005 A 
ATOM      4  C3  UNL d   1       0.525  -0.068   2.580  0.00  0.00     0.006 A 
ATOM      5  C4  UNL d   1      -0.036   1.188   2.810  0.00  0.00    -0.005 A 
ATOM      6  C5  UNL d   1      -0.850   1.786   1.843  0.00  0.00    -0.074 A 
ATOM      7  C6  UNL d   1      -1.453   3.140   2.070  0.00  0.00     0.077 C 
ATOM      8  C7  UNL d   1      -1.088   1.108   0.639  0.00  0.00    -0.001 A 
ENDROOT
TORSDOF 0
ENDMDL
