MODEL 1
REMARK minimizedAffinity -1.4385916
REMARK minimizedRMSD -1
REMARK  0 active torsions:
REMARK  status: ('A' for Active; 'I' for Inactive)
ROOT
ATOM      1  C   UNL d   1      -0.049   0.777  -2.442  0.00  0.00     0.077 C 
ATOM      2  C1  UNL d   1       0.105   0.639  -0.956  0.00  0.00    -0.074 A 
ATOM      3  C2  UNL d   1       0.622  -0.532  -0.392  0.00  0.00    -0.005 A 
ATOM      4  C3  UNL d   1       0.768  -0.641   0.990  0.00  0.00     0.006 A 
ATOM      5  C4  UNL d   1       0.398   0.416   1.822  0.00  0.00    -0.005 A 
ATOM      6  C5  UNL d   1      -0.121   1.595   1.276  0.00  0.00    -0.074 A 
ATOM      7  C6  UNL d   1      -0.515   2.744   2.155  0.00  0.00     0.077 C 
ATOM      8  C7  UNL d   1      -0.258   1.700  -0.115  0.00  0.00    -0.001 A 
ENDROOT
TORSDOF 0
ENDMDL
