MODEL 1
REMARK minimizedAffinity -4.50256348
REMARK minimizedRMSD -1
REMARK  0 active torsions:
REMARK  status: ('A' for Active; 'I' for Inactive)
ROOT
ATOM      1  C   UNL d   1       0.324   0.440  -2.871  0.00  0.00     0.077 C 
ATOM      2  C1  UNL d   1       0.294   0.408  -1.372  0.00  0.00    -0.074 A 
ATOM      3  C2  UNL d   1       1.123  -0.460  -0.655  0.00  0.00    -0.005 A 
ATOM      4  C3  UNL d   1       1.091  -0.472   0.740  0.00  0.00     0.006 A 
ATOM      5  C4  UNL d   1       0.231   0.383   1.430  0.00  0.00    -0.005 A 
ATOM      6  C5  UNL d   1      -0.605   1.259   0.730  0.00  0.00    -0.074 A 
ATOM      7  C6  UNL d   1      -1.528   2.191   1.456  0.00  0.00     0.077 C 
ATOM      8  C7  UNL d   1      -0.562   1.270  -0.671  0.00  0.00    -0.001 A 
ENDROOT
TORSDOF 0
ENDMDL
