MODEL 1
REMARK minimizedAffinity -2.08699346
REMARK minimizedRMSD -1
REMARK  0 active torsions:
REMARK  status: ('A' for Active; 'I' for Inactive)
ROOT
ATOM      1  C   UNL d   1       0.134   1.225  -1.549  0.00  0.00     0.077 C 
ATOM      2  C1  UNL d   1      -0.069  -0.049  -0.783  0.00  0.00    -0.074 A 
ATOM      3  C2  UNL d   1      -0.159  -0.042   0.613  0.00  0.00    -0.005 A 
ATOM      4  C3  UNL d   1      -0.357  -1.233   1.311  0.00  0.00     0.006 A 
ATOM      5  C4  UNL d   1      -0.467  -2.441   0.622  0.00  0.00    -0.005 A 
ATOM      6  C5  UNL d   1      -0.380  -2.468  -0.774  0.00  0.00    -0.074 A 
ATOM      7  C6  UNL d   1      -0.506  -3.757  -1.530  0.00  0.00     0.077 C 
ATOM      8  C7  UNL d   1      -0.188  -1.266  -1.468  0.00  0.00    -0.001 A 
ENDROOT
TORSDOF 0
ENDMDL
