MODEL 1
REMARK minimizedAffinity 0.088661693
REMARK minimizedRMSD -1
REMARK  0 active torsions:
REMARK  status: ('A' for Active; 'I' for Inactive)
ROOT
ATOM      1  C   UNL d   1      -0.012   1.127  -1.613  0.00  0.00     0.077 C 
ATOM      2  C1  UNL d   1      -0.272   1.078  -0.137  0.00  0.00    -0.074 A 
ATOM      3  C2  UNL d   1       0.062   2.157   0.688  0.00  0.00    -0.005 A 
ATOM      4  C3  UNL d   1      -0.195   2.100   2.058  0.00  0.00     0.006 A 
ATOM      5  C4  UNL d   1      -0.787   0.966   2.616  0.00  0.00    -0.005 A 
ATOM      6  C5  UNL d   1      -1.128  -0.122   1.806  0.00  0.00    -0.074 A 
ATOM      7  C6  UNL d   1      -1.774  -1.344   2.388  0.00  0.00     0.077 C 
ATOM      8  C7  UNL d   1      -0.874  -0.055   0.430  0.00  0.00    -0.001 A 
ENDROOT
TORSDOF 0
ENDMDL
