MODEL 1
REMARK minimizedAffinity -3.24404287
REMARK minimizedRMSD -1
REMARK  0 active torsions:
REMARK  status: ('A' for Active; 'I' for Inactive)
ROOT
ATOM      1  C   UNL d   1      -1.766   2.434   1.537  0.00  0.00     0.077 C 
ATOM      2  C1  UNL d   1      -0.912   1.352   0.945  0.00  0.00    -0.074 A 
ATOM      3  C2  UNL d   1      -1.116   0.913  -0.367  0.00  0.00    -0.005 A 
ATOM      4  C3  UNL d   1      -0.308  -0.087  -0.908  0.00  0.00     0.006 A 
ATOM      5  C4  UNL d   1       0.710  -0.657  -0.143  0.00  0.00    -0.005 A 
ATOM      6  C5  UNL d   1       0.929  -0.231   1.170  0.00  0.00    -0.074 A 
ATOM      7  C6  UNL d   1       2.026  -0.826   2.002  0.00  0.00     0.077 C 
ATOM      8  C7  UNL d   1       0.118   0.780   1.704  0.00  0.00    -0.001 A 
ENDROOT
TORSDOF 0
ENDMDL
