MODEL 1
REMARK minimizedAffinity -5.40497398
REMARK minimizedRMSD -1
REMARK  0 active torsions:
REMARK  status: ('A' for Active; 'I' for Inactive)
ROOT
ATOM      1  C   UNL d   1      -1.570   2.810   1.140  0.00  0.00     0.077 C 
ATOM      2  C1  UNL d   1      -0.669   1.670   0.766  0.00  0.00    -0.074 A 
ATOM      3  C2  UNL d   1      -0.515   1.284  -0.569  0.00  0.00    -0.005 A 
ATOM      4  C3  UNL d   1       0.333   0.228  -0.903  0.00  0.00     0.006 A 
ATOM      5  C4  UNL d   1       1.034  -0.451   0.094  0.00  0.00    -0.005 A 
ATOM      6  C5  UNL d   1       0.893  -0.079   1.435  0.00  0.00    -0.074 A 
ATOM      7  C6  UNL d   1       1.647  -0.792   2.517  0.00  0.00     0.077 C 
ATOM      8  C7  UNL d   1       0.045   0.988   1.761  0.00  0.00    -0.001 A 
ENDROOT
TORSDOF 0
ENDMDL
