MODEL 1
REMARK minimizedAffinity -2.38560915
REMARK minimizedRMSD -1
REMARK  0 active torsions:
REMARK  status: ('A' for Active; 'I' for Inactive)
ROOT
ATOM      1  C   UNL d   1      -1.113   1.155   0.346  0.00  0.00     0.172 C 
ATOM      2  N   UNL d   1      -1.557   0.987   1.710  0.00  0.00    -0.070 N 
ATOM      3  C1  UNL d   1      -1.706   1.990   2.631  0.00  0.00    -0.004 A 
ATOM      4  C2  UNL d   1      -2.146   1.421   3.806  0.00  0.00    -0.047 A 
ATOM      5  C3  UNL d   1      -2.264   0.029   3.585  0.00  0.00    -0.047 A 
ATOM      6  C4  UNL d   1      -1.893  -0.213   2.279  0.00  0.00    -0.004 A 
ENDROOT
TORSDOF 0
ENDMDL
