MODEL 1
REMARK minimizedAffinity -1.30517113
REMARK minimizedRMSD -1
REMARK  0 active torsions:
REMARK  status: ('A' for Active; 'I' for Inactive)
ROOT
ATOM      1  C   UNL d   1       2.978  -1.101  -0.931  0.00  0.00     0.172 C 
ATOM      2  N   UNL d   1       1.627  -1.028  -0.428  0.00  0.00    -0.070 N 
ATOM      3  C1  UNL d   1       0.879  -2.090   0.006  0.00  0.00    -0.004 A 
ATOM      4  C2  UNL d   1      -0.349  -1.606   0.405  0.00  0.00    -0.047 A 
ATOM      5  C3  UNL d   1      -0.338  -0.205   0.203  0.00  0.00    -0.047 A 
ATOM      6  C4  UNL d   1       0.897   0.126  -0.314  0.00  0.00    -0.004 A 
ENDROOT
TORSDOF 0
ENDMDL
