MODEL 1
REMARK minimizedAffinity -2.11263943
REMARK minimizedRMSD -1
REMARK  0 active torsions:
REMARK  status: ('A' for Active; 'I' for Inactive)
ROOT
ATOM      1  C   UNL d   1       5.930  -1.972   5.293  0.00  0.00     0.172 C 
ATOM      2  N   UNL d   1       5.957  -0.556   5.010  0.00  0.00    -0.070 N 
ATOM      3  C1  UNL d   1       5.976   0.445   5.944  0.00  0.00    -0.004 A 
ATOM      4  C2  UNL d   1       6.000   1.648   5.273  0.00  0.00    -0.047 A 
ATOM      5  C3  UNL d   1       5.993   1.361   3.888  0.00  0.00    -0.047 A 
ATOM      6  C4  UNL d   1       5.966  -0.011   3.753  0.00  0.00    -0.004 A 
ENDROOT
TORSDOF 0
ENDMDL
