MODEL 1
REMARK minimizedAffinity -3.31205797
REMARK minimizedRMSD -1
REMARK  0 active torsions:
REMARK  status: ('A' for Active; 'I' for Inactive)
ROOT
ATOM      1  C   UNL d   1      -0.856   0.512   0.325  0.00  0.00     0.172 C 
ATOM      2  N   UNL d   1       0.327  -0.138  -0.187  0.00  0.00    -0.070 N 
ATOM      3  C1  UNL d   1       1.464   0.495  -0.613  0.00  0.00    -0.004 A 
ATOM      4  C2  UNL d   1       2.357  -0.472  -1.023  0.00  0.00    -0.047 A 
ATOM      5  C3  UNL d   1       1.735  -1.729  -0.837  0.00  0.00    -0.047 A 
ATOM      6  C4  UNL d   1       0.479  -1.493  -0.318  0.00  0.00    -0.004 A 
ENDROOT
TORSDOF 0
ENDMDL
