MODEL 1
REMARK minimizedAffinity -3.18915725
REMARK minimizedRMSD -1
REMARK  0 active torsions:
REMARK  status: ('A' for Active; 'I' for Inactive)
ROOT
ATOM      1  C   UNL d   1      -0.892   0.397   0.314  0.00  0.00     0.172 C 
ATOM      2  N   UNL d   1       0.340  -0.198  -0.149  0.00  0.00    -0.070 N 
ATOM      3  C1  UNL d   1       1.474   0.485  -0.499  0.00  0.00    -0.004 A 
ATOM      4  C2  UNL d   1       2.422  -0.439  -0.883  0.00  0.00    -0.047 A 
ATOM      5  C3  UNL d   1       1.837  -1.722  -0.760  0.00  0.00    -0.047 A 
ATOM      6  C4  UNL d   1       0.548  -1.543  -0.303  0.00  0.00    -0.004 A 
ENDROOT
TORSDOF 0
ENDMDL
