MODEL 1
REMARK minimizedAffinity -3.09723473
REMARK minimizedRMSD -1
REMARK  0 active torsions:
REMARK  status: ('A' for Active; 'I' for Inactive)
ROOT
ATOM      1  C   UNL d   1       2.787  -1.018  -1.321  0.00  0.00     0.172 C 
ATOM      2  N   UNL d   1       1.548  -0.441  -0.855  0.00  0.00    -0.070 N 
ATOM      3  C1  UNL d   1       0.527  -1.125  -0.250  0.00  0.00    -0.004 A 
ATOM      4  C2  UNL d   1      -0.471  -0.221   0.043  0.00  0.00    -0.047 A 
ATOM      5  C3  UNL d   1      -0.036   1.049  -0.404  0.00  0.00    -0.047 A 
ATOM      6  C4  UNL d   1       1.216   0.884  -0.955  0.00  0.00    -0.004 A 
ENDROOT
TORSDOF 0
ENDMDL
