MODEL 1
REMARK minimizedAffinity -3.05005646
REMARK minimizedRMSD -1
REMARK  0 active torsions:
REMARK  status: ('A' for Active; 'I' for Inactive)
ROOT
ATOM      1  C   UNL d   1      -0.799   0.230   0.582  0.00  0.00     0.172 C 
ATOM      2  N   UNL d   1       0.430  -0.250  -0.005  0.00  0.00    -0.070 N 
ATOM      3  C1  UNL d   1       1.421   0.533  -0.534  0.00  0.00    -0.004 A 
ATOM      4  C2  UNL d   1       2.419  -0.301  -0.990  0.00  0.00    -0.047 A 
ATOM      5  C3  UNL d   1       2.013  -1.631  -0.726  0.00  0.00    -0.047 A 
ATOM      6  C4  UNL d   1       0.778  -1.570  -0.117  0.00  0.00    -0.004 A 
ENDROOT
TORSDOF 0
ENDMDL
