MODEL 1
REMARK minimizedAffinity -2.15944219
REMARK minimizedRMSD -1
REMARK  0 active torsions:
REMARK  status: ('A' for Active; 'I' for Inactive)
ROOT
ATOM      1  C   UNL d   1       1.966  -1.298  -0.921  0.00  0.00     0.172 C 
ATOM      2  N   UNL d   1       0.753  -0.694  -0.422  0.00  0.00    -0.070 N 
ATOM      3  C1  UNL d   1      -0.350  -1.370   0.027  0.00  0.00    -0.004 A 
ATOM      4  C2  UNL d   1      -1.288  -0.438   0.415  0.00  0.00    -0.047 A 
ATOM      5  C3  UNL d   1      -0.730   0.843   0.190  0.00  0.00    -0.047 A 
ATOM      6  C4  UNL d   1       0.534   0.655  -0.328  0.00  0.00    -0.004 A 
ENDROOT
TORSDOF 0
ENDMDL
