MODEL 1
REMARK minimizedAffinity -2.60371089
REMARK minimizedRMSD -1
REMARK  0 active torsions:
REMARK  status: ('A' for Active; 'I' for Inactive)
ROOT
ATOM      1  C   UNL d   1      -0.823   0.404   0.798  0.00  0.00     0.172 C 
ATOM      2  N   UNL d   1       0.395   0.450   0.024  0.00  0.00    -0.070 N 
ATOM      3  C1  UNL d   1       0.710   1.398  -0.913  0.00  0.00    -0.004 A 
ATOM      4  C2  UNL d   1       1.953   1.090  -1.422  0.00  0.00    -0.047 A 
ATOM      5  C3  UNL d   1       2.400  -0.083  -0.770  0.00  0.00    -0.047 A 
ATOM      6  C4  UNL d   1       1.416  -0.458   0.120  0.00  0.00    -0.004 A 
ENDROOT
TORSDOF 0
ENDMDL
