MODEL 1
REMARK minimizedAffinity -2.35005188
REMARK minimizedRMSD -1
REMARK  0 active torsions:
REMARK  status: ('A' for Active; 'I' for Inactive)
ROOT
ATOM      1  C   UNL d   1       2.188   0.726  -1.099  0.00  0.00     0.172 C 
ATOM      2  N   UNL d   1       0.808   0.604  -0.691  0.00  0.00    -0.070 N 
ATOM      3  C1  UNL d   1      -0.180   1.521  -0.932  0.00  0.00    -0.004 A 
ATOM      4  C2  UNL d   1      -1.349   1.036  -0.386  0.00  0.00    -0.047 A 
ATOM      5  C3  UNL d   1      -1.053  -0.215   0.204  0.00  0.00    -0.047 A 
ATOM      6  C4  UNL d   1       0.289  -0.458   0.001  0.00  0.00    -0.004 A 
ENDROOT
TORSDOF 0
ENDMDL
