MODEL 1
REMARK minimizedAffinity -3.51965117
REMARK minimizedRMSD -1
REMARK  0 active torsions:
REMARK  status: ('A' for Active; 'I' for Inactive)
ROOT
ATOM      1  C   UNL d   1       3.060  -0.317  -0.738  0.00  0.00     0.172 C 
ATOM      2  N   UNL d   1       1.645  -0.073  -0.579  0.00  0.00    -0.070 N 
ATOM      3  C1  UNL d   1       0.982   1.059  -0.969  0.00  0.00    -0.004 A 
ATOM      4  C2  UNL d   1      -0.348   0.902  -0.644  0.00  0.00    -0.047 A 
ATOM      5  C3  UNL d   1      -0.489  -0.368  -0.036  0.00  0.00    -0.047 A 
ATOM      6  C4  UNL d   1       0.761  -0.950  -0.009  0.00  0.00    -0.004 A 
ENDROOT
TORSDOF 0
ENDMDL
