MODEL 1
REMARK minimizedAffinity -3.483284
REMARK minimizedRMSD -1
REMARK  0 active torsions:
REMARK  status: ('A' for Active; 'I' for Inactive)
ROOT
ATOM      1  C   UNL d   1      -0.282   0.288   0.102  0.00  0.00     0.172 C 
ATOM      2  N   UNL d   1       0.863  -0.048  -0.712  0.00  0.00    -0.070 N 
ATOM      3  C1  UNL d   1       1.520   0.806  -1.558  0.00  0.00    -0.004 A 
ATOM      4  C2  UNL d   1       2.551   0.107  -2.147  0.00  0.00    -0.047 A 
ATOM      5  C3  UNL d   1       2.512  -1.213  -1.639  0.00  0.00    -0.047 A 
ATOM      6  C4  UNL d   1       1.457  -1.281  -0.753  0.00  0.00    -0.004 A 
ENDROOT
TORSDOF 0
ENDMDL
