MODEL 1
REMARK minimizedAffinity -2.72867012
REMARK minimizedRMSD -1
REMARK  0 active torsions:
REMARK  status: ('A' for Active; 'I' for Inactive)
ROOT
ATOM      1  C   UNL d   1      -1.139   0.507   0.654  0.00  0.00     0.172 C 
ATOM      2  N   UNL d   1      -0.117  -0.258  -0.019  0.00  0.00    -0.070 N 
ATOM      3  C1  UNL d   1       0.923   0.261  -0.743  0.00  0.00    -0.004 A 
ATOM      4  C2  UNL d   1       1.673  -0.792  -1.221  0.00  0.00    -0.047 A 
ATOM      5  C3  UNL d   1       1.062  -1.986  -0.768  0.00  0.00    -0.047 A 
ATOM      6  C4  UNL d   1      -0.043  -1.626  -0.026  0.00  0.00    -0.004 A 
ENDROOT
TORSDOF 0
ENDMDL
