MODEL 1
REMARK minimizedAffinity -2.60328054
REMARK minimizedRMSD -1
REMARK  0 active torsions:
REMARK  status: ('A' for Active; 'I' for Inactive)
ROOT
ATOM      1  C   UNL d   1      -1.506   0.726   1.409  0.00  0.00     0.172 C 
ATOM      2  N   UNL d   1      -0.473   0.335   0.479  0.00  0.00    -0.070 N 
ATOM      3  C1  UNL d   1       0.190  -0.863   0.479  0.00  0.00    -0.004 A 
ATOM      4  C2  UNL d   1       1.093  -0.846  -0.561  0.00  0.00    -0.047 A 
ATOM      5  C3  UNL d   1       0.971   0.407  -1.208  0.00  0.00    -0.047 A 
ATOM      6  C4  UNL d   1      -0.006   1.118  -0.543  0.00  0.00    -0.004 A 
ENDROOT
TORSDOF 0
ENDMDL
