MODEL 1
REMARK minimizedAffinity -2.97308517
REMARK minimizedRMSD -1
REMARK  0 active torsions:
REMARK  status: ('A' for Active; 'I' for Inactive)
ROOT
ATOM      1  C   UNL d   1      -0.122   0.118   1.122  0.00  0.00     0.172 C 
ATOM      2  N   UNL d   1       0.747  -0.339   0.063  0.00  0.00    -0.070 N 
ATOM      3  C1  UNL d   1       1.868   0.308  -0.385  0.00  0.00    -0.004 A 
ATOM      4  C2  UNL d   1       2.414  -0.449  -1.399  0.00  0.00    -0.047 A 
ATOM      5  C3  UNL d   1       1.592  -1.589  -1.567  0.00  0.00    -0.047 A 
ATOM      6  C4  UNL d   1       0.568  -1.495  -0.649  0.00  0.00    -0.004 A 
ENDROOT
TORSDOF 0
ENDMDL
