MODEL 1
REMARK minimizedAffinity -3.06831384
REMARK minimizedRMSD -1
REMARK  0 active torsions:
REMARK  status: ('A' for Active; 'I' for Inactive)
ROOT
ATOM      1  C   UNL d   1      -1.472   2.170   0.427  0.00  0.00     0.020 A 
ATOM      2  C1  UNL d   1      -1.098   2.310   1.763  0.00  0.00     0.020 A 
ATOM      3  C2  UNL d   1      -0.204   1.404   2.337  0.00  0.00     0.034 A 
ATOM      4  C3  UNL d   1       0.319   0.353   1.574  0.00  0.00     0.017 A 
ATOM      5  C4  UNL d   1      -0.058   0.212   0.234  0.00  0.00     0.017 A 
ATOM      6  C5  UNL d   1      -0.953   1.123  -0.336  0.00  0.00     0.034 A 
ATOM      7 Cl   UNL d   1       0.545  -1.059  -0.770  0.00  0.00    -0.070 Cl
ATOM      8 Cl1  UNL d   1       1.419  -0.731   2.348  0.00  0.00    -0.070 Cl
ENDROOT
TORSDOF 0
ENDMDL
