MODEL 1
REMARK minimizedAffinity -3.7846086
REMARK minimizedRMSD -1
REMARK  0 active torsions:
REMARK  status: ('A' for Active; 'I' for Inactive)
ROOT
ATOM      1  C   UNL d   1       0.790  -0.799   0.407  0.00  0.00     0.020 A 
ATOM      2  C1  UNL d   1       0.877  -0.793  -0.985  0.00  0.00     0.020 A 
ATOM      3  C2  UNL d   1       0.174   0.160  -1.724  0.00  0.00     0.034 A 
ATOM      4  C3  UNL d   1      -0.619   1.111  -1.073  0.00  0.00     0.017 A 
ATOM      5  C4  UNL d   1      -0.706   1.105   0.324  0.00  0.00     0.017 A 
ATOM      6  C5  UNL d   1      -0.000   0.148   1.060  0.00  0.00     0.034 A 
ATOM      7 Cl   UNL d   1      -1.665   2.246   1.198  0.00  0.00    -0.070 Cl
ATOM      8 Cl1  UNL d   1      -1.461   2.261  -2.051  0.00  0.00    -0.070 Cl
ENDROOT
TORSDOF 0
ENDMDL
