MODEL 1
REMARK minimizedAffinity -4.25264883
REMARK minimizedRMSD -1
REMARK  0 active torsions:
REMARK  status: ('A' for Active; 'I' for Inactive)
ROOT
ATOM      1  C   UNL d   1       0.501  -0.581   1.290  0.00  0.00     0.020 A 
ATOM      2  C1  UNL d   1       0.612  -0.735  -0.091  0.00  0.00     0.020 A 
ATOM      3  C2  UNL d   1       0.049   0.214  -0.947  0.00  0.00     0.034 A 
ATOM      4  C3  UNL d   1      -0.628   1.321  -0.422  0.00  0.00     0.017 A 
ATOM      5  C4  UNL d   1      -0.739   1.475   0.964  0.00  0.00     0.017 A 
ATOM      6  C5  UNL d   1      -0.173   0.522   1.817  0.00  0.00     0.034 A 
ATOM      7 Cl   UNL d   1      -1.559   2.815   1.686  0.00  0.00    -0.070 Cl
ATOM      8 Cl1  UNL d   1      -1.300   2.455  -1.539  0.00  0.00    -0.070 Cl
ENDROOT
TORSDOF 0
ENDMDL
