MODEL 1
REMARK minimizedAffinity -3.52764797
REMARK minimizedRMSD -1
REMARK  0 active torsions:
REMARK  status: ('A' for Active; 'I' for Inactive)
ROOT
ATOM      1  C   UNL d   1      -1.271   2.791   1.037  0.00  0.00     0.020 A 
ATOM      2  C1  UNL d   1      -1.440   2.507  -0.318  0.00  0.00     0.020 A 
ATOM      3  C2  UNL d   1      -1.022   1.277  -0.830  0.00  0.00     0.034 A 
ATOM      4  C3  UNL d   1      -0.434   0.326   0.012  0.00  0.00     0.017 A 
ATOM      5  C4  UNL d   1      -0.265   0.613   1.372  0.00  0.00     0.017 A 
ATOM      6  C5  UNL d   1      -0.685   1.846   1.880  0.00  0.00     0.034 A 
ATOM      7 Cl   UNL d   1       0.453  -0.510   2.473  0.00  0.00    -0.070 Cl
ATOM      8 Cl1  UNL d   1       0.059  -1.174  -0.690  0.00  0.00    -0.070 Cl
ENDROOT
TORSDOF 0
ENDMDL
