MODEL 1
REMARK minimizedAffinity -3.7513411
REMARK minimizedRMSD -1
REMARK  0 active torsions:
REMARK  status: ('A' for Active; 'I' for Inactive)
ROOT
ATOM      1  C   UNL d   1       0.376  -0.504   1.280  0.00  0.00     0.020 A 
ATOM      2  C1  UNL d   1       0.338  -0.722  -0.097  0.00  0.00     0.020 A 
ATOM      3  C2  UNL d   1      -0.257   0.222  -0.937  0.00  0.00     0.034 A 
ATOM      4  C3  UNL d   1      -0.815   1.388  -0.402  0.00  0.00     0.017 A 
ATOM      5  C4  UNL d   1      -0.775   1.607   0.980  0.00  0.00     0.017 A 
ATOM      6  C5  UNL d   1      -0.179   0.658   1.817  0.00  0.00     0.034 A 
ATOM      7 Cl   UNL d   1      -1.443   3.022   1.714  0.00  0.00    -0.070 Cl
ATOM      8 Cl1  UNL d   1      -1.533   2.512  -1.500  0.00  0.00    -0.070 Cl
ENDROOT
TORSDOF 0
ENDMDL
