MODEL 1
REMARK minimizedAffinity -5.1661253
REMARK minimizedRMSD -1
REMARK  0 active torsions:
REMARK  status: ('A' for Active; 'I' for Inactive)
ROOT
ATOM      1  C   UNL d   1      -1.458   3.177   1.084  0.00  0.00     0.020 A 
ATOM      2  C1  UNL d   1      -1.555   3.203  -0.307  0.00  0.00     0.020 A 
ATOM      3  C2  UNL d   1      -0.995   2.173  -1.065  0.00  0.00     0.034 A 
ATOM      4  C3  UNL d   1      -0.337   1.112  -0.434  0.00  0.00     0.017 A 
ATOM      5  C4  UNL d   1      -0.240   1.086   0.962  0.00  0.00     0.017 A 
ATOM      6  C5  UNL d   1      -0.802   2.120   1.717  0.00  0.00     0.034 A 
ATOM      7 Cl   UNL d   1       0.557  -0.190   1.813  0.00  0.00    -0.070 Cl
ATOM      8 Cl1  UNL d   1       0.331  -0.129  -1.434  0.00  0.00    -0.070 Cl
ENDROOT
TORSDOF 0
ENDMDL
