MODEL 1
REMARK minimizedAffinity -4.43068886
REMARK minimizedRMSD -1
REMARK  0 active torsions:
REMARK  status: ('A' for Active; 'I' for Inactive)
ROOT
ATOM      1  C   UNL d   1       0.624  -0.477   1.512  0.00  0.00     0.020 A 
ATOM      2  C1  UNL d   1       0.593  -0.844   0.168  0.00  0.00     0.020 A 
ATOM      3  C2  UNL d   1      -0.036  -0.018  -0.767  0.00  0.00     0.034 A 
ATOM      4  C3  UNL d   1      -0.636   1.178  -0.358  0.00  0.00     0.017 A 
ATOM      5  C4  UNL d   1      -0.604   1.546   0.992  0.00  0.00     0.017 A 
ATOM      6  C5  UNL d   1       0.027   0.715   1.924  0.00  0.00     0.034 A 
ATOM      7 Cl   UNL d   1      -1.322   3.007   1.573  0.00  0.00    -0.070 Cl
ATOM      8 Cl1  UNL d   1      -1.396   2.151  -1.567  0.00  0.00    -0.070 Cl
ENDROOT
TORSDOF 0
ENDMDL
