MODEL 1
REMARK minimizedAffinity -3.02980518
REMARK minimizedRMSD -1
REMARK  0 active torsions:
REMARK  status: ('A' for Active; 'I' for Inactive)
ROOT
ATOM      1  C   UNL d   1       0.348  -1.741  -0.804  0.00  0.00     0.020 A 
ATOM      2  C1  UNL d   1       0.271  -1.798   0.587  0.00  0.00     0.020 A 
ATOM      3  C2  UNL d   1       0.084  -0.626   1.324  0.00  0.00     0.034 A 
ATOM      4  C3  UNL d   1      -0.025   0.607   0.671  0.00  0.00     0.017 A 
ATOM      5  C4  UNL d   1       0.053   0.662  -0.726  0.00  0.00     0.017 A 
ATOM      6  C5  UNL d   1       0.239  -0.514  -1.459  0.00  0.00     0.034 A 
ATOM      7 Cl   UNL d   1      -0.074   2.146  -1.603  0.00  0.00    -0.070 Cl
ATOM      8 Cl1  UNL d   1      -0.255   2.015   1.645  0.00  0.00    -0.070 Cl
ENDROOT
TORSDOF 0
ENDMDL
