MODEL 1
REMARK minimizedAffinity -2.68954515
REMARK minimizedRMSD -1
REMARK  0 active torsions:
REMARK  status: ('A' for Active; 'I' for Inactive)
ROOT
ATOM      1  C   UNL d   1      -0.318   1.612   3.174  0.00  0.00     0.077 C 
ATOM      2  C1  UNL d   1      -0.783   1.071   1.855  0.00  0.00    -0.074 A 
ATOM      3  C2  UNL d   1      -2.145   0.885   1.594  0.00  0.00    -0.005 A 
ATOM      4  C3  UNL d   1      -2.562   0.389   0.359  0.00  0.00     0.006 A 
ATOM      5  C4  UNL d   1      -1.625   0.076  -0.626  0.00  0.00    -0.005 A 
ATOM      6  C5  UNL d   1      -0.260   0.256  -0.383  0.00  0.00    -0.074 A 
ATOM      7  C6  UNL d   1       0.760  -0.067  -1.435  0.00  0.00     0.077 C 
ATOM      8  C7  UNL d   1       0.152   0.761   0.858  0.00  0.00    -0.001 A 
ENDROOT
TORSDOF 0
ENDMDL
