MODEL 1
REMARK minimizedAffinity -4.75956345
REMARK minimizedRMSD -1
REMARK  0 active torsions:
REMARK  status: ('A' for Active; 'I' for Inactive)
ROOT
ATOM      1  C   UNL d   1      -0.759   1.511   2.834  0.00  0.00     0.077 C 
ATOM      2  C1  UNL d   1       0.009   0.784   1.771  0.00  0.00    -0.074 A 
ATOM      3  C2  UNL d   1       1.167   0.065   2.084  0.00  0.00    -0.005 A 
ATOM      4  C3  UNL d   1       1.866  -0.613   1.086  0.00  0.00     0.006 A 
ATOM      5  C4  UNL d   1       1.414  -0.580  -0.234  0.00  0.00    -0.005 A 
ATOM      6  C5  UNL d   1       0.258   0.132  -0.566  0.00  0.00    -0.074 A 
ATOM      7  C6  UNL d   1      -0.247   0.170  -1.978  0.00  0.00     0.077 C 
ATOM      8  C7  UNL d   1      -0.442   0.806   0.444  0.00  0.00    -0.001 A 
ENDROOT
TORSDOF 0
ENDMDL
