MODEL 1
REMARK minimizedAffinity -1.28203785
REMARK minimizedRMSD -1
REMARK  0 active torsions:
REMARK  status: ('A' for Active; 'I' for Inactive)
ROOT
ATOM      1  C   UNL d   1       1.869  -0.747   1.875  0.00  0.00     0.077 C 
ATOM      2  C1  UNL d   1       0.753  -0.235   1.014  0.00  0.00    -0.074 A 
ATOM      3  C2  UNL d   1      -0.508   0.032   1.555  0.00  0.00    -0.005 A 
ATOM      4  C3  UNL d   1      -1.534   0.517   0.744  0.00  0.00     0.006 A 
ATOM      5  C4  UNL d   1      -1.308   0.740  -0.615  0.00  0.00    -0.005 A 
ATOM      6  C5  UNL d   1      -0.053   0.479  -1.174  0.00  0.00    -0.074 A 
ATOM      7  C6  UNL d   1       0.209   0.722  -2.631  0.00  0.00     0.077 C 
ATOM      8  C7  UNL d   1       0.974  -0.001  -0.351  0.00  0.00    -0.001 A 
ENDROOT
TORSDOF 0
ENDMDL
