MODEL 1
REMARK minimizedAffinity -2.92964363
REMARK minimizedRMSD -1
REMARK  0 active torsions:
REMARK  status: ('A' for Active; 'I' for Inactive)
ROOT
ATOM      1  C   UNL d   1       1.666  -0.801   2.229  0.00  0.00     0.077 C 
ATOM      2  C1  UNL d   1       0.614  -0.423   1.229  0.00  0.00    -0.074 A 
ATOM      3  C2  UNL d   1      -0.675  -0.070   1.642  0.00  0.00    -0.005 A 
ATOM      4  C3  UNL d   1      -1.641   0.288   0.701  0.00  0.00     0.006 A 
ATOM      5  C4  UNL d   1      -1.329   0.296  -0.659  0.00  0.00    -0.005 A 
ATOM      6  C5  UNL d   1      -0.045  -0.052  -1.090  0.00  0.00    -0.074 A 
ATOM      7  C6  UNL d   1       0.310  -0.039  -2.547  0.00  0.00     0.077 C 
ATOM      8  C7  UNL d   1       0.922  -0.404  -0.138  0.00  0.00    -0.001 A 
ENDROOT
TORSDOF 0
ENDMDL
