MODEL 1
REMARK minimizedAffinity -4.06911469
REMARK minimizedRMSD -1
REMARK  0 active torsions:
REMARK  status: ('A' for Active; 'I' for Inactive)
ROOT
ATOM      1  C   UNL d   1       0.594  -0.432  -2.329  0.00  0.00     0.077 C 
ATOM      2  C1  UNL d   1       0.527  -0.471  -0.831  0.00  0.00    -0.074 A 
ATOM      3  C2  UNL d   1       1.577  -1.006  -0.078  0.00  0.00    -0.005 A 
ATOM      4  C3  UNL d   1       1.505  -1.026   1.314  0.00  0.00     0.006 A 
ATOM      5  C4  UNL d   1       0.383  -0.513   1.967  0.00  0.00    -0.005 A 
ATOM      6  C5  UNL d   1      -0.676   0.027   1.231  0.00  0.00    -0.074 A 
ATOM      7  C6  UNL d   1      -1.884   0.592   1.918  0.00  0.00     0.077 C 
ATOM      8  C7  UNL d   1      -0.593   0.050  -0.168  0.00  0.00    -0.001 A 
ENDROOT
TORSDOF 0
ENDMDL
