MODEL 1
REMARK minimizedAffinity -3.85351968
REMARK minimizedRMSD -1
REMARK  0 active torsions:
REMARK  status: ('A' for Active; 'I' for Inactive)
ROOT
ATOM      1  C   UNL d   1       0.681   0.903  -3.774  0.00  0.00     0.077 C 
ATOM      2  C1  UNL d   1       0.756   0.172  -2.467  0.00  0.00    -0.074 A 
ATOM      3  C2  UNL d   1       1.572  -0.954  -2.318  0.00  0.00    -0.005 A 
ATOM      4  C3  UNL d   1       1.639  -1.617  -1.093  0.00  0.00     0.006 A 
ATOM      5  C4  UNL d   1       0.892  -1.163  -0.006  0.00  0.00    -0.005 A 
ATOM      6  C5  UNL d   1       0.071  -0.038  -0.135  0.00  0.00    -0.074 A 
ATOM      7  C6  UNL d   1      -0.732   0.469   1.026  0.00  0.00     0.077 C 
ATOM      8  C7  UNL d   1       0.014   0.627  -1.368  0.00  0.00    -0.001 A 
ENDROOT
TORSDOF 0
ENDMDL
