MODEL 1
REMARK minimizedAffinity -5.17898607
REMARK minimizedRMSD -1
REMARK  1 active torsions:
REMARK  status: ('A' for Active; 'I' for Inactive)
REMARK    1  A    between atoms: C1_2  and  C2_3 
ROOT
ATOM      1  C2  UNL d   1       0.431   0.428   1.363  0.00  0.00    -0.076 A 
ATOM      2  C3  UNL d   1      -0.932   0.769   1.382  0.00  0.00     0.004 A 
ATOM      3  C4  UNL d   1      -1.628   0.878   2.585  0.00  0.00    -0.003 A 
ATOM      4  C5  UNL d   1      -0.971   0.648   3.788  0.00  0.00     0.000 A 
ATOM      5  C6  UNL d   1       0.385   0.326   3.790  0.00  0.00     0.000 A 
ATOM      6  C7  UNL d   1       1.106   0.227   2.587  0.00  0.00    -0.073 A 
ATOM      7  C8  UNL d   1       2.566  -0.129   2.646  0.00  0.00     0.078 C 
ENDROOT
BRANCH   1   8
ATOM      8  C1  UNL d   1       1.127   0.297   0.027  0.00  0.00     0.053 C 
ATOM      9  C   UNL d   1       0.328  -0.530  -0.968  0.00  0.00     0.018 C 
ENDBRANCH   1   8
TORSDOF 1
ENDMDL
