MODEL 1
REMARK minimizedAffinity -5.33930349
REMARK minimizedRMSD -1
REMARK  1 active torsions:
REMARK  status: ('A' for Active; 'I' for Inactive)
REMARK    1  A    between atoms: C1_2  and  C2_3 
ROOT
ATOM      1  C2  UNL d   1       0.810   0.067   1.603  0.00  0.00    -0.076 A 
ATOM      2  C3  UNL d   1       1.142  -0.621   0.423  0.00  0.00     0.004 A 
ATOM      3  C4  UNL d   1       0.180  -0.877  -0.552  0.00  0.00    -0.003 A 
ATOM      4  C5  UNL d   1      -1.129  -0.449  -0.364  0.00  0.00     0.000 A 
ATOM      5  C6  UNL d   1      -1.472   0.251   0.792  0.00  0.00     0.000 A 
ATOM      6  C7  UNL d   1      -0.511   0.531   1.778  0.00  0.00    -0.073 A 
ATOM      7  C8  UNL d   1      -0.937   1.284   3.009  0.00  0.00     0.078 C 
ENDROOT
BRANCH   1   8
ATOM      8  C1  UNL d   1       1.890   0.292   2.638  0.00  0.00     0.053 C 
ATOM      9  C   UNL d   1       1.938  -0.815   3.679  0.00  0.00     0.018 C 
ENDBRANCH   1   8
TORSDOF 1
ENDMDL
