MODEL 1
REMARK minimizedAffinity -5.12982607
REMARK minimizedRMSD -1
REMARK  1 active torsions:
REMARK  status: ('A' for Active; 'I' for Inactive)
REMARK    1  A    between atoms: C1_2  and  C2_3 
ROOT
ATOM      1  C2  UNL d   1      -0.086  -0.047   0.209  0.00  0.00    -0.076 A 
ATOM      2  C3  UNL d   1       0.948   0.437   1.029  0.00  0.00     0.004 A 
ATOM      3  C4  UNL d   1       0.667   1.075   2.236  0.00  0.00    -0.003 A 
ATOM      4  C5  UNL d   1      -0.653   1.238   2.643  0.00  0.00     0.000 A 
ATOM      5  C6  UNL d   1      -1.690   0.748   1.850  0.00  0.00     0.000 A 
ATOM      6  C7  UNL d   1      -1.423   0.088   0.638  0.00  0.00    -0.073 A 
ATOM      7  C8  UNL d   1      -2.581  -0.416  -0.180  0.00  0.00     0.078 C 
ENDROOT
BRANCH   1   8
ATOM      8  C1  UNL d   1       0.279  -0.706  -1.102  0.00  0.00     0.053 C 
ATOM      9  C   UNL d   1       0.826   0.283  -2.119  0.00  0.00     0.018 C 
ENDBRANCH   1   8
TORSDOF 1
ENDMDL
