MODEL 1
REMARK minimizedAffinity -4.08930445
REMARK minimizedRMSD -1
REMARK  1 active torsions:
REMARK  status: ('A' for Active; 'I' for Inactive)
REMARK    1  A    between atoms: C1_2  and  C2_3 
ROOT
ATOM      1  C2  UNL d   1       0.758  -0.680  -0.872  0.00  0.00    -0.076 A 
ATOM      2  C3  UNL d   1       1.966  -0.930  -0.199  0.00  0.00     0.004 A 
ATOM      3  C4  UNL d   1       2.126  -0.583   1.142  0.00  0.00    -0.003 A 
ATOM      4  C5  UNL d   1       1.079   0.020   1.831  0.00  0.00     0.000 A 
ATOM      5  C6  UNL d   1      -0.132   0.260   1.184  0.00  0.00     0.000 A 
ATOM      6  C7  UNL d   1      -0.316  -0.099  -0.163  0.00  0.00    -0.073 A 
ATOM      7  C8  UNL d   1      -1.641   0.188  -0.813  0.00  0.00     0.078 C 
ENDROOT
BRANCH   1   8
ATOM      8  C1  UNL d   1       0.652  -1.054  -2.333  0.00  0.00     0.053 C 
ATOM      9  C   UNL d   1       1.284  -0.016  -3.247  0.00  0.00     0.018 C 
ENDBRANCH   1   8
TORSDOF 1
ENDMDL
