MODEL 1
REMARK minimizedAffinity -1.94311368
REMARK minimizedRMSD -1
REMARK  1 active torsions:
REMARK  status: ('A' for Active; 'I' for Inactive)
REMARK    1  A    between atoms: C1_2  and  C2_3 
ROOT
ATOM      1  C2  UNL d   1      -0.109  -0.272  -0.042  0.00  0.00    -0.076 A 
ATOM      2  C3  UNL d   1      -1.445   0.021  -0.365  0.00  0.00     0.004 A 
ATOM      3  C4  UNL d   1      -2.275   0.679   0.541  0.00  0.00    -0.003 A 
ATOM      4  C5  UNL d   1      -1.781   1.055   1.786  0.00  0.00     0.000 A 
ATOM      5  C6  UNL d   1      -0.453   0.788   2.116  0.00  0.00     0.000 A 
ATOM      6  C7  UNL d   1       0.401   0.140   1.208  0.00  0.00    -0.073 A 
ATOM      7  C8  UNL d   1       1.823  -0.128   1.619  0.00  0.00     0.078 C 
ENDROOT
BRANCH   1   8
ATOM      8  C1  UNL d   1       0.736  -1.012  -1.055  0.00  0.00     0.053 C 
ATOM      9  C   UNL d   1       0.641  -0.406  -2.446  0.00  0.00     0.018 C 
ENDBRANCH   1   8
TORSDOF 1
ENDMDL
