MODEL 1
REMARK minimizedAffinity -5.54676485
REMARK minimizedRMSD -1
REMARK  1 active torsions:
REMARK  status: ('A' for Active; 'I' for Inactive)
REMARK    1  A    between atoms: C1_2  and  C2_3 
ROOT
ATOM      1  C2  UNL d   1      -0.256  -0.578   0.435  0.00  0.00    -0.076 A 
ATOM      2  C3  UNL d   1      -1.586  -0.125   0.389  0.00  0.00     0.004 A 
ATOM      3  C4  UNL d   1      -2.103   0.688   1.396  0.00  0.00    -0.003 A 
ATOM      4  C5  UNL d   1      -1.298   1.061   2.467  0.00  0.00     0.000 A 
ATOM      5  C6  UNL d   1       0.029   0.635   2.520  0.00  0.00     0.000 A 
ATOM      6  C7  UNL d   1       0.570  -0.171   1.504  0.00  0.00    -0.073 A 
ATOM      7  C8  UNL d   1       2.006  -0.606   1.616  0.00  0.00     0.078 C 
ENDROOT
BRANCH   1   8
ATOM      8  C1  UNL d   1       0.241  -1.480  -0.672  0.00  0.00     0.053 C 
ATOM      9  C   UNL d   1       0.355  -0.757  -2.005  0.00  0.00     0.018 C 
ENDBRANCH   1   8
TORSDOF 1
ENDMDL
