MODEL 1
REMARK minimizedAffinity -5.36756039
REMARK minimizedRMSD -1
REMARK  1 active torsions:
REMARK  status: ('A' for Active; 'I' for Inactive)
REMARK    1  A    between atoms: C1_2  and  C2_3 
ROOT
ATOM      1  C2  UNL d   1       0.199  -0.368   0.150  0.00  0.00    -0.076 A 
ATOM      2  C3  UNL d   1       1.310  -0.068   0.958  0.00  0.00     0.004 A 
ATOM      3  C4  UNL d   1       1.176   0.726   2.096  0.00  0.00    -0.003 A 
ATOM      4  C5  UNL d   1      -0.071   1.232   2.445  0.00  0.00     0.000 A 
ATOM      5  C6  UNL d   1      -1.187   0.930   1.665  0.00  0.00     0.000 A 
ATOM      6  C7  UNL d   1      -1.073   0.118   0.524  0.00  0.00    -0.073 A 
ATOM      7  C8  UNL d   1      -2.308  -0.171  -0.283  0.00  0.00     0.078 C 
ENDROOT
BRANCH   1   8
ATOM      8  C1  UNL d   1       0.409  -1.211  -1.087  0.00  0.00     0.053 C 
ATOM      9  C   UNL d   1       0.832  -0.384  -2.291  0.00  0.00     0.018 C 
ENDBRANCH   1   8
TORSDOF 1
ENDMDL
