MODEL 1
REMARK minimizedAffinity -4.57872438
REMARK minimizedRMSD -1
REMARK  1 active torsions:
REMARK  status: ('A' for Active; 'I' for Inactive)
REMARK    1  A    between atoms: C1_2  and  C2_3 
ROOT
ATOM      1  C2  UNL d   1      -0.051   0.113   1.162  0.00  0.00    -0.076 A 
ATOM      2  C3  UNL d   1       1.310  -0.237   1.216  0.00  0.00     0.004 A 
ATOM      3  C4  UNL d   1       1.882  -1.044   0.234  0.00  0.00    -0.003 A 
ATOM      4  C5  UNL d   1       1.103  -1.514  -0.817  0.00  0.00     0.000 A 
ATOM      5  C6  UNL d   1      -0.245  -1.163  -0.896  0.00  0.00     0.000 A 
ATOM      6  C7  UNL d   1      -0.833  -0.336   0.077  0.00  0.00    -0.073 A 
ATOM      7  C8  UNL d   1      -2.292   0.006  -0.053  0.00  0.00     0.078 C 
ENDROOT
BRANCH   1   8
ATOM      8  C1  UNL d   1      -0.622   0.969   2.270  0.00  0.00     0.053 C 
ATOM      9  C   UNL d   1      -0.354   0.391   3.651  0.00  0.00     0.018 C 
ENDBRANCH   1   8
TORSDOF 1
ENDMDL
