MODEL 1
REMARK minimizedAffinity -0.7622841
REMARK minimizedRMSD -1
REMARK  1 active torsions:
REMARK  status: ('A' for Active; 'I' for Inactive)
REMARK    1  A    between atoms: C1_2  and  C2_3 
ROOT
ATOM      1  C2  UNL d   1       0.151   0.091  -0.008  0.00  0.00    -0.076 A 
ATOM      2  C3  UNL d   1       1.097   0.770   0.781  0.00  0.00     0.004 A 
ATOM      3  C4  UNL d   1       0.717   1.431   1.947  0.00  0.00    -0.003 A 
ATOM      4  C5  UNL d   1      -0.616   1.425   2.344  0.00  0.00     0.000 A 
ATOM      5  C6  UNL d   1      -1.564   0.742   1.584  0.00  0.00     0.000 A 
ATOM      6  C7  UNL d   1      -1.195   0.056   0.414  0.00  0.00    -0.073 A 
ATOM      7  C8  UNL d   1      -2.261  -0.658  -0.371  0.00  0.00     0.078 C 
ENDROOT
BRANCH   1   8
ATOM      8  C1  UNL d   1       0.618  -0.586  -1.277  0.00  0.00     0.053 C 
ATOM      9  C   UNL d   1       0.745   0.384  -2.441  0.00  0.00     0.018 C 
ENDBRANCH   1   8
TORSDOF 1
ENDMDL
