MODEL 1
REMARK minimizedAffinity -4.23245907
REMARK minimizedRMSD -1
REMARK  1 active torsions:
REMARK  status: ('A' for Active; 'I' for Inactive)
REMARK    1  A    between atoms: C1_2  and  C2_3 
ROOT
ATOM      1  C2  UNL d   1      -0.657   0.179   1.349  0.00  0.00    -0.076 A 
ATOM      2  C3  UNL d   1      -1.663  -0.113   0.411  0.00  0.00     0.004 A 
ATOM      3  C4  UNL d   1      -1.350  -0.679  -0.823  0.00  0.00    -0.003 A 
ATOM      4  C5  UNL d   1      -0.026  -0.964  -1.140  0.00  0.00     0.000 A 
ATOM      5  C6  UNL d   1       0.982  -0.697  -0.214  0.00  0.00     0.000 A 
ATOM      6  C7  UNL d   1       0.682  -0.142   1.041  0.00  0.00    -0.073 A 
ATOM      7  C8  UNL d   1       1.810   0.130   1.999  0.00  0.00     0.078 C 
ENDROOT
BRANCH   1   8
ATOM      8  C1  UNL d   1      -1.054   0.818   2.661  0.00  0.00     0.053 C 
ATOM      9  C   UNL d   1      -1.018   2.337   2.604  0.00  0.00     0.018 C 
ENDBRANCH   1   8
TORSDOF 1
ENDMDL
