MODEL 1
REMARK minimizedAffinity -2.82670045
REMARK minimizedRMSD -1
REMARK  0 active torsions:
REMARK  status: ('A' for Active; 'I' for Inactive)
ROOT
ATOM      1  C1  BNZ d   1      -1.395   0.343  -0.692  0.00  0.00     0.000 A 
ATOM      2  C2  BNZ d   1      -0.807   1.576  -0.778  0.00  0.00     0.000 A 
ATOM      3  C3  BNZ d   1       0.483   1.767  -0.370  0.00  0.00     0.000 A 
ATOM      4  C4  BNZ d   1       1.170   0.735   0.161  0.00  0.00     0.000 A 
ATOM      5  C5  BNZ d   1       0.588  -0.513   0.264  0.00  0.00     0.000 A 
ATOM      6  C6  BNZ d   1      -0.698  -0.710  -0.184  0.00  0.00     0.000 A 
ENDROOT
TORSDOF 0
ENDMDL
