MODEL 1
REMARK minimizedAffinity -2.5435555
REMARK minimizedRMSD -1
REMARK  0 active torsions:
REMARK  status: ('A' for Active; 'I' for Inactive)
ROOT
ATOM      1  C1  BNZ d   1      -1.581   0.401  -0.108  0.00  0.00     0.000 A 
ATOM      2  C2  BNZ d   1      -0.744   1.483  -0.184  0.00  0.00     0.000 A 
ATOM      3  C3  BNZ d   1       0.587   1.359   0.099  0.00  0.00     0.000 A 
ATOM      4  C4  BNZ d   1       1.073   0.164   0.494  0.00  0.00     0.000 A 
ATOM      5  C5  BNZ d   1       0.240  -0.934   0.584  0.00  0.00     0.000 A 
ATOM      6  C6  BNZ d   1      -1.092  -0.814   0.261  0.00  0.00     0.000 A 
ENDROOT
TORSDOF 0
ENDMDL
