MODEL 1
REMARK minimizedAffinity -3.541116
REMARK minimizedRMSD -1
REMARK  0 active torsions:
REMARK  status: ('A' for Active; 'I' for Inactive)
ROOT
ATOM      1  C1  BNZ d   1      -3.068  -0.483  -3.547  0.00  0.00     0.000 A 
ATOM      2  C2  BNZ d   1      -3.520   0.794  -3.750  0.00  0.00     0.000 A 
ATOM      3  C3  BNZ d   1      -3.419   1.737  -2.766  0.00  0.00     0.000 A 
ATOM      4  C4  BNZ d   1      -2.905   1.392  -1.568  0.00  0.00     0.000 A 
ATOM      5  C5  BNZ d   1      -2.454   0.106  -1.344  0.00  0.00     0.000 A 
ATOM      6  C6  BNZ d   1      -2.521  -0.830  -2.350  0.00  0.00     0.000 A 
ENDROOT
TORSDOF 0
ENDMDL
