MODEL 1
REMARK minimizedAffinity -5.1821661
REMARK minimizedRMSD -1
REMARK  0 active torsions:
REMARK  status: ('A' for Active; 'I' for Inactive)
ROOT
ATOM      1  C1  BNZ d   1      -0.013  -0.598   0.482  0.00  0.00     0.000 A 
ATOM      2  C2  BNZ d   1       0.621  -1.647   1.091  0.00  0.00     0.000 A 
ATOM      3  C3  BNZ d   1       1.968  -1.612   1.322  0.00  0.00     0.000 A 
ATOM      4  C4  BNZ d   1       2.684  -0.547   0.907  0.00  0.00     0.000 A 
ATOM      5  C5  BNZ d   1       2.060   0.515   0.283  0.00  0.00     0.000 A 
ATOM      6  C6  BNZ d   1       0.698   0.493   0.087  0.00  0.00     0.000 A 
ENDROOT
TORSDOF 0
ENDMDL
