MODEL 1
REMARK minimizedAffinity -4.36819696
REMARK minimizedRMSD -1
REMARK  0 active torsions:
REMARK  status: ('A' for Active; 'I' for Inactive)
ROOT
ATOM      1  C1  BNZ d   1       0.708  -1.045   0.523  0.00  0.00     0.000 A 
ATOM      2  C2  BNZ d   1       1.777  -0.189   0.542  0.00  0.00     0.000 A 
ATOM      3  C3  BNZ d   1       2.862  -0.441   1.334  0.00  0.00     0.000 A 
ATOM      4  C4  BNZ d   1       2.860  -1.526   2.136  0.00  0.00     0.000 A 
ATOM      5  C5  BNZ d   1       1.786  -2.394   2.135  0.00  0.00     0.000 A 
ATOM      6  C6  BNZ d   1       0.712  -2.157   1.307  0.00  0.00     0.000 A 
ENDROOT
TORSDOF 0
ENDMDL
