MODEL 1
REMARK minimizedAffinity -4.4723382
REMARK minimizedRMSD -1
REMARK  0 active torsions:
REMARK  status: ('A' for Active; 'I' for Inactive)
ROOT
ATOM      1  C1  BNZ d   1       1.073   0.702   0.239  0.00  0.00     0.000 A 
ATOM      2  C2  BNZ d   1       2.316   0.482   0.769  0.00  0.00     0.000 A 
ATOM      3  C3  BNZ d   1       2.652  -0.740   1.282  0.00  0.00     0.000 A 
ATOM      4  C4  BNZ d   1       1.732  -1.727   1.300  0.00  0.00     0.000 A 
ATOM      5  C5  BNZ d   1       0.472  -1.517   0.778  0.00  0.00     0.000 A 
ATOM      6  C6  BNZ d   1       0.150  -0.297   0.228  0.00  0.00     0.000 A 
ENDROOT
TORSDOF 0
ENDMDL
