MODEL 1
REMARK minimizedAffinity -2.51224327
REMARK minimizedRMSD -1
REMARK  0 active torsions:
REMARK  status: ('A' for Active; 'I' for Inactive)
ROOT
ATOM      1  C1  BNZ d   1      -0.387   0.750  -0.124  0.00  0.00     0.000 A 
ATOM      2  C2  BNZ d   1       0.664   1.627  -0.118  0.00  0.00     0.000 A 
ATOM      3  C3  BNZ d   1       1.805   1.348   0.582  0.00  0.00     0.000 A 
ATOM      4  C4  BNZ d   1       1.878   0.212   1.305  0.00  0.00     0.000 A 
ATOM      5  C5  BNZ d   1       0.823  -0.679   1.316  0.00  0.00     0.000 A 
ATOM      6  C6  BNZ d   1      -0.309  -0.413   0.579  0.00  0.00     0.000 A 
ENDROOT
TORSDOF 0
ENDMDL
