MODEL 1
REMARK minimizedAffinity -2.79747057
REMARK minimizedRMSD -1
REMARK  0 active torsions:
REMARK  status: ('A' for Active; 'I' for Inactive)
ROOT
ATOM      1  C1  BNZ d   1       1.562  -0.065   0.997  0.00  0.00     0.000 A 
ATOM      2  C2  BNZ d   1       0.467  -0.842   0.731  0.00  0.00     0.000 A 
ATOM      3  C3  BNZ d   1      -0.685  -0.287   0.249  0.00  0.00     0.000 A 
ATOM      4  C4  BNZ d   1      -0.754   1.049   0.071  0.00  0.00     0.000 A 
ATOM      5  C5  BNZ d   1       0.339   1.847   0.344  0.00  0.00     0.000 A 
ATOM      6  C6  BNZ d   1       1.510   1.279   0.792  0.00  0.00     0.000 A 
ENDROOT
TORSDOF 0
ENDMDL
