MODEL 1
REMARK minimizedAffinity -1.33498526
REMARK minimizedRMSD -1
REMARK  0 active torsions:
REMARK  status: ('A' for Active; 'I' for Inactive)
ROOT
ATOM      1  C1  BNZ d   1      -4.451   1.951  -1.833  0.00  0.00     0.000 A 
ATOM      2  C2  BNZ d   1      -5.079   3.045  -1.299  0.00  0.00     0.000 A 
ATOM      3  C3  BNZ d   1      -5.183   4.208  -2.010  0.00  0.00     0.000 A 
ATOM      4  C4  BNZ d   1      -4.624   4.289  -3.234  0.00  0.00     0.000 A 
ATOM      5  C5  BNZ d   1      -3.978   3.199  -3.782  0.00  0.00     0.000 A 
ATOM      6  C6  BNZ d   1      -3.910   2.017  -3.080  0.00  0.00     0.000 A 
ENDROOT
TORSDOF 0
ENDMDL
