MODEL 1
REMARK minimizedAffinity -1.57668829
REMARK minimizedRMSD -1
REMARK  0 active torsions:
REMARK  status: ('A' for Active; 'I' for Inactive)
ROOT
ATOM      1  C   UNL d   1       1.388   2.648   0.418  0.00  0.00    -0.002 A 
ATOM      2  C1  UNL d   1       0.107   2.980   0.000  0.00  0.00     0.010 A 
ATOM      3  C2  UNL d   1      -0.918   2.032   0.026  0.00  0.00     0.041 A 
ATOM      4  C3  UNL d   1      -0.631   0.731   0.485  0.00  0.00    -0.075 A 
ATOM      5  S   UNL d   1      -1.727  -0.594   0.606  0.00  0.00     0.015 SA
ATOM      6  C4  UNL d   1      -0.521  -1.633   1.216  0.00  0.00     0.022 A 
ATOM      7  C5  UNL d   1       0.694  -1.000   1.330  0.00  0.00     0.026 A 
ATOM      8  C6  UNL d   1       0.651   0.372   0.912  0.00  0.00    -0.082 A 
ATOM      9  C7  UNL d   1       1.668   1.356   0.872  0.00  0.00     0.045 A 
ENDROOT
TORSDOF 0
ENDMDL
