MODEL 1
REMARK minimizedAffinity -0.0482735261
REMARK minimizedRMSD -1
REMARK  0 active torsions:
REMARK  status: ('A' for Active; 'I' for Inactive)
ROOT
ATOM      1  C   UNL d   1      -0.752  -1.889   1.728  0.00  0.00    -0.002 A 
ATOM      2  C1  UNL d   1      -0.906  -2.350   0.429  0.00  0.00     0.010 A 
ATOM      3  C2  UNL d   1      -0.710  -1.495  -0.657  0.00  0.00     0.041 A 
ATOM      4  C3  UNL d   1      -0.352  -0.154  -0.412  0.00  0.00    -0.075 A 
ATOM      5  S   UNL d   1      -0.060   1.075  -1.586  0.00  0.00     0.015 SA
ATOM      6  C4  UNL d   1       0.277   2.241  -0.390  0.00  0.00     0.022 A 
ATOM      7  C5  UNL d   1       0.173   1.723   0.879  0.00  0.00     0.026 A 
ATOM      8  C6  UNL d   1      -0.190   0.334   0.887  0.00  0.00    -0.082 A 
ATOM      9  C7  UNL d   1      -0.397  -0.558   1.967  0.00  0.00     0.045 A 
ENDROOT
TORSDOF 0
ENDMDL
