MODEL 1
REMARK minimizedAffinity -0.690074146
REMARK minimizedRMSD -1
REMARK  0 active torsions:
REMARK  status: ('A' for Active; 'I' for Inactive)
ROOT
ATOM      1  C   UNL d   1      -0.752  -1.667   0.941  0.00  0.00    -0.002 A 
ATOM      2  C1  UNL d   1       0.290  -1.365   1.806  0.00  0.00     0.010 A 
ATOM      3  C2  UNL d   1       0.870  -0.095   1.803  0.00  0.00     0.041 A 
ATOM      4  C3  UNL d   1       0.379   0.876   0.907  0.00  0.00    -0.075 A 
ATOM      5  S   UNL d   1       0.934   2.498   0.727  0.00  0.00     0.015 SA
ATOM      6  C4  UNL d   1      -0.199   2.828  -0.503  0.00  0.00     0.022 A 
ATOM      7  C5  UNL d   1      -0.990   1.738  -0.782  0.00  0.00     0.026 A 
ATOM      8  C6  UNL d   1      -0.670   0.595   0.027  0.00  0.00    -0.082 A 
ATOM      9  C7  UNL d   1      -1.236  -0.702   0.054  0.00  0.00     0.045 A 
ENDROOT
TORSDOF 0
ENDMDL
