MODEL 1
REMARK minimizedAffinity -2.26733112
REMARK minimizedRMSD -1
REMARK  0 active torsions:
REMARK  status: ('A' for Active; 'I' for Inactive)
ROOT
ATOM      1  C   UNL d   1      -0.923  -3.160  -1.332  0.00  0.00    -0.002 A 
ATOM      2  C1  UNL d   1      -0.401  -2.330  -2.313  0.00  0.00     0.010 A 
ATOM      3  C2  UNL d   1       0.070  -1.056  -1.989  0.00  0.00     0.041 A 
ATOM      4  C3  UNL d   1       0.008  -0.627  -0.649  0.00  0.00    -0.075 A 
ATOM      5  S   UNL d   1       0.526   0.892  -0.019  0.00  0.00     0.015 SA
ATOM      6  C4  UNL d   1       0.067   0.474   1.569  0.00  0.00     0.022 A 
ATOM      7  C5  UNL d   1      -0.471  -0.789   1.634  0.00  0.00     0.026 A 
ATOM      8  C6  UNL d   1      -0.513  -1.445   0.357  0.00  0.00    -0.082 A 
ATOM      9  C7  UNL d   1      -0.983  -2.731  -0.003  0.00  0.00     0.045 A 
ENDROOT
TORSDOF 0
ENDMDL
