MODEL 1
REMARK minimizedAffinity 0.247171864
REMARK minimizedRMSD -1
REMARK  0 active torsions:
REMARK  status: ('A' for Active; 'I' for Inactive)
ROOT
ATOM      1  C   UNL d   1      -0.859  -0.069  -0.564  0.00  0.00    -0.002 A 
ATOM      2  C1  UNL d   1      -0.522  -0.463   0.724  0.00  0.00     0.010 A 
ATOM      3  C2  UNL d   1       0.347   0.307   1.498  0.00  0.00     0.041 A 
ATOM      4  C3  UNL d   1       0.876   1.494   0.952  0.00  0.00    -0.075 A 
ATOM      5  S   UNL d   1       1.959   2.597   1.716  0.00  0.00     0.015 SA
ATOM      6  C4  UNL d   1       1.999   3.618   0.352  0.00  0.00     0.022 A 
ATOM      7  C5  UNL d   1       1.212   3.144  -0.670  0.00  0.00     0.026 A 
ATOM      8  C6  UNL d   1       0.551   1.912  -0.341  0.00  0.00    -0.082 A 
ATOM      9  C7  UNL d   1      -0.332   1.108  -1.101  0.00  0.00     0.045 A 
ENDROOT
TORSDOF 0
ENDMDL
