MODEL 1
REMARK minimizedAffinity 7.0838604
REMARK minimizedRMSD -1
REMARK  0 active torsions:
REMARK  status: ('A' for Active; 'I' for Inactive)
ROOT
ATOM      1  C   UNL d   1      -0.269  -5.783  -0.003  0.00  0.00    -0.002 A 
ATOM      2  C1  UNL d   1      -0.441  -4.835   0.996  0.00  0.00     0.010 A 
ATOM      3  C2  UNL d   1      -1.514  -3.942   0.951  0.00  0.00     0.041 A 
ATOM      4  C3  UNL d   1      -2.421  -4.020  -0.124  0.00  0.00    -0.075 A 
ATOM      5  S   UNL d   1      -3.808  -3.031  -0.386  0.00  0.00     0.015 SA
ATOM      6  C4  UNL d   1      -4.206  -3.844  -1.831  0.00  0.00     0.022 A 
ATOM      7  C5  UNL d   1      -3.313  -4.848  -2.120  0.00  0.00     0.026 A 
ATOM      8  C6  UNL d   1      -2.269  -4.967  -1.141  0.00  0.00    -0.082 A 
ATOM      9  C7  UNL d   1      -1.171  -5.857  -1.068  0.00  0.00     0.045 A 
ENDROOT
TORSDOF 0
ENDMDL
