MODEL 1
REMARK minimizedAffinity 10.4607658
REMARK minimizedRMSD -1
REMARK  0 active torsions:
REMARK  status: ('A' for Active; 'I' for Inactive)
ROOT
ATOM      1  C   UNL d   1      -1.076   1.098   1.929  0.00  0.00    -0.002 A 
ATOM      2  C1  UNL d   1      -0.713   1.375   0.618  0.00  0.00     0.010 A 
ATOM      3  C2  UNL d   1      -0.775   0.381  -0.361  0.00  0.00     0.041 A 
ATOM      4  C3  UNL d   1      -1.213  -0.907   0.003  0.00  0.00    -0.075 A 
ATOM      5  S   UNL d   1      -1.370  -2.281  -1.027  0.00  0.00     0.015 SA
ATOM      6  C4  UNL d   1      -1.923  -3.267   0.249  0.00  0.00     0.022 A 
ATOM      7  C5  UNL d   1      -1.992  -2.581   1.438  0.00  0.00     0.026 A 
ATOM      8  C6  UNL d   1      -1.584  -1.210   1.316  0.00  0.00    -0.082 A 
ATOM      9  C7  UNL d   1      -1.510  -0.181   2.286  0.00  0.00     0.045 A 
ENDROOT
TORSDOF 0
ENDMDL
