MODEL 1
REMARK minimizedAffinity 1.53167331
REMARK minimizedRMSD -1
REMARK  0 active torsions:
REMARK  status: ('A' for Active; 'I' for Inactive)
ROOT
ATOM      1  C   UNL d   1      -0.978  -0.177   1.441  0.00  0.00    -0.002 A 
ATOM      2  C1  UNL d   1      -1.538  -1.446   1.390  0.00  0.00     0.010 A 
ATOM      3  C2  UNL d   1      -1.446  -2.218   0.230  0.00  0.00     0.041 A 
ATOM      4  C3  UNL d   1      -0.774  -1.688  -0.889  0.00  0.00    -0.075 A 
ATOM      5  S   UNL d   1      -0.536  -2.452  -2.416  0.00  0.00     0.015 SA
ATOM      6  C4  UNL d   1       0.315  -1.112  -3.037  0.00  0.00     0.022 A 
ATOM      7  C5  UNL d   1       0.424  -0.098  -2.116  0.00  0.00     0.026 A 
ATOM      8  C6  UNL d   1      -0.201  -0.413  -0.862  0.00  0.00    -0.082 A 
ATOM      9  C7  UNL d   1      -0.312   0.344   0.329  0.00  0.00     0.045 A 
ENDROOT
TORSDOF 0
ENDMDL
