MODEL 1
REMARK minimizedAffinity 0.324610353
REMARK minimizedRMSD -1
REMARK  0 active torsions:
REMARK  status: ('A' for Active; 'I' for Inactive)
ROOT
ATOM      1  C   UNL d   1      -1.447  -0.845   0.966  0.00  0.00    -0.002 A 
ATOM      2  C1  UNL d   1      -0.602  -0.034   1.711  0.00  0.00     0.010 A 
ATOM      3  C2  UNL d   1       0.436   0.667   1.093  0.00  0.00     0.041 A 
ATOM      4  C3  UNL d   1       0.611   0.539  -0.298  0.00  0.00    -0.075 A 
ATOM      5  S   UNL d   1       1.814   1.302  -1.269  0.00  0.00     0.015 SA
ATOM      6  C4  UNL d   1       1.234   0.571  -2.695  0.00  0.00     0.022 A 
ATOM      7  C5  UNL d   1       0.150  -0.240  -2.455  0.00  0.00     0.026 A 
ATOM      8  C6  UNL d   1      -0.227  -0.271  -1.070  0.00  0.00    -0.082 A 
ATOM      9  C7  UNL d   1      -1.270  -0.969  -0.414  0.00  0.00     0.045 A 
ENDROOT
TORSDOF 0
ENDMDL
