MODEL 1
REMARK minimizedAffinity -0.592674792
REMARK minimizedRMSD -1
REMARK  0 active torsions:
REMARK  status: ('A' for Active; 'I' for Inactive)
ROOT
ATOM      1  C   UNL d   1      -0.713  -1.137   0.542  0.00  0.00    -0.002 A 
ATOM      2  C1  UNL d   1      -0.295  -1.110   1.865  0.00  0.00     0.010 A 
ATOM      3  C2  UNL d   1       0.381  -0.000   2.374  0.00  0.00     0.041 A 
ATOM      4  C3  UNL d   1       0.632   1.094   1.524  0.00  0.00    -0.075 A 
ATOM      5  S   UNL d   1       1.443   2.561   1.928  0.00  0.00     0.015 SA
ATOM      6  C4  UNL d   1       1.253   3.188   0.355  0.00  0.00     0.022 A 
ATOM      7  C5  UNL d   1       0.590   2.312  -0.472  0.00  0.00     0.026 A 
ATOM      8  C6  UNL d   1       0.220   1.092   0.188  0.00  0.00    -0.082 A 
ATOM      9  C7  UNL d   1      -0.463  -0.049  -0.299  0.00  0.00     0.045 A 
ENDROOT
TORSDOF 0
ENDMDL
