MODEL 1
REMARK minimizedAffinity -1.84518635
REMARK minimizedRMSD -1
REMARK  0 active torsions:
REMARK  status: ('A' for Active; 'I' for Inactive)
ROOT
ATOM      1  C   UNL d   1      -0.697  -2.651   0.613  0.00  0.00    -0.002 A 
ATOM      2  C1  UNL d   1      -0.524  -2.820  -0.754  0.00  0.00     0.010 A 
ATOM      3  C2  UNL d   1      -0.222  -1.730  -1.572  0.00  0.00     0.041 A 
ATOM      4  C3  UNL d   1      -0.094  -0.454  -0.988  0.00  0.00    -0.075 A 
ATOM      5  S   UNL d   1       0.272   1.026  -1.793  0.00  0.00     0.015 SA
ATOM      6  C4  UNL d   1       0.208   1.918  -0.342  0.00  0.00     0.022 A 
ATOM      7  C5  UNL d   1      -0.085   1.122   0.740  0.00  0.00     0.026 A 
ATOM      8  C6  UNL d   1      -0.263  -0.259   0.386  0.00  0.00    -0.082 A 
ATOM      9  C7  UNL d   1      -0.570  -1.384   1.189  0.00  0.00     0.045 A 
ENDROOT
TORSDOF 0
ENDMDL
