MODEL 1
REMARK minimizedAffinity 0.146571979
REMARK minimizedRMSD -1
REMARK  0 active torsions:
REMARK  status: ('A' for Active; 'I' for Inactive)
ROOT
ATOM      1  C   UNL d   1      -5.988   4.154   2.372  0.00  0.00     0.172 C 
ATOM      2  N   UNL d   1      -5.992   4.340   3.804  0.00  0.00    -0.070 N 
ATOM      3  C1  UNL d   1      -5.995   3.340   4.740  0.00  0.00    -0.004 A 
ATOM      4  C2  UNL d   1      -5.999   3.928   5.986  0.00  0.00    -0.047 A 
ATOM      5  C3  UNL d   1      -5.999   5.330   5.793  0.00  0.00    -0.047 A 
ATOM      6  C4  UNL d   1      -5.995   5.557   4.433  0.00  0.00    -0.004 A 
ENDROOT
TORSDOF 0
ENDMDL
