MODEL 1
REMARK minimizedAffinity 4.16147566
REMARK minimizedRMSD -1
REMARK  0 active torsions:
REMARK  status: ('A' for Active; 'I' for Inactive)
ROOT
ATOM      1  C   UNL d   1       5.462   1.991   1.118  0.00  0.00     0.172 C 
ATOM      2  N   UNL d   1       4.365   1.096   0.835  0.00  0.00    -0.070 N 
ATOM      3  C1  UNL d   1       3.427   1.269  -0.148  0.00  0.00    -0.004 A 
ATOM      4  C2  UNL d   1       2.557   0.202  -0.093  0.00  0.00    -0.047 A 
ATOM      5  C3  UNL d   1       2.985  -0.641   0.960  0.00  0.00    -0.047 A 
ATOM      6  C4  UNL d   1       4.107  -0.064   1.517  0.00  0.00    -0.004 A 
ENDROOT
TORSDOF 0
ENDMDL
