MODEL 1
REMARK minimizedAffinity 0.2845698
REMARK minimizedRMSD -1
REMARK  0 active torsions:
REMARK  status: ('A' for Active; 'I' for Inactive)
ROOT
ATOM      1  C   UNL d   1      -0.750   4.531   0.784  0.00  0.00     0.172 C 
ATOM      2  N   UNL d   1      -2.141   4.834   1.023  0.00  0.00    -0.070 N 
ATOM      3  C1  UNL d   1      -3.166   4.630   0.138  0.00  0.00    -0.004 A 
ATOM      4  C2  UNL d   1      -4.333   5.046   0.741  0.00  0.00    -0.047 A 
ATOM      5  C3  UNL d   1      -3.998   5.517   2.033  0.00  0.00    -0.047 A 
ATOM      6  C4  UNL d   1      -2.635   5.374   2.181  0.00  0.00    -0.004 A 
ENDROOT
TORSDOF 0
ENDMDL
