MODEL 1
REMARK minimizedAffinity -3.91655707
REMARK minimizedRMSD -1
REMARK  0 active torsions:
REMARK  status: ('A' for Active; 'I' for Inactive)
ROOT
ATOM      1  C   UNL d   1       6.000  -0.628   1.267  0.00  0.00     0.172 C 
ATOM      2  N   UNL d   1       5.059   0.322   0.722  0.00  0.00    -0.070 N 
ATOM      3  C1  UNL d   1       5.379   1.526   0.153  0.00  0.00    -0.004 A 
ATOM      4  C2  UNL d   1       4.206   2.132  -0.240  0.00  0.00    -0.047 A 
ATOM      5  C3  UNL d   1       3.144   1.263   0.105  0.00  0.00    -0.047 A 
ATOM      6  C4  UNL d   1       3.700   0.150   0.700  0.00  0.00    -0.004 A 
ENDROOT
TORSDOF 0
ENDMDL
