MODEL 1
REMARK minimizedAffinity 5.22275972
REMARK minimizedRMSD -1
REMARK  0 active torsions:
REMARK  status: ('A' for Active; 'I' for Inactive)
ROOT
ATOM      1  C   UNL d   1       1.159   1.871   4.834  0.00  0.00     0.172 C 
ATOM      2  N   UNL d   1       2.376   2.390   4.255  0.00  0.00    -0.070 N 
ATOM      3  C1  UNL d   1       2.780   2.218   2.958  0.00  0.00    -0.004 A 
ATOM      4  C2  UNL d   1       3.987   2.865   2.803  0.00  0.00    -0.047 A 
ATOM      5  C3  UNL d   1       4.320   3.445   4.050  0.00  0.00    -0.047 A 
ATOM      6  C4  UNL d   1       3.305   3.136   4.931  0.00  0.00    -0.004 A 
ENDROOT
TORSDOF 0
ENDMDL
