MODEL 1
REMARK minimizedAffinity 7.51953745
REMARK minimizedRMSD -1
REMARK  0 active torsions:
REMARK  status: ('A' for Active; 'I' for Inactive)
ROOT
ATOM      1  C   UNL d   1      -5.565   5.996   5.994  0.00  0.00     0.172 C 
ATOM      2  N   UNL d   1      -5.567   5.392   4.683  0.00  0.00    -0.070 N 
ATOM      3  C1  UNL d   1      -5.149   5.994   3.526  0.00  0.00    -0.004 A 
ATOM      4  C2  UNL d   1      -5.309   5.089   2.498  0.00  0.00    -0.047 A 
ATOM      5  C3  UNL d   1      -5.843   3.904   3.057  0.00  0.00    -0.047 A 
ATOM      6  C4  UNL d   1      -5.993   4.119   4.410  0.00  0.00    -0.004 A 
ENDROOT
TORSDOF 0
ENDMDL
