MODEL 1
REMARK minimizedAffinity 3.98514152
REMARK minimizedRMSD -1
REMARK  0 active torsions:
REMARK  status: ('A' for Active; 'I' for Inactive)
ROOT
ATOM      1  C   UNL d   1       6.000   0.765   0.717  0.00  0.00     0.172 C 
ATOM      2  N   UNL d   1       4.624   1.029   0.370  0.00  0.00    -0.070 N 
ATOM      3  C1  UNL d   1       3.610   0.108   0.365  0.00  0.00    -0.004 A 
ATOM      4  C2  UNL d   1       2.455   0.753  -0.021  0.00  0.00    -0.047 A 
ATOM      5  C3  UNL d   1       2.786   2.108  -0.258  0.00  0.00    -0.047 A 
ATOM      6  C4  UNL d   1       4.135   2.252  -0.009  0.00  0.00    -0.004 A 
ENDROOT
TORSDOF 0
ENDMDL
