MODEL 1
REMARK minimizedAffinity -3.03953481
REMARK minimizedRMSD -1
REMARK  0 active torsions:
REMARK  status: ('A' for Active; 'I' for Inactive)
ROOT
ATOM      1  C   UNL d   1       3.398   1.416  -0.721  0.00  0.00     0.172 C 
ATOM      2  N   UNL d   1       2.518   0.283  -0.559  0.00  0.00    -0.070 N 
ATOM      3  C1  UNL d   1       1.184   0.345  -0.254  0.00  0.00    -0.004 A 
ATOM      4  C2  UNL d   1       0.706  -0.945  -0.189  0.00  0.00    -0.047 A 
ATOM      5  C3  UNL d   1       1.789  -1.813  -0.463  0.00  0.00    -0.047 A 
ATOM      6  C4  UNL d   1       2.899  -1.026  -0.688  0.00  0.00    -0.004 A 
ENDROOT
TORSDOF 0
ENDMDL
