MODEL 1
REMARK minimizedAffinity -5.2080164
REMARK minimizedRMSD -1
REMARK  0 active torsions:
REMARK  status: ('A' for Active; 'I' for Inactive)
ROOT
ATOM      1  C2' OXE d   1       1.393  -0.100   1.099  0.00  0.00     0.078 C 
ATOM      2  C1' OXE d   1      -0.459   0.169  -0.993  0.00  0.00     0.078 C 
ATOM      3  C1  OXE d   1      -0.994   0.104   0.416  0.00  0.00    -0.078 A 
ATOM      4  C2  OXE d   1      -0.084  -0.074   1.430  0.00  0.00    -0.078 A 
ATOM      5  C3  OXE d   1      -0.518  -0.086   2.752  0.00  0.00     0.003 A 
ATOM      6  C4  OXE d   1      -1.887  -0.072   3.049  0.00  0.00    -0.002 A 
ATOM      7  C5  OXE d   1      -2.833   0.070   2.028  0.00  0.00    -0.002 A 
ATOM      8  C6  OXE d   1      -2.402   0.202   0.713  0.00  0.00     0.003 A 
ENDROOT
TORSDOF 0
ENDMDL
