MODEL 1
REMARK minimizedAffinity -4.08380747
REMARK minimizedRMSD -1
REMARK  0 active torsions:
REMARK  status: ('A' for Active; 'I' for Inactive)
ROOT
ATOM      1  C2' OXE d   1      -2.414   0.914   1.855  0.00  0.00     0.078 C 
ATOM      2  C1' OXE d   1       0.152   0.202   2.745  0.00  0.00     0.078 C 
ATOM      3  C1  OXE d   1      -0.077   0.292   1.257  0.00  0.00    -0.078 A 
ATOM      4  C2  OXE d   1      -1.347   0.595   0.829  0.00  0.00    -0.078 A 
ATOM      5  C3  OXE d   1      -1.600   0.745  -0.531  0.00  0.00     0.003 A 
ATOM      6  C4  OXE d   1      -0.610   0.439  -1.474  0.00  0.00    -0.002 A 
ATOM      7  C5  OXE d   1       0.680   0.090  -1.060  0.00  0.00    -0.002 A 
ATOM      8  C6  OXE d   1       0.974   0.053   0.298  0.00  0.00     0.003 A 
ENDROOT
TORSDOF 0
ENDMDL
