MODEL 1
REMARK minimizedAffinity -3.25540566
REMARK minimizedRMSD -1
REMARK  0 active torsions:
REMARK  status: ('A' for Active; 'I' for Inactive)
ROOT
ATOM      1  C2' OXE d   1       0.688   0.203   2.770  0.00  0.00     0.078 C 
ATOM      2  C1' OXE d   1       0.005  -2.279   1.649  0.00  0.00     0.078 C 
ATOM      3  C1  OXE d   1       0.227  -1.120   0.710  0.00  0.00    -0.078 A 
ATOM      4  C2  OXE d   1       0.515   0.102   1.270  0.00  0.00    -0.078 A 
ATOM      5  C3  OXE d   1       0.782   1.192   0.446  0.00  0.00     0.003 A 
ATOM      6  C4  OXE d   1       0.610   1.092  -0.940  0.00  0.00    -0.002 A 
ATOM      7  C5  OXE d   1       0.278  -0.133  -1.527  0.00  0.00    -0.002 A 
ATOM      8  C6  OXE d   1       0.125  -1.256  -0.722  0.00  0.00     0.003 A 
ENDROOT
TORSDOF 0
ENDMDL
