MODEL 1
REMARK minimizedAffinity -6.31566906
REMARK minimizedRMSD -1
REMARK  0 active torsions:
REMARK  status: ('A' for Active; 'I' for Inactive)
ROOT
ATOM      1  C2' OXE d   1      -2.727   0.330   0.661  0.00  0.00     0.078 C 
ATOM      2  C1' OXE d   1      -1.492  -0.343   3.090  0.00  0.00     0.078 C 
ATOM      3  C1  OXE d   1      -0.609  -0.146   1.883  0.00  0.00    -0.078 A 
ATOM      4  C2  OXE d   1      -1.226   0.137   0.688  0.00  0.00    -0.078 A 
ATOM      5  C3  OXE d   1      -0.456   0.382  -0.445  0.00  0.00     0.003 A 
ATOM      6  C4  OXE d   1       0.931   0.192  -0.413  0.00  0.00    -0.002 A 
ATOM      7  C5  OXE d   1       1.576  -0.136   0.784  0.00  0.00    -0.002 A 
ATOM      8  C6  OXE d   1       0.826  -0.266   1.948  0.00  0.00     0.003 A 
ENDROOT
TORSDOF 0
ENDMDL
