MODEL 1
REMARK minimizedAffinity -3.99000168
REMARK minimizedRMSD -1
REMARK  0 active torsions:
REMARK  status: ('A' for Active; 'I' for Inactive)
ROOT
ATOM      1  C2' OXE d   1       2.338   0.371   0.755  0.00  0.00     0.078 C 
ATOM      2  C1' OXE d   1       0.419   0.067  -1.270  0.00  0.00     0.078 C 
ATOM      3  C1  OXE d   1      -0.042  -0.059   0.160  0.00  0.00    -0.078 A 
ATOM      4  C2  OXE d   1       0.912   0.045   1.143  0.00  0.00    -0.078 A 
ATOM      5  C3  OXE d   1       0.532  -0.009   2.481  0.00  0.00     0.003 A 
ATOM      6  C4  OXE d   1      -0.787  -0.321   2.832  0.00  0.00    -0.002 A 
ATOM      7  C5  OXE d   1      -1.767  -0.470   1.845  0.00  0.00    -0.002 A 
ATOM      8  C6  OXE d   1      -1.421  -0.300   0.509  0.00  0.00     0.003 A 
ENDROOT
TORSDOF 0
ENDMDL
