MODEL 1
REMARK minimizedAffinity -3.50285125
REMARK minimizedRMSD -1
REMARK  0 active torsions:
REMARK  status: ('A' for Active; 'I' for Inactive)
ROOT
ATOM      1  C2' OXE d   1      -1.930  -0.179   3.493  0.00  0.00     0.078 C 
ATOM      2  C1' OXE d   1      -3.223   0.551   1.111  0.00  0.00     0.078 C 
ATOM      3  C1  OXE d   1      -1.726   0.376   1.073  0.00  0.00    -0.078 A 
ATOM      4  C2  OXE d   1      -1.096   0.064   2.254  0.00  0.00    -0.078 A 
ATOM      5  C3  OXE d   1       0.277  -0.163   2.264  0.00  0.00     0.003 A 
ATOM      6  C4  OXE d   1       1.043   0.073   1.115  0.00  0.00    -0.002 A 
ATOM      7  C5  OXE d   1       0.426   0.430  -0.088  0.00  0.00    -0.002 A 
ATOM      8  C6  OXE d   1      -0.959   0.544  -0.136  0.00  0.00     0.003 A 
ENDROOT
TORSDOF 0
ENDMDL
