MODEL 1
REMARK minimizedAffinity -4.99716425
REMARK minimizedRMSD -1
REMARK  0 active torsions:
REMARK  status: ('A' for Active; 'I' for Inactive)
ROOT
ATOM      1  C2' OXE d   1       2.105  -0.615   1.576  0.00  0.00     0.078 C 
ATOM      2  C1' OXE d   1       0.169  -0.180  -0.409  0.00  0.00     0.078 C 
ATOM      3  C1  OXE d   1      -0.312  -0.504   0.984  0.00  0.00    -0.078 A 
ATOM      4  C2  OXE d   1       0.643  -0.761   1.938  0.00  0.00    -0.078 A 
ATOM      5  C3  OXE d   1       0.255  -1.012   3.251  0.00  0.00     0.003 A 
ATOM      6  C4  OXE d   1      -1.099  -1.156   3.575  0.00  0.00    -0.002 A 
ATOM      7  C5  OXE d   1      -2.087  -0.937   2.609  0.00  0.00    -0.002 A 
ATOM      8  C6  OXE d   1      -1.712  -0.570   1.322  0.00  0.00     0.003 A 
ENDROOT
TORSDOF 0
ENDMDL
