MODEL 1
REMARK minimizedAffinity 0.221394077
REMARK minimizedRMSD -1
REMARK  0 active torsions:
REMARK  status: ('A' for Active; 'I' for Inactive)
ROOT
ATOM      1  C2' OXE d   1      -3.068   1.098   2.298  0.00  0.00     0.078 C 
ATOM      2  C1' OXE d   1      -2.648   0.499  -0.412  0.00  0.00     0.078 C 
ATOM      3  C1  OXE d   1      -1.476   0.365   0.528  0.00  0.00    -0.078 A 
ATOM      4  C2  OXE d   1      -1.679   0.705   1.844  0.00  0.00    -0.078 A 
ATOM      5  C3  OXE d   1      -0.646   0.548   2.764  0.00  0.00     0.003 A 
ATOM      6  C4  OXE d   1       0.638   0.194   2.333  0.00  0.00    -0.002 A 
ATOM      7  C5  OXE d   1       0.876  -0.118   0.991  0.00  0.00    -0.002 A 
ATOM      8  C6  OXE d   1      -0.178  -0.079   0.085  0.00  0.00     0.003 A 
ENDROOT
TORSDOF 0
ENDMDL
