MODEL 1
REMARK minimizedAffinity -5.98736238
REMARK minimizedRMSD -1
REMARK  0 active torsions:
REMARK  status: ('A' for Active; 'I' for Inactive)
ROOT
ATOM      1  C2' OXE d   1       1.774   0.652   1.246  0.00  0.00     0.078 C 
ATOM      2  C1' OXE d   1      -0.236   0.557  -0.711  0.00  0.00     0.078 C 
ATOM      3  C1  OXE d   1      -0.647   0.377   0.729  0.00  0.00    -0.078 A 
ATOM      4  C2  OXE d   1       0.348   0.379   1.675  0.00  0.00    -0.078 A 
ATOM      5  C3  OXE d   1       0.018   0.272   3.023  0.00  0.00     0.003 A 
ATOM      6  C4  OXE d   1      -1.301   0.010   3.411  0.00  0.00    -0.002 A 
ATOM      7  C5  OXE d   1      -2.326  -0.035   2.459  0.00  0.00    -0.002 A 
ATOM      8  C6  OXE d   1      -2.022   0.189   1.121  0.00  0.00     0.003 A 
ENDROOT
TORSDOF 0
ENDMDL
