MODEL 1
REMARK minimizedAffinity -2.51334286
REMARK minimizedRMSD -1
REMARK  0 active torsions:
REMARK  status: ('A' for Active; 'I' for Inactive)
ROOT
ATOM      1  C2' OXE d   1      -2.352   0.777  -0.758  0.00  0.00     0.078 C 
ATOM      2  C1' OXE d   1       0.278   0.149  -1.513  0.00  0.00     0.078 C 
ATOM      3  C1  OXE d   1      -0.044   0.177  -0.040  0.00  0.00    -0.078 A 
ATOM      4  C2  OXE d   1      -1.322   0.530   0.322  0.00  0.00    -0.078 A 
ATOM      5  C3  OXE d   1      -1.686   0.518   1.665  0.00  0.00     0.003 A 
ATOM      6  C4  OXE d   1      -0.724   0.299   2.659  0.00  0.00    -0.002 A 
ATOM      7  C5  OXE d   1       0.592  -0.024   2.314  0.00  0.00    -0.002 A 
ATOM      8  C6  OXE d   1       0.938  -0.131   0.971  0.00  0.00     0.003 A 
ENDROOT
TORSDOF 0
ENDMDL
