MODEL 1
REMARK minimizedAffinity -4.83417177
REMARK minimizedRMSD -1
REMARK  0 active torsions:
REMARK  status: ('A' for Active; 'I' for Inactive)
ROOT
ATOM      1  C2' OXE d   1       1.749   0.469   1.095  0.00  0.00     0.078 C 
ATOM      2  C1' OXE d   1      -0.145   0.194  -0.958  0.00  0.00     0.078 C 
ATOM      3  C1  OXE d   1      -0.624   0.052   0.465  0.00  0.00    -0.078 A 
ATOM      4  C2  OXE d   1       0.318   0.141   1.461  0.00  0.00    -0.078 A 
ATOM      5  C3  OXE d   1      -0.079   0.072   2.794  0.00  0.00     0.003 A 
ATOM      6  C4  OXE d   1      -1.404  -0.242   3.123  0.00  0.00    -0.002 A 
ATOM      7  C5  OXE d   1      -2.372  -0.376   2.122  0.00  0.00    -0.002 A 
ATOM      8  C6  OXE d   1      -2.008  -0.191   0.793  0.00  0.00     0.003 A 
ENDROOT
TORSDOF 0
ENDMDL
