MODEL 1
REMARK minimizedAffinity -1.39868867
REMARK minimizedRMSD -1
REMARK  0 active torsions:
REMARK  status: ('A' for Active; 'I' for Inactive)
ROOT
ATOM      1  C2' OXE d   1       1.571   0.446  -3.543  0.00  0.00     0.078 C 
ATOM      2  C1' OXE d   1       1.067  -2.258  -2.979  0.00  0.00     0.078 C 
ATOM      3  C1  OXE d   1       0.664  -1.236  -1.945  0.00  0.00    -0.078 A 
ATOM      4  C2  OXE d   1       0.958   0.080  -2.209  0.00  0.00    -0.078 A 
ATOM      5  C3  OXE d   1       0.559   1.068  -1.313  0.00  0.00     0.003 A 
ATOM      6  C4  OXE d   1       0.001   0.721  -0.077  0.00  0.00    -0.002 A 
ATOM      7  C5  OXE d   1      -0.270  -0.617   0.229  0.00  0.00    -0.002 A 
ATOM      8  C6  OXE d   1       0.016  -1.602  -0.710  0.00  0.00     0.003 A 
ENDROOT
TORSDOF 0
ENDMDL
