MODEL 1
REMARK minimizedAffinity -2.81505322
REMARK minimizedRMSD -1
REMARK  0 active torsions:
REMARK  status: ('A' for Active; 'I' for Inactive)
ROOT
ATOM      1  C2' OXE d   1      -2.270   0.613   1.190  0.00  0.00     0.078 C 
ATOM      2  C1' OXE d   1       0.078   0.583   2.728  0.00  0.00     0.078 C 
ATOM      3  C1  OXE d   1       0.214   0.424   1.234  0.00  0.00    -0.078 A 
ATOM      4  C2  OXE d   1      -0.944   0.393   0.494  0.00  0.00    -0.078 A 
ATOM      5  C3  OXE d   1      -0.873   0.303  -0.893  0.00  0.00     0.003 A 
ATOM      6  C4  OXE d   1       0.357   0.090  -1.528  0.00  0.00    -0.002 A 
ATOM      7  C5  OXE d   1       1.545   0.078  -0.788  0.00  0.00    -0.002 A 
ATOM      8  C6  OXE d   1       1.494   0.286   0.585  0.00  0.00     0.003 A 
ENDROOT
TORSDOF 0
ENDMDL
