MODEL 1
REMARK minimizedAffinity -6.4138732
REMARK minimizedRMSD -1
REMARK  0 active torsions:
REMARK  status: ('A' for Active; 'I' for Inactive)
ROOT
ATOM      1  C2' OXE d   1       1.875   0.193   0.806  0.00  0.00     0.078 C 
ATOM      2  C1' OXE d   1      -0.378   0.125  -0.867  0.00  0.00     0.078 C 
ATOM      3  C1  OXE d   1      -0.601  -0.012   0.619  0.00  0.00    -0.078 A 
ATOM      4  C2  OXE d   1       0.511  -0.024   1.426  0.00  0.00    -0.078 A 
ATOM      5  C3  OXE d   1       0.359  -0.094   2.808  0.00  0.00     0.003 A 
ATOM      6  C4  OXE d   1      -0.905  -0.305   3.372  0.00  0.00    -0.002 A 
ATOM      7  C5  OXE d   1      -2.047  -0.335   2.565  0.00  0.00    -0.002 A 
ATOM      8  C6  OXE d   1      -1.917  -0.148   1.193  0.00  0.00     0.003 A 
ENDROOT
TORSDOF 0
ENDMDL
