MODEL 1
REMARK minimizedAffinity -6.06316853
REMARK minimizedRMSD -1
REMARK  0 active torsions:
REMARK  status: ('A' for Active; 'I' for Inactive)
ROOT
ATOM      1  C2' OXE d   1       1.095   0.372   1.116  0.00  0.00     0.078 C 
ATOM      2  C1' OXE d   1      -0.951   0.827  -0.751  0.00  0.00     0.078 C 
ATOM      3  C1  OXE d   1      -1.351   0.433   0.648  0.00  0.00    -0.078 A 
ATOM      4  C2  OXE d   1      -0.343   0.166   1.543  0.00  0.00    -0.078 A 
ATOM      5  C3  OXE d   1      -0.656  -0.149   2.862  0.00  0.00     0.003 A 
ATOM      6  C4  OXE d   1      -1.988  -0.347   3.246  0.00  0.00    -0.002 A 
ATOM      7  C5  OXE d   1      -3.030  -0.119   2.340  0.00  0.00    -0.002 A 
ATOM      8  C6  OXE d   1      -2.730   0.311   1.052  0.00  0.00     0.003 A 
ENDROOT
TORSDOF 0
ENDMDL
