MODEL 1
REMARK minimizedAffinity -6.32434034
REMARK minimizedRMSD -1
REMARK  0 active torsions:
REMARK  status: ('A' for Active; 'I' for Inactive)
ROOT
ATOM      1  C2' OXE d   1      -0.010  -0.342   0.370  0.00  0.00     0.078 C 
ATOM      2  C1' OXE d   1      -2.592   0.661  -0.087  0.00  0.00     0.078 C 
ATOM      3  C1  OXE d   1      -2.265   0.166   1.299  0.00  0.00    -0.078 A 
ATOM      4  C2  OXE d   1      -1.014  -0.366   1.502  0.00  0.00    -0.078 A 
ATOM      5  C3  OXE d   1      -0.642  -0.787   2.776  0.00  0.00     0.003 A 
ATOM      6  C4  OXE d   1      -1.580  -0.815   3.815  0.00  0.00    -0.002 A 
ATOM      7  C5  OXE d   1      -2.872  -0.314   3.620  0.00  0.00    -0.002 A 
ATOM      8  C6  OXE d   1      -3.216   0.218   2.382  0.00  0.00     0.003 A 
ENDROOT
TORSDOF 0
ENDMDL
