MODEL 1
REMARK minimizedAffinity 3.50195789
REMARK minimizedRMSD -1
REMARK  0 active torsions:
REMARK  status: ('A' for Active; 'I' for Inactive)
ROOT
ATOM      1  C   UNL d   1       1.663   2.989   2.704  0.00  0.00     0.078 C 
ATOM      2  C1  UNL d   1       0.193   2.909   2.417  0.00  0.00    -0.077 A 
ATOM      3  C2  UNL d   1      -0.751   3.110   3.431  0.00  0.00    -0.001 A 
ATOM      4  C3  UNL d   1      -2.116   3.023   3.151  0.00  0.00     0.003 A 
ATOM      5  C4  UNL d   1      -2.548   2.734   1.859  0.00  0.00    -0.005 A 
ATOM      6  C5  UNL d   1      -1.616   2.530   0.844  0.00  0.00     0.003 A 
ATOM      7  C6  UNL d   1      -0.251   2.616   1.121  0.00  0.00    -0.001 A 
ENDROOT
TORSDOF 0
ENDMDL
