MODEL 1
REMARK minimizedAffinity -3.49598885
REMARK minimizedRMSD -1
REMARK  0 active torsions:
REMARK  status: ('A' for Active; 'I' for Inactive)
ROOT
ATOM      1  C   UNL d   1       2.687   2.952   2.720  0.00  0.00     0.078 C 
ATOM      2  C1  UNL d   1       1.559   2.410   1.893  0.00  0.00    -0.077 A 
ATOM      3  C2  UNL d   1       0.344   3.097   1.791  0.00  0.00    -0.001 A 
ATOM      4  C3  UNL d   1      -0.700   2.576   1.026  0.00  0.00     0.003 A 
ATOM      5  C4  UNL d   1      -0.540   1.364   0.356  0.00  0.00    -0.005 A 
ATOM      6  C5  UNL d   1       0.665   0.672   0.453  0.00  0.00     0.003 A 
ATOM      7  C6  UNL d   1       1.711   1.192   1.218  0.00  0.00    -0.001 A 
ENDROOT
TORSDOF 0
ENDMDL
