MODEL 1
REMARK minimizedAffinity -0.153890193
REMARK minimizedRMSD -1
REMARK  0 active torsions:
REMARK  status: ('A' for Active; 'I' for Inactive)
ROOT
ATOM      1  C   UNL d   1      -1.105   1.482   0.562  0.00  0.00     0.078 C 
ATOM      2  C1  UNL d   1       0.263   1.830   1.069  0.00  0.00    -0.077 A 
ATOM      3  C2  UNL d   1       0.470   2.959   1.871  0.00  0.00    -0.001 A 
ATOM      4  C3  UNL d   1       1.750   3.275   2.328  0.00  0.00     0.003 A 
ATOM      5  C4  UNL d   1       2.834   2.469   1.987  0.00  0.00    -0.005 A 
ATOM      6  C5  UNL d   1       2.638   1.345   1.187  0.00  0.00     0.003 A 
ATOM      7  C6  UNL d   1       1.359   1.026   0.729  0.00  0.00    -0.001 A 
ENDROOT
TORSDOF 0
ENDMDL
