MODEL 1
REMARK minimizedAffinity 0.742418349
REMARK minimizedRMSD -1
REMARK  0 active torsions:
REMARK  status: ('A' for Active; 'I' for Inactive)
ROOT
ATOM      1  C   UNL d   1       1.751   0.013   0.051  0.00  0.00     0.078 C 
ATOM      2  C1  UNL d   1       0.406   0.629   0.296  0.00  0.00    -0.077 A 
ATOM      3  C2  UNL d   1       0.263   2.014   0.437  0.00  0.00    -0.001 A 
ATOM      4  C3  UNL d   1      -0.994   2.573   0.675  0.00  0.00     0.003 A 
ATOM      5  C4  UNL d   1      -2.117   1.753   0.775  0.00  0.00    -0.005 A 
ATOM      6  C5  UNL d   1      -1.983   0.373   0.638  0.00  0.00     0.003 A 
ATOM      7  C6  UNL d   1      -0.727  -0.187   0.401  0.00  0.00    -0.001 A 
ENDROOT
TORSDOF 0
ENDMDL
