MODEL 1
REMARK minimizedAffinity 2.85274625
REMARK minimizedRMSD -1
REMARK  0 active torsions:
REMARK  status: ('A' for Active; 'I' for Inactive)
ROOT
ATOM      1  C   UNL d   1       1.795   2.549   2.242  0.00  0.00     0.078 C 
ATOM      2  C1  UNL d   1       3.253   2.901   2.232  0.00  0.00    -0.077 A 
ATOM      3  C2  UNL d   1       3.816   3.670   3.259  0.00  0.00    -0.001 A 
ATOM      4  C3  UNL d   1       5.172   3.998   3.232  0.00  0.00     0.003 A 
ATOM      5  C4  UNL d   1       5.977   3.564   2.181  0.00  0.00    -0.005 A 
ATOM      6  C5  UNL d   1       5.425   2.800   1.154  0.00  0.00     0.003 A 
ATOM      7  C6  UNL d   1       4.069   2.471   1.179  0.00  0.00    -0.001 A 
ENDROOT
TORSDOF 0
ENDMDL
