MODEL 1
REMARK minimizedAffinity -1.84527886
REMARK minimizedRMSD -1
REMARK  0 active torsions:
REMARK  status: ('A' for Active; 'I' for Inactive)
ROOT
ATOM      1  C   UNL d   1      -1.672   2.543  -6.000  0.00  0.00     0.078 C 
ATOM      2  C1  UNL d   1      -2.839   3.484  -5.993  0.00  0.00    -0.077 A 
ATOM      3  C2  UNL d   1      -4.154   3.003  -5.995  0.00  0.00    -0.001 A 
ATOM      4  C3  UNL d   1      -5.231   3.891  -5.998  0.00  0.00     0.003 A 
ATOM      5  C4  UNL d   1      -5.004   5.266  -6.000  0.00  0.00    -0.005 A 
ATOM      6  C5  UNL d   1      -3.700   5.754  -6.000  0.00  0.00     0.003 A 
ATOM      7  C6  UNL d   1      -2.621   4.868  -5.997  0.00  0.00    -0.001 A 
ENDROOT
TORSDOF 0
ENDMDL
