MODEL 1
REMARK minimizedAffinity 3.09114313
REMARK minimizedRMSD -1
REMARK  0 active torsions:
REMARK  status: ('A' for Active; 'I' for Inactive)
ROOT
ATOM      1  C   UNL d   1       1.467   0.664  -0.090  0.00  0.00     0.078 C 
ATOM      2  C1  UNL d   1       0.079   0.912   0.420  0.00  0.00    -0.077 A 
ATOM      3  C2  UNL d   1      -0.328   2.193   0.812  0.00  0.00    -0.001 A 
ATOM      4  C3  UNL d   1      -1.620   2.407   1.293  0.00  0.00     0.003 A 
ATOM      5  C4  UNL d   1      -2.516   1.344   1.388  0.00  0.00    -0.005 A 
ATOM      6  C5  UNL d   1      -2.120   0.065   1.003  0.00  0.00     0.003 A 
ATOM      7  C6  UNL d   1      -0.828  -0.151   0.521  0.00  0.00    -0.001 A 
ENDROOT
TORSDOF 0
ENDMDL
