MODEL 1
REMARK minimizedAffinity 3.61177349
REMARK minimizedRMSD -1
REMARK  0 active torsions:
REMARK  status: ('A' for Active; 'I' for Inactive)
ROOT
ATOM      1  C   UNL d   1      -2.084   3.406   3.778  0.00  0.00     0.078 C 
ATOM      2  C1  UNL d   1      -0.650   3.385   3.341  0.00  0.00    -0.077 A 
ATOM      3  C2  UNL d   1       0.389   3.533   4.269  0.00  0.00    -0.001 A 
ATOM      4  C3  UNL d   1       1.719   3.521   3.846  0.00  0.00     0.003 A 
ATOM      5  C4  UNL d   1       2.023   3.364   2.495  0.00  0.00    -0.005 A 
ATOM      6  C5  UNL d   1       0.996   3.219   1.565  0.00  0.00     0.003 A 
ATOM      7  C6  UNL d   1      -0.335   3.230   1.986  0.00  0.00    -0.001 A 
ENDROOT
TORSDOF 0
ENDMDL
