MODEL 1
REMARK minimizedAffinity 5.38277435
REMARK minimizedRMSD -1
REMARK  0 active torsions:
REMARK  status: ('A' for Active; 'I' for Inactive)
ROOT
ATOM      1  C   UNL d   1       1.663   1.135  -0.242  0.00  0.00     0.078 C 
ATOM      2  C1  UNL d   1       0.239   0.871   0.147  0.00  0.00    -0.077 A 
ATOM      3  C2  UNL d   1      -0.608   1.916   0.536  0.00  0.00    -0.001 A 
ATOM      4  C3  UNL d   1      -1.928   1.654   0.905  0.00  0.00     0.003 A 
ATOM      5  C4  UNL d   1      -2.413   0.348   0.890  0.00  0.00    -0.005 A 
ATOM      6  C5  UNL d   1      -1.578  -0.699   0.506  0.00  0.00     0.003 A 
ATOM      7  C6  UNL d   1      -0.257  -0.439   0.137  0.00  0.00    -0.001 A 
ENDROOT
TORSDOF 0
ENDMDL
