MODEL 1
REMARK minimizedAffinity 5.74277735
REMARK minimizedRMSD -1
REMARK  0 active torsions:
REMARK  status: ('A' for Active; 'I' for Inactive)
ROOT
ATOM      1  C   UNL d   1      -1.307  -1.996   0.204  0.00  0.00     0.078 C 
ATOM      2  C1  UNL d   1      -1.403  -0.521   0.457  0.00  0.00    -0.077 A 
ATOM      3  C2  UNL d   1      -0.262   0.290   0.442  0.00  0.00    -0.001 A 
ATOM      4  C3  UNL d   1      -0.366   1.660   0.689  0.00  0.00     0.003 A 
ATOM      5  C4  UNL d   1      -1.609   2.231   0.954  0.00  0.00    -0.005 A 
ATOM      6  C5  UNL d   1      -2.750   1.431   0.974  0.00  0.00     0.003 A 
ATOM      7  C6  UNL d   1      -2.648   0.061   0.727  0.00  0.00    -0.001 A 
ENDROOT
TORSDOF 0
ENDMDL
