MODEL 1
REMARK minimizedAffinity 5.6427002
REMARK minimizedRMSD -1
REMARK  0 active torsions:
REMARK  status: ('A' for Active; 'I' for Inactive)
ROOT
ATOM      1  C   UNL d   1      -3.755  -5.611  -0.177  0.00  0.00     0.078 C 
ATOM      2  C1  UNL d   1      -2.665  -4.680  -0.619  0.00  0.00    -0.077 A 
ATOM      3  C2  UNL d   1      -2.183  -3.679   0.233  0.00  0.00    -0.001 A 
ATOM      4  C3  UNL d   1      -1.175  -2.814  -0.195  0.00  0.00     0.003 A 
ATOM      5  C4  UNL d   1      -0.642  -2.940  -1.476  0.00  0.00    -0.005 A 
ATOM      6  C5  UNL d   1      -1.117  -3.932  -2.332  0.00  0.00     0.003 A 
ATOM      7  C6  UNL d   1      -2.125  -4.798  -1.905  0.00  0.00    -0.001 A 
ENDROOT
TORSDOF 0
ENDMDL
