MODEL 1
REMARK minimizedAffinity 2.31776023
REMARK minimizedRMSD -1
REMARK  0 active torsions:
REMARK  status: ('A' for Active; 'I' for Inactive)
ROOT
ATOM      1  C   UNL d   1      -4.178  -4.865  -0.136  0.00  0.00     0.078 C 
ATOM      2  C1  UNL d   1      -2.961  -4.109  -0.576  0.00  0.00    -0.077 A 
ATOM      3  C2  UNL d   1      -3.005  -2.723  -0.773  0.00  0.00    -0.001 A 
ATOM      4  C3  UNL d   1      -1.867  -2.033  -1.192  0.00  0.00     0.003 A 
ATOM      5  C4  UNL d   1      -0.676  -2.720  -1.421  0.00  0.00    -0.005 A 
ATOM      6  C5  UNL d   1      -0.623  -4.100  -1.231  0.00  0.00     0.003 A 
ATOM      7  C6  UNL d   1      -1.761  -4.791  -0.811  0.00  0.00    -0.001 A 
ENDROOT
TORSDOF 0
ENDMDL
