MODEL 1
REMARK minimizedAffinity -0.658487201
REMARK minimizedRMSD -1
REMARK  0 active torsions:
REMARK  status: ('A' for Active; 'I' for Inactive)
ROOT
ATOM      1  C   UNL d   1       0.964   0.765   0.773  0.00  0.00     0.078 C 
ATOM      2  C1  UNL d   1      -0.536   0.750   0.772  0.00  0.00    -0.077 A 
ATOM      3  C2  UNL d   1      -1.245  -0.420   1.070  0.00  0.00    -0.001 A 
ATOM      4  C3  UNL d   1      -2.641  -0.422   1.056  0.00  0.00     0.003 A 
ATOM      5  C4  UNL d   1      -3.339   0.743   0.744  0.00  0.00    -0.005 A 
ATOM      6  C5  UNL d   1      -2.642   1.911   0.445  0.00  0.00     0.003 A 
ATOM      7  C6  UNL d   1      -1.246   1.915   0.458  0.00  0.00    -0.001 A 
ENDROOT
TORSDOF 0
ENDMDL
