MODEL 1
REMARK minimizedAffinity 2.54728413
REMARK minimizedRMSD -1
REMARK  0 active torsions:
REMARK  status: ('A' for Active; 'I' for Inactive)
ROOT
ATOM      1  C   UNL d   1      -1.487  -3.299  -1.950  0.00  0.00     0.078 C 
ATOM      2  C1  UNL d   1      -2.480  -4.133  -1.198  0.00  0.00    -0.077 A 
ATOM      3  C2  UNL d   1      -3.819  -4.200  -1.601  0.00  0.00    -0.001 A 
ATOM      4  C3  UNL d   1      -4.734  -4.974  -0.886  0.00  0.00     0.003 A 
ATOM      5  C4  UNL d   1      -4.321  -5.685   0.239  0.00  0.00    -0.005 A 
ATOM      6  C5  UNL d   1      -2.991  -5.623   0.649  0.00  0.00     0.003 A 
ATOM      7  C6  UNL d   1      -2.074  -4.850  -0.065  0.00  0.00    -0.001 A 
ENDROOT
TORSDOF 0
ENDMDL
