MODEL 1
REMARK minimizedAffinity 1.14833951
REMARK minimizedRMSD -1
REMARK  0 active torsions:
REMARK  status: ('A' for Active; 'I' for Inactive)
ROOT
ATOM      1  C   UNL d   1       1.647   0.193   0.543  0.00  0.00     0.078 C 
ATOM      2  C1  UNL d   1       0.224   0.566   0.835  0.00  0.00    -0.077 A 
ATOM      3  C2  UNL d   1      -0.144   1.901   1.041  0.00  0.00    -0.001 A 
ATOM      4  C3  UNL d   1      -1.470   2.233   1.321  0.00  0.00     0.003 A 
ATOM      5  C4  UNL d   1      -2.439   1.235   1.399  0.00  0.00    -0.005 A 
ATOM      6  C5  UNL d   1      -2.082  -0.097   1.198  0.00  0.00     0.003 A 
ATOM      7  C6  UNL d   1      -0.756  -0.430   0.918  0.00  0.00    -0.001 A 
ENDROOT
TORSDOF 0
ENDMDL
