MODEL 1
REMARK minimizedAffinity 8.47198009
REMARK minimizedRMSD -1
REMARK  0 active torsions:
REMARK  status: ('A' for Active; 'I' for Inactive)
ROOT
ATOM      1  C   UNL d   1       2.434   0.238  -2.977  0.00  0.00     0.078 C 
ATOM      2  C1  UNL d   1       2.091   0.165  -1.519  0.00  0.00    -0.077 A 
ATOM      3  C2  UNL d   1       1.744  -1.052  -0.920  0.00  0.00    -0.001 A 
ATOM      4  C3  UNL d   1       1.417  -1.104   0.436  0.00  0.00     0.003 A 
ATOM      5  C4  UNL d   1       1.433   0.059   1.204  0.00  0.00    -0.005 A 
ATOM      6  C5  UNL d   1       1.776   1.275   0.616  0.00  0.00     0.003 A 
ATOM      7  C6  UNL d   1       2.102   1.329  -0.740  0.00  0.00    -0.001 A 
ENDROOT
TORSDOF 0
ENDMDL
