MODEL 1
REMARK minimizedAffinity 13.4773636
REMARK minimizedRMSD -1
REMARK  1 active torsions:
REMARK  status: ('A' for Active; 'I' for Inactive)
REMARK    1  A    between atoms: C1_2  and  C2_3 
ROOT
ATOM      1  C2  UNL d   1       4.850   1.384   2.286  0.00  0.00    -0.076 A 
ATOM      2  C3  UNL d   1       5.055   0.195   1.565  0.00  0.00     0.004 A 
ATOM      3  C4  UNL d   1       4.660   0.087   0.233  0.00  0.00    -0.003 A 
ATOM      4  C5  UNL d   1       4.053   1.166  -0.400  0.00  0.00     0.000 A 
ATOM      5  C6  UNL d   1       3.857   2.359   0.295  0.00  0.00     0.000 A 
ATOM      6  C7  UNL d   1       4.265   2.490   1.634  0.00  0.00    -0.073 A 
ATOM      7  C8  UNL d   1       4.023   3.798   2.337  0.00  0.00     0.078 C 
ENDROOT
BRANCH   1   8
ATOM      8  C1  UNL d   1       5.275   1.434   3.736  0.00  0.00     0.053 C 
ATOM      9  C   UNL d   1       5.923   0.138   4.199  0.00  0.00     0.018 C 
ENDBRANCH   1   8
TORSDOF 1
ENDMDL
