MODEL 1
REMARK minimizedAffinity 8.09738255
REMARK minimizedRMSD -1
REMARK  1 active torsions:
REMARK  status: ('A' for Active; 'I' for Inactive)
REMARK    1  A    between atoms: C1_2  and  C2_3 
ROOT
ATOM      1  C2  UNL d   1       5.948   3.777   4.465  0.00  0.00    -0.076 A 
ATOM      2  C3  UNL d   1       5.946   5.177   4.592  0.00  0.00     0.004 A 
ATOM      3  C4  UNL d   1       5.965   6.000   3.467  0.00  0.00    -0.003 A 
ATOM      4  C5  UNL d   1       5.984   5.436   2.196  0.00  0.00     0.000 A 
ATOM      5  C6  UNL d   1       5.968   4.049   2.051  0.00  0.00     0.000 A 
ATOM      6  C7  UNL d   1       5.933   3.205   3.175  0.00  0.00    -0.073 A 
ATOM      7  C8  UNL d   1       5.923   1.717   2.960  0.00  0.00     0.078 C 
ENDROOT
BRANCH   1   8
ATOM      8  C1  UNL d   1       5.954   2.936   5.721  0.00  0.00     0.053 C 
ATOM      9  C   UNL d   1       4.624   2.239   5.963  0.00  0.00     0.018 C 
ENDBRANCH   1   8
TORSDOF 1
ENDMDL
