MODEL 1
REMARK minimizedAffinity 3.92468166
REMARK minimizedRMSD -1
REMARK  1 active torsions:
REMARK  status: ('A' for Active; 'I' for Inactive)
REMARK    1  A    between atoms: C1_2  and  C2_3 
ROOT
ATOM      1  C2  UNL d   1       0.859   0.594   0.219  0.00  0.00    -0.076 A 
ATOM      2  C3  UNL d   1       2.247   0.521   0.005  0.00  0.00     0.004 A 
ATOM      3  C4  UNL d   1       2.782  -0.349  -0.943  0.00  0.00    -0.003 A 
ATOM      4  C5  UNL d   1       1.938  -1.160  -1.694  0.00  0.00     0.000 A 
ATOM      5  C6  UNL d   1       0.558  -1.089  -1.507  0.00  0.00     0.000 A 
ATOM      6  C7  UNL d   1       0.001  -0.205  -0.567  0.00  0.00    -0.073 A 
ATOM      7  C8  UNL d   1      -1.494  -0.173  -0.403  0.00  0.00     0.078 C 
ENDROOT
BRANCH   1   8
ATOM      8  C1  UNL d   1       0.339   1.537   1.280  0.00  0.00     0.053 C 
ATOM      9  C   UNL d   1       1.191   2.789   1.416  0.00  0.00     0.018 C 
ENDBRANCH   1   8
TORSDOF 1
ENDMDL
