MODEL 1
REMARK minimizedAffinity 12.0947332
REMARK minimizedRMSD -1
REMARK  1 active torsions:
REMARK  status: ('A' for Active; 'I' for Inactive)
REMARK    1  A    between atoms: C1_2  and  C2_3 
ROOT
ATOM      1  C2  UNL d   1       5.940   4.600   2.121  0.00  0.00    -0.076 A 
ATOM      2  C3  UNL d   1       5.964   5.831   2.800  0.00  0.00     0.004 A 
ATOM      3  C4  UNL d   1       5.985   5.882   4.193  0.00  0.00    -0.003 A 
ATOM      4  C5  UNL d   1       5.983   4.703   4.930  0.00  0.00     0.000 A 
ATOM      5  C6  UNL d   1       5.977   3.473   4.273  0.00  0.00     0.000 A 
ATOM      6  C7  UNL d   1       5.972   3.404   2.869  0.00  0.00    -0.073 A 
ATOM      7  C8  UNL d   1       5.960   2.050   2.213  0.00  0.00     0.078 C 
ENDROOT
BRANCH   1   8
ATOM      8  C1  UNL d   1       5.890   4.607   0.610  0.00  0.00     0.053 C 
ATOM      9  C   UNL d   1       5.570   5.982   0.044  0.00  0.00     0.018 C 
ENDBRANCH   1   8
TORSDOF 1
ENDMDL
