MODEL 1
REMARK minimizedAffinity 6.46322966
REMARK minimizedRMSD -1
REMARK  1 active torsions:
REMARK  status: ('A' for Active; 'I' for Inactive)
REMARK    1  A    between atoms: C1_2  and  C2_3 
ROOT
ATOM      1  C2  UNL d   1       1.120   0.242  -0.973  0.00  0.00    -0.076 A 
ATOM      2  C3  UNL d   1       0.378  -0.887  -1.361  0.00  0.00     0.004 A 
ATOM      3  C4  UNL d   1      -0.565  -1.454  -0.506  0.00  0.00    -0.003 A 
ATOM      4  C5  UNL d   1      -0.783  -0.902   0.751  0.00  0.00     0.000 A 
ATOM      5  C6  UNL d   1      -0.068   0.228   1.146  0.00  0.00     0.000 A 
ATOM      6  C7  UNL d   1       0.875   0.823   0.290  0.00  0.00    -0.073 A 
ATOM      7  C8  UNL d   1       1.621   2.037   0.770  0.00  0.00     0.078 C 
ENDROOT
BRANCH   1   8
ATOM      8  C1  UNL d   1       2.149   0.798  -1.931  0.00  0.00     0.053 C 
ATOM      9  C   UNL d   1       1.845   0.447  -3.380  0.00  0.00     0.018 C 
ENDBRANCH   1   8
TORSDOF 1
ENDMDL
