MODEL 1
REMARK minimizedAffinity 9.37623882
REMARK minimizedRMSD -1
REMARK  1 active torsions:
REMARK  status: ('A' for Active; 'I' for Inactive)
REMARK    1  A    between atoms: C1_2  and  C2_3 
ROOT
ATOM      1  C2  UNL d   1       5.290   3.309   2.373  0.00  0.00    -0.076 A 
ATOM      2  C3  UNL d   1       5.300   4.253   1.331  0.00  0.00     0.004 A 
ATOM      3  C4  UNL d   1       5.642   5.583   1.570  0.00  0.00    -0.003 A 
ATOM      4  C5  UNL d   1       5.981   5.991   2.855  0.00  0.00     0.000 A 
ATOM      5  C6  UNL d   1       5.994   5.064   3.898  0.00  0.00     0.000 A 
ATOM      6  C7  UNL d   1       5.667   3.717   3.671  0.00  0.00    -0.073 A 
ATOM      7  C8  UNL d   1       5.692   2.762   4.833  0.00  0.00     0.078 C 
ENDROOT
BRANCH   1   8
ATOM      8  C1  UNL d   1       4.884   1.887   2.059  0.00  0.00     0.053 C 
ATOM      9  C   UNL d   1       3.570   1.811   1.296  0.00  0.00     0.018 C 
ENDBRANCH   1   8
TORSDOF 1
ENDMDL
