MODEL 1
REMARK minimizedAffinity 6.71078014
REMARK minimizedRMSD -1
REMARK  1 active torsions:
REMARK  status: ('A' for Active; 'I' for Inactive)
REMARK    1  A    between atoms: C1_2  and  C2_3 
ROOT
ATOM      1  C2  UNL d   1       4.834   3.469  -2.020  0.00  0.00    -0.076 A 
ATOM      2  C3  UNL d   1       4.407   2.249  -1.469  0.00  0.00     0.004 A 
ATOM      3  C4  UNL d   1       3.354   2.202  -0.558  0.00  0.00    -0.003 A 
ATOM      4  C5  UNL d   1       2.708   3.376  -0.184  0.00  0.00     0.000 A 
ATOM      5  C6  UNL d   1       3.106   4.594  -0.735  0.00  0.00     0.000 A 
ATOM      6  C7  UNL d   1       4.156   4.656  -1.667  0.00  0.00    -0.073 A 
ATOM      7  C8  UNL d   1       4.548   5.997  -2.225  0.00  0.00     0.078 C 
ENDROOT
BRANCH   1   8
ATOM      8  C1  UNL d   1       6.000   3.461  -2.983  0.00  0.00     0.053 C 
ATOM      9  C   UNL d   1       5.560   3.294  -4.429  0.00  0.00     0.018 C 
ENDBRANCH   1   8
TORSDOF 1
ENDMDL
