MODEL 1
REMARK minimizedAffinity 11.5227938
REMARK minimizedRMSD -1
REMARK  1 active torsions:
REMARK  status: ('A' for Active; 'I' for Inactive)
REMARK    1  A    between atoms: C1_2  and  C2_3 
ROOT
ATOM      1  C2  UNL d   1       5.932   4.274   3.154  0.00  0.00    -0.076 A 
ATOM      2  C3  UNL d   1       5.925   5.625   2.766  0.00  0.00     0.004 A 
ATOM      3  C4  UNL d   1       5.945   5.985   1.420  0.00  0.00    -0.003 A 
ATOM      4  C5  UNL d   1       5.972   4.999   0.439  0.00  0.00     0.000 A 
ATOM      5  C6  UNL d   1       5.961   3.654   0.806  0.00  0.00     0.000 A 
ATOM      6  C7  UNL d   1       5.925   3.274   2.158  0.00  0.00    -0.073 A 
ATOM      7  C8  UNL d   1       5.921   1.808   2.497  0.00  0.00     0.078 C 
ENDROOT
BRANCH   1   8
ATOM      8  C1  UNL d   1       5.938   3.944   4.630  0.00  0.00     0.053 C 
ATOM      9  C   UNL d   1       5.892   5.187   5.505  0.00  0.00     0.018 C 
ENDBRANCH   1   8
TORSDOF 1
ENDMDL
