MODEL 1
REMARK minimizedAffinity 4.50511503
REMARK minimizedRMSD -1
REMARK  1 active torsions:
REMARK  status: ('A' for Active; 'I' for Inactive)
REMARK    1  A    between atoms: C1_2  and  C2_3 
ROOT
ATOM      1  C2  UNL d   1      -1.406  -2.867   0.388  0.00  0.00    -0.076 A 
ATOM      2  C3  UNL d   1      -0.628  -3.951   0.829  0.00  0.00     0.004 A 
ATOM      3  C4  UNL d   1      -1.177  -5.227   0.949  0.00  0.00    -0.003 A 
ATOM      4  C5  UNL d   1      -2.513  -5.439   0.629  0.00  0.00     0.000 A 
ATOM      5  C6  UNL d   1      -3.295  -4.379   0.173  0.00  0.00     0.000 A 
ATOM      6  C7  UNL d   1      -2.753  -3.090   0.031  0.00  0.00    -0.073 A 
ATOM      7  C8  UNL d   1      -3.644  -1.982  -0.459  0.00  0.00     0.078 C 
ENDROOT
BRANCH   1   8
ATOM      8  C1  UNL d   1      -0.763  -1.501   0.304  0.00  0.00     0.053 C 
ATOM      9  C   UNL d   1      -0.359  -1.134  -1.115  0.00  0.00     0.018 C 
ENDBRANCH   1   8
TORSDOF 1
ENDMDL
