MODEL 1
REMARK minimizedAffinity 3.81978273
REMARK minimizedRMSD -1
REMARK  1 active torsions:
REMARK  status: ('A' for Active; 'I' for Inactive)
REMARK    1  A    between atoms: C1_2  and  C2_3 
ROOT
ATOM      1  C2  UNL d   1       5.903   3.564   3.801  0.00  0.00    -0.076 A 
ATOM      2  C3  UNL d   1       5.900   4.807   3.145  0.00  0.00     0.004 A 
ATOM      3  C4  UNL d   1       5.935   5.999   3.865  0.00  0.00    -0.003 A 
ATOM      4  C5  UNL d   1       5.976   5.968   5.255  0.00  0.00     0.000 A 
ATOM      5  C6  UNL d   1       5.997   4.744   5.922  0.00  0.00     0.000 A 
ATOM      6  C7  UNL d   1       5.978   3.532   5.210  0.00  0.00    -0.073 A 
ATOM      7  C8  UNL d   1       5.997   2.241   5.981  0.00  0.00     0.078 C 
ENDROOT
BRANCH   1   8
ATOM      8  C1  UNL d   1       5.836   2.304   2.968  0.00  0.00     0.053 C 
ATOM      9  C   UNL d   1       4.411   1.933   2.587  0.00  0.00     0.018 C 
ENDBRANCH   1   8
TORSDOF 1
ENDMDL
