MODEL 1
REMARK minimizedAffinity 10.8356562
REMARK minimizedRMSD -1
REMARK  1 active torsions:
REMARK  status: ('A' for Active; 'I' for Inactive)
REMARK    1  A    between atoms: C1_2  and  C2_3 
ROOT
ATOM      1  C2  UNL d   1       3.779   0.996   2.729  0.00  0.00    -0.076 A 
ATOM      2  C3  UNL d   1       5.098   1.472   2.625  0.00  0.00     0.004 A 
ATOM      3  C4  UNL d   1       6.000   1.324   3.677  0.00  0.00    -0.003 A 
ATOM      4  C5  UNL d   1       5.598   0.696   4.851  0.00  0.00     0.000 A 
ATOM      5  C6  UNL d   1       4.299   0.203   4.966  0.00  0.00     0.000 A 
ATOM      6  C7  UNL d   1       3.382   0.329   3.908  0.00  0.00    -0.073 A 
ATOM      7  C8  UNL d   1       1.992  -0.216   4.089  0.00  0.00     0.078 C 
ENDROOT
BRANCH   1   8
ATOM      8  C1  UNL d   1       2.838   1.210   1.566  0.00  0.00     0.053 C 
ATOM      9  C   UNL d   1       3.433   0.753   0.243  0.00  0.00     0.018 C 
ENDBRANCH   1   8
TORSDOF 1
ENDMDL
