MODEL 1
REMARK minimizedAffinity 13.0644588
REMARK minimizedRMSD -1
REMARK  1 active torsions:
REMARK  status: ('A' for Active; 'I' for Inactive)
REMARK    1  A    between atoms: C1_2  and  C2_3 
ROOT
ATOM      1  C2  UNL d   1       3.959   1.727  -3.664  0.00  0.00    -0.076 A 
ATOM      2  C3  UNL d   1       5.351   1.916  -3.685  0.00  0.00     0.004 A 
ATOM      3  C4  UNL d   1       6.000   2.345  -4.841  0.00  0.00    -0.003 A 
ATOM      4  C5  UNL d   1       5.266   2.594  -5.996  0.00  0.00     0.000 A 
ATOM      5  C6  UNL d   1       3.881   2.428  -5.988  0.00  0.00     0.000 A 
ATOM      6  C7  UNL d   1       3.210   2.011  -4.826  0.00  0.00    -0.073 A 
ATOM      7  C8  UNL d   1       1.716   1.844  -4.877  0.00  0.00     0.078 C 
ENDROOT
BRANCH   1   8
ATOM      8  C1  UNL d   1       3.314   1.233  -2.389  0.00  0.00     0.053 C 
ATOM      9  C   UNL d   1       2.366   0.068  -2.629  0.00  0.00     0.018 C 
ENDBRANCH   1   8
TORSDOF 1
ENDMDL
