MODEL 1
REMARK minimizedAffinity 3.36859727
REMARK minimizedRMSD -1
REMARK  1 active torsions:
REMARK  status: ('A' for Active; 'I' for Inactive)
REMARK    1  A    between atoms: C1_2  and  C2_3 
ROOT
ATOM      1  C2  UNL d   1       0.687   3.071   1.222  0.00  0.00    -0.076 A 
ATOM      2  C3  UNL d   1      -0.322   3.255   0.261  0.00  0.00     0.004 A 
ATOM      3  C4  UNL d   1      -1.445   4.032   0.539  0.00  0.00    -0.003 A 
ATOM      4  C5  UNL d   1      -1.578   4.637   1.784  0.00  0.00     0.000 A 
ATOM      5  C6  UNL d   1      -0.579   4.479   2.744  0.00  0.00     0.000 A 
ATOM      6  C7  UNL d   1       0.568   3.713   2.473  0.00  0.00    -0.073 A 
ATOM      7  C8  UNL d   1       1.612   3.572   3.547  0.00  0.00     0.078 C 
ENDROOT
BRANCH   1   8
ATOM      8  C1  UNL d   1       1.870   2.196   0.872  0.00  0.00     0.053 C 
ATOM      9  C   UNL d   1       1.466   0.759   0.582  0.00  0.00     0.018 C 
ENDBRANCH   1   8
TORSDOF 1
ENDMDL
