MODEL 1
REMARK minimizedAffinity 14.0589895
REMARK minimizedRMSD -1
REMARK  1 active torsions:
REMARK  status: ('A' for Active; 'I' for Inactive)
REMARK    1  A    between atoms: C1_2  and  C2_3 
ROOT
ATOM      1  C2  UNL d   1       0.158   1.180   0.991  0.00  0.00    -0.076 A 
ATOM      2  C3  UNL d   1       1.494   1.426   0.633  0.00  0.00     0.004 A 
ATOM      3  C4  UNL d   1       2.057   2.692   0.786  0.00  0.00    -0.003 A 
ATOM      4  C5  UNL d   1       1.291   3.733   1.301  0.00  0.00     0.000 A 
ATOM      5  C6  UNL d   1      -0.031   3.502   1.678  0.00  0.00     0.000 A 
ATOM      6  C7  UNL d   1      -0.608   2.227   1.546  0.00  0.00    -0.073 A 
ATOM      7  C8  UNL d   1      -2.041   2.037   1.963  0.00  0.00     0.078 C 
ENDROOT
BRANCH   1   8
ATOM      8  C1  UNL d   1      -0.406  -0.207   0.777  0.00  0.00     0.053 C 
ATOM      9  C   UNL d   1      -0.317  -0.654  -0.674  0.00  0.00     0.018 C 
ENDBRANCH   1   8
TORSDOF 1
ENDMDL
