MODEL 1
REMARK minimizedAffinity -2.81890607
REMARK minimizedRMSD -1
REMARK  0 active torsions:
REMARK  status: ('A' for Active; 'I' for Inactive)
ROOT
ATOM      1  C   UNL d   1       5.167   5.032  -4.717  0.00  0.00     0.020 A 
ATOM      2  C1  UNL d   1       4.703   5.957  -5.651  0.00  0.00     0.020 A 
ATOM      3  C2  UNL d   1       3.346   5.999  -5.977  0.00  0.00     0.034 A 
ATOM      4  C3  UNL d   1       2.448   5.114  -5.370  0.00  0.00     0.017 A 
ATOM      5  C4  UNL d   1       2.915   4.186  -4.432  0.00  0.00     0.017 A 
ATOM      6  C5  UNL d   1       4.275   4.148  -4.109  0.00  0.00     0.034 A 
ATOM      7 Cl   UNL d   1       1.868   3.062  -3.640  0.00  0.00    -0.070 Cl
ATOM      8 Cl1  UNL d   1       0.783   5.222  -5.821  0.00  0.00    -0.070 Cl
ENDROOT
TORSDOF 0
ENDMDL
