MODEL 1
REMARK minimizedAffinity -0.871978939
REMARK minimizedRMSD -1
REMARK  0 active torsions:
REMARK  status: ('A' for Active; 'I' for Inactive)
ROOT
ATOM      1  C   UNL d   1       5.441   5.793  -6.000  0.00  0.00     0.020 A 
ATOM      2  C1  UNL d   1       6.000   4.697  -5.344  0.00  0.00     0.020 A 
ATOM      3  C2  UNL d   1       5.178   3.805  -4.651  0.00  0.00     0.034 A 
ATOM      4  C3  UNL d   1       3.794   4.008  -4.613  0.00  0.00     0.017 A 
ATOM      5  C4  UNL d   1       3.234   5.108  -5.272  0.00  0.00     0.017 A 
ATOM      6  C5  UNL d   1       4.062   5.998  -5.964  0.00  0.00     0.034 A 
ATOM      7 Cl   UNL d   1       1.535   5.424  -5.270  0.00  0.00    -0.070 Cl
ATOM      8 Cl1  UNL d   1       2.839   2.864  -3.738  0.00  0.00    -0.070 Cl
ENDROOT
TORSDOF 0
ENDMDL
