MODEL 1
REMARK minimizedAffinity 1.24287808
REMARK minimizedRMSD -1
REMARK  0 active torsions:
REMARK  status: ('A' for Active; 'I' for Inactive)
ROOT
ATOM      1  C   UNL d   1       1.711   5.454  -5.834  0.00  0.00     0.020 A 
ATOM      2  C1  UNL d   1       2.983   6.000  -6.000  0.00  0.00     0.020 A 
ATOM      3  C2  UNL d   1       4.050   5.531  -5.231  0.00  0.00     0.034 A 
ATOM      4  C3  UNL d   1       3.847   4.513  -4.292  0.00  0.00     0.017 A 
ATOM      5  C4  UNL d   1       2.570   3.965  -4.126  0.00  0.00     0.017 A 
ATOM      6  C5  UNL d   1       1.505   4.439  -4.899  0.00  0.00     0.034 A 
ATOM      7 Cl   UNL d   1       2.241   2.707  -2.988  0.00  0.00    -0.070 Cl
ATOM      8 Cl1  UNL d   1       5.212   3.981  -3.375  0.00  0.00    -0.070 Cl
ENDROOT
TORSDOF 0
ENDMDL
