MODEL 1
REMARK minimizedAffinity 1.72030962
REMARK minimizedRMSD -1
REMARK  0 active torsions:
REMARK  status: ('A' for Active; 'I' for Inactive)
ROOT
ATOM      1  C   UNL d   1      -4.107   5.999  -4.079  0.00  0.00     0.020 A 
ATOM      2  C1  UNL d   1      -4.151   5.999  -2.686  0.00  0.00     0.020 A 
ATOM      3  C2  UNL d   1      -2.964   5.999  -1.950  0.00  0.00     0.034 A 
ATOM      4  C3  UNL d   1      -1.728   5.999  -2.607  0.00  0.00     0.017 A 
ATOM      5  C4  UNL d   1      -1.685   6.000  -4.006  0.00  0.00     0.017 A 
ATOM      6  C5  UNL d   1      -2.877   6.000  -4.738  0.00  0.00     0.034 A 
ATOM      7 Cl   UNL d   1      -0.198   6.000  -4.887  0.00  0.00    -0.070 Cl
ATOM      8 Cl1  UNL d   1      -0.301   6.000  -1.633  0.00  0.00    -0.070 Cl
ENDROOT
TORSDOF 0
ENDMDL
