MODEL 1
REMARK minimizedAffinity 2.26997948
REMARK minimizedRMSD -1
REMARK  0 active torsions:
REMARK  status: ('A' for Active; 'I' for Inactive)
ROOT
ATOM      1  C   UNL d   1      -0.492   5.998  -4.769  0.00  0.00     0.020 A 
ATOM      2  C1  UNL d   1      -0.120   6.000  -3.425  0.00  0.00     0.020 A 
ATOM      3  C2  UNL d   1      -1.100   5.999  -2.429  0.00  0.00     0.034 A 
ATOM      4  C3  UNL d   1      -2.456   5.997  -2.776  0.00  0.00     0.017 A 
ATOM      5  C4  UNL d   1      -2.828   5.996  -4.126  0.00  0.00     0.017 A 
ATOM      6  C5  UNL d   1      -1.843   5.996  -5.118  0.00  0.00     0.034 A 
ATOM      7 Cl   UNL d   1      -4.481   5.993  -4.631  0.00  0.00    -0.070 Cl
ATOM      8 Cl1  UNL d   1      -3.614   5.996  -1.494  0.00  0.00    -0.070 Cl
ENDROOT
TORSDOF 0
ENDMDL
