MODEL 1
REMARK minimizedAffinity 9.85495377
REMARK minimizedRMSD -1
REMARK  0 active torsions:
REMARK  status: ('A' for Active; 'I' for Inactive)
ROOT
ATOM      1  C   UNL d   1       2.052   5.594  -6.000  0.00  0.00     0.020 A 
ATOM      2  C1  UNL d   1       1.655   4.503  -5.228  0.00  0.00     0.020 A 
ATOM      3  C2  UNL d   1       2.593   3.816  -4.455  0.00  0.00     0.034 A 
ATOM      4  C3  UNL d   1       3.933   4.219  -4.452  0.00  0.00     0.017 A 
ATOM      5  C4  UNL d   1       4.331   5.314  -5.227  0.00  0.00     0.017 A 
ATOM      6  C5  UNL d   1       3.388   5.998  -5.999  0.00  0.00     0.034 A 
ATOM      7 Cl   UNL d   1       5.967   5.870  -5.275  0.00  0.00    -0.070 Cl
ATOM      8 Cl1  UNL d   1       5.039   3.323  -3.472  0.00  0.00    -0.070 Cl
ENDROOT
TORSDOF 0
ENDMDL
