MODEL 1
REMARK minimizedAffinity 2.52174282
REMARK minimizedRMSD -1
REMARK  0 active torsions:
REMARK  status: ('A' for Active; 'I' for Inactive)
ROOT
ATOM      1  C   UNL d   1       0.365   4.451  -4.514  0.00  0.00     0.020 A 
ATOM      2  C1  UNL d   1       0.431   5.537  -5.386  0.00  0.00     0.020 A 
ATOM      3  C2  UNL d   1       1.671   5.999  -5.832  0.00  0.00     0.034 A 
ATOM      4  C3  UNL d   1       2.849   5.375  -5.407  0.00  0.00     0.017 A 
ATOM      5  C4  UNL d   1       2.782   4.286  -4.531  0.00  0.00     0.017 A 
ATOM      6  C5  UNL d   1       1.538   3.827  -4.087  0.00  0.00     0.034 A 
ATOM      7 Cl   UNL d   1       4.192   3.465  -3.963  0.00  0.00    -0.070 Cl
ATOM      8 Cl1  UNL d   1       4.347   5.999  -5.999  0.00  0.00    -0.070 Cl
ENDROOT
TORSDOF 0
ENDMDL
