MODEL 1
REMARK minimizedAffinity 3.84740543
REMARK minimizedRMSD -1
REMARK  0 active torsions:
REMARK  status: ('A' for Active; 'I' for Inactive)
ROOT
ATOM      1  C   UNL d   1       0.815   3.351  -0.617  0.00  0.00     0.020 A 
ATOM      2  C1  UNL d   1       1.233   2.822  -1.837  0.00  0.00     0.020 A 
ATOM      3  C2  UNL d   1       1.639   1.488  -1.918  0.00  0.00     0.034 A 
ATOM      4  C3  UNL d   1       1.629   0.679  -0.775  0.00  0.00     0.017 A 
ATOM      5  C4  UNL d   1       1.209   1.211   0.449  0.00  0.00     0.017 A 
ATOM      6  C5  UNL d   1       0.803   2.547   0.523  0.00  0.00     0.034 A 
ATOM      7 Cl   UNL d   1       1.168   0.275   1.901  0.00  0.00    -0.070 Cl
ATOM      8 Cl1  UNL d   1       2.144  -0.961  -0.948  0.00  0.00    -0.070 Cl
ENDROOT
TORSDOF 0
ENDMDL
