MODEL 1
REMARK minimizedAffinity -2.48749924
REMARK minimizedRMSD -1
REMARK  0 active torsions:
REMARK  status: ('A' for Active; 'I' for Inactive)
ROOT
ATOM      1  C   UNL d   1       5.336   5.928  -5.993  0.00  0.00     0.020 A 
ATOM      2  C1  UNL d   1       6.000   4.979  -5.218  0.00  0.00     0.020 A 
ATOM      3  C2  UNL d   1       5.271   4.098  -4.416  0.00  0.00     0.034 A 
ATOM      4  C3  UNL d   1       3.873   4.166  -4.387  0.00  0.00     0.017 A 
ATOM      5  C4  UNL d   1       3.207   5.119  -5.166  0.00  0.00     0.017 A 
ATOM      6  C5  UNL d   1       3.942   5.999  -5.967  0.00  0.00     0.034 A 
ATOM      7 Cl   UNL d   1       1.485   5.263  -5.183  0.00  0.00    -0.070 Cl
ATOM      8 Cl1  UNL d   1       3.035   3.045  -3.373  0.00  0.00    -0.070 Cl
ENDROOT
TORSDOF 0
ENDMDL
