MODEL 1
REMARK minimizedAffinity -2.7084713
REMARK minimizedRMSD -1
REMARK  0 active torsions:
REMARK  status: ('A' for Active; 'I' for Inactive)
ROOT
ATOM      1  C   UNL d   1       1.569   5.998  -4.492  0.00  0.00     0.020 A 
ATOM      2  C1  UNL d   1       1.053   5.997  -5.787  0.00  0.00     0.020 A 
ATOM      3  C2  UNL d   1      -0.329   5.997  -5.988  0.00  0.00     0.034 A 
ATOM      4  C3  UNL d   1      -1.200   5.997  -4.892  0.00  0.00     0.017 A 
ATOM      5  C4  UNL d   1      -0.680   5.998  -3.592  0.00  0.00     0.017 A 
ATOM      6  C5  UNL d   1       0.704   5.999  -3.397  0.00  0.00     0.034 A 
ATOM      7 Cl   UNL d   1      -1.691   5.999  -2.190  0.00  0.00    -0.070 Cl
ATOM      8 Cl1  UNL d   1      -2.897   5.997  -5.214  0.00  0.00    -0.070 Cl
ENDROOT
TORSDOF 0
ENDMDL
