MODEL 1
REMARK minimizedAffinity 7.64434338
REMARK minimizedRMSD -1
REMARK  0 active torsions:
REMARK  status: ('A' for Active; 'I' for Inactive)
ROOT
ATOM      1  C   UNL d   1       1.500   5.506  -5.909  0.00  0.00     0.020 A 
ATOM      2  C1  UNL d   1       1.254   4.310  -5.236  0.00  0.00     0.020 A 
ATOM      3  C2  UNL d   1       2.311   3.607  -4.654  0.00  0.00     0.034 A 
ATOM      4  C3  UNL d   1       3.618   4.099  -4.743  0.00  0.00     0.017 A 
ATOM      5  C4  UNL d   1       3.864   5.300  -5.418  0.00  0.00     0.017 A 
ATOM      6  C5  UNL d   1       2.802   6.000  -6.000  0.00  0.00     0.034 A 
ATOM      7 Cl   UNL d   1       5.450   5.970  -5.570  0.00  0.00    -0.070 Cl
ATOM      8 Cl1  UNL d   1       4.876   3.177  -3.998  0.00  0.00    -0.070 Cl
ENDROOT
TORSDOF 0
ENDMDL
