MODEL 1
REMARK minimizedAffinity 2.16039109
REMARK minimizedRMSD -1
REMARK  0 active torsions:
REMARK  status: ('A' for Active; 'I' for Inactive)
ROOT
ATOM      1  C   UNL d   1       1.770   5.354  -6.000  0.00  0.00     0.020 A 
ATOM      2  C1  UNL d   1       1.567   4.097  -5.431  0.00  0.00     0.020 A 
ATOM      3  C2  UNL d   1       2.638   3.408  -4.858  0.00  0.00     0.034 A 
ATOM      4  C3  UNL d   1       3.918   3.975  -4.854  0.00  0.00     0.017 A 
ATOM      5  C4  UNL d   1       4.121   5.236  -5.426  0.00  0.00     0.017 A 
ATOM      6  C5  UNL d   1       3.045   5.922  -5.997  0.00  0.00     0.034 A 
ATOM      7 Cl   UNL d   1       5.671   6.000  -5.459  0.00  0.00    -0.070 Cl
ATOM      8 Cl1  UNL d   1       5.196   3.066  -4.129  0.00  0.00    -0.070 Cl
ENDROOT
TORSDOF 0
ENDMDL
