MODEL 1
REMARK minimizedAffinity 4.53606939
REMARK minimizedRMSD -1
REMARK  0 active torsions:
REMARK  status: ('A' for Active; 'I' for Inactive)
ROOT
ATOM      1  C   UNL d   1       1.090   4.216  -5.376  0.00  0.00     0.020 A 
ATOM      2  C1  UNL d   1       1.301   5.488  -5.906  0.00  0.00     0.020 A 
ATOM      3  C2  UNL d   1       2.596   6.000  -5.998  0.00  0.00     0.034 A 
ATOM      4  C3  UNL d   1       3.687   5.239  -5.560  0.00  0.00     0.017 A 
ATOM      5  C4  UNL d   1       3.474   3.962  -5.028  0.00  0.00     0.017 A 
ATOM      6  C5  UNL d   1       2.175   3.454  -4.938  0.00  0.00     0.034 A 
ATOM      7 Cl   UNL d   1       4.769   2.965  -4.467  0.00  0.00    -0.070 Cl
ATOM      8 Cl1  UNL d   1       5.262   5.935  -5.705  0.00  0.00    -0.070 Cl
ENDROOT
TORSDOF 0
ENDMDL
