MODEL 1
REMARK minimizedAffinity 4.37200022
REMARK minimizedRMSD -1
REMARK  0 active torsions:
REMARK  status: ('A' for Active; 'I' for Inactive)
ROOT
ATOM      1  C   UNL d   1       1.314   2.417   0.152  0.00  0.00     0.020 A 
ATOM      2  C1  UNL d   1       1.876   1.746   1.237  0.00  0.00     0.020 A 
ATOM      3  C2  UNL d   1       1.213   0.654   1.803  0.00  0.00     0.034 A 
ATOM      4  C3  UNL d   1      -0.016   0.231   1.283  0.00  0.00     0.017 A 
ATOM      5  C4  UNL d   1      -0.579   0.905   0.194  0.00  0.00     0.017 A 
ATOM      6  C5  UNL d   1       0.089   1.997  -0.369  0.00  0.00     0.034 A 
ATOM      7 Cl   UNL d   1      -2.092   0.442  -0.502  0.00  0.00    -0.070 Cl
ATOM      8 Cl1  UNL d   1      -0.780  -1.126   2.032  0.00  0.00    -0.070 Cl
ENDROOT
TORSDOF 0
ENDMDL
