MODEL 1
REMARK minimizedAffinity 2.46555805
REMARK minimizedRMSD -1
REMARK  0 active torsions:
REMARK  status: ('A' for Active; 'I' for Inactive)
ROOT
ATOM      1  C   UNL d   1       2.655   1.598   1.276  0.00  0.00     0.020 A 
ATOM      2  C1  UNL d   1       1.850   0.493   1.547  0.00  0.00     0.020 A 
ATOM      3  C2  UNL d   1       0.488   0.528   1.240  0.00  0.00     0.034 A 
ATOM      4  C3  UNL d   1      -0.073   1.672   0.661  0.00  0.00     0.017 A 
ATOM      5  C4  UNL d   1       0.735   2.782   0.389  0.00  0.00     0.017 A 
ATOM      6  C5  UNL d   1       2.098   2.740   0.698  0.00  0.00     0.034 A 
ATOM      7 Cl   UNL d   1       0.115   4.229  -0.324  0.00  0.00    -0.070 Cl
ATOM      8 Cl1  UNL d   1      -1.765   1.647   0.308  0.00  0.00    -0.070 Cl
ENDROOT
TORSDOF 0
ENDMDL
