MODEL 1
REMARK minimizedAffinity 1.86466265
REMARK minimizedRMSD -1
REMARK  0 active torsions:
REMARK  status: ('A' for Active; 'I' for Inactive)
ROOT
ATOM      1  C   UNL d   1      -4.392   5.998  -2.704  0.00  0.00     0.020 A 
ATOM      2  C1  UNL d   1      -4.157   5.999  -4.078  0.00  0.00     0.020 A 
ATOM      3  C2  UNL d   1      -2.848   6.000  -4.563  0.00  0.00     0.034 A 
ATOM      4  C3  UNL d   1      -1.768   5.999  -3.672  0.00  0.00     0.017 A 
ATOM      5  C4  UNL d   1      -2.004   5.998  -2.293  0.00  0.00     0.017 A 
ATOM      6  C5  UNL d   1      -3.318   5.997  -1.813  0.00  0.00     0.034 A 
ATOM      7 Cl   UNL d   1      -0.723   5.997  -1.133  0.00  0.00    -0.070 Cl
ATOM      8 Cl1  UNL d   1      -0.175   5.999  -4.342  0.00  0.00    -0.070 Cl
ENDROOT
TORSDOF 0
ENDMDL
