MODEL 1
REMARK minimizedAffinity 2.07782388
REMARK minimizedRMSD -1
REMARK  0 active torsions:
REMARK  status: ('A' for Active; 'I' for Inactive)
ROOT
ATOM      1  C   UNL d   1       1.306   5.971  -4.474  0.00  0.00     0.020 A 
ATOM      2  C1  UNL d   1       0.403   5.968  -5.536  0.00  0.00     0.020 A 
ATOM      3  C2  UNL d   1      -0.971   5.975  -5.285  0.00  0.00     0.034 A 
ATOM      4  C3  UNL d   1      -1.445   5.985  -3.968  0.00  0.00     0.017 A 
ATOM      5  C4  UNL d   1      -0.538   5.988  -2.903  0.00  0.00     0.017 A 
ATOM      6  C5  UNL d   1       0.837   5.980  -3.160  0.00  0.00     0.034 A 
ATOM      7 Cl   UNL d   1      -1.047   5.999  -1.251  0.00  0.00    -0.070 Cl
ATOM      8 Cl1  UNL d   1      -3.157   5.994  -3.731  0.00  0.00    -0.070 Cl
ENDROOT
TORSDOF 0
ENDMDL
