MODEL 1
REMARK minimizedAffinity 2.56889272
REMARK minimizedRMSD -1
REMARK  0 active torsions:
REMARK  status: ('A' for Active; 'I' for Inactive)
ROOT
ATOM      1  C   UNL d   1       4.842   4.963  -5.224  0.00  0.00     0.020 A 
ATOM      2  C1  UNL d   1       4.196   5.930  -5.994  0.00  0.00     0.020 A 
ATOM      3  C2  UNL d   1       2.801   6.000  -6.000  0.00  0.00     0.034 A 
ATOM      4  C3  UNL d   1       2.048   5.102  -5.235  0.00  0.00     0.017 A 
ATOM      5  C4  UNL d   1       2.698   4.132  -4.463  0.00  0.00     0.017 A 
ATOM      6  C5  UNL d   1       4.094   4.066  -4.460  0.00  0.00     0.034 A 
ATOM      7 Cl   UNL d   1       1.836   2.989  -3.494  0.00  0.00    -0.070 Cl
ATOM      8 Cl1  UNL d   1       0.327   5.246  -5.290  0.00  0.00    -0.070 Cl
ENDROOT
TORSDOF 0
ENDMDL
