MODEL 1
REMARK minimizedAffinity 0.907924354
REMARK minimizedRMSD -1
REMARK  0 active torsions:
REMARK  status: ('A' for Active; 'I' for Inactive)
ROOT
ATOM      1  C   UNL d   1       1.775   4.976  -4.413  0.00  0.00     0.020 A 
ATOM      2  C1  UNL d   1       1.778   3.616  -4.104  0.00  0.00     0.020 A 
ATOM      3  C2  UNL d   1       2.978   2.971  -3.800  0.00  0.00     0.034 A 
ATOM      4  C3  UNL d   1       4.182   3.686  -3.804  0.00  0.00     0.017 A 
ATOM      5  C4  UNL d   1       4.178   5.051  -4.114  0.00  0.00     0.017 A 
ATOM      6  C5  UNL d   1       2.973   5.692  -4.418  0.00  0.00     0.034 A 
ATOM      7 Cl   UNL d   1       5.623   5.999  -4.139  0.00  0.00    -0.070 Cl
ATOM      8 Cl1  UNL d   1       5.629   2.825  -3.418  0.00  0.00    -0.070 Cl
ENDROOT
TORSDOF 0
ENDMDL
