MODEL 1
REMARK minimizedAffinity -4.68725109
REMARK minimizedRMSD -1
REMARK  0 active torsions:
REMARK  status: ('A' for Active; 'I' for Inactive)
ROOT
ATOM      1  C1  DEN d   1       0.516  -2.348   0.420  0.00  0.00     0.130 A 
ATOM      2  C2  DEN d   1      -0.404  -2.967   1.370  0.00  0.00    -0.031 A 
ATOM      3  C3  DEN d   1      -1.341  -1.928   1.842  0.00  0.00     0.027 A 
ATOM      4  C4  DEN d   1      -1.458   0.566   1.194  0.00  0.00     0.027 A 
ATOM      5  C5  DEN d   1      -0.878   1.556   0.433  0.00  0.00    -0.003 A 
ATOM      6  C6  DEN d   1       0.219   1.324  -0.354  0.00  0.00     0.001 A 
ATOM      7  C7  DEN d   1       0.744   0.061  -0.432  0.00  0.00     0.017 A 
ATOM      8  C8  DEN d   1       0.169  -0.941   0.339  0.00  0.00    -0.094 A 
ATOM      9  C9  DEN d   1      -0.947  -0.689   1.119  0.00  0.00    -0.072 A 
ENDROOT
TORSDOF 0
ENDMDL
