MODEL 1
REMARK minimizedAffinity -4.50845671
REMARK minimizedRMSD -1
REMARK  0 active torsions:
REMARK  status: ('A' for Active; 'I' for Inactive)
ROOT
ATOM      1  C1  DEN d   1       0.647   0.222  -1.214  0.00  0.00     0.130 A 
ATOM      2  C2  DEN d   1      -0.201   1.241  -0.603  0.00  0.00    -0.031 A 
ATOM      3  C3  DEN d   1      -0.946   0.610   0.506  0.00  0.00     0.027 A 
ATOM      4  C4  DEN d   1      -0.863  -1.831   1.333  0.00  0.00     0.027 A 
ATOM      5  C5  DEN d   1      -0.300  -3.070   1.121  0.00  0.00    -0.003 A 
ATOM      6  C6  DEN d   1       0.585  -3.305   0.102  0.00  0.00     0.001 A 
ATOM      7  C7  DEN d   1       0.968  -2.274  -0.715  0.00  0.00     0.017 A 
ATOM      8  C8  DEN d   1       0.399  -1.024  -0.512  0.00  0.00    -0.094 A 
ATOM      9  C9  DEN d   1      -0.485  -0.804   0.531  0.00  0.00    -0.072 A 
ENDROOT
TORSDOF 0
ENDMDL
