MODEL 1
REMARK minimizedAffinity -4.83090687
REMARK minimizedRMSD -1
REMARK  0 active torsions:
REMARK  status: ('A' for Active; 'I' for Inactive)
ROOT
ATOM      1  C1  DEN d   1       0.884  -2.262  -0.951  0.00  0.00     0.130 A 
ATOM      2  C2  DEN d   1       0.423  -3.385  -0.139  0.00  0.00    -0.031 A 
ATOM      3  C3  DEN d   1      -0.343  -2.841   1.000  0.00  0.00     0.027 A 
ATOM      4  C4  DEN d   1      -0.861  -0.382   1.581  0.00  0.00     0.027 A 
ATOM      5  C5  DEN d   1      -0.672   0.927   1.194  0.00  0.00    -0.003 A 
ATOM      6  C6  DEN d   1       0.071   1.263   0.093  0.00  0.00     0.001 A 
ATOM      7  C7  DEN d   1       0.616   0.276  -0.685  0.00  0.00     0.017 A 
ATOM      8  C8  DEN d   1       0.436  -1.046  -0.298  0.00  0.00    -0.094 A 
ATOM      9  C9  DEN d   1      -0.329  -1.365   0.811  0.00  0.00    -0.072 A 
ENDROOT
TORSDOF 0
ENDMDL
