MODEL 1
REMARK minimizedAffinity 0.254648626
REMARK minimizedRMSD -1
REMARK  0 active torsions:
REMARK  status: ('A' for Active; 'I' for Inactive)
ROOT
ATOM      1  C1  DEN d   1      -0.096  -1.667  -2.297  0.00  0.00     0.130 A 
ATOM      2  C2  DEN d   1      -0.518  -3.005  -2.702  0.00  0.00    -0.031 A 
ATOM      3  C3  DEN d   1      -1.192  -3.639  -1.552  0.00  0.00     0.027 A 
ATOM      4  C4  DEN d   1      -1.627  -2.682   0.804  0.00  0.00     0.027 A 
ATOM      5  C5  DEN d   1      -1.443  -1.590   1.623  0.00  0.00    -0.003 A 
ATOM      6  C6  DEN d   1      -0.774  -0.470   1.207  0.00  0.00     0.001 A 
ATOM      7  C7  DEN d   1      -0.302  -0.398  -0.077  0.00  0.00     0.017 A 
ATOM      8  C8  DEN d   1      -0.477  -1.498  -0.906  0.00  0.00    -0.094 A 
ATOM      9  C9  DEN d   1      -1.167  -2.616  -0.472  0.00  0.00    -0.072 A 
ENDROOT
TORSDOF 0
ENDMDL
