MODEL 1
REMARK minimizedAffinity 0.770633996
REMARK minimizedRMSD -1
REMARK  0 active torsions:
REMARK  status: ('A' for Active; 'I' for Inactive)
ROOT
ATOM      1  C1  DEN d   1      -1.126  -2.471   0.550  0.00  0.00     0.130 A 
ATOM      2  C2  DEN d   1      -2.094  -2.013   1.543  0.00  0.00    -0.031 A 
ATOM      3  C3  DEN d   1      -2.063  -0.537   1.565  0.00  0.00     0.027 A 
ATOM      4  C4  DEN d   1      -0.621   1.077   0.162  0.00  0.00     0.027 A 
ATOM      5  C5  DEN d   1       0.357   1.156  -0.805  0.00  0.00    -0.003 A 
ATOM      6  C6  DEN d   1       0.928   0.042  -1.359  0.00  0.00     0.001 A 
ATOM      7  C7  DEN d   1       0.494  -1.202  -0.983  0.00  0.00     0.017 A 
ATOM      8  C8  DEN d   1      -0.486  -1.291  -0.003  0.00  0.00    -0.094 A 
ATOM      9  C9  DEN d   1      -1.060  -0.152   0.537  0.00  0.00    -0.072 A 
ENDROOT
TORSDOF 0
ENDMDL
