MODEL 1
REMARK minimizedAffinity -3.19292498
REMARK minimizedRMSD -1
REMARK  0 active torsions:
REMARK  status: ('A' for Active; 'I' for Inactive)
ROOT
ATOM      1  C1  DEN d   1       1.905   0.320  -1.579  0.00  0.00     0.130 A 
ATOM      2  C2  DEN d   1       0.588  -0.259  -1.832  0.00  0.00    -0.031 A 
ATOM      3  C3  DEN d   1      -0.422   0.607  -1.193  0.00  0.00     0.027 A 
ATOM      4  C4  DEN d   1      -0.078   2.780   0.154  0.00  0.00     0.027 A 
ATOM      5  C5  DEN d   1       0.861   3.660   0.645  0.00  0.00    -0.003 A 
ATOM      6  C6  DEN d   1       2.205   3.471   0.459  0.00  0.00     0.001 A 
ATOM      7  C7  DEN d   1       2.646   2.401  -0.274  0.00  0.00     0.017 A 
ATOM      8  C8  DEN d   1       1.705   1.506  -0.766  0.00  0.00    -0.094 A 
ATOM      9  C9  DEN d   1       0.350   1.720  -0.577  0.00  0.00    -0.072 A 
ENDROOT
TORSDOF 0
ENDMDL
