MODEL 1
REMARK minimizedAffinity -4.68567801
REMARK minimizedRMSD -1
REMARK  0 active torsions:
REMARK  status: ('A' for Active; 'I' for Inactive)
ROOT
ATOM      1  C1  DEN d   1      -0.395   0.343   0.590  0.00  0.00     0.130 A 
ATOM      2  C2  DEN d   1      -0.035   1.271  -0.478  0.00  0.00    -0.031 A 
ATOM      3  C3  DEN d   1       0.391   0.478  -1.648  0.00  0.00     0.027 A 
ATOM      4  C4  DEN d   1       0.522  -2.084  -1.911  0.00  0.00     0.027 A 
ATOM      5  C5  DEN d   1       0.330  -3.289  -1.272  0.00  0.00    -0.003 A 
ATOM      6  C6  DEN d   1      -0.082  -3.367   0.032  0.00  0.00     0.001 A 
ATOM      7  C7  DEN d   1      -0.359  -2.219   0.726  0.00  0.00     0.017 A 
ATOM      8  C8  DEN d   1      -0.160  -1.000   0.091  0.00  0.00    -0.094 A 
ATOM      9  C9  DEN d   1       0.246  -0.943  -1.231  0.00  0.00    -0.072 A 
ENDROOT
TORSDOF 0
ENDMDL
