MODEL 1
REMARK minimizedAffinity -4.29761028
REMARK minimizedRMSD -1
REMARK  0 active torsions:
REMARK  status: ('A' for Active; 'I' for Inactive)
ROOT
ATOM      1  C1  DEN d   1      -0.290   0.688  -0.441  0.00  0.00     0.130 A 
ATOM      2  C2  DEN d   1       0.046  -0.545   0.265  0.00  0.00    -0.031 A 
ATOM      3  C3  DEN d   1       1.213  -0.273   1.129  0.00  0.00     0.027 A 
ATOM      4  C4  DEN d   1       2.520   1.928   1.444  0.00  0.00     0.027 A 
ATOM      5  C5  DEN d   1       2.614   3.244   1.049  0.00  0.00    -0.003 A 
ATOM      6  C6  DEN d   1       1.775   3.787   0.112  0.00  0.00     0.001 A 
ATOM      7  C7  DEN d   1       0.776   3.022  -0.429  0.00  0.00     0.017 A 
ATOM      8  C8  DEN d   1       0.679   1.693  -0.040  0.00  0.00    -0.094 A 
ATOM      9  C9  DEN d   1       1.529   1.166   0.917  0.00  0.00    -0.072 A 
ENDROOT
TORSDOF 0
ENDMDL
