MODEL 1
REMARK minimizedAffinity -4.12873411
REMARK minimizedRMSD -1
REMARK  0 active torsions:
REMARK  status: ('A' for Active; 'I' for Inactive)
ROOT
ATOM      1  C1  DEN d   1      -1.905  -0.460   1.524  0.00  0.00     0.130 A 
ATOM      2  C2  DEN d   1      -2.083  -1.908   1.596  0.00  0.00    -0.031 A 
ATOM      3  C3  DEN d   1      -1.161  -2.530   0.625  0.00  0.00     0.027 A 
ATOM      4  C4  DEN d   1       0.520  -1.398  -0.971  0.00  0.00     0.027 A 
ATOM      5  C5  DEN d   1       1.021  -0.189  -1.401  0.00  0.00    -0.003 A 
ATOM      6  C6  DEN d   1       0.562   1.006  -0.914  0.00  0.00     0.001 A 
ATOM      7  C7  DEN d   1      -0.397   1.017   0.065  0.00  0.00     0.017 A 
ATOM      8  C8  DEN d   1      -0.912  -0.198   0.498  0.00  0.00    -0.094 A 
ATOM      9  C9  DEN d   1      -0.426  -1.396   0.002  0.00  0.00    -0.072 A 
ENDROOT
TORSDOF 0
ENDMDL
