MODEL 1
REMARK minimizedAffinity -5.47004509
REMARK minimizedRMSD -1
REMARK  0 active torsions:
REMARK  status: ('A' for Active; 'I' for Inactive)
ROOT
ATOM      1  C1  DEN d   1      -0.742  -1.544   1.196  0.00  0.00     0.130 A 
ATOM      2  C2  DEN d   1      -0.780  -3.004   1.201  0.00  0.00    -0.031 A 
ATOM      3  C3  DEN d   1      -0.318  -3.478  -0.118  0.00  0.00     0.027 A 
ATOM      4  C4  DEN d   1       0.455  -2.100  -2.158  0.00  0.00     0.027 A 
ATOM      5  C5  DEN d   1       0.650  -0.826  -2.643  0.00  0.00    -0.003 A 
ATOM      6  C6  DEN d   1       0.365   0.289  -1.901  0.00  0.00     0.001 A 
ATOM      7  C7  DEN d   1      -0.089   0.152  -0.616  0.00  0.00     0.017 A 
ATOM      8  C8  DEN d   1      -0.295  -1.129  -0.122  0.00  0.00    -0.094 A 
ATOM      9  C9  DEN d   1       0.011  -2.245  -0.883  0.00  0.00    -0.072 A 
ENDROOT
TORSDOF 0
ENDMDL
