MODEL 1
REMARK minimizedAffinity -3.90917587
REMARK minimizedRMSD -1
REMARK  0 active torsions:
REMARK  status: ('A' for Active; 'I' for Inactive)
ROOT
ATOM      1  C1  DEN d   1       0.811   0.237  -1.066  0.00  0.00     0.130 A 
ATOM      2  C2  DEN d   1       0.445   1.551  -0.544  0.00  0.00    -0.031 A 
ATOM      3  C3  DEN d   1      -0.457   1.349   0.608  0.00  0.00     0.027 A 
ATOM      4  C4  DEN d   1      -1.314  -0.858   1.631  0.00  0.00     0.027 A 
ATOM      5  C5  DEN d   1      -1.286  -2.231   1.522  0.00  0.00    -0.003 A 
ATOM      6  C6  DEN d   1      -0.590  -2.871   0.531  0.00  0.00     0.001 A 
ATOM      7  C7  DEN d   1       0.143  -2.139  -0.365  0.00  0.00     0.017 A 
ATOM      8  C8  DEN d   1       0.114  -0.754  -0.266  0.00  0.00    -0.094 A 
ATOM      9  C9  DEN d   1      -0.586  -0.126   0.750  0.00  0.00    -0.072 A 
ENDROOT
TORSDOF 0
ENDMDL
