MODEL 1
REMARK minimizedAffinity -3.37101483
REMARK minimizedRMSD -1
REMARK  0 active torsions:
REMARK  status: ('A' for Active; 'I' for Inactive)
ROOT
ATOM      1  C1  DEN d   1      -0.747  -3.072  -1.865  0.00  0.00     0.130 A 
ATOM      2  C2  DEN d   1      -0.351  -2.271  -3.020  0.00  0.00    -0.031 A 
ATOM      3  C3  DEN d   1      -0.018  -0.914  -2.543  0.00  0.00     0.027 A 
ATOM      4  C4  DEN d   1      -0.073   0.019  -0.139  0.00  0.00     0.027 A 
ATOM      5  C5  DEN d   1      -0.356  -0.281   1.175  0.00  0.00    -0.003 A 
ATOM      6  C6  DEN d   1      -0.817  -1.512   1.560  0.00  0.00     0.001 A 
ATOM      7  C7  DEN d   1      -0.967  -2.503   0.627  0.00  0.00     0.017 A 
ATOM      8  C8  DEN d   1      -0.691  -2.206  -0.701  0.00  0.00    -0.094 A 
ATOM      9  C9  DEN d   1      -0.214  -0.960  -1.069  0.00  0.00    -0.072 A 
ENDROOT
TORSDOF 0
ENDMDL
