MODEL 1
REMARK minimizedAffinity -0.203778192
REMARK minimizedRMSD -1
REMARK  0 active torsions:
REMARK  status: ('A' for Active; 'I' for Inactive)
ROOT
ATOM      1  C1  DEN d   1       0.010   0.700   0.793  0.00  0.00     0.130 A 
ATOM      2  C2  DEN d   1      -0.478   0.504  -0.570  0.00  0.00    -0.031 A 
ATOM      3  C3  DEN d   1       0.182   1.499  -1.438  0.00  0.00     0.027 A 
ATOM      4  C4  DEN d   1       1.905   3.313  -0.810  0.00  0.00     0.027 A 
ATOM      5  C5  DEN d   1       2.617   3.874   0.227  0.00  0.00    -0.003 A 
ATOM      6  C6  DEN d   1       2.486   3.442   1.520  0.00  0.00     0.001 A 
ATOM      7  C7  DEN d   1       1.656   2.389   1.804  0.00  0.00     0.017 A 
ATOM      8  C8  DEN d   1       0.929   1.824   0.764  0.00  0.00    -0.094 A 
ATOM      9  C9  DEN d   1       1.084   2.267  -0.538  0.00  0.00    -0.072 A 
ENDROOT
TORSDOF 0
ENDMDL
