MODEL 1
REMARK minimizedAffinity 7.81121635
REMARK minimizedRMSD -1
REMARK  0 active torsions:
REMARK  status: ('A' for Active; 'I' for Inactive)
ROOT
ATOM      1  C1  DEN d   1       2.015   3.172   2.183  0.00  0.00     0.130 A 
ATOM      2  C2  DEN d   1       1.903   2.248   1.057  0.00  0.00    -0.031 A 
ATOM      3  C3  DEN d   1       0.596   2.475   0.409  0.00  0.00     0.027 A 
ATOM      4  C4  DEN d   1      -1.253   4.162   1.031  0.00  0.00     0.027 A 
ATOM      5  C5  DEN d   1      -1.618   5.151   1.918  0.00  0.00    -0.003 A 
ATOM      6  C6  DEN d   1      -0.819   5.523   2.966  0.00  0.00     0.001 A 
ATOM      7  C7  DEN d   1       0.407   4.933   3.128  0.00  0.00     0.017 A 
ATOM      8  C8  DEN d   1       0.778   3.930   2.243  0.00  0.00    -0.094 A 
ATOM      9  C9  DEN d   1      -0.038   3.577   1.182  0.00  0.00    -0.072 A 
ENDROOT
TORSDOF 0
ENDMDL
