MODEL 1
REMARK minimizedAffinity 2.01977277
REMARK minimizedRMSD -1
REMARK  0 active torsions:
REMARK  status: ('A' for Active; 'I' for Inactive)
ROOT
ATOM      1  C   UNL d   1       1.266  -2.473   4.381  0.00  0.00     0.172 C 
ATOM      2  N   UNL d   1       0.953  -1.462   3.399  0.00  0.00    -0.070 N 
ATOM      3  C1  UNL d   1      -0.284  -1.229   2.859  0.00  0.00    -0.004 A 
ATOM      4  C2  UNL d   1      -0.165  -0.187   1.966  0.00  0.00    -0.047 A 
ATOM      5  C3  UNL d   1       1.190   0.221   1.968  0.00  0.00    -0.047 A 
ATOM      6  C4  UNL d   1       1.860  -0.585   2.864  0.00  0.00    -0.004 A 
ENDROOT
TORSDOF 0
ENDMDL
