MODEL 1
REMARK minimizedAffinity -1.53432953
REMARK minimizedRMSD -1
REMARK  0 active torsions:
REMARK  status: ('A' for Active; 'I' for Inactive)
ROOT
ATOM      1  C   UNL d   1       1.103  -1.862   4.178  0.00  0.00     0.172 C 
ATOM      2  N   UNL d   1       0.590  -1.053   3.097  0.00  0.00    -0.070 N 
ATOM      3  C1  UNL d   1       1.284  -0.687   1.975  0.00  0.00    -0.004 A 
ATOM      4  C2  UNL d   1       0.447   0.078   1.192  0.00  0.00    -0.047 A 
ATOM      5  C3  UNL d   1      -0.793   0.176   1.867  0.00  0.00    -0.047 A 
ATOM      6  C4  UNL d   1      -0.677  -0.534   3.044  0.00  0.00    -0.004 A 
ENDROOT
TORSDOF 0
ENDMDL
