MODEL 1
REMARK minimizedAffinity -0.53595221
REMARK minimizedRMSD -1
REMARK  0 active torsions:
REMARK  status: ('A' for Active; 'I' for Inactive)
ROOT
ATOM      1  C   UNL d   1      -0.868   0.114   1.645  0.00  0.00     0.172 C 
ATOM      2  N   UNL d   1      -0.227  -0.842   2.516  0.00  0.00    -0.070 N 
ATOM      3  C1  UNL d   1       1.120  -0.938   2.742  0.00  0.00    -0.004 A 
ATOM      4  C2  UNL d   1       1.326  -1.971   3.631  0.00  0.00    -0.047 A 
ATOM      5  C3  UNL d   1       0.059  -2.515   3.949  0.00  0.00    -0.047 A 
ATOM      6  C4  UNL d   1      -0.884  -1.798   3.245  0.00  0.00    -0.004 A 
ENDROOT
TORSDOF 0
ENDMDL
