MODEL 1
REMARK minimizedAffinity -0.046663139
REMARK minimizedRMSD -1
REMARK  0 active torsions:
REMARK  status: ('A' for Active; 'I' for Inactive)
ROOT
ATOM      1  C   UNL d   1       1.085  -0.869   3.362  0.00  0.00     0.172 C 
ATOM      2  N   UNL d   1       0.086  -0.216   2.549  0.00  0.00    -0.070 N 
ATOM      3  C1  UNL d   1       0.184   1.045   2.025  0.00  0.00    -0.004 A 
ATOM      4  C2  UNL d   1      -0.970   1.297   1.313  0.00  0.00    -0.047 A 
ATOM      5  C3  UNL d   1      -1.789   0.148   1.414  0.00  0.00    -0.047 A 
ATOM      6  C4  UNL d   1      -1.111  -0.773   2.184  0.00  0.00    -0.004 A 
ENDROOT
TORSDOF 0
ENDMDL
