MODEL 1
REMARK minimizedAffinity 5.38909531
REMARK minimizedRMSD -1
REMARK  0 active torsions:
REMARK  status: ('A' for Active; 'I' for Inactive)
ROOT
ATOM      1  C   UNL d   1       0.365  -0.468   2.591  0.00  0.00     0.172 C 
ATOM      2  N   UNL d   1       0.934  -0.903   3.845  0.00  0.00    -0.070 N 
ATOM      3  C1  UNL d   1       1.689  -2.031   4.031  0.00  0.00    -0.004 A 
ATOM      4  C2  UNL d   1       2.040  -2.089   5.362  0.00  0.00    -0.047 A 
ATOM      5  C3  UNL d   1       1.476  -0.958   5.999  0.00  0.00    -0.047 A 
ATOM      6  C4  UNL d   1       0.797  -0.241   5.036  0.00  0.00    -0.004 A 
ENDROOT
TORSDOF 0
ENDMDL
