MODEL 1
REMARK minimizedAffinity -2.0493741
REMARK minimizedRMSD -1
REMARK  0 active torsions:
REMARK  status: ('A' for Active; 'I' for Inactive)
ROOT
ATOM      1  C   UNL d   1       1.085  -2.060   4.188  0.00  0.00     0.172 C 
ATOM      2  N   UNL d   1       0.702  -1.049   3.231  0.00  0.00    -0.070 N 
ATOM      3  C1  UNL d   1       1.522  -0.492   2.286  0.00  0.00    -0.004 A 
ATOM      4  C2  UNL d   1       0.782   0.427   1.573  0.00  0.00    -0.047 A 
ATOM      5  C3  UNL d   1      -0.528   0.423   2.109  0.00  0.00    -0.047 A 
ATOM      6  C4  UNL d   1      -0.550  -0.500   3.134  0.00  0.00    -0.004 A 
ENDROOT
TORSDOF 0
ENDMDL
