MODEL 1
REMARK minimizedAffinity 1.44801712
REMARK minimizedRMSD -1
REMARK  0 active torsions:
REMARK  status: ('A' for Active; 'I' for Inactive)
ROOT
ATOM      1  C   UNL d   1      -0.682   0.311   1.615  0.00  0.00     0.172 C 
ATOM      2  N   UNL d   1       0.248  -0.316   2.525  0.00  0.00    -0.070 N 
ATOM      3  C1  UNL d   1       1.263  -1.163   2.170  0.00  0.00    -0.004 A 
ATOM      4  C2  UNL d   1       1.918  -1.543   3.322  0.00  0.00    -0.047 A 
ATOM      5  C3  UNL d   1       1.273  -0.901   4.406  0.00  0.00    -0.047 A 
ATOM      6  C4  UNL d   1       0.243  -0.148   3.884  0.00  0.00    -0.004 A 
ENDROOT
TORSDOF 0
ENDMDL
