MODEL 1
REMARK minimizedAffinity -1.88892269
REMARK minimizedRMSD -1
REMARK  0 active torsions:
REMARK  status: ('A' for Active; 'I' for Inactive)
ROOT
ATOM      1  C   UNL d   1      -2.747  -1.112   3.078  0.00  0.00     0.172 C 
ATOM      2  N   UNL d   1      -1.338  -0.894   2.843  0.00  0.00    -0.070 N 
ATOM      3  C1  UNL d   1      -0.356  -0.927   3.796  0.00  0.00    -0.004 A 
ATOM      4  C2  UNL d   1       0.846  -0.671   3.172  0.00  0.00    -0.047 A 
ATOM      5  C3  UNL d   1       0.576  -0.477   1.797  0.00  0.00    -0.047 A 
ATOM      6  C4  UNL d   1      -0.784  -0.620   1.621  0.00  0.00    -0.004 A 
ENDROOT
TORSDOF 0
ENDMDL
