MODEL 1
REMARK minimizedAffinity -2.05714059
REMARK minimizedRMSD -1
REMARK  0 active torsions:
REMARK  status: ('A' for Active; 'I' for Inactive)
ROOT
ATOM      1  C   UNL d   1       1.111  -1.688   3.564  0.00  0.00     0.172 C 
ATOM      2  N   UNL d   1       0.367  -0.745   2.763  0.00  0.00    -0.070 N 
ATOM      3  C1  UNL d   1      -0.983  -0.779   2.537  0.00  0.00    -0.004 A 
ATOM      4  C2  UNL d   1      -1.303   0.289   1.728  0.00  0.00    -0.047 A 
ATOM      5  C3  UNL d   1      -0.104   0.989   1.457  0.00  0.00    -0.047 A 
ATOM      6  C4  UNL d   1       0.915   0.328   2.110  0.00  0.00    -0.004 A 
ENDROOT
TORSDOF 0
ENDMDL
