MODEL 1
REMARK minimizedAffinity -3.8517251
REMARK minimizedRMSD -1
REMARK  0 active torsions:
REMARK  status: ('A' for Active; 'I' for Inactive)
ROOT
ATOM      1  C   UNL d   1       2.944  -0.081   0.727  0.00  0.00     0.078 C 
ATOM      2  C1  UNL d   1       1.518   0.101   0.300  0.00  0.00    -0.077 A 
ATOM      3  C2  UNL d   1       0.615  -0.969   0.328  0.00  0.00    -0.001 A 
ATOM      4  C3  UNL d   1      -0.707  -0.787  -0.081  0.00  0.00     0.003 A 
ATOM      5  C4  UNL d   1      -1.138   0.462  -0.522  0.00  0.00    -0.005 A 
ATOM      6  C5  UNL d   1      -0.246   1.532  -0.555  0.00  0.00     0.003 A 
ATOM      7  C6  UNL d   1       1.076   1.353  -0.147  0.00  0.00    -0.001 A 
ENDROOT
TORSDOF 0
ENDMDL
