MODEL 1
REMARK minimizedAffinity -4.02350616
REMARK minimizedRMSD -1
REMARK  0 active torsions:
REMARK  status: ('A' for Active; 'I' for Inactive)
ROOT
ATOM      1  C   UNL d   1       2.914  -0.048   0.670  0.00  0.00     0.078 C 
ATOM      2  C1  UNL d   1       1.446   0.166   0.449  0.00  0.00    -0.077 A 
ATOM      3  C2  UNL d   1       0.940   1.436   0.147  0.00  0.00    -0.001 A 
ATOM      4  C3  UNL d   1      -0.430   1.622  -0.046  0.00  0.00     0.003 A 
ATOM      5  C4  UNL d   1      -1.305   0.542   0.061  0.00  0.00    -0.005 A 
ATOM      6  C5  UNL d   1      -0.810  -0.725   0.362  0.00  0.00     0.003 A 
ATOM      7  C6  UNL d   1       0.559  -0.913   0.556  0.00  0.00    -0.001 A 
ENDROOT
TORSDOF 0
ENDMDL
