MODEL 1
REMARK minimizedAffinity -5.47398663
REMARK minimizedRMSD -1
REMARK  0 active torsions:
REMARK  status: ('A' for Active; 'I' for Inactive)
ROOT
ATOM      1  C   UNL d   1       0.971  -2.933   2.452  0.00  0.00     0.078 C 
ATOM      2  C1  UNL d   1       1.469  -1.770   1.647  0.00  0.00    -0.077 A 
ATOM      3  C2  UNL d   1       0.610  -1.058   0.801  0.00  0.00    -0.001 A 
ATOM      4  C3  UNL d   1       1.090   0.016   0.050  0.00  0.00     0.003 A 
ATOM      5  C4  UNL d   1       2.430   0.388   0.137  0.00  0.00    -0.005 A 
ATOM      6  C5  UNL d   1       3.292  -0.316   0.975  0.00  0.00     0.003 A 
ATOM      7  C6  UNL d   1       2.815  -1.391   1.726  0.00  0.00    -0.001 A 
ENDROOT
TORSDOF 0
ENDMDL
