MODEL 1
REMARK minimizedAffinity -5.08958912
REMARK minimizedRMSD -1
REMARK  0 active torsions:
REMARK  status: ('A' for Active; 'I' for Inactive)
ROOT
ATOM      1  C   UNL d   1       2.938  -0.304   0.224  0.00  0.00     0.078 C 
ATOM      2  C1  UNL d   1       1.467  -0.374   0.507  0.00  0.00    -0.077 A 
ATOM      3  C2  UNL d   1       0.635   0.729   0.278  0.00  0.00    -0.001 A 
ATOM      4  C3  UNL d   1      -0.731   0.652   0.555  0.00  0.00     0.003 A 
ATOM      5  C4  UNL d   1      -1.277  -0.525   1.063  0.00  0.00    -0.005 A 
ATOM      6  C5  UNL d   1      -0.456  -1.627   1.296  0.00  0.00     0.003 A 
ATOM      7  C6  UNL d   1       0.910  -1.552   1.020  0.00  0.00    -0.001 A 
ENDROOT
TORSDOF 0
ENDMDL
