MODEL 1
REMARK minimizedAffinity -4.13328266
REMARK minimizedRMSD -1
REMARK  0 active torsions:
REMARK  status: ('A' for Active; 'I' for Inactive)
ROOT
ATOM      1  C   UNL d   1      -0.916   0.774   0.392  0.00  0.00     0.078 C 
ATOM      2  C1  UNL d   1       0.431   0.120   0.319  0.00  0.00    -0.077 A 
ATOM      3  C2  UNL d   1       1.606   0.873   0.438  0.00  0.00    -0.001 A 
ATOM      4  C3  UNL d   1       2.853   0.252   0.359  0.00  0.00     0.003 A 
ATOM      5  C4  UNL d   1       2.938  -1.124   0.159  0.00  0.00    -0.005 A 
ATOM      6  C5  UNL d   1       1.775  -1.881   0.038  0.00  0.00     0.003 A 
ATOM      7  C6  UNL d   1       0.527  -1.262   0.116  0.00  0.00    -0.001 A 
ENDROOT
TORSDOF 0
ENDMDL
