MODEL 1
REMARK minimizedAffinity -5.12265491
REMARK minimizedRMSD -1
REMARK  0 active torsions:
REMARK  status: ('A' for Active; 'I' for Inactive)
ROOT
ATOM      1  C   UNL d   1       1.226  -2.393   2.577  0.00  0.00     0.078 C 
ATOM      2  C1  UNL d   1       1.644  -1.255   1.694  0.00  0.00    -0.077 A 
ATOM      3  C2  UNL d   1       2.998  -0.961   1.489  0.00  0.00    -0.001 A 
ATOM      4  C3  UNL d   1       3.373   0.107   0.673  0.00  0.00     0.003 A 
ATOM      5  C4  UNL d   1       2.400   0.891   0.056  0.00  0.00    -0.005 A 
ATOM      6  C5  UNL d   1       1.050   0.608   0.256  0.00  0.00     0.003 A 
ATOM      7  C6  UNL d   1       0.674  -0.460   1.072  0.00  0.00    -0.001 A 
ENDROOT
TORSDOF 0
ENDMDL
