MODEL 1
REMARK minimizedAffinity -3.79635501
REMARK minimizedRMSD -1
REMARK  0 active torsions:
REMARK  status: ('A' for Active; 'I' for Inactive)
ROOT
ATOM      1  C   UNL d   1      -1.041   0.005  -0.375  0.00  0.00     0.078 C 
ATOM      2  C1  UNL d   1       0.391   0.041   0.071  0.00  0.00    -0.077 A 
ATOM      3  C2  UNL d   1       0.896   1.133   0.787  0.00  0.00    -0.001 A 
ATOM      4  C3  UNL d   1       2.233   1.157   1.187  0.00  0.00     0.003 A 
ATOM      5  C4  UNL d   1       3.076   0.093   0.875  0.00  0.00    -0.005 A 
ATOM      6  C5  UNL d   1       2.583  -0.997   0.160  0.00  0.00     0.003 A 
ATOM      7  C6  UNL d   1       1.246  -1.023  -0.241  0.00  0.00    -0.001 A 
ENDROOT
TORSDOF 0
ENDMDL
