MODEL 1
REMARK minimizedAffinity 10.1391249
REMARK minimizedRMSD -1
REMARK  0 active torsions:
REMARK  status: ('A' for Active; 'I' for Inactive)
ROOT
ATOM      1  O1  BZF d   1       1.845  -2.499   0.981  0.00  0.00    -0.204 OA
ATOM      2  C2  BZF d   1       1.982  -1.231   0.450  0.00  0.00     0.174 A 
ATOM      3  C3  BZF d   1       0.985  -0.426   0.870  0.00  0.00    -0.012 A 
ATOM      4  C3A BZF d   1       0.226  -1.216   1.789  0.00  0.00    -0.107 A 
ATOM      5  C4  BZF d   1      -0.881  -0.967   2.550  0.00  0.00     0.055 A 
ATOM      6  C5  BZF d   1      -1.417  -1.976   3.286  0.00  0.00    -0.016 A 
ATOM      7  C6  BZF d   1      -0.876  -3.245   3.281  0.00  0.00     0.022 A 
ATOM      8  C7  BZF d   1       0.224  -3.539   2.546  0.00  0.00     0.029 A 
ATOM      9  C7A BZF d   1       0.787  -2.513   1.827  0.00  0.00     0.058 A 
ENDROOT
TORSDOF 0
ENDMDL
