MODEL 1
REMARK minimizedAffinity 11.2099371
REMARK minimizedRMSD -1
REMARK  0 active torsions:
REMARK  status: ('A' for Active; 'I' for Inactive)
ROOT
ATOM      1  O1  BZF d   1       0.015  -0.181   1.837  0.00  0.00    -0.204 OA
ATOM      2  C2  BZF d   1      -0.385  -0.735   3.038  0.00  0.00     0.174 A 
ATOM      3  C3  BZF d   1       0.173  -1.950   3.214  0.00  0.00    -0.012 A 
ATOM      4  C3A BZF d   1       1.045  -2.130   2.093  0.00  0.00    -0.107 A 
ATOM      5  C4  BZF d   1       1.888  -3.133   1.711  0.00  0.00     0.055 A 
ATOM      6  C5  BZF d   1       2.542  -3.030   0.524  0.00  0.00    -0.016 A 
ATOM      7  C6  BZF d   1       2.372  -1.943  -0.307  0.00  0.00     0.022 A 
ATOM      8  C7  BZF d   1       1.549  -0.920   0.032  0.00  0.00     0.029 A 
ATOM      9  C7A BZF d   1       0.913  -1.005   1.246  0.00  0.00     0.058 A 
ENDROOT
TORSDOF 0
ENDMDL
