MODEL 1
REMARK minimizedAffinity 3.28210258
REMARK minimizedRMSD -1
REMARK  0 active torsions:
REMARK  status: ('A' for Active; 'I' for Inactive)
ROOT
ATOM      1  O1  BZF d   1      -5.483  -1.590  -3.306  0.00  0.00    -0.204 OA
ATOM      2  C2  BZF d   1      -4.549  -1.995  -2.372  0.00  0.00     0.174 A 
ATOM      3  C3  BZF d   1      -3.509  -1.137  -2.332  0.00  0.00    -0.012 A 
ATOM      4  C3A BZF d   1      -3.856  -0.083  -3.236  0.00  0.00    -0.107 A 
ATOM      5  C4  BZF d   1      -3.232   1.070  -3.617  0.00  0.00     0.055 A 
ATOM      6  C5  BZF d   1      -3.804   1.846  -4.575  0.00  0.00    -0.016 A 
ATOM      7  C6  BZF d   1      -4.996   1.496  -5.176  0.00  0.00     0.022 A 
ATOM      8  C7  BZF d   1      -5.654   0.364  -4.827  0.00  0.00     0.029 A 
ATOM      9  C7A BZF d   1      -5.095  -0.405  -3.836  0.00  0.00     0.058 A 
ENDROOT
TORSDOF 0
ENDMDL
