MODEL 1
REMARK minimizedAffinity 0.179980248
REMARK minimizedRMSD -1
REMARK  0 active torsions:
REMARK  status: ('A' for Active; 'I' for Inactive)
ROOT
ATOM      1  O1  BZF d   1       0.507  -0.921   0.489  0.00  0.00    -0.204 OA
ATOM      2  C2  BZF d   1      -0.377   0.134   0.603  0.00  0.00     0.174 A 
ATOM      3  C3  BZF d   1      -1.278  -0.101   1.579  0.00  0.00    -0.012 A 
ATOM      4  C3A BZF d   1      -0.879  -1.341   2.170  0.00  0.00    -0.107 A 
ATOM      5  C4  BZF d   1      -1.370  -2.092   3.199  0.00  0.00     0.055 A 
ATOM      6  C5  BZF d   1      -0.792  -3.290   3.477  0.00  0.00    -0.016 A 
ATOM      7  C6  BZF d   1       0.274  -3.769   2.744  0.00  0.00     0.022 A 
ATOM      8  C7  BZF d   1       0.799  -3.058   1.717  0.00  0.00     0.029 A 
ATOM      9  C7A BZF d   1       0.238  -1.832   1.455  0.00  0.00     0.058 A 
ENDROOT
TORSDOF 0
ENDMDL
