MODEL 1
REMARK minimizedAffinity 0.724815547
REMARK minimizedRMSD -1
REMARK  0 active torsions:
REMARK  status: ('A' for Active; 'I' for Inactive)
ROOT
ATOM      1  O1  BZF d   1       2.360  -2.821   0.124  0.00  0.00    -0.204 OA
ATOM      2  C2  BZF d   1       2.116  -3.702   1.160  0.00  0.00     0.174 A 
ATOM      3  C3  BZF d   1       1.176  -3.212   1.994  0.00  0.00    -0.012 A 
ATOM      4  C3A BZF d   1       0.743  -1.987   1.394  0.00  0.00    -0.107 A 
ATOM      5  C4  BZF d   1      -0.186  -1.048   1.742  0.00  0.00     0.055 A 
ATOM      6  C5  BZF d   1      -0.313   0.070   0.979  0.00  0.00    -0.016 A 
ATOM      7  C6  BZF d   1       0.475   0.283  -0.134  0.00  0.00     0.022 A 
ATOM      8  C7  BZF d   1       1.406  -0.622  -0.521  0.00  0.00     0.029 A 
ATOM      9  C7A BZF d   1       1.514  -1.768   0.229  0.00  0.00     0.058 A 
ENDROOT
TORSDOF 0
ENDMDL
