MODEL 1
REMARK minimizedAffinity 4.59192181
REMARK minimizedRMSD -1
REMARK  0 active torsions:
REMARK  status: ('A' for Active; 'I' for Inactive)
ROOT
ATOM      1  O1  BZF d   1       1.804  -3.676   1.073  0.00  0.00    -0.204 OA
ATOM      2  C2  BZF d   1       2.266  -2.658   0.261  0.00  0.00     0.174 A 
ATOM      3  C3  BZF d   1       1.570  -1.523   0.473  0.00  0.00    -0.012 A 
ATOM      4  C3A BZF d   1       0.674  -1.826   1.547  0.00  0.00    -0.107 A 
ATOM      5  C4  BZF d   1      -0.265  -1.099   2.220  0.00  0.00     0.055 A 
ATOM      6  C5  BZF d   1      -1.021  -1.712   3.168  0.00  0.00    -0.016 A 
ATOM      7  C6  BZF d   1      -0.869  -3.051   3.465  0.00  0.00     0.022 A 
ATOM      8  C7  BZF d   1       0.053  -3.812   2.827  0.00  0.00     0.029 A 
ATOM      9  C7A BZF d   1       0.841  -3.188   1.891  0.00  0.00     0.058 A 
ENDROOT
TORSDOF 0
ENDMDL
