MODEL 1
REMARK minimizedAffinity -3.22212315
REMARK minimizedRMSD -1
REMARK  0 active torsions:
REMARK  status: ('A' for Active; 'I' for Inactive)
ROOT
ATOM      1  O1  BZF d   1       1.607  -2.065   0.896  0.00  0.00    -0.204 OA
ATOM      2  C2  BZF d   1       2.139  -3.292   1.239  0.00  0.00     0.174 A 
ATOM      3  C3  BZF d   1       1.428  -3.861   2.234  0.00  0.00    -0.012 A 
ATOM      4  C3A BZF d   1       0.332  -2.972   2.468  0.00  0.00    -0.107 A 
ATOM      5  C4  BZF d   1      -0.731  -2.998   3.325  0.00  0.00     0.055 A 
ATOM      6  C5  BZF d   1      -1.582  -1.939   3.354  0.00  0.00    -0.016 A 
ATOM      7  C6  BZF d   1      -1.399  -0.838   2.543  0.00  0.00     0.022 A 
ATOM      8  C7  BZF d   1      -0.362  -0.769   1.673  0.00  0.00     0.029 A 
ATOM      9  C7A BZF d   1       0.481  -1.852   1.618  0.00  0.00     0.058 A 
ENDROOT
TORSDOF 0
ENDMDL
