MODEL 1
REMARK minimizedAffinity -3.00866604
REMARK minimizedRMSD -1
REMARK  0 active torsions:
REMARK  status: ('A' for Active; 'I' for Inactive)
ROOT
ATOM      1  C   UNL d   1      -5.999   5.991  -5.999  0.00  0.00     0.172 C 
ATOM      2  N   UNL d   1      -5.422   5.162  -4.966  0.00  0.00    -0.070 N 
ATOM      3  C1  UNL d   1      -4.224   4.504  -5.048  0.00  0.00    -0.004 A 
ATOM      4  C2  UNL d   1      -4.033   3.827  -3.862  0.00  0.00    -0.047 A 
ATOM      5  C3  UNL d   1      -5.156   4.088  -3.040  0.00  0.00    -0.047 A 
ATOM      6  C4  UNL d   1      -6.000   4.916  -3.749  0.00  0.00    -0.004 A 
ENDROOT
TORSDOF 0
ENDMDL
