MODEL 1
REMARK minimizedAffinity -0.309944183
REMARK minimizedRMSD -1
REMARK  0 active torsions:
REMARK  status: ('A' for Active; 'I' for Inactive)
ROOT
ATOM      1  C   UNL d   1       2.688  -2.217  -2.257  0.00  0.00     0.172 C 
ATOM      2  N   UNL d   1       3.790  -2.580  -3.116  0.00  0.00    -0.070 N 
ATOM      3  C1  UNL d   1       5.019  -1.976  -3.136  0.00  0.00    -0.004 A 
ATOM      4  C2  UNL d   1       5.786  -2.611  -4.089  0.00  0.00    -0.047 A 
ATOM      5  C3  UNL d   1       4.990  -3.631  -4.662  0.00  0.00    -0.047 A 
ATOM      6  C4  UNL d   1       3.760  -3.590  -4.041  0.00  0.00    -0.004 A 
ENDROOT
TORSDOF 0
ENDMDL
