MODEL 1
REMARK minimizedAffinity -0.148686528
REMARK minimizedRMSD -1
REMARK  0 active torsions:
REMARK  status: ('A' for Active; 'I' for Inactive)
ROOT
ATOM      1  C   UNL d   1       0.586   0.425  -4.056  0.00  0.00     0.172 C 
ATOM      2  N   UNL d   1       0.274   0.248  -2.657  0.00  0.00    -0.070 N 
ATOM      3  C1  UNL d   1      -0.565   1.040  -1.920  0.00  0.00    -0.004 A 
ATOM      4  C2  UNL d   1      -0.596   0.541  -0.636  0.00  0.00    -0.047 A 
ATOM      5  C3  UNL d   1       0.255  -0.589  -0.599  0.00  0.00    -0.047 A 
ATOM      6  C4  UNL d   1       0.780  -0.748  -1.864  0.00  0.00    -0.004 A 
ENDROOT
TORSDOF 0
ENDMDL
