MODEL 1
REMARK minimizedAffinity -0.12948373
REMARK minimizedRMSD -1
REMARK  0 active torsions:
REMARK  status: ('A' for Active; 'I' for Inactive)
ROOT
ATOM      1  C   UNL d   1      -5.761  -5.745  -5.959  0.00  0.00     0.172 C 
ATOM      2  N   UNL d   1      -4.429  -5.278  -5.654  0.00  0.00    -0.070 N 
ATOM      3  C1  UNL d   1      -3.911  -4.059  -6.000  0.00  0.00    -0.004 A 
ATOM      4  C2  UNL d   1      -2.618  -3.999  -5.527  0.00  0.00    -0.047 A 
ATOM      5  C3  UNL d   1      -2.349  -5.226  -4.875  0.00  0.00    -0.047 A 
ATOM      6  C4  UNL d   1      -3.487  -5.999  -4.969  0.00  0.00    -0.004 A 
ENDROOT
TORSDOF 0
ENDMDL
