MODEL 1
REMARK minimizedAffinity -0.00925452355
REMARK minimizedRMSD -1
REMARK  0 active torsions:
REMARK  status: ('A' for Active; 'I' for Inactive)
ROOT
ATOM      1  C   UNL d   1      -4.803  -5.976  -5.933  0.00  0.00     0.172 C 
ATOM      2  N   UNL d   1      -3.508  -5.336  -5.948  0.00  0.00    -0.070 N 
ATOM      3  C1  UNL d   1      -3.285  -3.986  -5.976  0.00  0.00    -0.004 A 
ATOM      4  C2  UNL d   1      -1.922  -3.783  -5.981  0.00  0.00    -0.047 A 
ATOM      5  C3  UNL d   1      -1.304  -5.056  -5.955  0.00  0.00    -0.047 A 
ATOM      6  C4  UNL d   1      -2.310  -6.000  -5.935  0.00  0.00    -0.004 A 
ENDROOT
TORSDOF 0
ENDMDL
