MODEL 1
REMARK minimizedAffinity -1.09375596
REMARK minimizedRMSD -1
REMARK  0 active torsions:
REMARK  status: ('A' for Active; 'I' for Inactive)
ROOT
ATOM      1  C   UNL d   1      -0.818   3.027   0.705  0.00  0.00     0.172 C 
ATOM      2  N   UNL d   1      -0.341   2.115   1.718  0.00  0.00    -0.070 N 
ATOM      3  C1  UNL d   1       0.971   1.908   2.052  0.00  0.00    -0.004 A 
ATOM      4  C2  UNL d   1       1.008   0.968   3.058  0.00  0.00    -0.047 A 
ATOM      5  C3  UNL d   1      -0.328   0.595   3.339  0.00  0.00    -0.047 A 
ATOM      6  C4  UNL d   1      -1.142   1.321   2.495  0.00  0.00    -0.004 A 
ENDROOT
TORSDOF 0
ENDMDL
