MODEL 1
REMARK minimizedAffinity -1.20161724
REMARK minimizedRMSD -1
REMARK  0 active torsions:
REMARK  status: ('A' for Active; 'I' for Inactive)
ROOT
ATOM      1  C   UNL d   1      -1.234   5.896  -3.486  0.00  0.00     0.172 C 
ATOM      2  N   UNL d   1      -0.362   5.071  -2.684  0.00  0.00    -0.070 N 
ATOM      3  C1  UNL d   1       1.005   5.145  -2.657  0.00  0.00    -0.004 A 
ATOM      4  C2  UNL d   1       1.462   4.195  -1.769  0.00  0.00    -0.047 A 
ATOM      5  C3  UNL d   1       0.330   3.526  -1.245  0.00  0.00    -0.047 A 
ATOM      6  C4  UNL d   1      -0.786   4.089  -1.828  0.00  0.00    -0.004 A 
ENDROOT
TORSDOF 0
ENDMDL
