MODEL 1
REMARK minimizedAffinity 4.46949244
REMARK minimizedRMSD -1
REMARK  0 active torsions:
REMARK  status: ('A' for Active; 'I' for Inactive)
ROOT
ATOM      1  C   UNL d   1       1.997  -1.084  -3.306  0.00  0.00     0.172 C 
ATOM      2  N   UNL d   1       3.375  -1.454  -3.527  0.00  0.00    -0.070 N 
ATOM      3  C1  UNL d   1       4.016  -1.459  -4.737  0.00  0.00    -0.004 A 
ATOM      4  C2  UNL d   1       5.315  -1.869  -4.525  0.00  0.00    -0.047 A 
ATOM      5  C3  UNL d   1       5.459  -2.120  -3.140  0.00  0.00    -0.047 A 
ATOM      6  C4  UNL d   1       4.243  -1.855  -2.546  0.00  0.00    -0.004 A 
ENDROOT
TORSDOF 0
ENDMDL
