MODEL 1
REMARK minimizedAffinity -0.297323555
REMARK minimizedRMSD -1
REMARK  0 active torsions:
REMARK  status: ('A' for Active; 'I' for Inactive)
ROOT
ATOM      1  C   UNL d   1       1.523  -5.248   2.249  0.00  0.00     0.172 C 
ATOM      2  N   UNL d   1       1.023  -5.552   0.929  0.00  0.00    -0.070 N 
ATOM      3  C1  UNL d   1      -0.294  -5.729   0.595  0.00  0.00    -0.004 A 
ATOM      4  C2  UNL d   1      -0.355  -6.000  -0.754  0.00  0.00    -0.047 A 
ATOM      5  C3  UNL d   1       0.971  -5.986  -1.249  0.00  0.00    -0.047 A 
ATOM      6  C4  UNL d   1       1.803  -5.706  -0.186  0.00  0.00    -0.004 A 
ENDROOT
TORSDOF 0
ENDMDL
