MODEL 1
REMARK minimizedAffinity -2.49009824
REMARK minimizedRMSD -1
REMARK  0 active torsions:
REMARK  status: ('A' for Active; 'I' for Inactive)
ROOT
ATOM      1  C   UNL d   1       0.403   2.112   0.204  0.00  0.00     0.172 C 
ATOM      2  N   UNL d   1       0.702   1.276   1.343  0.00  0.00    -0.070 N 
ATOM      3  C1  UNL d   1       1.513   0.173   1.333  0.00  0.00    -0.004 A 
ATOM      4  C2  UNL d   1       1.539  -0.343   2.611  0.00  0.00    -0.047 A 
ATOM      5  C3  UNL d   1       0.715   0.479   3.416  0.00  0.00    -0.047 A 
ATOM      6  C4  UNL d   1       0.209   1.473   2.606  0.00  0.00    -0.004 A 
ENDROOT
TORSDOF 0
ENDMDL
