MODEL 1
REMARK minimizedAffinity -3.74509978
REMARK minimizedRMSD -1
REMARK  0 active torsions:
REMARK  status: ('A' for Active; 'I' for Inactive)
ROOT
ATOM      1  C   UNL d   1       0.106   2.969   2.246  0.00  0.00     0.172 C 
ATOM      2  N   UNL d   1       0.427   1.819   1.434  0.00  0.00    -0.070 N 
ATOM      3  C1  UNL d   1       0.110   1.662   0.111  0.00  0.00    -0.004 A 
ATOM      4  C2  UNL d   1       0.590   0.436  -0.295  0.00  0.00    -0.047 A 
ATOM      5  C3  UNL d   1       1.216  -0.165   0.822  0.00  0.00    -0.047 A 
ATOM      6  C4  UNL d   1       1.101   0.713   1.879  0.00  0.00    -0.004 A 
ENDROOT
TORSDOF 0
ENDMDL
