MODEL 1
REMARK minimizedAffinity -1.13265252
REMARK minimizedRMSD -1
REMARK  2 active torsions:
REMARK  status: ('A' for Active; 'I' for Inactive)
REMARK    1  A    between atoms: C2'_3  and  C1'_4 
REMARK    2  A    between atoms: C1'_4  and  C1_5 
ROOT
ATOM      1  C1  I4B d   1       0.892   0.234  -0.739  0.00  0.00    -0.075 A 
ATOM      2  C2  I4B d   1       1.051   1.118  -1.776  0.00  0.00     0.003 A 
ATOM      3  C3  I4B d   1       1.128   2.509  -1.522  0.00  0.00     0.002 A 
ATOM      4  C4  I4B d   1       0.991   2.973  -0.230  0.00  0.00    -0.004 A 
ATOM      5  C5  I4B d   1       0.853   2.073   0.824  0.00  0.00     0.002 A 
ATOM      6  C6  I4B d   1       0.815   0.695   0.569  0.00  0.00     0.003 A 
ENDROOT
BRANCH   1   7
ATOM      7  C1' I4B d   1       0.782  -1.226  -1.046  0.00  0.00     0.060 C 
BRANCH   7   8
ATOM      8  C2' I4B d   1       1.371  -1.994   0.120  0.00  0.00    -0.013 C 
ATOM      9  C4' I4B d   1       0.515  -3.179   0.481  0.00  0.00     0.013 C 
ATOM     10  C3' I4B d   1       2.756  -2.423  -0.262  0.00  0.00     0.013 C 
ENDBRANCH   7   8
ENDBRANCH   1   7
TORSDOF 2
ENDMDL
