MODEL 1
REMARK minimizedAffinity 4.88755941
REMARK minimizedRMSD -1
REMARK  2 active torsions:
REMARK  status: ('A' for Active; 'I' for Inactive)
REMARK    1  A    between atoms: C2'_3  and  C1'_4 
REMARK    2  A    between atoms: C1'_4  and  C1_5 
ROOT
ATOM      1  C1  I4B d   1       1.639  -0.461  -2.481  0.00  0.00    -0.075 A 
ATOM      2  C2  I4B d   1       0.911   0.685  -2.281  0.00  0.00     0.003 A 
ATOM      3  C3  I4B d   1       1.199   1.529  -1.181  0.00  0.00     0.002 A 
ATOM      4  C4  I4B d   1       2.182   1.165  -0.284  0.00  0.00    -0.004 A 
ATOM      5  C5  I4B d   1       2.935   0.014  -0.501  0.00  0.00     0.002 A 
ATOM      6  C6  I4B d   1       2.670  -0.798  -1.614  0.00  0.00     0.003 A 
ENDROOT
BRANCH   1   7
ATOM      7  C1' I4B d   1       1.287  -1.346  -3.635  0.00  0.00     0.060 C 
BRANCH   7   8
ATOM      8  C2' I4B d   1       2.336  -1.151  -4.710  0.00  0.00    -0.013 C 
ATOM      9  C4' I4B d   1       3.218  -2.365  -4.838  0.00  0.00     0.013 C 
ATOM     10  C3' I4B d   1       1.628  -0.857  -5.999  0.00  0.00     0.013 C 
ENDBRANCH   7   8
ENDBRANCH   1   7
TORSDOF 2
ENDMDL
