MODEL 1
REMARK minimizedAffinity 1.06691408
REMARK minimizedRMSD -1
REMARK  2 active torsions:
REMARK  status: ('A' for Active; 'I' for Inactive)
REMARK    1  A    between atoms: C2'_3  and  C1'_4 
REMARK    2  A    between atoms: C1'_4  and  C1_5 
ROOT
ATOM      1  C1  I4B d   1       1.200   2.319   0.025  0.00  0.00    -0.075 A 
ATOM      2  C2  I4B d   1       0.417   1.814  -0.983  0.00  0.00     0.003 A 
ATOM      3  C3  I4B d   1       0.257   0.415  -1.128  0.00  0.00     0.002 A 
ATOM      4  C4  I4B d   1       0.934  -0.438  -0.281  0.00  0.00    -0.004 A 
ATOM      5  C5  I4B d   1       1.709   0.076   0.754  0.00  0.00     0.002 A 
ATOM      6  C6  I4B d   1       1.834   1.463   0.916  0.00  0.00     0.003 A 
ENDROOT
BRANCH   1   7
ATOM      7  C1' I4B d   1       1.374   3.801   0.129  0.00  0.00     0.060 C 
BRANCH   7   8
ATOM      8  C2' I4B d   1       1.498   4.357  -1.275  0.00  0.00    -0.013 C 
ATOM      9  C4' I4B d   1       2.006   5.774  -1.258  0.00  0.00     0.013 C 
ATOM     10  C3' I4B d   1       2.419   3.461  -2.048  0.00  0.00     0.013 C 
ENDBRANCH   7   8
ENDBRANCH   1   7
TORSDOF 2
ENDMDL
