MODEL 1
REMARK minimizedAffinity 0.106350973
REMARK minimizedRMSD -1
REMARK  2 active torsions:
REMARK  status: ('A' for Active; 'I' for Inactive)
REMARK    1  A    between atoms: C2'_3  and  C1'_4 
REMARK    2  A    between atoms: C1'_4  and  C1_5 
ROOT
ATOM      1  C1  I4B d   1       1.133   2.622  -0.983  0.00  0.00    -0.075 A 
ATOM      2  C2  I4B d   1       1.127   1.533  -1.819  0.00  0.00     0.003 A 
ATOM      3  C3  I4B d   1       1.019   0.226  -1.285  0.00  0.00     0.002 A 
ATOM      4  C4  I4B d   1       0.971   0.052   0.083  0.00  0.00    -0.004 A 
ATOM      5  C5  I4B d   1       0.954   1.158   0.927  0.00  0.00     0.002 A 
ATOM      6  C6  I4B d   1       1.023   2.452   0.391  0.00  0.00     0.003 A 
ENDROOT
BRANCH   1   7
ATOM      7  C1' I4B d   1       1.281   3.986  -1.578  0.00  0.00     0.060 C 
BRANCH   7   8
ATOM      8  C2' I4B d   1       2.191   4.793  -0.674  0.00  0.00    -0.013 C 
ATOM      9  C4' I4B d   1       2.739   6.000  -1.390  0.00  0.00     0.013 C 
ATOM     10  C3' I4B d   1       1.404   5.193   0.538  0.00  0.00     0.013 C 
ENDBRANCH   7   8
ENDBRANCH   1   7
TORSDOF 2
ENDMDL
