MODEL 1
REMARK minimizedAffinity 4.98821306
REMARK minimizedRMSD -1
REMARK  2 active torsions:
REMARK  status: ('A' for Active; 'I' for Inactive)
REMARK    1  A    between atoms: C2'_3  and  C1'_4 
REMARK    2  A    between atoms: C1'_4  and  C1_5 
ROOT
ATOM      1  C1  I4B d   1       1.350   2.684  -1.494  0.00  0.00    -0.075 A 
ATOM      2  C2  I4B d   1       1.474   2.532  -0.136  0.00  0.00     0.003 A 
ATOM      3  C3  I4B d   1       1.385   1.246   0.449  0.00  0.00     0.002 A 
ATOM      4  C4  I4B d   1       1.122   0.153  -0.351  0.00  0.00    -0.004 A 
ATOM      5  C5  I4B d   1       1.019   0.305  -1.731  0.00  0.00     0.002 A 
ATOM      6  C6  I4B d   1       1.146   1.577  -2.308  0.00  0.00     0.003 A 
ENDROOT
BRANCH   1   7
ATOM      7  C1' I4B d   1       1.416   4.061  -2.075  0.00  0.00     0.060 C 
BRANCH   7   8
ATOM      8  C2' I4B d   1       2.436   4.853  -1.282  0.00  0.00    -0.013 C 
ATOM      9  C4' I4B d   1       2.996   5.990  -2.096  0.00  0.00     0.013 C 
ATOM     10  C3' I4B d   1       1.766   5.357  -0.038  0.00  0.00     0.013 C 
ENDBRANCH   7   8
ENDBRANCH   1   7
TORSDOF 2
ENDMDL
