MODEL 1
REMARK minimizedAffinity -1.94104481
REMARK minimizedRMSD -1
REMARK  2 active torsions:
REMARK  status: ('A' for Active; 'I' for Inactive)
REMARK    1  A    between atoms: C2'_3  and  C1'_4 
REMARK    2  A    between atoms: C1'_4  and  C1_5 
ROOT
ATOM      1  C1  I4B d   1       1.088   2.433  -1.377  0.00  0.00    -0.075 A 
ATOM      2  C2  I4B d   1       0.729   2.142  -0.084  0.00  0.00     0.003 A 
ATOM      3  C3  I4B d   1       0.705   0.799   0.363  0.00  0.00     0.002 A 
ATOM      4  C4  I4B d   1       0.997  -0.218  -0.523  0.00  0.00    -0.004 A 
ATOM      5  C5  I4B d   1       1.384   0.081  -1.826  0.00  0.00     0.002 A 
ATOM      6  C6  I4B d   1       1.442   1.415  -2.253  0.00  0.00     0.003 A 
ENDROOT
BRANCH   1   7
ATOM      7  C1' I4B d   1       1.071   3.860  -1.825  0.00  0.00     0.060 C 
BRANCH   7   8
ATOM      8  C2' I4B d   1       1.949   4.657  -0.882  0.00  0.00    -0.013 C 
ATOM      9  C4' I4B d   1       2.301   5.999  -1.467  0.00  0.00     0.013 C 
ATOM     10  C3' I4B d   1       1.215   4.809   0.417  0.00  0.00     0.013 C 
ENDBRANCH   7   8
ENDBRANCH   1   7
TORSDOF 2
ENDMDL
