MODEL 1
REMARK minimizedAffinity 2.10367894
REMARK minimizedRMSD -1
REMARK  2 active torsions:
REMARK  status: ('A' for Active; 'I' for Inactive)
REMARK    1  A    between atoms: C2'_3  and  C1'_4 
REMARK    2  A    between atoms: C1'_4  and  C1_5 
ROOT
ATOM      1  C1  I4B d   1       1.340   2.464  -1.114  0.00  0.00    -0.075 A 
ATOM      2  C2  I4B d   1       0.879   1.420  -1.876  0.00  0.00     0.003 A 
ATOM      3  C3  I4B d   1       0.764   0.125  -1.316  0.00  0.00     0.002 A 
ATOM      4  C4  I4B d   1       1.166  -0.090  -0.014  0.00  0.00    -0.004 A 
ATOM      5  C5  I4B d   1       1.611   0.974   0.765  0.00  0.00     0.002 A 
ATOM      6  C6  I4B d   1       1.688   2.262   0.215  0.00  0.00     0.003 A 
ENDROOT
BRANCH   1   7
ATOM      7  C1' I4B d   1       1.481   3.812  -1.747  0.00  0.00     0.060 C 
BRANCH   7   8
ATOM      8  C2' I4B d   1       2.355   4.662  -0.848  0.00  0.00    -0.013 C 
ATOM      9  C4' I4B d   1       2.646   6.000  -1.475  0.00  0.00     0.013 C 
ATOM     10  C3' I4B d   1       1.651   4.821   0.467  0.00  0.00     0.013 C 
ENDBRANCH   7   8
ENDBRANCH   1   7
TORSDOF 2
ENDMDL
