MODEL 1
REMARK minimizedAffinity 1.23186314
REMARK minimizedRMSD -1
REMARK  0 active torsions:
REMARK  status: ('A' for Active; 'I' for Inactive)
ROOT
ATOM      1  N1  IND d   1      -5.701  -2.158  -3.781  0.00  0.00    -0.196 N 
ATOM      2  C2  IND d   1      -5.802  -1.472  -4.959  0.00  0.00     0.054 A 
ATOM      3  C3  IND d   1      -5.892  -2.334  -5.998  0.00  0.00    -0.031 A 
ATOM      4  C4  IND d   1      -5.995  -4.906  -5.985  0.00  0.00     0.051 A 
ATOM      5  C5  IND d   1      -5.901  -5.984  -5.150  0.00  0.00    -0.031 A 
ATOM      6  C6  IND d   1      -5.735  -5.838  -3.788  0.00  0.00     0.015 A 
ATOM      7  C7  IND d   1      -5.668  -4.604  -3.206  0.00  0.00    -0.016 A 
ATOM      8  C8  IND d   1      -5.756  -3.507  -4.052  0.00  0.00    -0.047 A 
ATOM      9  C9  IND d   1      -5.881  -3.649  -5.440  0.00  0.00    -0.096 A 
ATOM     10  HN1 IND d   1      -5.617  -1.805  -3.001  0.00  0.00     0.298 HD
ENDROOT
TORSDOF 0
ENDMDL
