MODEL 1
REMARK minimizedAffinity 5.11946058
REMARK minimizedRMSD -1
REMARK  0 active torsions:
REMARK  status: ('A' for Active; 'I' for Inactive)
ROOT
ATOM      1  N1  IND d   1       1.264  -1.083   2.983  0.00  0.00    -0.196 N 
ATOM      2  C2  IND d   1       2.220  -0.771   3.909  0.00  0.00     0.054 A 
ATOM      3  C3  IND d   1       2.867   0.362   3.554  0.00  0.00    -0.031 A 
ATOM      4  C4  IND d   1       2.451   1.923   1.549  0.00  0.00     0.051 A 
ATOM      5  C5  IND d   1       1.708   2.035   0.408  0.00  0.00    -0.031 A 
ATOM      6  C6  IND d   1       0.757   1.097   0.061  0.00  0.00     0.015 A 
ATOM      7  C7  IND d   1       0.506   0.012   0.852  0.00  0.00    -0.016 A 
ATOM      8  C8  IND d   1       1.264  -0.109   2.008  0.00  0.00    -0.047 A 
ATOM      9  C9  IND d   1       2.259   0.817   2.344  0.00  0.00    -0.096 A 
ATOM     10  HN1 IND d   1       0.749  -1.771   3.006  0.00  0.00     0.298 HD
ENDROOT
TORSDOF 0
ENDMDL
