MODEL 1
REMARK minimizedAffinity 5.54222012
REMARK minimizedRMSD -1
REMARK  0 active torsions:
REMARK  status: ('A' for Active; 'I' for Inactive)
ROOT
ATOM      1  N1  IND d   1       0.691  -0.878   0.973  0.00  0.00    -0.196 N 
ATOM      2  C2  IND d   1      -0.517  -1.351   0.543  0.00  0.00     0.054 A 
ATOM      3  C3  IND d   1      -1.279  -0.338   0.073  0.00  0.00    -0.031 A 
ATOM      4  C4  IND d   1      -0.705   2.159  -0.179  0.00  0.00     0.051 A 
ATOM      5  C5  IND d   1       0.267   3.075   0.110  0.00  0.00    -0.031 A 
ATOM      6  C6  IND d   1       1.456   2.713   0.710  0.00  0.00     0.015 A 
ATOM      7  C7  IND d   1       1.722   1.413   1.036  0.00  0.00    -0.016 A 
ATOM      8  C8  IND d   1       0.734   0.481   0.751  0.00  0.00    -0.047 A 
ATOM      9  C9  IND d   1      -0.491   0.849   0.180  0.00  0.00    -0.096 A 
ATOM     10  HN1 IND d   1       1.319  -1.350   1.323  0.00  0.00     0.298 HD
ENDROOT
TORSDOF 0
ENDMDL
