MODEL 1
REMARK minimizedAffinity 4.30626965
REMARK minimizedRMSD -1
REMARK  0 active torsions:
REMARK  status: ('A' for Active; 'I' for Inactive)
ROOT
ATOM      1  N1  IND d   1       2.284   2.027   1.395  0.00  0.00    -0.196 N 
ATOM      2  C2  IND d   1       2.903   1.176   2.268  0.00  0.00     0.054 A 
ATOM      3  C3  IND d   1       2.261  -0.013   2.301  0.00  0.00    -0.031 A 
ATOM      4  C4  IND d   1       0.234  -0.816   0.931  0.00  0.00     0.051 A 
ATOM      5  C5  IND d   1      -0.697  -0.382   0.031  0.00  0.00    -0.031 A 
ATOM      6  C6  IND d   1      -0.681   0.903  -0.474  0.00  0.00     0.015 A 
ATOM      7  C7  IND d   1       0.279   1.801  -0.103  0.00  0.00    -0.016 A 
ATOM      8  C8  IND d   1       1.223   1.366   0.817  0.00  0.00    -0.047 A 
ATOM      9  C9  IND d   1       1.186   0.077   1.364  0.00  0.00    -0.096 A 
ATOM     10  HN1 IND d   1       2.519   2.838   1.233  0.00  0.00     0.298 HD
ENDROOT
TORSDOF 0
ENDMDL
