MODEL 1
REMARK minimizedAffinity 2.25735974
REMARK minimizedRMSD -1
REMARK  0 active torsions:
REMARK  status: ('A' for Active; 'I' for Inactive)
ROOT
ATOM      1  N1  IND d   1       4.356  -2.877  -5.900  0.00  0.00    -0.196 N 
ATOM      2  C2  IND d   1       2.992  -2.957  -5.854  0.00  0.00     0.054 A 
ATOM      3  C3  IND d   1       2.448  -1.719  -5.836  0.00  0.00    -0.031 A 
ATOM      4  C4  IND d   1       3.604   0.577  -5.979  0.00  0.00     0.051 A 
ATOM      5  C5  IND d   1       4.839   1.162  -6.000  0.00  0.00    -0.031 A 
ATOM      6  C6  IND d   1       6.000   0.415  -5.990  0.00  0.00     0.015 A 
ATOM      7  C7  IND d   1       5.968  -0.950  -5.972  0.00  0.00    -0.016 A 
ATOM      8  C8  IND d   1       4.716  -1.548  -5.944  0.00  0.00    -0.047 A 
ATOM      9  C9  IND d   1       3.535  -0.794  -5.910  0.00  0.00    -0.096 A 
ATOM     10  HN1 IND d   1       4.898  -3.544  -5.902  0.00  0.00     0.298 HD
ENDROOT
TORSDOF 0
ENDMDL
