MODEL 1
REMARK minimizedAffinity 2.98494339
REMARK minimizedRMSD -1
REMARK  0 active torsions:
REMARK  status: ('A' for Active; 'I' for Inactive)
ROOT
ATOM      1  N1  IND d   1       1.153  -2.140   2.588  0.00  0.00    -0.196 N 
ATOM      2  C2  IND d   1       0.359  -2.414   1.508  0.00  0.00     0.054 A 
ATOM      3  C3  IND d   1       0.409  -1.397   0.619  0.00  0.00    -0.031 A 
ATOM      4  C4  IND d   1       1.805   0.765   0.682  0.00  0.00     0.051 A 
ATOM      5  C5  IND d   1       2.653   1.477   1.484  0.00  0.00    -0.031 A 
ATOM      6  C6  IND d   1       3.055   1.008   2.718  0.00  0.00     0.015 A 
ATOM      7  C7  IND d   1       2.631  -0.201   3.193  0.00  0.00    -0.016 A 
ATOM      8  C8  IND d   1       1.763  -0.922   2.386  0.00  0.00    -0.047 A 
ATOM      9  C9  IND d   1       1.318  -0.432   1.151  0.00  0.00    -0.096 A 
ATOM     10  HN1 IND d   1       1.253  -2.645   3.277  0.00  0.00     0.298 HD
ENDROOT
TORSDOF 0
ENDMDL
