MODEL 1
REMARK minimizedAffinity -0.0898982435
REMARK minimizedRMSD -1
REMARK  0 active torsions:
REMARK  status: ('A' for Active; 'I' for Inactive)
ROOT
ATOM      1  C   UNL d   1       1.395   0.528  -0.637  0.00  0.00     0.124 A 
ATOM      2  C1  UNL d   1       1.335   1.077  -1.910  0.00  0.00     0.062 A 
ATOM      3  C2  UNL d   1       1.403   2.456  -2.082  0.00  0.00     0.162 A 
ATOM      4  C3  UNL d   1       1.533   3.298  -0.976  0.00  0.00    -0.034 A 
ATOM      5  C4  UNL d   1       1.591   2.738   0.301  0.00  0.00     0.162 A 
ATOM      6  C5  UNL d   1       1.523   1.359   0.468  0.00  0.00     0.062 A 
ATOM      7  F   UNL d   1       1.581   0.830   1.699  0.00  0.00    -0.097 F 
ATOM      8  F1  UNL d   1       1.716   3.518   1.386  0.00  0.00    -0.096 F 
ATOM      9  I   UNL d   1       1.635   5.361  -1.229  0.00  0.00    -0.060 I 
ATOM     10  F2  UNL d   1       1.343   2.959  -3.324  0.00  0.00    -0.096 F 
ATOM     11  F3  UNL d   1       1.211   0.276  -2.978  0.00  0.00    -0.097 F 
ATOM     12  F4  UNL d   1       1.328  -0.800  -0.474  0.00  0.00    -0.092 F 
ENDROOT
TORSDOF 0
ENDMDL
