MODEL 1
REMARK minimizedAffinity -1.94552755
REMARK minimizedRMSD -1
REMARK  0 active torsions:
REMARK  status: ('A' for Active; 'I' for Inactive)
ROOT
ATOM      1  C   UNL d   1       1.145   0.966  -0.100  0.00  0.00     0.124 A 
ATOM      2  C1  UNL d   1       1.058   1.434  -1.403  0.00  0.00     0.062 A 
ATOM      3  C2  UNL d   1       1.410   2.748  -1.700  0.00  0.00     0.162 A 
ATOM      4  C3  UNL d   1       1.852   3.603  -0.691  0.00  0.00    -0.034 A 
ATOM      5  C4  UNL d   1       1.936   3.125   0.618  0.00  0.00     0.162 A 
ATOM      6  C5  UNL d   1       1.584   1.812   0.909  0.00  0.00     0.062 A 
ATOM      7  F   UNL d   1       1.668   1.361   2.170  0.00  0.00    -0.097 F 
ATOM      8  F1  UNL d   1       2.358   3.921   1.612  0.00  0.00    -0.096 F 
ATOM      9  I   UNL d   1       2.378   5.568  -1.131  0.00  0.00    -0.060 I 
ATOM     10  F2  UNL d   1       1.316   3.173  -2.969  0.00  0.00    -0.096 F 
ATOM     11  F3  UNL d   1       0.634   0.619  -2.380  0.00  0.00    -0.097 F 
ATOM     12  F4  UNL d   1       0.806  -0.298   0.183  0.00  0.00    -0.092 F 
ENDROOT
TORSDOF 0
ENDMDL
