MODEL 1
REMARK minimizedAffinity -0.454513907
REMARK minimizedRMSD -1
REMARK  0 active torsions:
REMARK  status: ('A' for Active; 'I' for Inactive)
ROOT
ATOM      1  C   UNL d   1       0.881   1.929  -1.245  0.00  0.00     0.124 A 
ATOM      2  C1  UNL d   1       1.071   1.104  -2.345  0.00  0.00     0.062 A 
ATOM      3  C2  UNL d   1       1.314  -0.255  -2.168  0.00  0.00     0.162 A 
ATOM      4  C3  UNL d   1       1.368  -0.799  -0.884  0.00  0.00    -0.034 A 
ATOM      5  C4  UNL d   1       1.177   0.037   0.217  0.00  0.00     0.162 A 
ATOM      6  C5  UNL d   1       0.934   1.395   0.035  0.00  0.00     0.062 A 
ATOM      7  F   UNL d   1       0.751   2.190   1.099  0.00  0.00    -0.097 F 
ATOM      8  F1  UNL d   1       1.222  -0.452   1.465  0.00  0.00    -0.096 F 
ATOM      9  I   UNL d   1       1.731  -2.830  -0.615  0.00  0.00    -0.060 I 
ATOM     10  F2  UNL d   1       1.494  -1.028  -3.249  0.00  0.00    -0.096 F 
ATOM     11  F3  UNL d   1       1.021   1.617  -3.583  0.00  0.00    -0.097 F 
ATOM     12  F4  UNL d   1       0.648   3.236  -1.419  0.00  0.00    -0.092 F 
ENDROOT
TORSDOF 0
ENDMDL
