MODEL 1
REMARK minimizedAffinity -2.02290845
REMARK minimizedRMSD -1
REMARK  0 active torsions:
REMARK  status: ('A' for Active; 'I' for Inactive)
ROOT
ATOM      1  C   UNL d   1       1.245   0.623  -0.002  0.00  0.00     0.124 A 
ATOM      2  C1  UNL d   1       1.216   1.085  -1.311  0.00  0.00     0.062 A 
ATOM      3  C2  UNL d   1       1.339   2.445  -1.576  0.00  0.00     0.162 A 
ATOM      4  C3  UNL d   1       1.492   3.355  -0.530  0.00  0.00    -0.034 A 
ATOM      5  C4  UNL d   1       1.520   2.884   0.784  0.00  0.00     0.162 A 
ATOM      6  C5  UNL d   1       1.397   1.523   1.044  0.00  0.00     0.062 A 
ATOM      7  F   UNL d   1       1.425   1.080   2.309  0.00  0.00    -0.097 F 
ATOM      8  F1  UNL d   1       1.666   3.732   1.813  0.00  0.00    -0.096 F 
ATOM      9  I   UNL d   1       1.676   5.391  -0.923  0.00  0.00    -0.060 I 
ATOM     10  F2  UNL d   1       1.307   2.863  -2.850  0.00  0.00    -0.096 F 
ATOM     11  F3  UNL d   1       1.069   0.217  -2.322  0.00  0.00    -0.097 F 
ATOM     12  F4  UNL d   1       1.127  -0.686   0.251  0.00  0.00    -0.092 F 
ENDROOT
TORSDOF 0
ENDMDL
