MODEL 1
REMARK minimizedAffinity 7.33511448
REMARK minimizedRMSD -1
REMARK  0 active torsions:
REMARK  status: ('A' for Active; 'I' for Inactive)
ROOT
ATOM      1  C   UNL d   1       1.026   0.993  -0.283  0.00  0.00     0.124 A 
ATOM      2  C1  UNL d   1       1.126   1.888   0.774  0.00  0.00     0.062 A 
ATOM      3  C2  UNL d   1       1.361   3.237   0.528  0.00  0.00     0.162 A 
ATOM      4  C3  UNL d   1       1.499   3.701  -0.781  0.00  0.00    -0.034 A 
ATOM      5  C4  UNL d   1       1.399   2.794  -1.838  0.00  0.00     0.162 A 
ATOM      6  C5  UNL d   1       1.163   1.447  -1.587  0.00  0.00     0.062 A 
ATOM      7  F   UNL d   1       1.067   0.583  -2.609  0.00  0.00    -0.097 F 
ATOM      8  F1  UNL d   1       1.526   3.206  -3.108  0.00  0.00    -0.096 F 
ATOM      9  I   UNL d   1       1.851   5.718  -1.152  0.00  0.00    -0.060 I 
ATOM     10  F2  UNL d   1       1.453   4.080   1.568  0.00  0.00    -0.096 F 
ATOM     11  F3  UNL d   1       0.995   1.451   2.035  0.00  0.00    -0.097 F 
ATOM     12  F4  UNL d   1       0.800  -0.305  -0.043  0.00  0.00    -0.092 F 
ENDROOT
TORSDOF 0
ENDMDL
