MODEL 1
REMARK minimizedAffinity 4.21562386
REMARK minimizedRMSD -1
REMARK  0 active torsions:
REMARK  status: ('A' for Active; 'I' for Inactive)
ROOT
ATOM      1  C   UNL d   1       1.448   0.175   0.100  0.00  0.00     0.124 A 
ATOM      2  C1  UNL d   1       1.595   0.520  -1.236  0.00  0.00     0.062 A 
ATOM      3  C2  UNL d   1       1.513   1.853  -1.628  0.00  0.00     0.162 A 
ATOM      4  C3  UNL d   1       1.284   2.852  -0.682  0.00  0.00    -0.034 A 
ATOM      5  C4  UNL d   1       1.137   2.497   0.661  0.00  0.00     0.162 A 
ATOM      6  C5  UNL d   1       1.219   1.163   1.047  0.00  0.00     0.062 A 
ATOM      7  F   UNL d   1       1.077   0.832   2.339  0.00  0.00    -0.097 F 
ATOM      8  F1  UNL d   1       0.916   3.432   1.596  0.00  0.00    -0.096 F 
ATOM      9  I   UNL d   1       1.162   4.846  -1.263  0.00  0.00    -0.060 I 
ATOM     10  F2  UNL d   1       1.659   2.157  -2.926  0.00  0.00    -0.096 F 
ATOM     11  F3  UNL d   1       1.815  -0.433  -2.153  0.00  0.00    -0.097 F 
ATOM     12  F4  UNL d   1       1.526  -1.109   0.474  0.00  0.00    -0.092 F 
ENDROOT
TORSDOF 0
ENDMDL
