MODEL 1
REMARK minimizedAffinity 4.07988453
REMARK minimizedRMSD -1
REMARK  0 active torsions:
REMARK  status: ('A' for Active; 'I' for Inactive)
ROOT
ATOM      1  C   UNL d   1       1.201   3.122  -0.826  0.00  0.00     0.124 A 
ATOM      2  C1  UNL d   1       1.304   2.583   0.449  0.00  0.00     0.062 A 
ATOM      3  C2  UNL d   1       1.322   1.203   0.626  0.00  0.00     0.162 A 
ATOM      4  C3  UNL d   1       1.237   0.351  -0.475  0.00  0.00    -0.034 A 
ATOM      5  C4  UNL d   1       1.133   0.900  -1.755  0.00  0.00     0.162 A 
ATOM      6  C5  UNL d   1       1.115   2.281  -1.926  0.00  0.00     0.062 A 
ATOM      7  F   UNL d   1       1.016   2.800  -3.159  0.00  0.00    -0.097 F 
ATOM      8  F1  UNL d   1       1.049   0.110  -2.835  0.00  0.00    -0.096 F 
ATOM      9  I   UNL d   1       1.263  -1.714  -0.215  0.00  0.00    -0.060 I 
ATOM     10  F2  UNL d   1       1.422   0.710   1.869  0.00  0.00    -0.096 F 
ATOM     11  F3  UNL d   1       1.386   3.394   1.513  0.00  0.00    -0.097 F 
ATOM     12  F4  UNL d   1       1.183   4.451  -0.993  0.00  0.00    -0.092 F 
ENDROOT
TORSDOF 0
ENDMDL
