MODEL 1
REMARK minimizedAffinity 4.98120975
REMARK minimizedRMSD -1
REMARK  0 active torsions:
REMARK  status: ('A' for Active; 'I' for Inactive)
ROOT
ATOM      1  C   UNL d   1       1.326   0.128   0.162  0.00  0.00     0.124 A 
ATOM      2  C1  UNL d   1       1.222   1.051   1.193  0.00  0.00     0.062 A 
ATOM      3  C2  UNL d   1       1.309   2.414   0.924  0.00  0.00     0.162 A 
ATOM      4  C3  UNL d   1       1.500   2.862  -0.383  0.00  0.00    -0.034 A 
ATOM      5  C4  UNL d   1       1.605   1.927  -1.415  0.00  0.00     0.162 A 
ATOM      6  C5  UNL d   1       1.517   0.567  -1.140  0.00  0.00     0.062 A 
ATOM      7  F   UNL d   1       1.617  -0.324  -2.138  0.00  0.00    -0.097 F 
ATOM      8  F1  UNL d   1       1.789   2.324  -2.683  0.00  0.00    -0.096 F 
ATOM      9  I   UNL d   1       1.631   4.899  -0.790  0.00  0.00    -0.060 I 
ATOM     10  F2  UNL d   1       1.205   3.284   1.940  0.00  0.00    -0.096 F 
ATOM     11  F3  UNL d   1       1.038   0.630   2.453  0.00  0.00    -0.097 F 
ATOM     12  F4  UNL d   1       1.242  -1.183   0.424  0.00  0.00    -0.092 F 
ENDROOT
TORSDOF 0
ENDMDL
