MODEL 1
REMARK minimizedAffinity 11.4531174
REMARK minimizedRMSD -1
REMARK  0 active torsions:
REMARK  status: ('A' for Active; 'I' for Inactive)
ROOT
ATOM      1  C   UNL d   1       1.581  -2.947  -0.471  0.00  0.00     0.124 A 
ATOM      2  C1  UNL d   1       0.496  -2.541  -1.236  0.00  0.00     0.062 A 
ATOM      3  C2  UNL d   1       0.350  -1.203  -1.589  0.00  0.00     0.162 A 
ATOM      4  C3  UNL d   1       1.293  -0.260  -1.180  0.00  0.00    -0.034 A 
ATOM      5  C4  UNL d   1       2.381  -0.675  -0.410  0.00  0.00     0.162 A 
ATOM      6  C5  UNL d   1       2.522  -2.014  -0.059  0.00  0.00     0.062 A 
ATOM      7  F   UNL d   1       3.571  -2.404   0.680  0.00  0.00    -0.097 F 
ATOM      8  F1  UNL d   1       3.306   0.205   0.001  0.00  0.00    -0.096 F 
ATOM      9  I   UNL d   1       1.079   1.742  -1.706  0.00  0.00    -0.060 I 
ATOM     10  F2  UNL d   1      -0.708  -0.839  -2.329  0.00  0.00    -0.096 F 
ATOM     11  F3  UNL d   1      -0.415  -3.440  -1.634  0.00  0.00    -0.097 F 
ATOM     12  F4  UNL d   1       1.719  -4.235  -0.131  0.00  0.00    -0.092 F 
ENDROOT
TORSDOF 0
ENDMDL
