MODEL 1
REMARK minimizedAffinity 1.22625721
REMARK minimizedRMSD -1
REMARK  0 active torsions:
REMARK  status: ('A' for Active; 'I' for Inactive)
ROOT
ATOM      1  C   UNL d   1       0.936   0.551  -0.210  0.00  0.00     0.124 A 
ATOM      2  C1  UNL d   1       1.178   1.422   0.843  0.00  0.00     0.062 A 
ATOM      3  C2  UNL d   1       1.500   2.752   0.592  0.00  0.00     0.162 A 
ATOM      4  C3  UNL d   1       1.581   3.222  -0.719  0.00  0.00    -0.034 A 
ATOM      5  C4  UNL d   1       1.336   2.340  -1.774  0.00  0.00     0.162 A 
ATOM      6  C5  UNL d   1       1.015   1.011  -1.517  0.00  0.00     0.062 A 
ATOM      7  F   UNL d   1       0.781   0.171  -2.536  0.00  0.00    -0.097 F 
ATOM      8  F1  UNL d   1       1.405   2.758  -3.046  0.00  0.00    -0.096 F 
ATOM      9  I   UNL d   1       2.062   5.210  -1.099  0.00  0.00    -0.060 I 
ATOM     10  F2  UNL d   1       1.729   3.571   1.630  0.00  0.00    -0.096 F 
ATOM     11  F3  UNL d   1       1.103   0.980   2.107  0.00  0.00    -0.097 F 
ATOM     12  F4  UNL d   1       0.627  -0.729   0.034  0.00  0.00    -0.092 F 
ENDROOT
TORSDOF 0
ENDMDL
