MODEL 1
REMARK minimizedAffinity 0.227566943
REMARK minimizedRMSD -1
REMARK  0 active torsions:
REMARK  status: ('A' for Active; 'I' for Inactive)
ROOT
ATOM      1  C   UNL d   1       1.209   0.011  -0.596  0.00  0.00     0.124 A 
ATOM      2  C1  UNL d   1       1.297   0.413  -1.921  0.00  0.00     0.062 A 
ATOM      3  C2  UNL d   1       1.417   1.763  -2.236  0.00  0.00     0.162 A 
ATOM      4  C3  UNL d   1       1.450   2.722  -1.224  0.00  0.00    -0.034 A 
ATOM      5  C4  UNL d   1       1.360   2.310   0.107  0.00  0.00     0.162 A 
ATOM      6  C5  UNL d   1       1.241   0.959   0.417  0.00  0.00     0.062 A 
ATOM      7  F   UNL d   1       1.156   0.573   1.698  0.00  0.00    -0.097 F 
ATOM      8  F1  UNL d   1       1.390   3.206   1.105  0.00  0.00    -0.096 F 
ATOM      9  I   UNL d   1       1.629   4.742  -1.691  0.00  0.00    -0.060 I 
ATOM     10  F2  UNL d   1       1.500   2.123  -3.526  0.00  0.00    -0.096 F 
ATOM     11  F3  UNL d   1       1.265  -0.502  -2.901  0.00  0.00    -0.097 F 
ATOM     12  F4  UNL d   1       1.093  -1.289  -0.295  0.00  0.00    -0.092 F 
ENDROOT
TORSDOF 0
ENDMDL
