MODEL 1
REMARK minimizedAffinity 3.17155123
REMARK minimizedRMSD -1
REMARK  0 active torsions:
REMARK  status: ('A' for Active; 'I' for Inactive)
ROOT
ATOM      1  C   UNL d   1       0.995   0.569  -0.534  0.00  0.00     0.124 A 
ATOM      2  C1  UNL d   1       1.345   1.364   0.549  0.00  0.00     0.062 A 
ATOM      3  C2  UNL d   1       1.592   2.722   0.370  0.00  0.00     0.162 A 
ATOM      4  C3  UNL d   1       1.488   3.295  -0.898  0.00  0.00    -0.034 A 
ATOM      5  C4  UNL d   1       1.136   2.489  -1.982  0.00  0.00     0.162 A 
ATOM      6  C5  UNL d   1       0.891   1.133  -1.798  0.00  0.00     0.062 A 
ATOM      7  F   UNL d   1       0.552   0.367  -2.845  0.00  0.00    -0.097 F 
ATOM      8  F1  UNL d   1       1.027   3.008  -3.214  0.00  0.00    -0.096 F 
ATOM      9  I   UNL d   1       1.856   5.325  -1.169  0.00  0.00    -0.060 I 
ATOM     10  F2  UNL d   1       1.929   3.466   1.434  0.00  0.00    -0.096 F 
ATOM     11  F3  UNL d   1       1.447   0.822   1.771  0.00  0.00    -0.097 F 
ATOM     12  F4  UNL d   1       0.759  -0.737  -0.359  0.00  0.00    -0.092 F 
ENDROOT
TORSDOF 0
ENDMDL
