MODEL 1
REMARK minimizedAffinity 6.51289463
REMARK minimizedRMSD -1
REMARK  0 active torsions:
REMARK  status: ('A' for Active; 'I' for Inactive)
ROOT
ATOM      1  C   UNL d   1       1.655   0.866  -0.394  0.00  0.00     0.124 A 
ATOM      2  C1  UNL d   1       1.425   1.336  -1.679  0.00  0.00     0.062 A 
ATOM      3  C2  UNL d   1       1.446   2.703  -1.939  0.00  0.00     0.162 A 
ATOM      4  C3  UNL d   1       1.698   3.611  -0.911  0.00  0.00    -0.034 A 
ATOM      5  C4  UNL d   1       1.927   3.131   0.380  0.00  0.00     0.162 A 
ATOM      6  C5  UNL d   1       1.905   1.763   0.635  0.00  0.00     0.062 A 
ATOM      7  F   UNL d   1       2.127   1.311   1.877  0.00  0.00    -0.097 F 
ATOM      8  F1  UNL d   1       2.172   3.976   1.392  0.00  0.00    -0.096 F 
ATOM      9  I   UNL d   1       1.729   5.656  -1.295  0.00  0.00    -0.060 I 
ATOM     10  F2  UNL d   1       1.220   3.128  -3.191  0.00  0.00    -0.096 F 
ATOM     11  F3  UNL d   1       1.182   0.470  -2.674  0.00  0.00    -0.097 F 
ATOM     12  F4  UNL d   1       1.633  -0.450  -0.146  0.00  0.00    -0.092 F 
ENDROOT
TORSDOF 0
ENDMDL
