MODEL 1
REMARK minimizedAffinity 2.38164139
REMARK minimizedRMSD -1
REMARK  0 active torsions:
REMARK  status: ('A' for Active; 'I' for Inactive)
ROOT
ATOM      1  C   UNL d   1       1.050   0.911  -0.660  0.00  0.00     0.124 A 
ATOM      2  C1  UNL d   1       1.102   1.698   0.483  0.00  0.00     0.062 A 
ATOM      3  C2  UNL d   1       1.344   3.064   0.381  0.00  0.00     0.162 A 
ATOM      4  C3  UNL d   1       1.535   3.654  -0.869  0.00  0.00    -0.034 A 
ATOM      5  C4  UNL d   1       1.482   2.856  -2.013  0.00  0.00     0.162 A 
ATOM      6  C5  UNL d   1       1.240   1.491  -1.906  0.00  0.00     0.062 A 
ATOM      7  F   UNL d   1       1.189   0.732  -3.011  0.00  0.00    -0.097 F 
ATOM      8  F1  UNL d   1       1.661   3.391  -3.230  0.00  0.00    -0.096 F 
ATOM      9  I   UNL d   1       1.898   5.698  -1.026  0.00  0.00    -0.060 I 
ATOM     10  F2  UNL d   1       1.390   3.800   1.501  0.00  0.00    -0.096 F 
ATOM     11  F3  UNL d   1       0.920   1.140   1.688  0.00  0.00    -0.097 F 
ATOM     12  F4  UNL d   1       0.817  -0.404  -0.559  0.00  0.00    -0.092 F 
ENDROOT
TORSDOF 0
ENDMDL
