MODEL 1
REMARK minimizedAffinity -1.36356497
REMARK minimizedRMSD -1
REMARK  0 active torsions:
REMARK  status: ('A' for Active; 'I' for Inactive)
ROOT
ATOM      1  C   UNL d   1       0.875   2.831  -0.648  0.00  0.00     0.124 A 
ATOM      2  C1  UNL d   1       0.927   2.261   0.616  0.00  0.00     0.062 A 
ATOM      3  C2  UNL d   1       1.309   0.931   0.769  0.00  0.00     0.162 A 
ATOM      4  C3  UNL d   1       1.643   0.162  -0.346  0.00  0.00    -0.034 A 
ATOM      5  C4  UNL d   1       1.588   0.743  -1.614  0.00  0.00     0.162 A 
ATOM      6  C5  UNL d   1       1.205   2.072  -1.762  0.00  0.00     0.062 A 
ATOM      7  F   UNL d   1       1.156   2.622  -2.984  0.00  0.00    -0.097 F 
ATOM      8  F1  UNL d   1       1.903   0.033  -2.708  0.00  0.00    -0.096 F 
ATOM      9  I   UNL d   1       2.215  -1.826  -0.122  0.00  0.00    -0.060 I 
ATOM     10  F2  UNL d   1       1.350   0.406   2.002  0.00  0.00    -0.096 F 
ATOM     11  F3  UNL d   1       0.607   2.992   1.694  0.00  0.00    -0.097 F 
ATOM     12  F4  UNL d   1       0.506   4.111  -0.792  0.00  0.00    -0.092 F 
ENDROOT
TORSDOF 0
ENDMDL
