MODEL 1
REMARK minimizedAffinity 3.05282283
REMARK minimizedRMSD -1
REMARK  0 active torsions:
REMARK  status: ('A' for Active; 'I' for Inactive)
ROOT
ATOM      1  C   UNL d   1       1.302   0.410   0.040  0.00  0.00     0.124 A 
ATOM      2  C1  UNL d   1       1.378   0.817  -1.285  0.00  0.00     0.062 A 
ATOM      3  C2  UNL d   1       1.711   2.132  -1.596  0.00  0.00     0.162 A 
ATOM      4  C3  UNL d   1       1.972   3.051  -0.579  0.00  0.00    -0.034 A 
ATOM      5  C4  UNL d   1       1.893   2.635   0.751  0.00  0.00     0.162 A 
ATOM      6  C5  UNL d   1       1.559   1.319   1.056  0.00  0.00     0.062 A 
ATOM      7  F   UNL d   1       1.486   0.928   2.337  0.00  0.00    -0.097 F 
ATOM      8  F1  UNL d   1       2.138   3.492   1.753  0.00  0.00    -0.096 F 
ATOM      9  I   UNL d   1       2.471   5.018  -1.040  0.00  0.00    -0.060 I 
ATOM     10  F2  UNL d   1       1.777   2.497  -2.885  0.00  0.00    -0.096 F 
ATOM     11  F3  UNL d   1       1.129  -0.060  -2.269  0.00  0.00    -0.097 F 
ATOM     12  F4  UNL d   1       0.980  -0.856   0.336  0.00  0.00    -0.092 F 
ENDROOT
TORSDOF 0
ENDMDL
