MODEL 1
REMARK minimizedAffinity -2.20033455
REMARK minimizedRMSD -1
REMARK  0 active torsions:
REMARK  status: ('A' for Active; 'I' for Inactive)
ROOT
ATOM      1  C   UNL d   1       0.980   2.962   0.951  0.00  0.00     0.124 A 
ATOM      2  C1  UNL d   1       1.144   3.097  -0.420  0.00  0.00     0.062 A 
ATOM      3  C2  UNL d   1       1.272   1.968  -1.225  0.00  0.00     0.162 A 
ATOM      4  C3  UNL d   1       1.235   0.693  -0.659  0.00  0.00    -0.034 A 
ATOM      5  C4  UNL d   1       1.071   0.565   0.721  0.00  0.00     0.162 A 
ATOM      6  C5  UNL d   1       0.944   1.697   1.521  0.00  0.00     0.062 A 
ATOM      7  F   UNL d   1       0.786   1.564   2.846  0.00  0.00    -0.097 F 
ATOM      8  F1  UNL d   1       1.032  -0.645   1.297  0.00  0.00    -0.096 F 
ATOM      9  I   UNL d   1       1.426  -0.997  -1.859  0.00  0.00    -0.060 I 
ATOM     10  F2  UNL d   1       1.429   2.129  -2.547  0.00  0.00    -0.096 F 
ATOM     11  F3  UNL d   1       1.180   4.318  -0.973  0.00  0.00    -0.097 F 
ATOM     12  F4  UNL d   1       0.859   4.049   1.723  0.00  0.00    -0.092 F 
ENDROOT
TORSDOF 0
ENDMDL
