MODEL 1
REMARK minimizedAffinity -4.1658144
REMARK minimizedRMSD -1
REMARK  0 active torsions:
REMARK  status: ('A' for Active; 'I' for Inactive)
ROOT
ATOM      1  C   UNL d   1       2.553   0.654  -0.850  0.00  0.00     0.020 A 
ATOM      2  C1  UNL d   1       2.850  -0.705  -0.945  0.00  0.00     0.020 A 
ATOM      3  C2  UNL d   1       1.826  -1.651  -0.862  0.00  0.00     0.034 A 
ATOM      4  C3  UNL d   1       0.500  -1.239  -0.683  0.00  0.00     0.017 A 
ATOM      5  C4  UNL d   1       0.203   0.125  -0.588  0.00  0.00     0.017 A 
ATOM      6  C5  UNL d   1       1.232   1.068  -0.672  0.00  0.00     0.034 A 
ATOM      7 Cl   UNL d   1      -1.408   0.710  -0.367  0.00  0.00    -0.070 Cl
ATOM      8 Cl1  UNL d   1      -0.715  -2.463  -0.590  0.00  0.00    -0.070 Cl
ENDROOT
TORSDOF 0
ENDMDL
