MODEL 1
REMARK minimizedAffinity -2.23083138
REMARK minimizedRMSD -1
REMARK  0 active torsions:
REMARK  status: ('A' for Active; 'I' for Inactive)
ROOT
ATOM      1  C   UNL d   1       2.786  -1.148  -1.436  0.00  0.00     0.020 A 
ATOM      2  C1  UNL d   1       2.640   0.216  -1.190  0.00  0.00     0.020 A 
ATOM      3  C2  UNL d   1       1.485   0.693  -0.566  0.00  0.00     0.034 A 
ATOM      4  C3  UNL d   1       0.472  -0.195  -0.186  0.00  0.00     0.017 A 
ATOM      5  C4  UNL d   1       0.620  -1.565  -0.434  0.00  0.00     0.017 A 
ATOM      6  C5  UNL d   1       1.778  -2.037  -1.059  0.00  0.00     0.034 A 
ATOM      7 Cl   UNL d   1      -0.586  -2.722   0.006  0.00  0.00    -0.070 Cl
ATOM      8 Cl1  UNL d   1      -0.928   0.464   0.582  0.00  0.00    -0.070 Cl
ENDROOT
TORSDOF 0
ENDMDL
