MODEL 1
REMARK minimizedAffinity 1.61205089
REMARK minimizedRMSD -1
REMARK  0 active torsions:
REMARK  status: ('A' for Active; 'I' for Inactive)
ROOT
ATOM      1  C   UNL d   1       0.672  -2.405   0.365  0.00  0.00     0.020 A 
ATOM      2  C1  UNL d   1      -0.265  -1.466   0.797  0.00  0.00     0.020 A 
ATOM      3  C2  UNL d   1      -0.299  -0.196   0.217  0.00  0.00     0.034 A 
ATOM      4  C3  UNL d   1       0.605   0.139  -0.798  0.00  0.00     0.017 A 
ATOM      5  C4  UNL d   1       1.545  -0.804  -1.231  0.00  0.00     0.017 A 
ATOM      6  C5  UNL d   1       1.574  -2.074  -0.647  0.00  0.00     0.034 A 
ATOM      7 Cl   UNL d   1       2.692  -0.464  -2.478  0.00  0.00    -0.070 Cl
ATOM      8 Cl1  UNL d   1       0.506   1.727  -1.470  0.00  0.00    -0.070 Cl
ENDROOT
TORSDOF 0
ENDMDL
