MODEL 1
REMARK minimizedAffinity -0.359518796
REMARK minimizedRMSD -1
REMARK  0 active torsions:
REMARK  status: ('A' for Active; 'I' for Inactive)
ROOT
ATOM      1  C   UNL d   1       2.083  -2.104  -0.954  0.00  0.00     0.020 A 
ATOM      2  C1  UNL d   1       2.772  -1.043  -1.541  0.00  0.00     0.020 A 
ATOM      3  C2  UNL d   1       2.236   0.246  -1.499  0.00  0.00     0.034 A 
ATOM      4  C3  UNL d   1       1.007   0.477  -0.870  0.00  0.00     0.017 A 
ATOM      5  C4  UNL d   1       0.316  -0.589  -0.281  0.00  0.00     0.017 A 
ATOM      6  C5  UNL d   1       0.858  -1.877  -0.326  0.00  0.00     0.034 A 
ATOM      7 Cl   UNL d   1      -1.205  -0.381   0.513  0.00  0.00    -0.070 Cl
ATOM      8 Cl1  UNL d   1       0.404   2.096  -0.855  0.00  0.00    -0.070 Cl
ENDROOT
TORSDOF 0
ENDMDL
