MODEL 1
REMARK minimizedAffinity -4.03548861
REMARK minimizedRMSD -1
REMARK  0 active torsions:
REMARK  status: ('A' for Active; 'I' for Inactive)
ROOT
ATOM      1  C   UNL d   1       2.686  -0.352  -1.133  0.00  0.00     0.020 A 
ATOM      2  C1  UNL d   1       2.060   0.885  -0.976  0.00  0.00     0.020 A 
ATOM      3  C2  UNL d   1       0.758   0.949  -0.477  0.00  0.00     0.034 A 
ATOM      4  C3  UNL d   1       0.076  -0.224  -0.133  0.00  0.00     0.017 A 
ATOM      5  C4  UNL d   1       0.705  -1.464  -0.291  0.00  0.00     0.017 A 
ATOM      6  C5  UNL d   1       2.010  -1.523  -0.792  0.00  0.00     0.034 A 
ATOM      7 Cl   UNL d   1      -0.071  -2.955   0.111  0.00  0.00    -0.070 Cl
ATOM      8 Cl1  UNL d   1      -1.532  -0.069   0.479  0.00  0.00    -0.070 Cl
ENDROOT
TORSDOF 0
ENDMDL
