MODEL 1
REMARK minimizedAffinity -2.52231956
REMARK minimizedRMSD -1
REMARK  0 active torsions:
REMARK  status: ('A' for Active; 'I' for Inactive)
ROOT
ATOM      1  C   UNL d   1       2.654  -1.006  -0.753  0.00  0.00     0.020 A 
ATOM      2  C1  UNL d   1       2.524   0.358  -0.493  0.00  0.00     0.020 A 
ATOM      3  C2  UNL d   1       1.259   0.911  -0.283  0.00  0.00     0.034 A 
ATOM      4  C3  UNL d   1       0.119   0.100  -0.332  0.00  0.00     0.017 A 
ATOM      5  C4  UNL d   1       0.251  -1.269  -0.593  0.00  0.00     0.017 A 
ATOM      6  C5  UNL d   1       1.520  -1.818  -0.803  0.00  0.00     0.034 A 
ATOM      7 Cl   UNL d   1      -1.109  -2.333  -0.669  0.00  0.00    -0.070 Cl
ATOM      8 Cl1  UNL d   1      -1.414   0.850  -0.062  0.00  0.00    -0.070 Cl
ENDROOT
TORSDOF 0
ENDMDL
