MODEL 1
REMARK minimizedAffinity -3.27887726
REMARK minimizedRMSD -1
REMARK  0 active torsions:
REMARK  status: ('A' for Active; 'I' for Inactive)
ROOT
ATOM      1  C   UNL d   1       0.071  -1.783   0.164  0.00  0.00     0.020 A 
ATOM      2  C1  UNL d   1      -0.887  -0.774   0.075  0.00  0.00     0.020 A 
ATOM      3  C2  UNL d   1      -0.558   0.453  -0.504  0.00  0.00     0.034 A 
ATOM      4  C3  UNL d   1       0.734   0.674  -0.997  0.00  0.00     0.017 A 
ATOM      5  C4  UNL d   1       1.695  -0.339  -0.907  0.00  0.00     0.017 A 
ATOM      6  C5  UNL d   1       1.360  -1.566  -0.326  0.00  0.00     0.034 A 
ATOM      7 Cl   UNL d   1       3.309  -0.140  -1.493  0.00  0.00    -0.070 Cl
ATOM      8 Cl1  UNL d   1       1.071   2.216  -1.701  0.00  0.00    -0.070 Cl
ENDROOT
TORSDOF 0
ENDMDL
