MODEL 1
REMARK minimizedAffinity -4.9751668
REMARK minimizedRMSD -1
REMARK  0 active torsions:
REMARK  status: ('A' for Active; 'I' for Inactive)
ROOT
ATOM      1  C   UNL d   1       2.835   0.490  -0.886  0.00  0.00     0.020 A 
ATOM      2  C1  UNL d   1       3.011  -0.867  -1.154  0.00  0.00     0.020 A 
ATOM      3  C2  UNL d   1       1.935  -1.749  -1.030  0.00  0.00     0.034 A 
ATOM      4  C3  UNL d   1       0.678  -1.275  -0.637  0.00  0.00     0.017 A 
ATOM      5  C4  UNL d   1       0.503   0.088  -0.368  0.00  0.00     0.017 A 
ATOM      6  C5  UNL d   1       1.583   0.966  -0.494  0.00  0.00     0.034 A 
ATOM      7 Cl   UNL d   1      -1.018   0.747   0.121  0.00  0.00    -0.070 Cl
ATOM      8 Cl1  UNL d   1      -0.608  -2.421  -0.504  0.00  0.00    -0.070 Cl
ENDROOT
TORSDOF 0
ENDMDL
