MODEL 1
REMARK minimizedAffinity -3.75798416
REMARK minimizedRMSD -1
REMARK  0 active torsions:
REMARK  status: ('A' for Active; 'I' for Inactive)
ROOT
ATOM      1  C   UNL d   1       2.990   0.235  -0.335  0.00  0.00     0.020 A 
ATOM      2  C1  UNL d   1       2.976  -1.004  -0.974  0.00  0.00     0.020 A 
ATOM      3  C2  UNL d   1       1.773  -1.695  -1.130  0.00  0.00     0.034 A 
ATOM      4  C3  UNL d   1       0.579  -1.149  -0.645  0.00  0.00     0.017 A 
ATOM      5  C4  UNL d   1       0.594   0.095  -0.004  0.00  0.00     0.017 A 
ATOM      6  C5  UNL d   1       1.802   0.783   0.149  0.00  0.00     0.034 A 
ATOM      7 Cl   UNL d   1      -0.838   0.834   0.620  0.00  0.00    -0.070 Cl
ATOM      8 Cl1  UNL d   1      -0.872  -2.059  -0.872  0.00  0.00    -0.070 Cl
ENDROOT
TORSDOF 0
ENDMDL
