MODEL 1
REMARK minimizedAffinity -5.30698824
REMARK minimizedRMSD -1
REMARK  0 active torsions:
REMARK  status: ('A' for Active; 'I' for Inactive)
ROOT
ATOM      1  C   UNL d   1       3.568   0.172  -2.227  0.00  0.00     0.020 A 
ATOM      2  C1  UNL d   1       2.976   1.100  -3.083  0.00  0.00     0.020 A 
ATOM      3  C2  UNL d   1       1.673   1.540  -2.842  0.00  0.00     0.034 A 
ATOM      4  C3  UNL d   1       0.958   1.053  -1.742  0.00  0.00     0.017 A 
ATOM      5  C4  UNL d   1       1.553   0.122  -0.883  0.00  0.00     0.017 A 
ATOM      6  C5  UNL d   1       2.858  -0.315  -1.129  0.00  0.00     0.034 A 
ATOM      7 Cl   UNL d   1       0.734  -0.525   0.494  0.00  0.00    -0.070 Cl
ATOM      8 Cl1  UNL d   1      -0.649   1.641  -1.504  0.00  0.00    -0.070 Cl
ENDROOT
TORSDOF 0
ENDMDL
