MODEL 1
REMARK minimizedAffinity -3.99723244
REMARK minimizedRMSD -1
REMARK  0 active torsions:
REMARK  status: ('A' for Active; 'I' for Inactive)
ROOT
ATOM      1  C   UNL d   1       2.674   0.540  -0.684  0.00  0.00     0.020 A 
ATOM      2  C1  UNL d   1       2.955  -0.810  -0.887  0.00  0.00     0.020 A 
ATOM      3  C2  UNL d   1       1.929  -1.755  -0.821  0.00  0.00     0.034 A 
ATOM      4  C3  UNL d   1       0.617  -1.350  -0.551  0.00  0.00     0.017 A 
ATOM      5  C4  UNL d   1       0.335   0.006  -0.348  0.00  0.00     0.017 A 
ATOM      6  C5  UNL d   1       1.367   0.947  -0.415  0.00  0.00     0.034 A 
ATOM      7 Cl   UNL d   1      -1.259   0.581  -0.010  0.00  0.00    -0.070 Cl
ATOM      8 Cl1  UNL d   1      -0.603  -2.572  -0.484  0.00  0.00    -0.070 Cl
ENDROOT
TORSDOF 0
ENDMDL
