MODEL 1
REMARK minimizedAffinity -5.19926882
REMARK minimizedRMSD -1
REMARK  0 active torsions:
REMARK  status: ('A' for Active; 'I' for Inactive)
ROOT
ATOM      1  C   UNL d   1       1.885   1.157  -2.247  0.00  0.00     0.020 A 
ATOM      2  C1  UNL d   1       2.665   0.029  -1.994  0.00  0.00     0.020 A 
ATOM      3  C2  UNL d   1       2.208  -0.952  -1.111  0.00  0.00     0.034 A 
ATOM      4  C3  UNL d   1       0.968  -0.806  -0.478  0.00  0.00     0.017 A 
ATOM      5  C4  UNL d   1       0.186   0.326  -0.733  0.00  0.00     0.017 A 
ATOM      6  C5  UNL d   1       0.648   1.305  -1.618  0.00  0.00     0.034 A 
ATOM      7 Cl   UNL d   1      -1.354   0.576   0.010  0.00  0.00    -0.070 Cl
ATOM      8 Cl1  UNL d   1       0.466  -2.058   0.602  0.00  0.00    -0.070 Cl
ENDROOT
TORSDOF 0
ENDMDL
