MODEL 1
REMARK minimizedAffinity -4.80542707
REMARK minimizedRMSD -1
REMARK  0 active torsions:
REMARK  status: ('A' for Active; 'I' for Inactive)
ROOT
ATOM      1  C   UNL d   1       2.093   0.925  -1.235  0.00  0.00     0.020 A 
ATOM      2  C1  UNL d   1       2.442  -0.368  -1.624  0.00  0.00     0.020 A 
ATOM      3  C2  UNL d   1       1.627  -1.447  -1.273  0.00  0.00     0.034 A 
ATOM      4  C3  UNL d   1       0.459  -1.235  -0.532  0.00  0.00     0.017 A 
ATOM      5  C4  UNL d   1       0.109   0.064  -0.142  0.00  0.00     0.017 A 
ATOM      6  C5  UNL d   1       0.929   1.140  -0.496  0.00  0.00     0.034 A 
ATOM      7 Cl   UNL d   1      -1.316   0.404   0.774  0.00  0.00    -0.070 Cl
ATOM      8 Cl1  UNL d   1      -0.501  -2.614  -0.133  0.00  0.00    -0.070 Cl
ENDROOT
TORSDOF 0
ENDMDL
