MODEL 1
REMARK minimizedAffinity -1.76445925
REMARK minimizedRMSD -1
REMARK  0 active torsions:
REMARK  status: ('A' for Active; 'I' for Inactive)
ROOT
ATOM      1  C   UNL d   1      -0.889  -0.094   0.117  0.00  0.00     0.020 A 
ATOM      2  C1  UNL d   1       0.379   0.340   0.503  0.00  0.00     0.020 A 
ATOM      3  C2  UNL d   1       0.578   0.863   1.782  0.00  0.00     0.034 A 
ATOM      4  C3  UNL d   1      -0.492   0.954   2.680  0.00  0.00     0.017 A 
ATOM      5  C4  UNL d   1      -1.764   0.518   2.291  0.00  0.00     0.017 A 
ATOM      6  C5  UNL d   1      -1.958  -0.005   1.009  0.00  0.00     0.034 A 
ATOM      7 Cl   UNL d   1      -3.132   0.598   3.344  0.00  0.00    -0.070 Cl
ATOM      8 Cl1  UNL d   1      -0.173   1.611   4.246  0.00  0.00    -0.070 Cl
ENDROOT
TORSDOF 0
ENDMDL
