MODEL 1
REMARK minimizedAffinity -2.93666792
REMARK minimizedRMSD -1
REMARK  0 active torsions:
REMARK  status: ('A' for Active; 'I' for Inactive)
ROOT
ATOM      1  C   UNL d   1       0.410   1.644  -0.069  0.00  0.00     0.020 A 
ATOM      2  C1  UNL d   1      -0.602   0.695   0.073  0.00  0.00     0.020 A 
ATOM      3  C2  UNL d   1      -0.369  -0.633  -0.290  0.00  0.00     0.034 A 
ATOM      4  C3  UNL d   1       0.879  -1.016  -0.797  0.00  0.00     0.017 A 
ATOM      5  C4  UNL d   1       1.894  -0.063  -0.938  0.00  0.00     0.017 A 
ATOM      6  C5  UNL d   1       1.655   1.266  -0.573  0.00  0.00     0.034 A 
ATOM      7 Cl   UNL d   1       3.458  -0.460  -1.556  0.00  0.00    -0.070 Cl
ATOM      8 Cl1  UNL d   1       1.097  -2.676  -1.225  0.00  0.00    -0.070 Cl
ENDROOT
TORSDOF 0
ENDMDL
