MODEL 1
REMARK minimizedAffinity -2.62178087
REMARK minimizedRMSD -1
REMARK  0 active torsions:
REMARK  status: ('A' for Active; 'I' for Inactive)
ROOT
ATOM      1  C   UNL d   1      -0.484  -1.290  -0.010  0.00  0.00     0.020 A 
ATOM      2  C1  UNL d   1       0.367  -0.192   0.116  0.00  0.00     0.020 A 
ATOM      3  C2  UNL d   1       0.019   0.868   0.955  0.00  0.00     0.034 A 
ATOM      4  C3  UNL d   1      -1.184   0.834   1.672  0.00  0.00     0.017 A 
ATOM      5  C4  UNL d   1      -2.037  -0.268   1.544  0.00  0.00     0.017 A 
ATOM      6  C5  UNL d   1      -1.683  -1.328   0.703  0.00  0.00     0.034 A 
ATOM      7 Cl   UNL d   1      -3.536  -0.383   2.396  0.00  0.00    -0.070 Cl
ATOM      8 Cl1  UNL d   1      -1.550   2.180   2.691  0.00  0.00    -0.070 Cl
ENDROOT
TORSDOF 0
ENDMDL
