MODEL 1
REMARK minimizedAffinity -4.69143057
REMARK minimizedRMSD -1
REMARK  0 active torsions:
REMARK  status: ('A' for Active; 'I' for Inactive)
ROOT
ATOM      1  C   UNL d   1       2.968  -0.682  -1.304  0.00  0.00     0.020 A 
ATOM      2  C1  UNL d   1       2.674   0.666  -1.108  0.00  0.00     0.020 A 
ATOM      3  C2  UNL d   1       1.419   1.044  -0.623  0.00  0.00     0.034 A 
ATOM      4  C3  UNL d   1       0.455   0.072  -0.334  0.00  0.00     0.017 A 
ATOM      5  C4  UNL d   1       0.751  -1.282  -0.532  0.00  0.00     0.017 A 
ATOM      6  C5  UNL d   1       2.009  -1.654  -1.017  0.00  0.00     0.034 A 
ATOM      7 Cl   UNL d   1      -0.387  -2.538  -0.197  0.00  0.00    -0.070 Cl
ATOM      8 Cl1  UNL d   1      -1.075   0.610   0.263  0.00  0.00    -0.070 Cl
ENDROOT
TORSDOF 0
ENDMDL
