MODEL 1
REMARK minimizedAffinity -1.48875213
REMARK minimizedRMSD -1
REMARK  0 active torsions:
REMARK  status: ('A' for Active; 'I' for Inactive)
ROOT
ATOM      1  C   UNL d   1       2.066  -1.357  -1.111  0.00  0.00     0.020 A 
ATOM      2  C1  UNL d   1       1.281  -2.068  -0.204  0.00  0.00     0.020 A 
ATOM      3  C2  UNL d   1       0.169  -1.460   0.382  0.00  0.00     0.034 A 
ATOM      4  C3  UNL d   1      -0.161  -0.138   0.062  0.00  0.00     0.017 A 
ATOM      5  C4  UNL d   1       0.627   0.574  -0.848  0.00  0.00     0.017 A 
ATOM      6  C5  UNL d   1       1.740  -0.039  -1.432  0.00  0.00     0.034 A 
ATOM      7 Cl   UNL d   1       0.283   2.209  -1.293  0.00  0.00    -0.070 Cl
ATOM      8 Cl1  UNL d   1      -1.551   0.550   0.824  0.00  0.00    -0.070 Cl
ENDROOT
TORSDOF 0
ENDMDL
