MODEL 1
REMARK minimizedAffinity 7.03984213
REMARK minimizedRMSD -1
REMARK  0 active torsions:
REMARK  status: ('A' for Active; 'I' for Inactive)
ROOT
ATOM      1  C   UNL d   1      -2.522   1.972   1.301  0.00  0.00    -0.002 A 
ATOM      2  C1  UNL d   1      -2.457   0.703   0.744  0.00  0.00     0.010 A 
ATOM      3  C2  UNL d   1      -1.223   0.100   0.491  0.00  0.00     0.041 A 
ATOM      4  C3  UNL d   1      -0.044   0.800   0.813  0.00  0.00    -0.075 A 
ATOM      5  S   UNL d   1       1.578   0.260   0.594  0.00  0.00     0.015 SA
ATOM      6  C4  UNL d   1       2.224   1.701   1.236  0.00  0.00     0.022 A 
ATOM      7  C5  UNL d   1       1.240   2.584   1.614  0.00  0.00     0.026 A 
ATOM      8  C6  UNL d   1      -0.084   2.079   1.377  0.00  0.00    -0.082 A 
ATOM      9  C7  UNL d   1      -1.350   2.663   1.620  0.00  0.00     0.045 A 
ENDROOT
TORSDOF 0
ENDMDL
