MODEL 1
REMARK minimizedAffinity 5.60663605
REMARK minimizedRMSD -1
REMARK  0 active torsions:
REMARK  status: ('A' for Active; 'I' for Inactive)
ROOT
ATOM      1  C   UNL d   1      -2.820   5.972  -5.846  0.00  0.00    -0.002 A 
ATOM      2  C1  UNL d   1      -3.965   5.189  -5.874  0.00  0.00     0.010 A 
ATOM      3  C2  UNL d   1      -3.872   3.796  -5.922  0.00  0.00     0.041 A 
ATOM      4  C3  UNL d   1      -2.597   3.198  -5.939  0.00  0.00    -0.075 A 
ATOM      5  S   UNL d   1      -2.240   1.512  -5.996  0.00  0.00     0.015 SA
ATOM      6  C4  UNL d   1      -0.559   1.792  -5.983  0.00  0.00     0.022 A 
ATOM      7  C5  UNL d   1      -0.259   3.133  -5.937  0.00  0.00     0.026 A 
ATOM      8  C6  UNL d   1      -1.429   3.966  -5.911  0.00  0.00    -0.082 A 
ATOM      9  C7  UNL d   1      -1.556   5.375  -5.864  0.00  0.00     0.045 A 
ENDROOT
TORSDOF 0
ENDMDL
