MODEL 1
REMARK minimizedAffinity 7.28699875
REMARK minimizedRMSD -1
REMARK  0 active torsions:
REMARK  status: ('A' for Active; 'I' for Inactive)
ROOT
ATOM      1  C   UNL d   1      -3.363   0.373   0.874  0.00  0.00    -0.002 A 
ATOM      2  C1  UNL d   1      -2.403  -0.582   1.181  0.00  0.00     0.010 A 
ATOM      3  C2  UNL d   1      -1.051  -0.238   1.236  0.00  0.00     0.041 A 
ATOM      4  C3  UNL d   1      -0.676   1.095   0.977  0.00  0.00    -0.075 A 
ATOM      5  S   UNL d   1       0.920   1.746   0.988  0.00  0.00     0.015 SA
ATOM      6  C4  UNL d   1       0.366   3.308   0.587  0.00  0.00     0.022 A 
ATOM      7  C5  UNL d   1      -1.000   3.349   0.444  0.00  0.00     0.026 A 
ATOM      8  C6  UNL d   1      -1.624   2.074   0.667  0.00  0.00    -0.082 A 
ATOM      9  C7  UNL d   1      -2.987   1.694   0.618  0.00  0.00     0.045 A 
ENDROOT
TORSDOF 0
ENDMDL
