MODEL 1
REMARK minimizedAffinity 2.55830717
REMARK minimizedRMSD -1
REMARK  0 active torsions:
REMARK  status: ('A' for Active; 'I' for Inactive)
ROOT
ATOM      1  C   UNL d   1       1.494   3.654   1.563  0.00  0.00    -0.002 A 
ATOM      2  C1  UNL d   1       2.379   2.590   1.653  0.00  0.00     0.010 A 
ATOM      3  C2  UNL d   1       1.939   1.281   1.446  0.00  0.00     0.041 A 
ATOM      4  C3  UNL d   1       0.582   1.058   1.142  0.00  0.00    -0.075 A 
ATOM      5  S   UNL d   1      -0.182  -0.460   0.848  0.00  0.00     0.015 SA
ATOM      6  C4  UNL d   1      -1.702   0.270   0.596  0.00  0.00     0.022 A 
ATOM      7  C5  UNL d   1      -1.646   1.637   0.729  0.00  0.00     0.026 A 
ATOM      8  C6  UNL d   1      -0.329   2.114   1.046  0.00  0.00    -0.082 A 
ATOM      9  C7  UNL d   1       0.148   3.429   1.262  0.00  0.00     0.045 A 
ENDROOT
TORSDOF 0
ENDMDL
