MODEL 1
REMARK minimizedAffinity 3.88654757
REMARK minimizedRMSD -1
REMARK  0 active torsions:
REMARK  status: ('A' for Active; 'I' for Inactive)
ROOT
ATOM      1  C   UNL d   1      -1.792   1.072   0.950  0.00  0.00    -0.002 A 
ATOM      2  C1  UNL d   1      -1.331   2.280   1.452  0.00  0.00     0.010 A 
ATOM      3  C2  UNL d   1       0.038   2.504   1.618  0.00  0.00     0.041 A 
ATOM      4  C3  UNL d   1       0.943   1.484   1.265  0.00  0.00    -0.075 A 
ATOM      5  S   UNL d   1       2.662   1.534   1.381  0.00  0.00     0.015 SA
ATOM      6  C4  UNL d   1       2.824  -0.047   0.766  0.00  0.00     0.022 A 
ATOM      7  C5  UNL d   1       1.606  -0.614   0.474  0.00  0.00     0.026 A 
ATOM      8  C6  UNL d   1       0.502   0.259   0.756  0.00  0.00    -0.082 A 
ATOM      9  C7  UNL d   1      -0.891   0.062   0.601  0.00  0.00     0.045 A 
ENDROOT
TORSDOF 0
ENDMDL
