MODEL 1
REMARK minimizedAffinity 3.23830843
REMARK minimizedRMSD -1
REMARK  0 active torsions:
REMARK  status: ('A' for Active; 'I' for Inactive)
ROOT
ATOM      1  C   UNL d   1      -4.088   6.000  -4.763  0.00  0.00    -0.002 A 
ATOM      2  C1  UNL d   1      -5.088   5.052  -4.932  0.00  0.00     0.010 A 
ATOM      3  C2  UNL d   1      -4.772   3.747  -5.315  0.00  0.00     0.041 A 
ATOM      4  C3  UNL d   1      -3.422   3.407  -5.526  0.00  0.00    -0.075 A 
ATOM      5  S   UNL d   1      -2.799   1.870  -5.999  0.00  0.00     0.015 SA
ATOM      6  C4  UNL d   1      -1.191   2.435  -5.987  0.00  0.00     0.022 A 
ATOM      7  C5  UNL d   1      -1.113   3.761  -5.634  0.00  0.00     0.026 A 
ATOM      8  C6  UNL d   1      -2.397   4.343  -5.362  0.00  0.00    -0.082 A 
ATOM      9  C7  UNL d   1      -2.749   5.658  -4.974  0.00  0.00     0.045 A 
ENDROOT
TORSDOF 0
ENDMDL
