MODEL 1
REMARK minimizedAffinity 5.17769241
REMARK minimizedRMSD -1
REMARK  0 active torsions:
REMARK  status: ('A' for Active; 'I' for Inactive)
ROOT
ATOM      1  C   UNL d   1      -1.366   2.105   1.007  0.00  0.00    -0.002 A 
ATOM      2  C1  UNL d   1      -0.638   1.430   0.038  0.00  0.00     0.010 A 
ATOM      3  C2  UNL d   1       0.750   1.317   0.143  0.00  0.00     0.041 A 
ATOM      4  C3  UNL d   1       1.399   1.898   1.250  0.00  0.00    -0.075 A 
ATOM      5  S   UNL d   1       3.090   1.886   1.588  0.00  0.00     0.015 SA
ATOM      6  C4  UNL d   1       2.884   2.776   3.027  0.00  0.00     0.022 A 
ATOM      7  C5  UNL d   1       1.565   3.083   3.259  0.00  0.00     0.026 A 
ATOM      8  C6  UNL d   1       0.687   2.582   2.239  0.00  0.00    -0.082 A 
ATOM      9  C7  UNL d   1      -0.719   2.680   2.103  0.00  0.00     0.045 A 
ENDROOT
TORSDOF 0
ENDMDL
