MODEL 1
REMARK minimizedAffinity 9.522789
REMARK minimizedRMSD -1
REMARK  0 active torsions:
REMARK  status: ('A' for Active; 'I' for Inactive)
ROOT
ATOM      1  C   UNL d   1       0.976   0.051  -0.005  0.00  0.00    -0.002 A 
ATOM      2  C1  UNL d   1      -0.188   0.156   0.743  0.00  0.00     0.010 A 
ATOM      3  C2  UNL d   1      -1.247  -0.730   0.536  0.00  0.00     0.041 A 
ATOM      4  C3  UNL d   1      -1.115  -1.734  -0.444  0.00  0.00    -0.075 A 
ATOM      5  S   UNL d   1      -2.280  -2.930  -0.870  0.00  0.00     0.015 SA
ATOM      6  C4  UNL d   1      -1.260  -3.609  -2.055  0.00  0.00     0.022 A 
ATOM      7  C5  UNL d   1      -0.056  -2.951  -2.137  0.00  0.00     0.026 A 
ATOM      8  C6  UNL d   1       0.048  -1.859  -1.209  0.00  0.00    -0.082 A 
ATOM      9  C7  UNL d   1       1.104  -0.945  -0.976  0.00  0.00     0.045 A 
ENDROOT
TORSDOF 0
ENDMDL
