MODEL 1
REMARK minimizedAffinity 15.0897179
REMARK minimizedRMSD -1
REMARK  0 active torsions:
REMARK  status: ('A' for Active; 'I' for Inactive)
ROOT
ATOM      1  C   UNL d   1       1.797  -0.893  -1.547  0.00  0.00    -0.002 A 
ATOM      2  C1  UNL d   1       3.017  -0.772  -2.197  0.00  0.00     0.010 A 
ATOM      3  C2  UNL d   1       3.192   0.177  -3.206  0.00  0.00     0.041 A 
ATOM      4  C3  UNL d   1       2.112   1.012  -3.553  0.00  0.00    -0.075 A 
ATOM      5  S   UNL d   1       2.096   2.247  -4.756  0.00  0.00     0.015 SA
ATOM      6  C4  UNL d   1       0.469   2.643  -4.435  0.00  0.00     0.022 A 
ATOM      7  C5  UNL d   1      -0.064   1.862  -3.437  0.00  0.00     0.026 A 
ATOM      8  C6  UNL d   1       0.874   0.910  -2.911  0.00  0.00    -0.082 A 
ATOM      9  C7  UNL d   1       0.727  -0.063  -1.893  0.00  0.00     0.045 A 
ENDROOT
TORSDOF 0
ENDMDL
