MODEL 1
REMARK minimizedAffinity -5.40616512
REMARK minimizedRMSD -1
REMARK  0 active torsions:
REMARK  status: ('A' for Active; 'I' for Inactive)
ROOT
ATOM      1  C   UNL d   1      -1.827   2.755   0.395  0.00  0.00     0.124 A 
ATOM      2  C1  UNL d   1      -1.992   1.505   0.975  0.00  0.00     0.062 A 
ATOM      3  C2  UNL d   1      -1.121   0.467   0.660  0.00  0.00     0.162 A 
ATOM      4  C3  UNL d   1      -0.074   0.674  -0.239  0.00  0.00    -0.034 A 
ATOM      5  C4  UNL d   1       0.085   1.934  -0.818  0.00  0.00     0.162 A 
ATOM      6  C5  UNL d   1      -0.789   2.969  -0.500  0.00  0.00     0.062 A 
ATOM      7  F   UNL d   1      -0.627   4.176  -1.061  0.00  0.00    -0.097 F 
ATOM      8  F1  UNL d   1       1.081   2.169  -1.686  0.00  0.00    -0.096 F 
ATOM      9  I   UNL d   1       1.232  -0.876  -0.712  0.00  0.00    -0.060 I 
ATOM     10  F2  UNL d   1      -1.304  -0.731   1.235  0.00  0.00    -0.096 F 
ATOM     11  F3  UNL d   1      -2.995   1.296   1.840  0.00  0.00    -0.097 F 
ATOM     12  F4  UNL d   1      -2.668   3.752   0.699  0.00  0.00    -0.092 F 
ENDROOT
TORSDOF 0
ENDMDL
