MODEL 1
REMARK minimizedAffinity -1.83434057
REMARK minimizedRMSD -1
REMARK  0 active torsions:
REMARK  status: ('A' for Active; 'I' for Inactive)
ROOT
ATOM      1  C   UNL d   1      -1.525   2.742   0.181  0.00  0.00     0.124 A 
ATOM      2  C1  UNL d   1      -1.983   1.485   0.549  0.00  0.00     0.062 A 
ATOM      3  C2  UNL d   1      -1.247   0.349   0.223  0.00  0.00     0.162 A 
ATOM      4  C3  UNL d   1      -0.045   0.465  -0.473  0.00  0.00    -0.034 A 
ATOM      5  C4  UNL d   1       0.409   1.733  -0.841  0.00  0.00     0.162 A 
ATOM      6  C5  UNL d   1      -0.330   2.866  -0.514  0.00  0.00     0.062 A 
ATOM      7  F   UNL d   1       0.114   4.080  -0.870  0.00  0.00    -0.097 F 
ATOM      8  F1  UNL d   1       1.561   1.881  -1.512  0.00  0.00    -0.096 F 
ATOM      9  I   UNL d   1       1.059  -1.230  -0.962  0.00  0.00    -0.060 I 
ATOM     10  F2  UNL d   1      -1.714  -0.853   0.592  0.00  0.00    -0.096 F 
ATOM     11  F3  UNL d   1      -3.138   1.363   1.219  0.00  0.00    -0.097 F 
ATOM     12  F4  UNL d   1      -2.236   3.833   0.494  0.00  0.00    -0.092 F 
ENDROOT
TORSDOF 0
ENDMDL
