MODEL 1
REMARK minimizedAffinity 0.59859997
REMARK minimizedRMSD -1
REMARK  0 active torsions:
REMARK  status: ('A' for Active; 'I' for Inactive)
ROOT
ATOM      1  C   UNL d   1       0.831  -2.725  -1.955  0.00  0.00     0.124 A 
ATOM      2  C1  UNL d   1       1.449  -2.350  -0.771  0.00  0.00     0.062 A 
ATOM      3  C2  UNL d   1       0.969  -1.265  -0.043  0.00  0.00     0.162 A 
ATOM      4  C3  UNL d   1      -0.137  -0.547  -0.498  0.00  0.00    -0.034 A 
ATOM      5  C4  UNL d   1      -0.753  -0.929  -1.691  0.00  0.00     0.162 A 
ATOM      6  C5  UNL d   1      -0.269  -2.015  -2.414  0.00  0.00     0.062 A 
ATOM      7  F   UNL d   1      -0.868  -2.375  -3.559  0.00  0.00    -0.097 F 
ATOM      8  F1  UNL d   1      -1.818  -0.261  -2.157  0.00  0.00    -0.096 F 
ATOM      9  I   UNL d   1      -0.858   1.076   0.587  0.00  0.00    -0.060 I 
ATOM     10  F2  UNL d   1       1.586  -0.926   1.098  0.00  0.00    -0.096 F 
ATOM     11  F3  UNL d   1       2.513  -3.035  -0.326  0.00  0.00    -0.097 F 
ATOM     12  F4  UNL d   1       1.296  -3.769  -2.654  0.00  0.00    -0.092 F 
ENDROOT
TORSDOF 0
ENDMDL
