MODEL 1
REMARK minimizedAffinity -3.31744504
REMARK minimizedRMSD -1
REMARK  0 active torsions:
REMARK  status: ('A' for Active; 'I' for Inactive)
ROOT
ATOM      1  C   UNL d   1      -1.142   2.914   0.861  0.00  0.00     0.124 A 
ATOM      2  C1  UNL d   1      -1.132   1.715   1.560  0.00  0.00     0.062 A 
ATOM      3  C2  UNL d   1      -0.474   0.605   1.036  0.00  0.00     0.162 A 
ATOM      4  C3  UNL d   1       0.180   0.690  -0.192  0.00  0.00    -0.034 A 
ATOM      5  C4  UNL d   1       0.165   1.900  -0.890  0.00  0.00     0.162 A 
ATOM      6  C5  UNL d   1      -0.494   3.006  -0.362  0.00  0.00     0.062 A 
ATOM      7  F   UNL d   1      -0.503   4.163  -1.039  0.00  0.00    -0.097 F 
ATOM      8  F1  UNL d   1       0.785   2.016  -2.073  0.00  0.00    -0.096 F 
ATOM      9  I   UNL d   1       1.166  -0.966  -0.978  0.00  0.00    -0.060 I 
ATOM     10  F2  UNL d   1      -0.481  -0.541   1.733  0.00  0.00    -0.096 F 
ATOM     11  F3  UNL d   1      -1.759   1.624   2.742  0.00  0.00    -0.097 F 
ATOM     12  F4  UNL d   1      -1.777   3.980   1.366  0.00  0.00    -0.092 F 
ENDROOT
TORSDOF 0
ENDMDL
