MODEL 1
REMARK minimizedAffinity -4.62296009
REMARK minimizedRMSD -1
REMARK  0 active torsions:
REMARK  status: ('A' for Active; 'I' for Inactive)
ROOT
ATOM      1  C   UNL d   1      -1.520   2.911   0.659  0.00  0.00     0.124 A 
ATOM      2  C1  UNL d   1      -1.809   1.715   1.302  0.00  0.00     0.062 A 
ATOM      3  C2  UNL d   1      -1.073   0.569   1.014  0.00  0.00     0.162 A 
ATOM      4  C3  UNL d   1      -0.038   0.614   0.080  0.00  0.00    -0.034 A 
ATOM      5  C4  UNL d   1       0.246   1.820  -0.563  0.00  0.00     0.162 A 
ATOM      6  C5  UNL d   1      -0.493   2.962  -0.272  0.00  0.00     0.062 A 
ATOM      7  F   UNL d   1      -0.212   4.117  -0.894  0.00  0.00    -0.097 F 
ATOM      8  F1  UNL d   1       1.234   1.899  -1.467  0.00  0.00    -0.096 F 
ATOM      9  I   UNL d   1       1.065  -1.096  -0.353  0.00  0.00    -0.060 I 
ATOM     10  F2  UNL d   1      -1.374  -0.572   1.650  0.00  0.00    -0.096 F 
ATOM     11  F3  UNL d   1      -2.802   1.662   2.202  0.00  0.00    -0.097 F 
ATOM     12  F4  UNL d   1      -2.231   4.011   0.938  0.00  0.00    -0.092 F 
ENDROOT
TORSDOF 0
ENDMDL
