MODEL 1
REMARK minimizedAffinity -1.02744615
REMARK minimizedRMSD -1
REMARK  0 active torsions:
REMARK  status: ('A' for Active; 'I' for Inactive)
ROOT
ATOM      1  C   UNL d   1       0.137   1.028  -0.381  0.00  0.00     0.124 A 
ATOM      2  C1  UNL d   1       0.678   0.707  -1.618  0.00  0.00     0.062 A 
ATOM      3  C2  UNL d   1       0.502  -0.567  -2.150  0.00  0.00     0.162 A 
ATOM      4  C3  UNL d   1      -0.220  -1.531  -1.445  0.00  0.00    -0.034 A 
ATOM      5  C4  UNL d   1      -0.760  -1.201  -0.201  0.00  0.00     0.162 A 
ATOM      6  C5  UNL d   1      -0.582   0.074   0.326  0.00  0.00     0.062 A 
ATOM      7  F   UNL d   1      -1.105   0.382   1.522  0.00  0.00    -0.097 F 
ATOM      8  F1  UNL d   1      -1.460  -2.103   0.503  0.00  0.00    -0.096 F 
ATOM      9  I   UNL d   1      -0.485  -3.437  -2.237  0.00  0.00    -0.060 I 
ATOM     10  F2  UNL d   1       1.036  -0.849  -3.348  0.00  0.00    -0.096 F 
ATOM     11  F3  UNL d   1       1.373   1.627  -2.303  0.00  0.00    -0.097 F 
ATOM     12  F4  UNL d   1       0.308   2.254   0.129  0.00  0.00    -0.092 F 
ENDROOT
TORSDOF 0
ENDMDL
