MODEL 1
REMARK minimizedAffinity -2.48128343
REMARK minimizedRMSD -1
REMARK  0 active torsions:
REMARK  status: ('A' for Active; 'I' for Inactive)
ROOT
ATOM      1  C   UNL d   1      -1.205   2.276   0.481  0.00  0.00     0.124 A 
ATOM      2  C1  UNL d   1      -0.874   1.348   1.458  0.00  0.00     0.062 A 
ATOM      3  C2  UNL d   1       0.141   0.423   1.230  0.00  0.00     0.162 A 
ATOM      4  C3  UNL d   1       0.833   0.423   0.019  0.00  0.00    -0.034 A 
ATOM      5  C4  UNL d   1       0.494   1.359  -0.959  0.00  0.00     0.162 A 
ATOM      6  C5  UNL d   1      -0.521   2.281  -0.726  0.00  0.00     0.062 A 
ATOM      7  F   UNL d   1      -0.839   3.178  -1.671  0.00  0.00    -0.097 F 
ATOM      8  F1  UNL d   1       1.140   1.387  -2.134  0.00  0.00    -0.096 F 
ATOM      9  I   UNL d   1       2.352  -0.958  -0.326  0.00  0.00    -0.060 I 
ATOM     10  F2  UNL d   1       0.439  -0.463   2.192  0.00  0.00    -0.096 F 
ATOM     11  F3  UNL d   1      -1.535   1.340   2.625  0.00  0.00    -0.097 F 
ATOM     12  F4  UNL d   1      -2.183   3.164   0.703  0.00  0.00    -0.092 F 
ENDROOT
TORSDOF 0
ENDMDL
