MODEL 1
REMARK minimizedAffinity -4.32978296
REMARK minimizedRMSD -1
REMARK  0 active torsions:
REMARK  status: ('A' for Active; 'I' for Inactive)
ROOT
ATOM      1  C   UNL d   1      -1.492   3.408  -0.092  0.00  0.00     0.124 A 
ATOM      2  C1  UNL d   1      -1.961   2.948   1.131  0.00  0.00     0.062 A 
ATOM      3  C2  UNL d   1      -1.517   1.730   1.638  0.00  0.00     0.162 A 
ATOM      4  C3  UNL d   1      -0.599   0.963   0.922  0.00  0.00    -0.034 A 
ATOM      5  C4  UNL d   1      -0.132   1.431  -0.308  0.00  0.00     0.162 A 
ATOM      6  C5  UNL d   1      -0.578   2.650  -0.810  0.00  0.00     0.062 A 
ATOM      7  F   UNL d   1      -0.124   3.092  -1.991  0.00  0.00    -0.097 F 
ATOM      8  F1  UNL d   1       0.752   0.719  -1.022  0.00  0.00    -0.096 F 
ATOM      9  I   UNL d   1       0.067  -0.860   1.675  0.00  0.00    -0.060 I 
ATOM     10  F2  UNL d   1      -1.987   1.311   2.822  0.00  0.00    -0.096 F 
ATOM     11  F3  UNL d   1      -2.844   3.679   1.827  0.00  0.00    -0.097 F 
ATOM     12  F4  UNL d   1      -1.921   4.580  -0.577  0.00  0.00    -0.092 F 
ENDROOT
TORSDOF 0
ENDMDL
