MODEL 1
REMARK minimizedAffinity -2.71592712
REMARK minimizedRMSD -1
REMARK  0 active torsions:
REMARK  status: ('A' for Active; 'I' for Inactive)
ROOT
ATOM      1  C   UNL d   1      -0.583   2.383   0.903  0.00  0.00     0.124 A 
ATOM      2  C1  UNL d   1       0.148   2.308  -0.274  0.00  0.00     0.062 A 
ATOM      3  C2  UNL d   1       0.605   1.077  -0.737  0.00  0.00     0.162 A 
ATOM      4  C3  UNL d   1       0.330  -0.089  -0.023  0.00  0.00    -0.034 A 
ATOM      5  C4  UNL d   1      -0.405  -0.005   1.161  0.00  0.00     0.162 A 
ATOM      6  C5  UNL d   1      -0.858   1.227   1.619  0.00  0.00     0.062 A 
ATOM      7  F   UNL d   1      -1.565   1.298   2.757  0.00  0.00    -0.097 F 
ATOM      8  F1  UNL d   1      -0.686  -1.107   1.873  0.00  0.00    -0.096 F 
ATOM      9  I   UNL d   1       1.011  -1.931  -0.712  0.00  0.00    -0.060 I 
ATOM     10  F2  UNL d   1       1.309   1.034  -1.878  0.00  0.00    -0.096 F 
ATOM     11  F3  UNL d   1       0.417   3.424  -0.968  0.00  0.00    -0.097 F 
ATOM     12  F4  UNL d   1      -1.020   3.569   1.347  0.00  0.00    -0.092 F 
ENDROOT
TORSDOF 0
ENDMDL
