MODEL 1
REMARK minimizedAffinity -4.1880312
REMARK minimizedRMSD -1
REMARK  0 active torsions:
REMARK  status: ('A' for Active; 'I' for Inactive)
ROOT
ATOM      1  C   UNL d   1       0.318  -3.592  -2.535  0.00  0.00     0.124 A 
ATOM      2  C1  UNL d   1       0.097  -2.249  -2.808  0.00  0.00     0.062 A 
ATOM      3  C2  UNL d   1       0.172  -1.305  -1.788  0.00  0.00     0.162 A 
ATOM      4  C3  UNL d   1       0.471  -1.700  -0.484  0.00  0.00    -0.034 A 
ATOM      5  C4  UNL d   1       0.691  -3.053  -0.216  0.00  0.00     0.162 A 
ATOM      6  C5  UNL d   1       0.614  -3.992  -1.239  0.00  0.00     0.062 A 
ATOM      7  F   UNL d   1       0.828  -5.289  -0.973  0.00  0.00    -0.097 F 
ATOM      8  F1  UNL d   1       0.980  -3.467   1.026  0.00  0.00    -0.096 F 
ATOM      9  I   UNL d   1       0.584  -0.292   1.044  0.00  0.00    -0.060 I 
ATOM     10  F2  UNL d   1      -0.046  -0.015  -2.081  0.00  0.00    -0.096 F 
ATOM     11  F3  UNL d   1      -0.191  -1.860  -4.058  0.00  0.00    -0.097 F 
ATOM     12  F4  UNL d   1       0.243  -4.498  -3.518  0.00  0.00    -0.092 F 
ENDROOT
TORSDOF 0
ENDMDL
