MODEL 1
REMARK minimizedAffinity -3.59658313
REMARK minimizedRMSD -1
REMARK  0 active torsions:
REMARK  status: ('A' for Active; 'I' for Inactive)
ROOT
ATOM      1  C   UNL d   1      -1.147   2.514   0.527  0.00  0.00     0.124 A 
ATOM      2  C1  UNL d   1      -0.188   2.344  -0.462  0.00  0.00     0.062 A 
ATOM      3  C2  UNL d   1       0.364   1.087  -0.692  0.00  0.00     0.162 A 
ATOM      4  C3  UNL d   1      -0.042  -0.010   0.067  0.00  0.00    -0.034 A 
ATOM      5  C4  UNL d   1      -1.006   0.169   1.060  0.00  0.00     0.162 A 
ATOM      6  C5  UNL d   1      -1.555   1.427   1.287  0.00  0.00     0.062 A 
ATOM      7  F   UNL d   1      -2.481   1.590   2.243  0.00  0.00    -0.097 F 
ATOM      8  F1  UNL d   1      -1.419  -0.864   1.809  0.00  0.00    -0.096 F 
ATOM      9  I   UNL d   1       0.782  -1.891  -0.274  0.00  0.00    -0.060 I 
ATOM     10  F2  UNL d   1       1.289   0.952  -1.654  0.00  0.00    -0.096 F 
ATOM     11  F3  UNL d   1       0.209   3.393  -1.197  0.00  0.00    -0.097 F 
ATOM     12  F4  UNL d   1      -1.676   3.725   0.747  0.00  0.00    -0.092 F 
ENDROOT
TORSDOF 0
ENDMDL
