MODEL 1
REMARK minimizedAffinity -1.96505725
REMARK minimizedRMSD -1
REMARK  0 active torsions:
REMARK  status: ('A' for Active; 'I' for Inactive)
ROOT
ATOM      1  C   UNL d   1      -1.173   1.711   0.166  0.00  0.00     0.124 A 
ATOM      2  C1  UNL d   1       0.091   1.645  -0.404  0.00  0.00     0.062 A 
ATOM      3  C2  UNL d   1       0.682   0.410  -0.655  0.00  0.00     0.162 A 
ATOM      4  C3  UNL d   1       0.010  -0.769  -0.336  0.00  0.00    -0.034 A 
ATOM      5  C4  UNL d   1      -1.260  -0.695   0.239  0.00  0.00     0.162 A 
ATOM      6  C5  UNL d   1      -1.847   0.542   0.487  0.00  0.00     0.062 A 
ATOM      7  F   UNL d   1      -3.068   0.604   1.038  0.00  0.00    -0.097 F 
ATOM      8  F1  UNL d   1      -1.935  -1.809   0.558  0.00  0.00    -0.096 F 
ATOM      9  I   UNL d   1       0.890  -2.618  -0.709  0.00  0.00    -0.060 I 
ATOM     10  F2  UNL d   1       1.904   0.376  -1.207  0.00  0.00    -0.096 F 
ATOM     11  F3  UNL d   1       0.745   2.774  -0.714  0.00  0.00    -0.097 F 
ATOM     12  F4  UNL d   1      -1.739   2.901   0.407  0.00  0.00    -0.092 F 
ENDROOT
TORSDOF 0
ENDMDL
