MODEL 1
REMARK minimizedAffinity -3.39519358
REMARK minimizedRMSD -1
REMARK  0 active torsions:
REMARK  status: ('A' for Active; 'I' for Inactive)
ROOT
ATOM      1  C   UNL d   1      -1.593   2.550   0.916  0.00  0.00     0.124 A 
ATOM      2  C1  UNL d   1      -1.282   1.337   1.516  0.00  0.00     0.062 A 
ATOM      3  C2  UNL d   1      -0.382   0.466   0.909  0.00  0.00     0.162 A 
ATOM      4  C3  UNL d   1       0.216   0.805  -0.305  0.00  0.00    -0.034 A 
ATOM      5  C4  UNL d   1      -0.102   2.026  -0.903  0.00  0.00     0.162 A 
ATOM      6  C5  UNL d   1      -1.003   2.893  -0.292  0.00  0.00     0.062 A 
ATOM      7  F   UNL d   1      -1.302   4.064  -0.873  0.00  0.00    -0.097 F 
ATOM      8  F1  UNL d   1       0.454   2.384  -2.070  0.00  0.00    -0.096 F 
ATOM      9  I   UNL d   1       1.563  -0.494  -1.216  0.00  0.00    -0.060 I 
ATOM     10  F2  UNL d   1      -0.100  -0.699   1.511  0.00  0.00    -0.096 F 
ATOM     11  F3  UNL d   1      -1.852   1.002   2.683  0.00  0.00    -0.097 F 
ATOM     12  F4  UNL d   1      -2.460   3.385   1.502  0.00  0.00    -0.092 F 
ENDROOT
TORSDOF 0
ENDMDL
