MODEL 1
REMARK minimizedAffinity -1.2543819
REMARK minimizedRMSD -1
REMARK  0 active torsions:
REMARK  status: ('A' for Active; 'I' for Inactive)
ROOT
ATOM      1  C   UNL d   1      -0.313   1.693  -0.377  0.00  0.00     0.124 A 
ATOM      2  C1  UNL d   1      -0.195   0.820   0.695  0.00  0.00     0.062 A 
ATOM      3  C2  UNL d   1       0.093  -0.524   0.475  0.00  0.00     0.162 A 
ATOM      4  C3  UNL d   1       0.265  -1.003  -0.824  0.00  0.00    -0.034 A 
ATOM      5  C4  UNL d   1       0.144  -0.119  -1.897  0.00  0.00     0.162 A 
ATOM      6  C5  UNL d   1      -0.144   1.223  -1.672  0.00  0.00     0.062 A 
ATOM      7  F   UNL d   1      -0.257   2.065  -2.709  0.00  0.00    -0.097 F 
ATOM      8  F1  UNL d   1       0.303  -0.547  -3.159  0.00  0.00    -0.096 F 
ATOM      9  I   UNL d   1       0.694  -3.012  -1.157  0.00  0.00    -0.060 I 
ATOM     10  F2  UNL d   1       0.201  -1.346   1.530  0.00  0.00    -0.096 F 
ATOM     11  F3  UNL d   1      -0.358   1.271   1.947  0.00  0.00    -0.097 F 
ATOM     12  F4  UNL d   1      -0.590   2.986  -0.162  0.00  0.00    -0.092 F 
ENDROOT
TORSDOF 0
ENDMDL
