MODEL 1
REMARK minimizedAffinity 8.73771667
REMARK minimizedRMSD -1
REMARK  0 active torsions:
REMARK  status: ('A' for Active; 'I' for Inactive)
ROOT
ATOM      1  C   UNL d   1      -2.519   0.268   2.718  0.00  0.00     0.077 C 
ATOM      2  C1  UNL d   1      -2.894  -0.469   1.467  0.00  0.00    -0.074 A 
ATOM      3  C2  UNL d   1      -1.998  -0.576   0.399  0.00  0.00    -0.005 A 
ATOM      4  C3  UNL d   1      -2.357  -1.273  -0.754  0.00  0.00     0.006 A 
ATOM      5  C4  UNL d   1      -3.615  -1.870  -0.851  0.00  0.00    -0.005 A 
ATOM      6  C5  UNL d   1      -4.524  -1.775   0.207  0.00  0.00    -0.074 A 
ATOM      7  C6  UNL d   1      -5.876  -2.420   0.124  0.00  0.00     0.077 C 
ATOM      8  C7  UNL d   1      -4.153  -1.079   1.366  0.00  0.00    -0.001 A 
ENDROOT
TORSDOF 0
ENDMDL
