MODEL 1
REMARK minimizedAffinity -0.455050081
REMARK minimizedRMSD -1
REMARK  0 active torsions:
REMARK  status: ('A' for Active; 'I' for Inactive)
ROOT
ATOM      1  C   UNL d   1       2.563  -4.826   3.412  0.00  0.00     0.077 C 
ATOM      2  C1  UNL d   1       3.757  -4.806   4.319  0.00  0.00    -0.074 A 
ATOM      3  C2  UNL d   1       4.350  -5.996   4.752  0.00  0.00    -0.005 A 
ATOM      4  C3  UNL d   1       5.466  -5.962   5.588  0.00  0.00     0.006 A 
ATOM      5  C4  UNL d   1       5.999  -4.739   5.999  0.00  0.00    -0.005 A 
ATOM      6  C5  UNL d   1       5.420  -3.539   5.575  0.00  0.00    -0.074 A 
ATOM      7  C6  UNL d   1       5.987  -2.216   5.998  0.00  0.00     0.077 C 
ATOM      8  C7  UNL d   1       4.303  -3.582   4.729  0.00  0.00    -0.001 A 
ENDROOT
TORSDOF 0
ENDMDL
