MODEL 1
REMARK minimizedAffinity 3.87608171
REMARK minimizedRMSD -1
REMARK  0 active torsions:
REMARK  status: ('A' for Active; 'I' for Inactive)
ROOT
ATOM      1  C   UNL d   1       5.922   5.267   0.076  0.00  0.00     0.077 C 
ATOM      2  C1  UNL d   1       5.236   5.379   1.405  0.00  0.00    -0.074 A 
ATOM      3  C2  UNL d   1       3.947   5.911   1.507  0.00  0.00    -0.005 A 
ATOM      4  C3  UNL d   1       3.318   6.000   2.749  0.00  0.00     0.006 A 
ATOM      5  C4  UNL d   1       3.972   5.559   3.900  0.00  0.00    -0.005 A 
ATOM      6  C5  UNL d   1       5.261   5.023   3.818  0.00  0.00    -0.074 A 
ATOM      7  C6  UNL d   1       5.974   4.536   5.045  0.00  0.00     0.077 C 
ATOM      8  C7  UNL d   1       5.883   4.931   2.566  0.00  0.00    -0.001 A 
ENDROOT
TORSDOF 0
ENDMDL
