MODEL 1
REMARK minimizedAffinity 7.126091
REMARK minimizedRMSD -1
REMARK  0 active torsions:
REMARK  status: ('A' for Active; 'I' for Inactive)
ROOT
ATOM      1  C   UNL d   1       5.941   4.791   4.558  0.00  0.00     0.077 C 
ATOM      2  C1  UNL d   1       5.256   5.119   3.264  0.00  0.00    -0.074 A 
ATOM      3  C2  UNL d   1       3.981   5.692   3.251  0.00  0.00    -0.005 A 
ATOM      4  C3  UNL d   1       3.361   6.000   2.041  0.00  0.00     0.006 A 
ATOM      5  C4  UNL d   1       4.008   5.738   0.833  0.00  0.00    -0.005 A 
ATOM      6  C5  UNL d   1       5.285   5.166   0.826  0.00  0.00    -0.074 A 
ATOM      7  C6  UNL d   1       5.999   4.888  -0.463  0.00  0.00     0.077 C 
ATOM      8  C7  UNL d   1       5.904   4.866   2.047  0.00  0.00    -0.001 A 
ENDROOT
TORSDOF 0
ENDMDL
