MODEL 1
REMARK minimizedAffinity 12.6234417
REMARK minimizedRMSD -1
REMARK  0 active torsions:
REMARK  status: ('A' for Active; 'I' for Inactive)
ROOT
ATOM      1  C   UNL d   1      -4.209   4.462   1.774  0.00  0.00     0.077 C 
ATOM      2  C1  UNL d   1      -2.905   4.885   1.165  0.00  0.00    -0.074 A 
ATOM      3  C2  UNL d   1      -1.972   5.622   1.902  0.00  0.00    -0.005 A 
ATOM      4  C3  UNL d   1      -0.760   6.000   1.325  0.00  0.00     0.006 A 
ATOM      5  C4  UNL d   1      -0.468   5.645   0.008  0.00  0.00    -0.005 A 
ATOM      6  C5  UNL d   1      -1.388   4.908  -0.745  0.00  0.00    -0.074 A 
ATOM      7  C6  UNL d   1      -1.086   4.510  -2.159  0.00  0.00     0.077 C 
ATOM      8  C7  UNL d   1      -2.601   4.526  -0.156  0.00  0.00    -0.001 A 
ENDROOT
TORSDOF 0
ENDMDL
