MODEL 1
REMARK minimizedAffinity 15.5298309
REMARK minimizedRMSD -1
REMARK  0 active torsions:
REMARK  status: ('A' for Active; 'I' for Inactive)
ROOT
ATOM      1  C   UNL d   1      -1.324   5.697   6.000  0.00  0.00     0.077 C 
ATOM      2  C1  UNL d   1      -1.547   5.051   4.665  0.00  0.00    -0.074 A 
ATOM      3  C2  UNL d   1      -2.143   5.757   3.615  0.00  0.00    -0.005 A 
ATOM      4  C3  UNL d   1      -2.335   5.146   2.376  0.00  0.00     0.006 A 
ATOM      5  C4  UNL d   1      -1.935   3.824   2.175  0.00  0.00    -0.005 A 
ATOM      6  C5  UNL d   1      -1.337   3.102   3.213  0.00  0.00    -0.074 A 
ATOM      7  C6  UNL d   1      -0.893   1.684   3.010  0.00  0.00     0.077 C 
ATOM      8  C7  UNL d   1      -1.141   3.726   4.452  0.00  0.00    -0.001 A 
ENDROOT
TORSDOF 0
ENDMDL
