MODEL 1
REMARK minimizedAffinity 14.2347736
REMARK minimizedRMSD -1
REMARK  0 active torsions:
REMARK  status: ('A' for Active; 'I' for Inactive)
ROOT
ATOM      1  C   UNL d   1      -1.408   5.792   2.275  0.00  0.00     0.077 C 
ATOM      2  C1  UNL d   1      -2.151   5.798   3.577  0.00  0.00    -0.074 A 
ATOM      3  C2  UNL d   1      -1.466   5.766   4.796  0.00  0.00    -0.005 A 
ATOM      4  C3  UNL d   1      -2.170   5.781   6.000  0.00  0.00     0.006 A 
ATOM      5  C4  UNL d   1      -3.565   5.830   5.997  0.00  0.00    -0.005 A 
ATOM      6  C5  UNL d   1      -4.267   5.864   4.788  0.00  0.00    -0.074 A 
ATOM      7  C6  UNL d   1      -5.766   5.926   4.768  0.00  0.00     0.077 C 
ATOM      8  C7  UNL d   1      -3.552   5.855   3.583  0.00  0.00    -0.001 A 
ENDROOT
TORSDOF 0
ENDMDL
