MODEL 1
REMARK minimizedAffinity 2.77929997
REMARK minimizedRMSD -1
REMARK  0 active torsions:
REMARK  status: ('A' for Active; 'I' for Inactive)
ROOT
ATOM      1  C   UNL d   1      -2.034   0.699  -0.830  0.00  0.00     0.077 C 
ATOM      2  C1  UNL d   1      -2.208   1.057   0.616  0.00  0.00    -0.074 A 
ATOM      3  C2  UNL d   1      -1.658   0.260   1.625  0.00  0.00    -0.005 A 
ATOM      4  C3  UNL d   1      -1.821   0.611   2.965  0.00  0.00     0.006 A 
ATOM      5  C4  UNL d   1      -2.534   1.760   3.309  0.00  0.00    -0.005 A 
ATOM      6  C5  UNL d   1      -3.091   2.569   2.314  0.00  0.00    -0.074 A 
ATOM      7  C6  UNL d   1      -3.851   3.813   2.666  0.00  0.00     0.077 C 
ATOM      8  C7  UNL d   1      -2.917   2.214   0.969  0.00  0.00    -0.001 A 
ENDROOT
TORSDOF 0
ENDMDL
