MODEL 1
REMARK minimizedAffinity 9.53713703
REMARK minimizedRMSD -1
REMARK  0 active torsions:
REMARK  status: ('A' for Active; 'I' for Inactive)
ROOT
ATOM      1  C   UNL d   1      -1.870   0.609   3.165  0.00  0.00     0.077 C 
ATOM      2  C1  UNL d   1      -1.983  -0.012   1.805  0.00  0.00    -0.074 A 
ATOM      3  C2  UNL d   1      -3.139  -0.699   1.422  0.00  0.00    -0.005 A 
ATOM      4  C3  UNL d   1      -3.234  -1.263   0.150  0.00  0.00     0.006 A 
ATOM      5  C4  UNL d   1      -2.174  -1.146  -0.751  0.00  0.00    -0.005 A 
ATOM      6  C5  UNL d   1      -1.010  -0.463  -0.386  0.00  0.00    -0.074 A 
ATOM      7  C6  UNL d   1       0.134  -0.320  -1.345  0.00  0.00     0.077 C 
ATOM      8  C7  UNL d   1      -0.926   0.108   0.891  0.00  0.00    -0.001 A 
ENDROOT
TORSDOF 0
ENDMDL
