MODEL 1
REMARK minimizedAffinity 6.55754471
REMARK minimizedRMSD -1
REMARK  0 active torsions:
REMARK  status: ('A' for Active; 'I' for Inactive)
ROOT
ATOM      1  C   UNL d   1      -1.607   1.498   3.302  0.00  0.00     0.077 C 
ATOM      2  C1  UNL d   1      -1.945   0.861   1.987  0.00  0.00    -0.074 A 
ATOM      3  C2  UNL d   1      -2.992  -0.060   1.882  0.00  0.00    -0.005 A 
ATOM      4  C3  UNL d   1      -3.300  -0.637   0.650  0.00  0.00     0.006 A 
ATOM      5  C4  UNL d   1      -2.567  -0.299  -0.487  0.00  0.00    -0.005 A 
ATOM      6  C5  UNL d   1      -1.517   0.621  -0.403  0.00  0.00    -0.074 A 
ATOM      7  C6  UNL d   1      -0.725   1.002  -1.618  0.00  0.00     0.077 C 
ATOM      8  C7  UNL d   1      -1.217   1.202   0.837  0.00  0.00    -0.001 A 
ENDROOT
TORSDOF 0
ENDMDL
