MODEL 1
REMARK minimizedAffinity 6.54461098
REMARK minimizedRMSD -1
REMARK  0 active torsions:
REMARK  status: ('A' for Active; 'I' for Inactive)
ROOT
ATOM      1  C   UNL d   1      -1.626   1.028   3.053  0.00  0.00     0.077 C 
ATOM      2  C1  UNL d   1      -1.885   0.269   1.786  0.00  0.00    -0.074 A 
ATOM      3  C2  UNL d   1      -3.115  -0.358   1.562  0.00  0.00    -0.005 A 
ATOM      4  C3  UNL d   1      -3.344  -1.052   0.374  0.00  0.00     0.006 A 
ATOM      5  C4  UNL d   1      -2.348  -1.125  -0.601  0.00  0.00    -0.005 A 
ATOM      6  C5  UNL d   1      -1.113  -0.503  -0.395  0.00  0.00    -0.074 A 
ATOM      7  C6  UNL d   1      -0.035  -0.564  -1.437  0.00  0.00     0.077 C 
ATOM      8  C7  UNL d   1      -0.892   0.198   0.798  0.00  0.00    -0.001 A 
ENDROOT
TORSDOF 0
ENDMDL
