MODEL 1
REMARK minimizedAffinity 11.4754658
REMARK minimizedRMSD -1
REMARK  0 active torsions:
REMARK  status: ('A' for Active; 'I' for Inactive)
ROOT
ATOM      1  C   UNL d   1      -5.069   2.730   1.858  0.00  0.00     0.077 C 
ATOM      2  C1  UNL d   1      -3.932   1.755   1.930  0.00  0.00    -0.074 A 
ATOM      3  C2  UNL d   1      -3.200   1.589   3.110  0.00  0.00    -0.005 A 
ATOM      4  C3  UNL d   1      -2.151   0.672   3.164  0.00  0.00     0.006 A 
ATOM      5  C4  UNL d   1      -1.823  -0.087   2.040  0.00  0.00    -0.005 A 
ATOM      6  C5  UNL d   1      -2.543   0.064   0.852  0.00  0.00    -0.074 A 
ATOM      7  C6  UNL d   1      -2.210  -0.751  -0.362  0.00  0.00     0.077 C 
ATOM      8  C7  UNL d   1      -3.601   0.983   0.807  0.00  0.00    -0.001 A 
ENDROOT
TORSDOF 0
ENDMDL
