MODEL 1
REMARK minimizedAffinity 5.10288858
REMARK minimizedRMSD -1
REMARK  0 active torsions:
REMARK  status: ('A' for Active; 'I' for Inactive)
ROOT
ATOM      1  C   UNL d   1       1.880   5.999   0.245  0.00  0.00     0.077 C 
ATOM      2  C1  UNL d   1       3.314   5.706   0.570  0.00  0.00    -0.074 A 
ATOM      3  C2  UNL d   1       4.179   5.186  -0.399  0.00  0.00    -0.005 A 
ATOM      4  C3  UNL d   1       5.513   4.927  -0.086  0.00  0.00     0.006 A 
ATOM      5  C4  UNL d   1       5.995   5.185   1.198  0.00  0.00    -0.005 A 
ATOM      6  C5  UNL d   1       5.146   5.706   2.180  0.00  0.00    -0.074 A 
ATOM      7  C6  UNL d   1       5.651   5.999   3.561  0.00  0.00     0.077 C 
ATOM      8  C7  UNL d   1       3.809   5.970   1.855  0.00  0.00    -0.001 A 
ENDROOT
TORSDOF 0
ENDMDL
