MODEL 1
REMARK minimizedAffinity 10.4156466
REMARK minimizedRMSD -1
REMARK  0 active torsions:
REMARK  status: ('A' for Active; 'I' for Inactive)
ROOT
ATOM      1  C   UNL d   1       2.758   3.352  -2.718  0.00  0.00     0.077 C 
ATOM      2  C1  UNL d   1       2.182   1.977  -2.554  0.00  0.00    -0.074 A 
ATOM      3  C2  UNL d   1       2.860   0.851  -3.032  0.00  0.00    -0.005 A 
ATOM      4  C3  UNL d   1       2.316  -0.422  -2.863  0.00  0.00     0.006 A 
ATOM      5  C4  UNL d   1       1.090  -0.582  -2.216  0.00  0.00    -0.005 A 
ATOM      6  C5  UNL d   1       0.398   0.532  -1.731  0.00  0.00    -0.074 A 
ATOM      7  C6  UNL d   1      -0.916   0.376  -1.024  0.00  0.00     0.077 C 
ATOM      8  C7  UNL d   1       0.954   1.807  -1.898  0.00  0.00    -0.001 A 
ENDROOT
TORSDOF 0
ENDMDL
