MODEL 1
REMARK minimizedAffinity -0.895461977
REMARK minimizedRMSD -1
REMARK  0 active torsions:
REMARK  status: ('A' for Active; 'I' for Inactive)
ROOT
ATOM      1  C   UNL d   1      -0.266   0.693   0.280  0.00  0.00     0.124 A 
ATOM      2  C1  UNL d   1       0.246   0.131  -0.881  0.00  0.00     0.062 A 
ATOM      3  C2  UNL d   1       0.149  -1.241  -1.097  0.00  0.00     0.162 A 
ATOM      4  C3  UNL d   1      -0.466  -2.060  -0.149  0.00  0.00    -0.034 A 
ATOM      5  C4  UNL d   1      -0.978  -1.488   1.016  0.00  0.00     0.162 A 
ATOM      6  C5  UNL d   1      -0.878  -0.116   1.227  0.00  0.00     0.062 A 
ATOM      7  F   UNL d   1      -1.374   0.425   2.349  0.00  0.00    -0.097 F 
ATOM      8  F1  UNL d   1      -1.575  -2.246   1.947  0.00  0.00    -0.096 F 
ATOM      9  I   UNL d   1      -0.613  -4.112  -0.468  0.00  0.00    -0.060 I 
ATOM     10  F2  UNL d   1       0.653  -1.757  -2.227  0.00  0.00    -0.096 F 
ATOM     11  F3  UNL d   1       0.839   0.910  -1.797  0.00  0.00    -0.097 F 
ATOM     12  F4  UNL d   1      -0.170   2.013   0.485  0.00  0.00    -0.092 F 
ENDROOT
TORSDOF 0
ENDMDL
