MODEL 1
REMARK minimizedAffinity -2.69853806
REMARK minimizedRMSD -1
REMARK  0 active torsions:
REMARK  status: ('A' for Active; 'I' for Inactive)
ROOT
ATOM      1  C   UNL d   1      -0.566  -2.095  -0.467  0.00  0.00     0.124 A 
ATOM      2  C1  UNL d   1      -0.035  -1.348  -1.510  0.00  0.00     0.062 A 
ATOM      3  C2  UNL d   1       0.325  -0.019  -1.307  0.00  0.00     0.162 A 
ATOM      4  C3  UNL d   1       0.156   0.572  -0.055  0.00  0.00    -0.034 A 
ATOM      5  C4  UNL d   1      -0.379  -0.185   0.989  0.00  0.00     0.162 A 
ATOM      6  C5  UNL d   1      -0.737  -1.513   0.781  0.00  0.00     0.062 A 
ATOM      7  F   UNL d   1      -1.250  -2.232   1.790  0.00  0.00    -0.097 F 
ATOM      8  F1  UNL d   1      -0.555   0.353   2.205  0.00  0.00    -0.096 F 
ATOM      9  I   UNL d   1       0.693   2.559   0.253  0.00  0.00    -0.060 I 
ATOM     10  F2  UNL d   1       0.836   0.678  -2.332  0.00  0.00    -0.096 F 
ATOM     11  F3  UNL d   1       0.131  -1.908  -2.716  0.00  0.00    -0.097 F 
ATOM     12  F4  UNL d   1      -0.912  -3.373  -0.665  0.00  0.00    -0.092 F 
ENDROOT
TORSDOF 0
ENDMDL
