MODEL 1
REMARK minimizedAffinity 0.857343137
REMARK minimizedRMSD -1
REMARK  0 active torsions:
REMARK  status: ('A' for Active; 'I' for Inactive)
ROOT
ATOM      1  C   UNL d   1      -0.314  -2.600  -0.620  0.00  0.00     0.124 A 
ATOM      2  C1  UNL d   1      -0.639  -1.998   0.588  0.00  0.00     0.062 A 
ATOM      3  C2  UNL d   1      -0.453  -0.629   0.761  0.00  0.00     0.162 A 
ATOM      4  C3  UNL d   1       0.059   0.148  -0.278  0.00  0.00    -0.034 A 
ATOM      5  C4  UNL d   1       0.384  -0.465  -1.490  0.00  0.00     0.162 A 
ATOM      6  C5  UNL d   1       0.197  -1.833  -1.657  0.00  0.00     0.062 A 
ATOM      7  F   UNL d   1       0.511  -2.412  -2.825  0.00  0.00    -0.097 F 
ATOM      8  F1  UNL d   1       0.878   0.253  -2.510  0.00  0.00    -0.096 F 
ATOM      9  I   UNL d   1       0.338   2.195  -0.024  0.00  0.00    -0.060 I 
ATOM     10  F2  UNL d   1      -0.775  -0.075   1.939  0.00  0.00    -0.096 F 
ATOM     11  F3  UNL d   1      -1.132  -2.737   1.593  0.00  0.00    -0.097 F 
ATOM     12  F4  UNL d   1      -0.493  -3.917  -0.783  0.00  0.00    -0.092 F 
ENDROOT
TORSDOF 0
ENDMDL
