MODEL 1
REMARK minimizedAffinity -1.64716649
REMARK minimizedRMSD -1
REMARK  0 active torsions:
REMARK  status: ('A' for Active; 'I' for Inactive)
ROOT
ATOM      1  C   UNL d   1      -0.850  -2.320  -0.650  0.00  0.00     0.124 A 
ATOM      2  C1  UNL d   1      -1.041  -1.862   0.647  0.00  0.00     0.062 A 
ATOM      3  C2  UNL d   1      -0.640  -0.578   1.002  0.00  0.00     0.162 A 
ATOM      4  C3  UNL d   1      -0.044   0.260   0.059  0.00  0.00    -0.034 A 
ATOM      5  C4  UNL d   1       0.146  -0.208  -1.242  0.00  0.00     0.162 A 
ATOM      6  C5  UNL d   1      -0.257  -1.492  -1.593  0.00  0.00     0.062 A 
ATOM      7  F   UNL d   1      -0.071  -1.932  -2.846  0.00  0.00    -0.097 F 
ATOM      8  F1  UNL d   1       0.716   0.571  -2.174  0.00  0.00    -0.096 F 
ATOM      9  I   UNL d   1       0.557   2.181   0.587  0.00  0.00    -0.060 I 
ATOM     10  F2  UNL d   1      -0.838  -0.162   2.262  0.00  0.00    -0.096 F 
ATOM     11  F3  UNL d   1      -1.613  -2.660   1.560  0.00  0.00    -0.097 F 
ATOM     12  F4  UNL d   1      -1.236  -3.556  -0.989  0.00  0.00    -0.092 F 
ENDROOT
TORSDOF 0
ENDMDL
