MODEL 1
REMARK minimizedAffinity -0.0196945965
REMARK minimizedRMSD -1
REMARK  0 active torsions:
REMARK  status: ('A' for Active; 'I' for Inactive)
ROOT
ATOM      1  C   UNL d   1      -0.795  -2.540  -0.624  0.00  0.00     0.124 A 
ATOM      2  C1  UNL d   1      -0.317  -1.727  -1.642  0.00  0.00     0.062 A 
ATOM      3  C2  UNL d   1      -0.038  -0.386  -1.395  0.00  0.00     0.162 A 
ATOM      4  C3  UNL d   1      -0.235   0.150  -0.123  0.00  0.00    -0.034 A 
ATOM      5  C4  UNL d   1      -0.716  -0.673   0.896  0.00  0.00     0.162 A 
ATOM      6  C5  UNL d   1      -0.994  -2.012   0.644  0.00  0.00     0.062 A 
ATOM      7  F   UNL d   1      -1.456  -2.796   1.630  0.00  0.00    -0.097 F 
ATOM      8  F1  UNL d   1      -0.917  -0.189   2.131  0.00  0.00    -0.096 F 
ATOM      9  I   UNL d   1       0.182   2.155   0.251  0.00  0.00    -0.060 I 
ATOM     10  F2  UNL d   1       0.423   0.376  -2.398  0.00  0.00    -0.096 F 
ATOM     11  F3  UNL d   1      -0.125  -2.235  -2.868  0.00  0.00    -0.097 F 
ATOM     12  F4  UNL d   1      -1.064  -3.830  -0.864  0.00  0.00    -0.092 F 
ENDROOT
TORSDOF 0
ENDMDL
