MODEL 1
REMARK minimizedAffinity -3.02247524
REMARK minimizedRMSD -1
REMARK  0 active torsions:
REMARK  status: ('A' for Active; 'I' for Inactive)
ROOT
ATOM      1  C   UNL d   1      -1.034  -1.210   1.012  0.00  0.00     0.124 A 
ATOM      2  C1  UNL d   1       0.324  -1.477   1.117  0.00  0.00     0.062 A 
ATOM      3  C2  UNL d   1       1.257  -0.482   0.840  0.00  0.00     0.162 A 
ATOM      4  C3  UNL d   1       0.835   0.791   0.456  0.00  0.00    -0.034 A 
ATOM      5  C4  UNL d   1      -0.533   1.052   0.352  0.00  0.00     0.162 A 
ATOM      6  C5  UNL d   1      -1.461   0.054   0.629  0.00  0.00     0.062 A 
ATOM      7  F   UNL d   1      -2.773   0.314   0.527  0.00  0.00    -0.097 F 
ATOM      8  F1  UNL d   1      -0.973   2.265  -0.015  0.00  0.00    -0.096 F 
ATOM      9  I   UNL d   1       2.226   2.282   0.042  0.00  0.00    -0.060 I 
ATOM     10  F2  UNL d   1       2.562  -0.768   0.950  0.00  0.00    -0.096 F 
ATOM     11  F3  UNL d   1       0.739  -2.698   1.485  0.00  0.00    -0.097 F 
ATOM     12  F4  UNL d   1      -1.929  -2.169   1.278  0.00  0.00    -0.092 F 
ENDROOT
TORSDOF 0
ENDMDL
