MODEL 1
REMARK minimizedAffinity 1.58271646
REMARK minimizedRMSD -1
REMARK  0 active torsions:
REMARK  status: ('A' for Active; 'I' for Inactive)
ROOT
ATOM      1  C   UNL d   1      -0.947  -2.114  -0.896  0.00  0.00     0.124 A 
ATOM      2  C1  UNL d   1      -0.273  -1.382  -1.865  0.00  0.00     0.062 A 
ATOM      3  C2  UNL d   1       0.186  -0.099  -1.580  0.00  0.00     0.162 A 
ATOM      4  C3  UNL d   1      -0.027   0.461  -0.321  0.00  0.00    -0.034 A 
ATOM      5  C4  UNL d   1      -0.706  -0.280   0.648  0.00  0.00     0.162 A 
ATOM      6  C5  UNL d   1      -1.163  -1.562   0.359  0.00  0.00     0.062 A 
ATOM      7  F   UNL d   1      -1.814  -2.267   1.296  0.00  0.00    -0.097 F 
ATOM      8  F1  UNL d   1      -0.928   0.228   1.869  0.00  0.00    -0.096 F 
ATOM      9  I   UNL d   1       0.657   2.379   0.109  0.00  0.00    -0.060 I 
ATOM     10  F2  UNL d   1       0.834   0.584  -2.535  0.00  0.00    -0.096 F 
ATOM     11  F3  UNL d   1      -0.064  -1.912  -3.078  0.00  0.00    -0.097 F 
ATOM     12  F4  UNL d   1      -1.388  -3.347  -1.173  0.00  0.00    -0.092 F 
ENDROOT
TORSDOF 0
ENDMDL
