MODEL 1
REMARK minimizedAffinity -2.00659275
REMARK minimizedRMSD -1
REMARK  0 active torsions:
REMARK  status: ('A' for Active; 'I' for Inactive)
ROOT
ATOM      1  C   UNL d   1      -0.704  -2.193  -0.493  0.00  0.00     0.124 A 
ATOM      2  C1  UNL d   1      -1.127  -1.721   0.742  0.00  0.00     0.062 A 
ATOM      3  C2  UNL d   1      -1.018  -0.368   1.049  0.00  0.00     0.162 A 
ATOM      4  C3  UNL d   1      -0.483   0.524   0.118  0.00  0.00    -0.034 A 
ATOM      5  C4  UNL d   1      -0.058   0.041  -1.121  0.00  0.00     0.162 A 
ATOM      6  C5  UNL d   1      -0.170  -1.313  -1.422  0.00  0.00     0.062 A 
ATOM      7  F   UNL d   1       0.240  -1.767  -2.616  0.00  0.00    -0.097 F 
ATOM      8  F1  UNL d   1       0.461   0.870  -2.038  0.00  0.00    -0.096 F 
ATOM      9  I   UNL d   1      -0.317   2.548   0.573  0.00  0.00    -0.060 I 
ATOM     10  F2  UNL d   1      -1.435   0.061   2.249  0.00  0.00    -0.096 F 
ATOM     11  F3  UNL d   1      -1.643  -2.570   1.642  0.00  0.00    -0.097 F 
ATOM     12  F4  UNL d   1      -0.810  -3.496  -0.785  0.00  0.00    -0.092 F 
ENDROOT
TORSDOF 0
ENDMDL
