MODEL 1
REMARK minimizedAffinity 0.301965654
REMARK minimizedRMSD -1
REMARK  0 active torsions:
REMARK  status: ('A' for Active; 'I' for Inactive)
ROOT
ATOM      1  C   UNL d   1      -1.138  -2.318  -0.687  0.00  0.00     0.124 A 
ATOM      2  C1  UNL d   1      -0.616  -1.562  -1.727  0.00  0.00     0.062 A 
ATOM      3  C2  UNL d   1      -0.163  -0.267  -1.493  0.00  0.00     0.162 A 
ATOM      4  C3  UNL d   1      -0.229   0.281  -0.212  0.00  0.00    -0.034 A 
ATOM      5  C4  UNL d   1      -0.756  -0.485   0.830  0.00  0.00     0.162 A 
ATOM      6  C5  UNL d   1      -1.207  -1.779   0.590  0.00  0.00     0.062 A 
ATOM      7  F   UNL d   1      -1.712  -2.508   1.597  0.00  0.00    -0.097 F 
ATOM      8  F1  UNL d   1      -0.834   0.010   2.074  0.00  0.00    -0.096 F 
ATOM      9  I   UNL d   1       0.448   2.217   0.143  0.00  0.00    -0.060 I 
ATOM     10  F2  UNL d   1       0.337   0.440  -2.517  0.00  0.00    -0.096 F 
ATOM     11  F3  UNL d   1      -0.548  -2.080  -2.962  0.00  0.00    -0.097 F 
ATOM     12  F4  UNL d   1      -1.574  -3.563  -0.915  0.00  0.00    -0.092 F 
ENDROOT
TORSDOF 0
ENDMDL
