MODEL 1
REMARK minimizedAffinity -0.0781337172
REMARK minimizedRMSD -1
REMARK  0 active torsions:
REMARK  status: ('A' for Active; 'I' for Inactive)
ROOT
ATOM      1  C   UNL d   1      -0.631  -2.084  -0.330  0.00  0.00     0.124 A 
ATOM      2  C1  UNL d   1      -0.195  -1.198  -1.305  0.00  0.00     0.062 A 
ATOM      3  C2  UNL d   1       0.007   0.143  -0.992  0.00  0.00     0.162 A 
ATOM      4  C3  UNL d   1      -0.225   0.607   0.303  0.00  0.00    -0.034 A 
ATOM      5  C4  UNL d   1      -0.665  -0.290   1.278  0.00  0.00     0.162 A 
ATOM      6  C5  UNL d   1      -0.866  -1.630   0.960  0.00  0.00     0.062 A 
ATOM      7  F   UNL d   1      -1.287  -2.484   1.903  0.00  0.00    -0.097 F 
ATOM      8  F1  UNL d   1      -0.898   0.121   2.533  0.00  0.00    -0.096 F 
ATOM      9  I   UNL d   1       0.076   2.611   0.775  0.00  0.00    -0.060 I 
ATOM     10  F2  UNL d   1       0.429   0.977  -1.954  0.00  0.00    -0.096 F 
ATOM     11  F3  UNL d   1       0.031  -1.634  -2.553  0.00  0.00    -0.097 F 
ATOM     12  F4  UNL d   1      -0.826  -3.373  -0.634  0.00  0.00    -0.092 F 
ENDROOT
TORSDOF 0
ENDMDL
