MODEL 1
REMARK minimizedAffinity -3.95902061
REMARK minimizedRMSD -1
REMARK  0 active torsions:
REMARK  status: ('A' for Active; 'I' for Inactive)
ROOT
ATOM      1  C   UNL d   1      -0.171  -2.664  -0.829  0.00  0.00     0.124 A 
ATOM      2  C1  UNL d   1      -0.018  -1.787  -1.895  0.00  0.00     0.062 A 
ATOM      3  C2  UNL d   1       0.039  -0.415  -1.670  0.00  0.00     0.162 A 
ATOM      4  C3  UNL d   1      -0.056   0.090  -0.373  0.00  0.00    -0.034 A 
ATOM      5  C4  UNL d   1      -0.211  -0.798   0.693  0.00  0.00     0.162 A 
ATOM      6  C5  UNL d   1      -0.267  -2.168   0.463  0.00  0.00     0.062 A 
ATOM      7  F   UNL d   1      -0.414  -3.013   1.494  0.00  0.00    -0.097 F 
ATOM      8  F1  UNL d   1      -0.305  -0.346   1.953  0.00  0.00    -0.096 F 
ATOM      9  I   UNL d   1       0.028   2.141  -0.032  0.00  0.00    -0.060 I 
ATOM     10  F2  UNL d   1       0.187   0.408  -2.718  0.00  0.00    -0.096 F 
ATOM     11  F3  UNL d   1       0.074  -2.264  -3.145  0.00  0.00    -0.097 F 
ATOM     12  F4  UNL d   1      -0.226  -3.984  -1.049  0.00  0.00    -0.092 F 
ENDROOT
TORSDOF 0
ENDMDL
