MODEL 1
REMARK minimizedAffinity -2.56434727
REMARK minimizedRMSD -1
REMARK  0 active torsions:
REMARK  status: ('A' for Active; 'I' for Inactive)
ROOT
ATOM      1  C   UNL d   1      -0.728  -2.482  -0.826  0.00  0.00     0.124 A 
ATOM      2  C1  UNL d   1      -0.856  -1.969   0.457  0.00  0.00     0.062 A 
ATOM      3  C2  UNL d   1      -0.507  -0.647   0.720  0.00  0.00     0.162 A 
ATOM      4  C3  UNL d   1      -0.027   0.171  -0.303  0.00  0.00    -0.034 A 
ATOM      5  C4  UNL d   1       0.099  -0.353  -1.591  0.00  0.00     0.162 A 
ATOM      6  C5  UNL d   1      -0.251  -1.674  -1.849  0.00  0.00     0.062 A 
ATOM      7  F   UNL d   1      -0.127  -2.168  -3.089  0.00  0.00    -0.097 F 
ATOM      8  F1  UNL d   1       0.557   0.406  -2.598  0.00  0.00    -0.096 F 
ATOM      9  I   UNL d   1       0.496   2.147   0.086  0.00  0.00    -0.060 I 
ATOM     10  F2  UNL d   1      -0.640  -0.178   1.969  0.00  0.00    -0.096 F 
ATOM     11  F3  UNL d   1      -1.316  -2.748   1.446  0.00  0.00    -0.097 F 
ATOM     12  F4  UNL d   1      -1.064  -3.754  -1.077  0.00  0.00    -0.092 F 
ENDROOT
TORSDOF 0
ENDMDL
