MODEL 1
REMARK minimizedAffinity -4.3574295
REMARK minimizedRMSD -1
REMARK  0 active torsions:
REMARK  status: ('A' for Active; 'I' for Inactive)
ROOT
ATOM      1  C   UNL d   1       0.123  -2.763  -0.655  0.00  0.00     0.124 A 
ATOM      2  C1  UNL d   1       0.152  -1.883  -1.728  0.00  0.00     0.062 A 
ATOM      3  C2  UNL d   1       0.296  -0.516  -1.508  0.00  0.00     0.162 A 
ATOM      4  C3  UNL d   1       0.413  -0.020  -0.210  0.00  0.00    -0.034 A 
ATOM      5  C4  UNL d   1       0.383  -0.912   0.864  0.00  0.00     0.162 A 
ATOM      6  C5  UNL d   1       0.238  -2.277   0.639  0.00  0.00     0.062 A 
ATOM      7  F   UNL d   1       0.211  -3.126   1.677  0.00  0.00    -0.097 F 
ATOM      8  F1  UNL d   1       0.493  -0.469   2.125  0.00  0.00    -0.096 F 
ATOM      9  I   UNL d   1       0.629   2.023   0.123  0.00  0.00    -0.060 I 
ATOM     10  F2  UNL d   1       0.321   0.312  -2.564  0.00  0.00    -0.096 F 
ATOM     11  F3  UNL d   1       0.039  -2.350  -2.980  0.00  0.00    -0.097 F 
ATOM     12  F4  UNL d   1      -0.017  -4.077  -0.869  0.00  0.00    -0.092 F 
ENDROOT
TORSDOF 0
ENDMDL
