MODEL 1
REMARK minimizedAffinity -2.33845639
REMARK minimizedRMSD -1
REMARK  0 active torsions:
REMARK  status: ('A' for Active; 'I' for Inactive)
ROOT
ATOM      1  C   UNL d   1      -1.082  -3.364  -0.602  0.00  0.00     0.124 A 
ATOM      2  C1  UNL d   1       0.099  -2.981  -1.222  0.00  0.00     0.062 A 
ATOM      3  C2  UNL d   1       0.565  -1.676  -1.094  0.00  0.00     0.162 A 
ATOM      4  C3  UNL d   1      -0.149  -0.744  -0.341  0.00  0.00    -0.034 A 
ATOM      5  C4  UNL d   1      -1.336  -1.136   0.279  0.00  0.00     0.162 A 
ATOM      6  C5  UNL d   1      -1.799  -2.442   0.148  0.00  0.00     0.062 A 
ATOM      7  F   UNL d   1      -2.940  -2.810   0.748  0.00  0.00    -0.097 F 
ATOM      8  F1  UNL d   1      -2.048  -0.266   1.011  0.00  0.00    -0.096 F 
ATOM      9  I   UNL d   1       0.546   1.208  -0.147  0.00  0.00    -0.060 I 
ATOM     10  F2  UNL d   1       1.710  -1.334  -1.704  0.00  0.00    -0.096 F 
ATOM     11  F3  UNL d   1       0.792  -3.870  -1.948  0.00  0.00    -0.097 F 
ATOM     12  F4  UNL d   1      -1.530  -4.620  -0.727  0.00  0.00    -0.092 F 
ENDROOT
TORSDOF 0
ENDMDL
