MODEL 1
REMARK minimizedAffinity -0.619087994
REMARK minimizedRMSD -1
REMARK  0 active torsions:
REMARK  status: ('A' for Active; 'I' for Inactive)
ROOT
ATOM      1  C   UNL d   1      -1.123  -0.387  -0.027  0.00  0.00     0.172 C 
ATOM      2  N   UNL d   1      -1.703  -0.095  -1.317  0.00  0.00    -0.070 N 
ATOM      3  C1  UNL d   1      -1.825  -0.979  -2.355  0.00  0.00    -0.004 A 
ATOM      4  C2  UNL d   1      -2.428  -0.318  -3.404  0.00  0.00    -0.047 A 
ATOM      5  C3  UNL d   1      -2.676   1.010  -2.981  0.00  0.00    -0.047 A 
ATOM      6  C4  UNL d   1      -2.217   1.120  -1.685  0.00  0.00    -0.004 A 
ENDROOT
TORSDOF 0
ENDMDL
