MODEL 1
REMARK minimizedAffinity -3.53825688
REMARK minimizedRMSD -1
REMARK  0 active torsions:
REMARK  status: ('A' for Active; 'I' for Inactive)
ROOT
ATOM      1  C   UNL d   1      -1.431  -0.222  -0.160  0.00  0.00     0.172 C 
ATOM      2  N   UNL d   1      -0.003  -0.306   0.039  0.00  0.00    -0.070 N 
ATOM      3  C1  UNL d   1       0.869   0.749   0.019  0.00  0.00    -0.004 A 
ATOM      4  C2  UNL d   1       2.135   0.255   0.249  0.00  0.00    -0.047 A 
ATOM      5  C3  UNL d   1       2.019  -1.146   0.414  0.00  0.00    -0.047 A 
ATOM      6  C4  UNL d   1       0.684  -1.466   0.279  0.00  0.00    -0.004 A 
ENDROOT
TORSDOF 0
ENDMDL
