MODEL 1
REMARK minimizedAffinity -3.63755751
REMARK minimizedRMSD -1
REMARK  0 active torsions:
REMARK  status: ('A' for Active; 'I' for Inactive)
ROOT
ATOM      1  C   UNL d   1      -0.793  -0.039  -0.202  0.00  0.00     0.172 C 
ATOM      2  N   UNL d   1       0.580   0.287   0.102  0.00  0.00    -0.070 N 
ATOM      3  C1  UNL d   1       1.615  -0.606   0.176  0.00  0.00    -0.004 A 
ATOM      4  C2  UNL d   1       2.759   0.097   0.487  0.00  0.00    -0.047 A 
ATOM      5  C3  UNL d   1       2.398   1.460   0.606  0.00  0.00    -0.047 A 
ATOM      6  C4  UNL d   1       1.044   1.550   0.363  0.00  0.00    -0.004 A 
ENDROOT
TORSDOF 0
ENDMDL
