MODEL 1
REMARK minimizedAffinity -3.94469237
REMARK minimizedRMSD -1
REMARK  0 active torsions:
REMARK  status: ('A' for Active; 'I' for Inactive)
ROOT
ATOM      1  C   UNL d   1      -1.137  -0.028  -0.017  0.00  0.00     0.172 C 
ATOM      2  N   UNL d   1       0.232  -0.263   0.378  0.00  0.00    -0.070 N 
ATOM      3  C1  UNL d   1       0.731  -1.443   0.863  0.00  0.00    -0.004 A 
ATOM      4  C2  UNL d   1       2.072  -1.259   1.120  0.00  0.00    -0.047 A 
ATOM      5  C3  UNL d   1       2.390   0.077   0.778  0.00  0.00    -0.047 A 
ATOM      6  C4  UNL d   1       1.233   0.670   0.322  0.00  0.00    -0.004 A 
ENDROOT
TORSDOF 0
ENDMDL
