MODEL 1
REMARK minimizedAffinity -3.81268167
REMARK minimizedRMSD -1
REMARK  0 active torsions:
REMARK  status: ('A' for Active; 'I' for Inactive)
ROOT
ATOM      1  C   UNL d   1      -0.635   0.463  -0.733  0.00  0.00     0.172 C 
ATOM      2  N   UNL d   1       0.562   0.686   0.044  0.00  0.00    -0.070 N 
ATOM      3  C1  UNL d   1       1.478  -0.271   0.390  0.00  0.00    -0.004 A 
ATOM      4  C2  UNL d   1       2.470   0.340   1.126  0.00  0.00    -0.047 A 
ATOM      5  C3  UNL d   1       2.137   1.712   1.227  0.00  0.00    -0.047 A 
ATOM      6  C4  UNL d   1       0.952   1.899   0.548  0.00  0.00    -0.004 A 
ENDROOT
TORSDOF 0
ENDMDL
