MODEL 1
REMARK minimizedAffinity -4.0643959
REMARK minimizedRMSD -1
REMARK  0 active torsions:
REMARK  status: ('A' for Active; 'I' for Inactive)
ROOT
ATOM      1  C   UNL d   1      -0.602   0.092  -0.415  0.00  0.00     0.172 C 
ATOM      2  N   UNL d   1       0.755   0.108   0.078  0.00  0.00    -0.070 N 
ATOM      3  C1  UNL d   1       1.504  -0.994   0.393  0.00  0.00    -0.004 A 
ATOM      4  C2  UNL d   1       2.738  -0.557   0.824  0.00  0.00    -0.047 A 
ATOM      5  C3  UNL d   1       2.730   0.857   0.767  0.00  0.00    -0.047 A 
ATOM      6  C4  UNL d   1       1.491   1.242   0.302  0.00  0.00    -0.004 A 
ENDROOT
TORSDOF 0
ENDMDL
