MODEL 1
REMARK minimizedAffinity -3.87197733
REMARK minimizedRMSD -1
REMARK  0 active torsions:
REMARK  status: ('A' for Active; 'I' for Inactive)
ROOT
ATOM      1  C   UNL d   1       2.635  -0.912   0.658  0.00  0.00     0.172 C 
ATOM      2  N   UNL d   1       1.659   0.119   0.391  0.00  0.00    -0.070 N 
ATOM      3  C1  UNL d   1       1.821   1.455   0.640  0.00  0.00    -0.004 A 
ATOM      4  C2  UNL d   1       0.669   2.101   0.247  0.00  0.00    -0.047 A 
ATOM      5  C3  UNL d   1      -0.217   1.118  -0.255  0.00  0.00    -0.047 A 
ATOM      6  C4  UNL d   1       0.421  -0.100  -0.154  0.00  0.00    -0.004 A 
ENDROOT
TORSDOF 0
ENDMDL
