MODEL 1
REMARK minimizedAffinity -2.17121124
REMARK minimizedRMSD -1
REMARK  0 active torsions:
REMARK  status: ('A' for Active; 'I' for Inactive)
ROOT
ATOM      1  C   UNL d   1      -0.853   0.369   0.079  0.00  0.00     0.172 C 
ATOM      2  N   UNL d   1      -1.529  -0.043  -1.128  0.00  0.00    -0.070 N 
ATOM      3  C1  UNL d   1      -2.267   0.770  -1.947  0.00  0.00    -0.004 A 
ATOM      4  C2  UNL d   1      -2.743   0.001  -2.987  0.00  0.00    -0.047 A 
ATOM      5  C3  UNL d   1      -2.275  -1.319  -2.786  0.00  0.00    -0.047 A 
ATOM      6  C4  UNL d   1      -1.526  -1.318  -1.628  0.00  0.00    -0.004 A 
ENDROOT
TORSDOF 0
ENDMDL
