MODEL 1
REMARK minimizedAffinity -1.79676378
REMARK minimizedRMSD -1
REMARK  0 active torsions:
REMARK  status: ('A' for Active; 'I' for Inactive)
ROOT
ATOM      1  C   UNL d   1      -1.867   0.082  -0.892  0.00  0.00     0.172 C 
ATOM      2  N   UNL d   1      -0.542   0.160  -0.322  0.00  0.00    -0.070 N 
ATOM      3  C1  UNL d   1       0.009   1.266   0.269  0.00  0.00    -0.004 A 
ATOM      4  C2  UNL d   1       1.281   0.934   0.683  0.00  0.00    -0.047 A 
ATOM      5  C3  UNL d   1       1.502  -0.418   0.327  0.00  0.00    -0.047 A 
ATOM      6  C4  UNL d   1       0.358  -0.872  -0.294  0.00  0.00    -0.004 A 
ENDROOT
TORSDOF 0
ENDMDL
