MODEL 1
REMARK minimizedAffinity 1.44632339
REMARK minimizedRMSD -1
REMARK  0 active torsions:
REMARK  status: ('A' for Active; 'I' for Inactive)
ROOT
ATOM      1  C   UNL d   1      -0.232   0.504   0.426  0.00  0.00     0.172 C 
ATOM      2  N   UNL d   1       0.662   1.638   0.459  0.00  0.00    -0.070 N 
ATOM      3  C1  UNL d   1       2.013   1.583   0.672  0.00  0.00    -0.004 A 
ATOM      4  C2  UNL d   1       2.500   2.872   0.627  0.00  0.00    -0.047 A 
ATOM      5  C3  UNL d   1       1.402   3.731   0.379  0.00  0.00    -0.047 A 
ATOM      6  C4  UNL d   1       0.277   2.940   0.279  0.00  0.00    -0.004 A 
ENDROOT
TORSDOF 0
ENDMDL
