MODEL 1
REMARK minimizedAffinity 10.4630604
REMARK minimizedRMSD -1
REMARK  0 active torsions:
REMARK  status: ('A' for Active; 'I' for Inactive)
ROOT
ATOM      1  C   UNL d   1       5.876   5.622  -1.504  0.00  0.00     0.078 C 
ATOM      2  C1  UNL d   1       5.242   4.263  -1.514  0.00  0.00    -0.077 A 
ATOM      3  C2  UNL d   1       3.899   4.091  -1.156  0.00  0.00    -0.001 A 
ATOM      4  C3  UNL d   1       3.325   2.818  -1.161  0.00  0.00     0.003 A 
ATOM      5  C4  UNL d   1       4.086   1.709  -1.523  0.00  0.00    -0.005 A 
ATOM      6  C5  UNL d   1       5.424   1.870  -1.879  0.00  0.00     0.003 A 
ATOM      7  C6  UNL d   1       6.000   3.142  -1.874  0.00  0.00    -0.001 A 
ENDROOT
TORSDOF 0
ENDMDL
