MODEL 1
REMARK minimizedAffinity 6.77969122
REMARK minimizedRMSD -1
REMARK  0 active torsions:
REMARK  status: ('A' for Active; 'I' for Inactive)
ROOT
ATOM      1  C   UNL d   1       1.800   3.232   3.254  0.00  0.00     0.078 C 
ATOM      2  C1  UNL d   1       2.047   2.194   2.201  0.00  0.00    -0.077 A 
ATOM      3  C2  UNL d   1       1.697   2.425   0.865  0.00  0.00    -0.001 A 
ATOM      4  C3  UNL d   1       1.924   1.446  -0.104  0.00  0.00     0.003 A 
ATOM      5  C4  UNL d   1       2.501   0.229   0.253  0.00  0.00    -0.005 A 
ATOM      6  C5  UNL d   1       2.851  -0.011   1.580  0.00  0.00     0.003 A 
ATOM      7  C6  UNL d   1       2.624   0.967   2.550  0.00  0.00    -0.001 A 
ENDROOT
TORSDOF 0
ENDMDL
