MODEL 1
REMARK minimizedAffinity 0.465082139
REMARK minimizedRMSD -1
REMARK  0 active torsions:
REMARK  status: ('A' for Active; 'I' for Inactive)
ROOT
ATOM      1  C   UNL d   1       0.740   0.194   4.053  0.00  0.00     0.078 C 
ATOM      2  C1  UNL d   1       0.519   1.007   2.813  0.00  0.00    -0.077 A 
ATOM      3  C2  UNL d   1      -0.695   1.669   2.592  0.00  0.00    -0.001 A 
ATOM      4  C3  UNL d   1      -0.891   2.415   1.428  0.00  0.00     0.003 A 
ATOM      5  C4  UNL d   1       0.122   2.505   0.476  0.00  0.00    -0.005 A 
ATOM      6  C5  UNL d   1       1.333   1.847   0.686  0.00  0.00     0.003 A 
ATOM      7  C6  UNL d   1       1.530   1.101   1.849  0.00  0.00    -0.001 A 
ENDROOT
TORSDOF 0
ENDMDL
