MODEL 1
REMARK minimizedAffinity 8.990798
REMARK minimizedRMSD -1
REMARK  0 active torsions:
REMARK  status: ('A' for Active; 'I' for Inactive)
ROOT
ATOM      1  C   UNL d   1       2.263  -1.671  -0.360  0.00  0.00     0.078 C 
ATOM      2  C1  UNL d   1       1.592  -0.336  -0.489  0.00  0.00    -0.077 A 
ATOM      3  C2  UNL d   1       0.648  -0.098  -1.495  0.00  0.00    -0.001 A 
ATOM      4  C3  UNL d   1       0.038   1.152  -1.609  0.00  0.00     0.003 A 
ATOM      5  C4  UNL d   1       0.365   2.174  -0.720  0.00  0.00    -0.005 A 
ATOM      6  C5  UNL d   1       1.305   1.947   0.283  0.00  0.00     0.003 A 
ATOM      7  C6  UNL d   1       1.916   0.698   0.399  0.00  0.00    -0.001 A 
ENDROOT
TORSDOF 0
ENDMDL
