MODEL 1
REMARK minimizedAffinity -2.87932515
REMARK minimizedRMSD -1
REMARK  0 active torsions:
REMARK  status: ('A' for Active; 'I' for Inactive)
ROOT
ATOM      1  C   UNL d   1      -5.335   2.364  -1.822  0.00  0.00     0.078 C 
ATOM      2  C1  UNL d   1      -4.316   1.931  -2.834  0.00  0.00    -0.077 A 
ATOM      3  C2  UNL d   1      -4.583   2.013  -4.206  0.00  0.00    -0.001 A 
ATOM      4  C3  UNL d   1      -3.630   1.598  -5.137  0.00  0.00     0.003 A 
ATOM      5  C4  UNL d   1      -2.403   1.097  -4.706  0.00  0.00    -0.005 A 
ATOM      6  C5  UNL d   1      -2.129   1.009  -3.342  0.00  0.00     0.003 A 
ATOM      7  C6  UNL d   1      -3.082   1.424  -2.410  0.00  0.00    -0.001 A 
ENDROOT
TORSDOF 0
ENDMDL
