MODEL 1
REMARK minimizedAffinity 2.72909379
REMARK minimizedRMSD -1
REMARK  0 active torsions:
REMARK  status: ('A' for Active; 'I' for Inactive)
ROOT
ATOM      1  C   UNL d   1       1.042   2.057   0.050  0.00  0.00     0.078 C 
ATOM      2  C1  UNL d   1       1.828   0.826   0.391  0.00  0.00    -0.077 A 
ATOM      3  C2  UNL d   1       2.039  -0.180  -0.559  0.00  0.00    -0.001 A 
ATOM      4  C3  UNL d   1       2.764  -1.326  -0.225  0.00  0.00     0.003 A 
ATOM      5  C4  UNL d   1       3.281  -1.476   1.060  0.00  0.00    -0.005 A 
ATOM      6  C5  UNL d   1       3.074  -0.481   2.013  0.00  0.00     0.003 A 
ATOM      7  C6  UNL d   1       2.350   0.665   1.681  0.00  0.00    -0.001 A 
ENDROOT
TORSDOF 0
ENDMDL
