MODEL 1
REMARK minimizedAffinity 5.06602192
REMARK minimizedRMSD -1
REMARK  0 active torsions:
REMARK  status: ('A' for Active; 'I' for Inactive)
ROOT
ATOM      1  C   UNL d   1       4.874   5.994   2.319  0.00  0.00     0.078 C 
ATOM      2  C1  UNL d   1       4.868   5.227   3.607  0.00  0.00    -0.077 A 
ATOM      3  C2  UNL d   1       5.251   5.834   4.810  0.00  0.00    -0.001 A 
ATOM      4  C3  UNL d   1       5.250   5.105   6.000  0.00  0.00     0.003 A 
ATOM      5  C4  UNL d   1       4.868   3.765   6.000  0.00  0.00    -0.005 A 
ATOM      6  C5  UNL d   1       4.486   3.152   4.808  0.00  0.00     0.003 A 
ATOM      7  C6  UNL d   1       4.487   3.879   3.617  0.00  0.00    -0.001 A 
ENDROOT
TORSDOF 0
ENDMDL
