MODEL 1
REMARK minimizedAffinity 8.46943092
REMARK minimizedRMSD -1
REMARK  0 active torsions:
REMARK  status: ('A' for Active; 'I' for Inactive)
ROOT
ATOM      1  C   UNL d   1       5.960   5.999   2.596  0.00  0.00     0.078 C 
ATOM      2  C1  UNL d   1       5.285   5.212   3.679  0.00  0.00    -0.077 A 
ATOM      3  C2  UNL d   1       5.734   5.276   5.004  0.00  0.00    -0.001 A 
ATOM      4  C3  UNL d   1       5.103   4.530   6.000  0.00  0.00     0.003 A 
ATOM      5  C4  UNL d   1       4.019   3.714   5.682  0.00  0.00    -0.005 A 
ATOM      6  C5  UNL d   1       3.567   3.642   4.366  0.00  0.00     0.003 A 
ATOM      7  C6  UNL d   1       4.197   4.387   3.369  0.00  0.00    -0.001 A 
ENDROOT
TORSDOF 0
ENDMDL
