MODEL 1
REMARK minimizedAffinity 3.02333117
REMARK minimizedRMSD -1
REMARK  0 active torsions:
REMARK  status: ('A' for Active; 'I' for Inactive)
ROOT
ATOM      1  C   UNL d   1       0.708   1.908  -0.137  0.00  0.00     0.078 C 
ATOM      2  C1  UNL d   1      -0.680   1.468  -0.497  0.00  0.00    -0.077 A 
ATOM      3  C2  UNL d   1      -1.681   1.371   0.478  0.00  0.00    -0.001 A 
ATOM      4  C3  UNL d   1      -2.966   0.951   0.130  0.00  0.00     0.003 A 
ATOM      5  C4  UNL d   1      -3.261   0.623  -1.191  0.00  0.00    -0.005 A 
ATOM      6  C5  UNL d   1      -2.271   0.713  -2.167  0.00  0.00     0.003 A 
ATOM      7  C6  UNL d   1      -0.986   1.133  -1.822  0.00  0.00    -0.001 A 
ENDROOT
TORSDOF 0
ENDMDL
