MODEL 1
REMARK minimizedAffinity 3.62260199
REMARK minimizedRMSD -1
REMARK  0 active torsions:
REMARK  status: ('A' for Active; 'I' for Inactive)
ROOT
ATOM      1  C   UNL d   1      -0.402   0.310   3.628  0.00  0.00     0.078 C 
ATOM      2  C1  UNL d   1      -0.147   0.999   2.321  0.00  0.00    -0.077 A 
ATOM      3  C2  UNL d   1      -1.158   1.723   1.678  0.00  0.00    -0.001 A 
ATOM      4  C3  UNL d   1      -0.910   2.351   0.457  0.00  0.00     0.003 A 
ATOM      5  C4  UNL d   1       0.349   2.260  -0.134  0.00  0.00    -0.005 A 
ATOM      6  C5  UNL d   1       1.361   1.539   0.497  0.00  0.00     0.003 A 
ATOM      7  C6  UNL d   1       1.115   0.911   1.719  0.00  0.00    -0.001 A 
ENDROOT
TORSDOF 0
ENDMDL
