MODEL 1
REMARK minimizedAffinity 0.948910594
REMARK minimizedRMSD -1
REMARK  0 active torsions:
REMARK  status: ('A' for Active; 'I' for Inactive)
ROOT
ATOM      1  C   UNL d   1      -5.999   4.121  -3.742  0.00  0.00     0.078 C 
ATOM      2  C1  UNL d   1      -5.608   2.970  -2.864  0.00  0.00    -0.077 A 
ATOM      3  C2  UNL d   1      -4.863   1.898  -3.369  0.00  0.00    -0.001 A 
ATOM      4  C3  UNL d   1      -4.514   0.829  -2.542  0.00  0.00     0.003 A 
ATOM      5  C4  UNL d   1      -4.906   0.821  -1.205  0.00  0.00    -0.005 A 
ATOM      6  C5  UNL d   1      -5.650   1.883  -0.694  0.00  0.00     0.003 A 
ATOM      7  C6  UNL d   1      -6.000   2.953  -1.520  0.00  0.00    -0.001 A 
ENDROOT
TORSDOF 0
ENDMDL
