MODEL 1
REMARK minimizedAffinity -1.01401603
REMARK minimizedRMSD -1
REMARK  0 active torsions:
REMARK  status: ('A' for Active; 'I' for Inactive)
ROOT
ATOM      1  C   UNL d   1       2.581  -2.096   0.461  0.00  0.00     0.078 C 
ATOM      2  C1  UNL d   1       2.799  -0.619   0.316  0.00  0.00    -0.077 A 
ATOM      3  C2  UNL d   1       4.084  -0.094   0.133  0.00  0.00    -0.001 A 
ATOM      4  C3  UNL d   1       4.273   1.283   0.010  0.00  0.00     0.003 A 
ATOM      5  C4  UNL d   1       3.181   2.147   0.070  0.00  0.00    -0.005 A 
ATOM      6  C5  UNL d   1       1.899   1.635   0.254  0.00  0.00     0.003 A 
ATOM      7  C6  UNL d   1       1.708   0.257   0.378  0.00  0.00    -0.001 A 
ENDROOT
TORSDOF 0
ENDMDL
