MODEL 1
REMARK minimizedAffinity -1.855124
REMARK minimizedRMSD -1
REMARK  0 active torsions:
REMARK  status: ('A' for Active; 'I' for Inactive)
ROOT
ATOM      1  C   UNL d   1       1.830  -2.217  -0.157  0.00  0.00     0.078 C 
ATOM      2  C1  UNL d   1       2.431  -0.844  -0.135  0.00  0.00    -0.077 A 
ATOM      3  C2  UNL d   1       1.717   0.248   0.375  0.00  0.00    -0.001 A 
ATOM      4  C3  UNL d   1       2.285   1.523   0.380  0.00  0.00     0.003 A 
ATOM      5  C4  UNL d   1       3.569   1.719  -0.125  0.00  0.00    -0.005 A 
ATOM      6  C5  UNL d   1       4.286   0.639  -0.637  0.00  0.00     0.003 A 
ATOM      7  C6  UNL d   1       3.720  -0.636  -0.643  0.00  0.00    -0.001 A 
ENDROOT
TORSDOF 0
ENDMDL
