MODEL 1
REMARK minimizedAffinity -1.76721382
REMARK minimizedRMSD -1
REMARK  0 active torsions:
REMARK  status: ('A' for Active; 'I' for Inactive)
ROOT
ATOM      1  C   UNL d   1       0.584  -1.480   4.784  0.00  0.00     0.077 C 
ATOM      2  C1  UNL d   1       1.459  -1.214   3.595  0.00  0.00    -0.074 A 
ATOM      3  C2  UNL d   1       0.908  -1.039   2.322  0.00  0.00    -0.005 A 
ATOM      4  C3  UNL d   1       1.734  -0.783   1.227  0.00  0.00     0.006 A 
ATOM      5  C4  UNL d   1       3.117  -0.700   1.394  0.00  0.00    -0.005 A 
ATOM      6  C5  UNL d   1       3.686  -0.871   2.660  0.00  0.00    -0.074 A 
ATOM      7  C6  UNL d   1       5.169  -0.775   2.859  0.00  0.00     0.077 C 
ATOM      8  C7  UNL d   1       2.849  -1.121   3.756  0.00  0.00    -0.001 A 
ENDROOT
TORSDOF 0
ENDMDL
