MODEL 1
REMARK minimizedAffinity -3.15084457
REMARK minimizedRMSD -1
REMARK  0 active torsions:
REMARK  status: ('A' for Active; 'I' for Inactive)
ROOT
ATOM      1  C   UNL d   1       5.198  -0.370   2.647  0.00  0.00     0.077 C 
ATOM      2  C1  UNL d   1       3.778  -0.818   2.827  0.00  0.00    -0.074 A 
ATOM      3  C2  UNL d   1       3.375  -1.480   3.991  0.00  0.00    -0.005 A 
ATOM      4  C3  UNL d   1       2.049  -1.883   4.148  0.00  0.00     0.006 A 
ATOM      5  C4  UNL d   1       1.114  -1.628   3.143  0.00  0.00    -0.005 A 
ATOM      6  C5  UNL d   1       1.499  -0.967   1.972  0.00  0.00    -0.074 A 
ATOM      7  C6  UNL d   1       0.505  -0.677   0.887  0.00  0.00     0.077 C 
ATOM      8  C7  UNL d   1       2.832  -0.559   1.826  0.00  0.00    -0.001 A 
ENDROOT
TORSDOF 0
ENDMDL
