MODEL 1
REMARK minimizedAffinity -1.25688076
REMARK minimizedRMSD -1
REMARK  0 active torsions:
REMARK  status: ('A' for Active; 'I' for Inactive)
ROOT
ATOM      1  C   UNL d   1       4.621  -0.626   2.982  0.00  0.00     0.077 C 
ATOM      2  C1  UNL d   1       3.272  -1.081   2.508  0.00  0.00    -0.074 A 
ATOM      3  C2  UNL d   1       2.729  -2.295   2.942  0.00  0.00    -0.005 A 
ATOM      4  C3  UNL d   1       1.470  -2.700   2.500  0.00  0.00     0.006 A 
ATOM      5  C4  UNL d   1       0.742  -1.896   1.621  0.00  0.00    -0.005 A 
ATOM      6  C5  UNL d   1       1.268  -0.679   1.178  0.00  0.00    -0.074 A 
ATOM      7  C6  UNL d   1       0.494   0.201   0.241  0.00  0.00     0.077 C 
ATOM      8  C7  UNL d   1       2.531  -0.276   1.632  0.00  0.00    -0.001 A 
ENDROOT
TORSDOF 0
ENDMDL
