MODEL 1
REMARK minimizedAffinity 1.66266096
REMARK minimizedRMSD -1
REMARK  0 active torsions:
REMARK  status: ('A' for Active; 'I' for Inactive)
ROOT
ATOM      1  C   UNL d   1      -1.258   0.261   0.632  0.00  0.00     0.077 C 
ATOM      2  C1  UNL d   1       0.214  -0.000   0.750  0.00  0.00    -0.074 A 
ATOM      3  C2  UNL d   1       1.125   0.620  -0.111  0.00  0.00    -0.005 A 
ATOM      4  C3  UNL d   1       2.492   0.375   0.017  0.00  0.00     0.006 A 
ATOM      5  C4  UNL d   1       2.961  -0.492   1.005  0.00  0.00    -0.005 A 
ATOM      6  C5  UNL d   1       2.065  -1.120   1.875  0.00  0.00    -0.074 A 
ATOM      7  C6  UNL d   1       2.554  -2.047   2.948  0.00  0.00     0.077 C 
ATOM      8  C7  UNL d   1       0.694  -0.864   1.745  0.00  0.00    -0.001 A 
ENDROOT
TORSDOF 0
ENDMDL
