MODEL 1
REMARK minimizedAffinity -3.39724946
REMARK minimizedRMSD -1
REMARK  0 active torsions:
REMARK  status: ('A' for Active; 'I' for Inactive)
ROOT
ATOM      1  C   UNL d   1      -0.272   0.471   0.477  0.00  0.00     0.077 C 
ATOM      2  C1  UNL d   1       0.553  -0.577   1.163  0.00  0.00    -0.074 A 
ATOM      3  C2  UNL d   1       1.394  -1.422   0.431  0.00  0.00    -0.005 A 
ATOM      4  C3  UNL d   1       2.163  -2.386   1.084  0.00  0.00     0.006 A 
ATOM      5  C4  UNL d   1       2.098  -2.515   2.472  0.00  0.00    -0.005 A 
ATOM      6  C5  UNL d   1       1.263  -1.678   3.220  0.00  0.00    -0.074 A 
ATOM      7  C6  UNL d   1       1.189  -1.797   4.713  0.00  0.00     0.077 C 
ATOM      8  C7  UNL d   1       0.499  -0.708   2.557  0.00  0.00    -0.001 A 
ENDROOT
TORSDOF 0
ENDMDL
