MODEL 1
REMARK minimizedAffinity 1.88501084
REMARK minimizedRMSD -1
REMARK  0 active torsions:
REMARK  status: ('A' for Active; 'I' for Inactive)
ROOT
ATOM      1  C   UNL d   1       0.083   4.400  -2.240  0.00  0.00     0.077 C 
ATOM      2  C1  UNL d   1       0.767   4.657  -0.931  0.00  0.00    -0.074 A 
ATOM      3  C2  UNL d   1       0.052   5.133   0.173  0.00  0.00    -0.005 A 
ATOM      4  C3  UNL d   1       0.701   5.358   1.387  0.00  0.00     0.006 A 
ATOM      5  C4  UNL d   1       2.068   5.111   1.510  0.00  0.00    -0.005 A 
ATOM      6  C5  UNL d   1       2.800   4.634   0.417  0.00  0.00    -0.074 A 
ATOM      7  C6  UNL d   1       4.268   4.353   0.535  0.00  0.00     0.077 C 
ATOM      8  C7  UNL d   1       2.139   4.403  -0.797  0.00  0.00    -0.001 A 
ENDROOT
TORSDOF 0
ENDMDL
