MODEL 1
REMARK minimizedAffinity 2.30463362
REMARK minimizedRMSD -1
REMARK  0 active torsions:
REMARK  status: ('A' for Active; 'I' for Inactive)
ROOT
ATOM      1  C   UNL d   1       5.236  -0.715   2.271  0.00  0.00     0.077 C 
ATOM      2  C1  UNL d   1       3.744  -0.711   2.124  0.00  0.00    -0.074 A 
ATOM      3  C2  UNL d   1       2.915  -1.055   3.197  0.00  0.00    -0.005 A 
ATOM      4  C3  UNL d   1       1.528  -1.037   3.048  0.00  0.00     0.006 A 
ATOM      5  C4  UNL d   1       0.957  -0.677   1.827  0.00  0.00    -0.005 A 
ATOM      6  C5  UNL d   1       1.770  -0.330   0.743  0.00  0.00    -0.074 A 
ATOM      7  C6  UNL d   1       1.172   0.069  -0.573  0.00  0.00     0.077 C 
ATOM      8  C7  UNL d   1       3.162  -0.343   0.903  0.00  0.00    -0.001 A 
ENDROOT
TORSDOF 0
ENDMDL
