MODEL 1
REMARK minimizedAffinity 3.55114055
REMARK minimizedRMSD -1
REMARK  0 active torsions:
REMARK  status: ('A' for Active; 'I' for Inactive)
ROOT
ATOM      1  C   UNL d   1      -4.670  -0.229  -0.091  0.00  0.00     0.077 C 
ATOM      2  C1  UNL d   1      -3.396   0.164  -0.777  0.00  0.00    -0.074 A 
ATOM      3  C2  UNL d   1      -3.417   0.914  -1.958  0.00  0.00    -0.005 A 
ATOM      4  C3  UNL d   1      -2.224   1.280  -2.579  0.00  0.00     0.006 A 
ATOM      5  C4  UNL d   1      -0.999   0.902  -2.028  0.00  0.00    -0.005 A 
ATOM      6  C5  UNL d   1      -0.958   0.153  -0.848  0.00  0.00    -0.074 A 
ATOM      7  C6  UNL d   1       0.350  -0.254  -0.237  0.00  0.00     0.077 C 
ATOM      8  C7  UNL d   1      -2.161  -0.206  -0.225  0.00  0.00    -0.001 A 
ENDROOT
TORSDOF 0
ENDMDL
