MODEL 1
REMARK minimizedAffinity -2.9817872
REMARK minimizedRMSD -1
REMARK  0 active torsions:
REMARK  status: ('A' for Active; 'I' for Inactive)
ROOT
ATOM      1  C   UNL d   1      -4.633   1.344  -2.795  0.00  0.00     0.077 C 
ATOM      2  C1  UNL d   1      -4.713   0.445  -1.597  0.00  0.00    -0.074 A 
ATOM      3  C2  UNL d   1      -5.694   0.636  -0.619  0.00  0.00    -0.005 A 
ATOM      4  C3  UNL d   1      -5.762  -0.214   0.485  0.00  0.00     0.006 A 
ATOM      5  C4  UNL d   1      -4.851  -1.262   0.622  0.00  0.00    -0.005 A 
ATOM      6  C5  UNL d   1      -3.863  -1.469  -0.346  0.00  0.00    -0.074 A 
ATOM      7  C6  UNL d   1      -2.882  -2.596  -0.218  0.00  0.00     0.077 C 
ATOM      8  C7  UNL d   1      -3.806  -0.615  -1.456  0.00  0.00    -0.001 A 
ENDROOT
TORSDOF 0
ENDMDL
