MODEL 1
REMARK minimizedAffinity 7.9293623
REMARK minimizedRMSD -1
REMARK  0 active torsions:
REMARK  status: ('A' for Active; 'I' for Inactive)
ROOT
ATOM      1  C   UNL d   1       0.788  -1.511   0.650  0.00  0.00     0.077 C 
ATOM      2  C1  UNL d   1      -0.655  -1.809   0.367  0.00  0.00    -0.074 A 
ATOM      3  C2  UNL d   1      -1.554  -0.783   0.061  0.00  0.00    -0.005 A 
ATOM      4  C3  UNL d   1      -2.891  -1.077  -0.209  0.00  0.00     0.006 A 
ATOM      5  C4  UNL d   1      -3.341  -2.397  -0.176  0.00  0.00    -0.005 A 
ATOM      6  C5  UNL d   1      -2.456  -3.437   0.128  0.00  0.00    -0.074 A 
ATOM      7  C6  UNL d   1      -2.921  -4.862   0.158  0.00  0.00     0.077 C 
ATOM      8  C7  UNL d   1      -1.113  -3.134   0.391  0.00  0.00    -0.001 A 
ENDROOT
TORSDOF 0
ENDMDL
