MODEL 1
REMARK minimizedAffinity -2.07128143
REMARK minimizedRMSD -1
REMARK  0 active torsions:
REMARK  status: ('A' for Active; 'I' for Inactive)
ROOT
ATOM      1  C   UNL d   1       5.189   3.429  -0.797  0.00  0.00     0.077 C 
ATOM      2  C1  UNL d   1       3.826   2.914  -0.440  0.00  0.00    -0.074 A 
ATOM      3  C2  UNL d   1       2.829   3.780   0.020  0.00  0.00    -0.005 A 
ATOM      4  C3  UNL d   1       1.563   3.288   0.339  0.00  0.00     0.006 A 
ATOM      5  C4  UNL d   1       1.283   1.928   0.202  0.00  0.00    -0.005 A 
ATOM      6  C5  UNL d   1       2.267   1.048  -0.258  0.00  0.00    -0.074 A 
ATOM      7  C6  UNL d   1       1.980  -0.415  -0.420  0.00  0.00     0.077 C 
ATOM      8  C7  UNL d   1       3.535   1.551  -0.583  0.00  0.00    -0.001 A 
ENDROOT
TORSDOF 0
ENDMDL
