MODEL 1
REMARK minimizedAffinity 6.73026037
REMARK minimizedRMSD -1
REMARK  0 active torsions:
REMARK  status: ('A' for Active; 'I' for Inactive)
ROOT
ATOM      1  C   UNL d   1       1.171  -0.420  -0.050  0.00  0.00     0.077 C 
ATOM      2  C1  UNL d   1       2.030  -0.737   1.138  0.00  0.00    -0.074 A 
ATOM      3  C2  UNL d   1       1.475  -1.278   2.302  0.00  0.00    -0.005 A 
ATOM      4  C3  UNL d   1       2.288  -1.577   3.395  0.00  0.00     0.006 A 
ATOM      5  C4  UNL d   1       3.661  -1.338   3.336  0.00  0.00    -0.005 A 
ATOM      6  C5  UNL d   1       4.234  -0.799   2.180  0.00  0.00    -0.074 A 
ATOM      7  C6  UNL d   1       5.710  -0.545   2.095  0.00  0.00     0.077 C 
ATOM      8  C7  UNL d   1       3.412  -0.508   1.082  0.00  0.00    -0.001 A 
ENDROOT
TORSDOF 0
ENDMDL
