MODEL 1
REMARK minimizedAffinity 4.40033627
REMARK minimizedRMSD -1
REMARK  0 active torsions:
REMARK  status: ('A' for Active; 'I' for Inactive)
ROOT
ATOM      1  C   UNL d   1       4.052  -1.374   1.555  0.00  0.00     0.077 C 
ATOM      2  C1  UNL d   1       2.833  -1.172   0.706  0.00  0.00    -0.074 A 
ATOM      3  C2  UNL d   1       2.744  -0.094  -0.180  0.00  0.00    -0.005 A 
ATOM      4  C3  UNL d   1       1.607   0.075  -0.970  0.00  0.00     0.006 A 
ATOM      5  C4  UNL d   1       0.549  -0.831  -0.882  0.00  0.00    -0.005 A 
ATOM      6  C5  UNL d   1       0.620  -1.915  -0.003  0.00  0.00    -0.074 A 
ATOM      7  C6  UNL d   1      -0.503  -2.904   0.097  0.00  0.00     0.077 C 
ATOM      8  C7  UNL d   1       1.769  -2.082   0.783  0.00  0.00    -0.001 A 
ENDROOT
TORSDOF 0
ENDMDL
