MODEL 1
REMARK minimizedAffinity 8.32314491
REMARK minimizedRMSD -1
REMARK  0 active torsions:
REMARK  status: ('A' for Active; 'I' for Inactive)
ROOT
ATOM      1  C   UNL d   1      -2.015  -3.685   0.825  0.00  0.00     0.077 C 
ATOM      2  C1  UNL d   1      -0.854  -2.742   0.709  0.00  0.00    -0.074 A 
ATOM      3  C2  UNL d   1       0.413  -3.204   0.338  0.00  0.00    -0.005 A 
ATOM      4  C3  UNL d   1       1.480  -2.313   0.224  0.00  0.00     0.006 A 
ATOM      5  C4  UNL d   1       1.292  -0.954   0.480  0.00  0.00    -0.005 A 
ATOM      6  C5  UNL d   1       0.033  -0.474   0.851  0.00  0.00    -0.074 A 
ATOM      7  C6  UNL d   1      -0.189   0.985   1.120  0.00  0.00     0.077 C 
ATOM      8  C7  UNL d   1      -1.037  -1.374   0.957  0.00  0.00    -0.001 A 
ENDROOT
TORSDOF 0
ENDMDL
