MODEL 1
REMARK minimizedAffinity 5.99090242
REMARK minimizedRMSD -1
REMARK  0 active torsions:
REMARK  status: ('A' for Active; 'I' for Inactive)
ROOT
ATOM      1  C   UNL d   1      -0.757   0.348   0.936  0.00  0.00     0.077 C 
ATOM      2  C1  UNL d   1       0.679  -0.055   0.785  0.00  0.00    -0.074 A 
ATOM      3  C2  UNL d   1       1.362   0.154  -0.418  0.00  0.00    -0.005 A 
ATOM      4  C3  UNL d   1       2.701  -0.217  -0.540  0.00  0.00     0.006 A 
ATOM      5  C4  UNL d   1       3.370  -0.800   0.537  0.00  0.00    -0.005 A 
ATOM      6  C5  UNL d   1       2.704  -1.016   1.748  0.00  0.00    -0.074 A 
ATOM      7  C6  UNL d   1       3.411  -1.633   2.918  0.00  0.00     0.077 C 
ATOM      8  C7  UNL d   1       1.361  -0.634   1.865  0.00  0.00    -0.001 A 
ENDROOT
TORSDOF 0
ENDMDL
