MODEL 1
REMARK minimizedAffinity 3.12548304
REMARK minimizedRMSD -1
REMARK  0 active torsions:
REMARK  status: ('A' for Active; 'I' for Inactive)
ROOT
ATOM      1  C   UNL d   1       1.533  -3.562  -2.505  0.00  0.00     0.077 C 
ATOM      2  C1  UNL d   1       1.330  -4.405  -3.729  0.00  0.00    -0.074 A 
ATOM      3  C2  UNL d   1       2.418  -4.822  -4.503  0.00  0.00    -0.005 A 
ATOM      4  C3  UNL d   1       2.215  -5.614  -5.633  0.00  0.00     0.006 A 
ATOM      5  C4  UNL d   1       0.924  -5.996  -6.000  0.00  0.00    -0.005 A 
ATOM      6  C5  UNL d   1      -0.176  -5.590  -5.238  0.00  0.00    -0.074 A 
ATOM      7  C6  UNL d   1      -1.569  -6.000  -5.613  0.00  0.00     0.077 C 
ATOM      8  C7  UNL d   1       0.037  -4.800  -4.100  0.00  0.00    -0.001 A 
ENDROOT
TORSDOF 0
ENDMDL
