MODEL 1
REMARK minimizedAffinity 5.32565784
REMARK minimizedRMSD -1
REMARK  0 active torsions:
REMARK  status: ('A' for Active; 'I' for Inactive)
ROOT
ATOM      1  C   UNL d   1      -3.036  -4.756  -2.250  0.00  0.00     0.077 C 
ATOM      2  C1  UNL d   1      -2.368  -5.155  -3.532  0.00  0.00    -0.074 A 
ATOM      3  C2  UNL d   1      -3.105  -5.302  -4.712  0.00  0.00    -0.005 A 
ATOM      4  C3  UNL d   1      -2.469  -5.664  -5.899  0.00  0.00     0.006 A 
ATOM      5  C4  UNL d   1      -1.091  -5.882  -5.919  0.00  0.00    -0.005 A 
ATOM      6  C5  UNL d   1      -0.337  -5.739  -4.750  0.00  0.00    -0.074 A 
ATOM      7  C6  UNL d   1       1.147  -5.960  -4.756  0.00  0.00     0.077 C 
ATOM      8  C7  UNL d   1      -0.983  -5.368  -3.562  0.00  0.00    -0.001 A 
ENDROOT
TORSDOF 0
ENDMDL
