MODEL 1
REMARK minimizedAffinity 2.14295626
REMARK minimizedRMSD -1
REMARK  0 active torsions:
REMARK  status: ('A' for Active; 'I' for Inactive)
ROOT
ATOM      1  C   UNL d   1       5.400  -0.756   2.250  0.00  0.00     0.077 C 
ATOM      2  C1  UNL d   1       3.934  -0.782   1.936  0.00  0.00    -0.074 A 
ATOM      3  C2  UNL d   1       2.985  -0.970   2.947  0.00  0.00    -0.005 A 
ATOM      4  C3  UNL d   1       1.624  -0.982   2.641  0.00  0.00     0.006 A 
ATOM      5  C4  UNL d   1       1.199  -0.807   1.324  0.00  0.00    -0.005 A 
ATOM      6  C5  UNL d   1       2.132  -0.617   0.300  0.00  0.00    -0.074 A 
ATOM      7  C6  UNL d   1       1.691  -0.417  -1.119  0.00  0.00     0.077 C 
ATOM      8  C7  UNL d   1       3.498  -0.599   0.617  0.00  0.00    -0.001 A 
ENDROOT
TORSDOF 0
ENDMDL
