MODEL 1
REMARK minimizedAffinity -3.57069826
REMARK minimizedRMSD -1
REMARK  0 active torsions:
REMARK  status: ('A' for Active; 'I' for Inactive)
ROOT
ATOM      1  C   UNL d   1      -1.054   1.817  -3.614  0.00  0.00     0.078 C 
ATOM      2  C1  UNL d   1      -2.522   2.101  -3.500  0.00  0.00    -0.077 A 
ATOM      3  C2  UNL d   1      -3.463   1.067  -3.566  0.00  0.00    -0.001 A 
ATOM      4  C3  UNL d   1      -4.827   1.347  -3.468  0.00  0.00     0.003 A 
ATOM      5  C4  UNL d   1      -5.262   2.661  -3.306  0.00  0.00    -0.005 A 
ATOM      6  C5  UNL d   1      -4.333   3.697  -3.242  0.00  0.00     0.003 A 
ATOM      7  C6  UNL d   1      -2.968   3.419  -3.339  0.00  0.00    -0.001 A 
ENDROOT
TORSDOF 0
ENDMDL
