MODEL 1
REMARK minimizedAffinity 6.58076763
REMARK minimizedRMSD -1
REMARK  0 active torsions:
REMARK  status: ('A' for Active; 'I' for Inactive)
ROOT
ATOM      1  C   UNL d   1       2.355  -3.165  -3.999  0.00  0.00     0.078 C 
ATOM      2  C1  UNL d   1       3.490  -3.892  -4.657  0.00  0.00    -0.077 A 
ATOM      3  C2  UNL d   1       3.546  -5.291  -4.660  0.00  0.00    -0.001 A 
ATOM      4  C3  UNL d   1       4.613  -5.954  -5.268  0.00  0.00     0.003 A 
ATOM      5  C4  UNL d   1       5.633  -5.226  -5.877  0.00  0.00    -0.005 A 
ATOM      6  C5  UNL d   1       5.588  -3.833  -5.877  0.00  0.00     0.003 A 
ATOM      7  C6  UNL d   1       4.521  -3.169  -5.269  0.00  0.00    -0.001 A 
ENDROOT
TORSDOF 0
ENDMDL
