MODEL 1
REMARK minimizedAffinity 3.42966509
REMARK minimizedRMSD -1
REMARK  0 active torsions:
REMARK  status: ('A' for Active; 'I' for Inactive)
ROOT
ATOM      1  C   UNL d   1       4.866  -2.278  -5.818  0.00  0.00     0.078 C 
ATOM      2  C1  UNL d   1       4.344  -3.578  -5.283  0.00  0.00    -0.077 A 
ATOM      3  C2  UNL d   1       5.081  -4.761  -5.417  0.00  0.00    -0.001 A 
ATOM      4  C3  UNL d   1       4.579  -5.966  -4.923  0.00  0.00     0.003 A 
ATOM      5  C4  UNL d   1       3.337  -5.999  -4.292  0.00  0.00    -0.005 A 
ATOM      6  C5  UNL d   1       2.595  -4.828  -4.156  0.00  0.00     0.003 A 
ATOM      7  C6  UNL d   1       3.096  -3.622  -4.649  0.00  0.00    -0.001 A 
ENDROOT
TORSDOF 0
ENDMDL
