MODEL 1
REMARK minimizedAffinity 6.77809477
REMARK minimizedRMSD -1
REMARK  0 active torsions:
REMARK  status: ('A' for Active; 'I' for Inactive)
ROOT
ATOM      1  C   UNL d   1       2.738  -5.860  -3.998  0.00  0.00     0.078 C 
ATOM      2  C1  UNL d   1       3.873  -5.164  -4.688  0.00  0.00    -0.077 A 
ATOM      3  C2  UNL d   1       3.891  -3.770  -4.819  0.00  0.00    -0.001 A 
ATOM      4  C3  UNL d   1       4.950  -3.136  -5.472  0.00  0.00     0.003 A 
ATOM      5  C4  UNL d   1       5.997  -3.888  -6.000  0.00  0.00    -0.005 A 
ATOM      6  C5  UNL d   1       5.987  -5.275  -5.877  0.00  0.00     0.003 A 
ATOM      7  C6  UNL d   1       4.929  -5.911  -5.224  0.00  0.00    -0.001 A 
ENDROOT
TORSDOF 0
ENDMDL
