MODEL 1
REMARK minimizedAffinity 7.7486949
REMARK minimizedRMSD -1
REMARK  0 active torsions:
REMARK  status: ('A' for Active; 'I' for Inactive)
ROOT
ATOM      1  C   UNL d   1       5.996  -4.875   1.515  0.00  0.00     0.078 C 
ATOM      2  C1  UNL d   1       4.856  -4.055   2.040  0.00  0.00    -0.077 A 
ATOM      3  C2  UNL d   1       4.341  -4.275   3.323  0.00  0.00    -0.001 A 
ATOM      4  C3  UNL d   1       3.272  -3.511   3.795  0.00  0.00     0.003 A 
ATOM      5  C4  UNL d   1       2.709  -2.523   2.990  0.00  0.00    -0.005 A 
ATOM      6  C5  UNL d   1       3.213  -2.299   1.711  0.00  0.00     0.003 A 
ATOM      7  C6  UNL d   1       4.282  -3.062   1.237  0.00  0.00    -0.001 A 
ENDROOT
TORSDOF 0
ENDMDL
