MODEL 1
REMARK minimizedAffinity 13.1994724
REMARK minimizedRMSD -1
REMARK  1 active torsions:
REMARK  status: ('A' for Active; 'I' for Inactive)
REMARK    1  A    between atoms: C1_2  and  C2_3 
ROOT
ATOM      1  C2  UNL d   1      -4.830   1.065  -1.772  0.00  0.00    -0.076 A 
ATOM      2  C3  UNL d   1      -5.994   1.687  -2.256  0.00  0.00     0.004 A 
ATOM      3  C4  UNL d   1      -5.992   2.365  -3.473  0.00  0.00    -0.003 A 
ATOM      4  C5  UNL d   1      -4.826   2.431  -4.228  0.00  0.00     0.000 A 
ATOM      5  C6  UNL d   1      -3.667   1.805  -3.772  0.00  0.00     0.000 A 
ATOM      6  C7  UNL d   1      -3.656   1.103  -2.554  0.00  0.00    -0.073 A 
ATOM      7  C8  UNL d   1      -2.376   0.451  -2.108  0.00  0.00     0.078 C 
ENDROOT
BRANCH   1   8
ATOM      8  C1  UNL d   1      -4.885   0.367  -0.432  0.00  0.00     0.053 C 
ATOM      9  C   UNL d   1      -5.157   1.329   0.715  0.00  0.00     0.018 C 
ENDBRANCH   1   8
TORSDOF 1
ENDMDL
