MODEL 1
REMARK minimizedAffinity 1.96832263
REMARK minimizedRMSD -1
REMARK  1 active torsions:
REMARK  status: ('A' for Active; 'I' for Inactive)
REMARK    1  A    between atoms: C1_2  and  C2_3 
ROOT
ATOM      1  C2  UNL d   1       2.555  -0.606  -0.725  0.00  0.00    -0.076 A 
ATOM      2  C3  UNL d   1       2.405   0.447   0.194  0.00  0.00     0.004 A 
ATOM      3  C4  UNL d   1       3.238   1.563   0.148  0.00  0.00    -0.003 A 
ATOM      4  C5  UNL d   1       4.234   1.645  -0.819  0.00  0.00     0.000 A 
ATOM      5  C6  UNL d   1       4.386   0.618  -1.750  0.00  0.00     0.000 A 
ATOM      6  C7  UNL d   1       3.543  -0.507  -1.727  0.00  0.00    -0.073 A 
ATOM      7  C8  UNL d   1       3.755  -1.588  -2.752  0.00  0.00     0.078 C 
ENDROOT
BRANCH   1   8
ATOM      8  C1  UNL d   1       1.640  -1.804  -0.609  0.00  0.00     0.053 C 
ATOM      9  C   UNL d   1       2.057  -2.750   0.506  0.00  0.00     0.018 C 
ENDBRANCH   1   8
TORSDOF 1
ENDMDL
