MODEL 1
REMARK minimizedAffinity 5.79873562
REMARK minimizedRMSD -1
REMARK  1 active torsions:
REMARK  status: ('A' for Active; 'I' for Inactive)
REMARK    1  A    between atoms: C1_2  and  C2_3 
ROOT
ATOM      1  C2  UNL d   1       3.472  -0.599   0.849  0.00  0.00    -0.076 A 
ATOM      2  C3  UNL d   1       4.630  -1.182   1.393  0.00  0.00     0.004 A 
ATOM      3  C4  UNL d   1       5.477  -0.452   2.226  0.00  0.00    -0.003 A 
ATOM      4  C5  UNL d   1       5.179   0.872   2.529  0.00  0.00     0.000 A 
ATOM      5  C6  UNL d   1       4.025   1.461   2.012  0.00  0.00     0.000 A 
ATOM      6  C7  UNL d   1       3.152   0.734   1.184  0.00  0.00    -0.073 A 
ATOM      7  C8  UNL d   1       1.926   1.421   0.650  0.00  0.00     0.078 C 
ENDROOT
BRANCH   1   8
ATOM      8  C1  UNL d   1       2.606  -1.430  -0.070  0.00  0.00     0.053 C 
ATOM      9  C   UNL d   1       2.379  -2.838   0.458  0.00  0.00     0.018 C 
ENDBRANCH   1   8
TORSDOF 1
ENDMDL
