MODEL 1
REMARK minimizedAffinity -2.43487239
REMARK minimizedRMSD -1
REMARK  1 active torsions:
REMARK  status: ('A' for Active; 'I' for Inactive)
REMARK    1  A    between atoms: C1_2  and  C2_3 
ROOT
ATOM      1  C2  UNL d   1      -1.213   0.484   0.164  0.00  0.00    -0.076 A 
ATOM      2  C3  UNL d   1      -2.518   0.163  -0.245  0.00  0.00     0.004 A 
ATOM      3  C4  UNL d   1      -3.625   0.590   0.486  0.00  0.00    -0.003 A 
ATOM      4  C5  UNL d   1      -3.445   1.347   1.638  0.00  0.00     0.000 A 
ATOM      5  C6  UNL d   1      -2.157   1.691   2.049  0.00  0.00     0.000 A 
ATOM      6  C7  UNL d   1      -1.031   1.282   1.314  0.00  0.00    -0.073 A 
ATOM      7  C8  UNL d   1       0.335   1.676   1.807  0.00  0.00     0.078 C 
ENDROOT
BRANCH   1   8
ATOM      8  C1  UNL d   1      -0.050  -0.030  -0.654  0.00  0.00     0.053 C 
ATOM      9  C   UNL d   1       0.456  -1.378  -0.164  0.00  0.00     0.018 C 
ENDBRANCH   1   8
TORSDOF 1
ENDMDL
