MODEL 1
REMARK minimizedAffinity 7.49015474
REMARK minimizedRMSD -1
REMARK  0 active torsions:
REMARK  status: ('A' for Active; 'I' for Inactive)
ROOT
ATOM      1  C1  BNZ d   1      -3.945   4.944  -3.830  0.00  0.00     0.000 A 
ATOM      2  C2  BNZ d   1      -3.287   5.514  -4.887  0.00  0.00     0.000 A 
ATOM      3  C3  BNZ d   1      -3.977   5.997  -5.963  0.00  0.00     0.000 A 
ATOM      4  C4  BNZ d   1      -5.320   5.873  -6.000  0.00  0.00     0.000 A 
ATOM      5  C5  BNZ d   1      -5.997   5.292  -4.947  0.00  0.00     0.000 A 
ATOM      6  C6  BNZ d   1      -5.302   4.842  -3.847  0.00  0.00     0.000 A 
ENDROOT
TORSDOF 0
ENDMDL
