MODEL 1
REMARK minimizedAffinity -1.94798207
REMARK minimizedRMSD -1
REMARK  0 active torsions:
REMARK  status: ('A' for Active; 'I' for Inactive)
ROOT
ATOM      1  C1  BNZ d   1      -0.282   3.018   1.046  0.00  0.00     0.000 A 
ATOM      2  C2  BNZ d   1      -1.615   3.068   0.737  0.00  0.00     0.000 A 
ATOM      3  C3  BNZ d   1      -2.032   3.083  -0.565  0.00  0.00     0.000 A 
ATOM      4  C4  BNZ d   1      -1.115   3.088  -1.554  0.00  0.00     0.000 A 
ATOM      5  C5  BNZ d   1       0.233   3.047  -1.259  0.00  0.00     0.000 A 
ATOM      6  C6  BNZ d   1       0.647   2.993   0.052  0.00  0.00     0.000 A 
ENDROOT
TORSDOF 0
ENDMDL
