MODEL 1
REMARK minimizedAffinity 7.31536627
REMARK minimizedRMSD -1
REMARK  0 active torsions:
REMARK  status: ('A' for Active; 'I' for Inactive)
ROOT
ATOM      1  C1  BNZ d   1      -3.390   2.243  -2.595  0.00  0.00     0.000 A 
ATOM      2  C2  BNZ d   1      -2.892   1.642  -1.469  0.00  0.00     0.000 A 
ATOM      3  C3  BNZ d   1      -1.550   1.644  -1.210  0.00  0.00     0.000 A 
ATOM      4  C4  BNZ d   1      -0.705   2.211  -2.094  0.00  0.00     0.000 A 
ATOM      5  C5  BNZ d   1      -1.190   2.813  -3.238  0.00  0.00     0.000 A 
ATOM      6  C6  BNZ d   1      -2.545   2.843  -3.477  0.00  0.00     0.000 A 
ENDROOT
TORSDOF 0
ENDMDL
