MODEL 1
REMARK minimizedAffinity -0.187468722
REMARK minimizedRMSD -1
REMARK  0 active torsions:
REMARK  status: ('A' for Active; 'I' for Inactive)
ROOT
ATOM      1  C1  BNZ d   1      -0.321   0.756  -3.383  0.00  0.00     0.000 A 
ATOM      2  C2  BNZ d   1      -0.368   1.942  -2.700  0.00  0.00     0.000 A 
ATOM      3  C3  BNZ d   1      -0.663   1.970  -1.366  0.00  0.00     0.000 A 
ATOM      4  C4  BNZ d   1      -0.951   0.818  -0.726  0.00  0.00     0.000 A 
ATOM      5  C5  BNZ d   1      -0.917  -0.385  -1.403  0.00  0.00     0.000 A 
ATOM      6  C6  BNZ d   1      -0.581  -0.413  -2.737  0.00  0.00     0.000 A 
ENDROOT
TORSDOF 0
ENDMDL
