MODEL 1
REMARK minimizedAffinity 3.43671966
REMARK minimizedRMSD -1
REMARK  0 active torsions:
REMARK  status: ('A' for Active; 'I' for Inactive)
ROOT
ATOM      1  C1  BNZ d   1       0.068   2.970   0.748  0.00  0.00     0.000 A 
ATOM      2  C2  BNZ d   1       0.460   4.120   0.115  0.00  0.00     0.000 A 
ATOM      3  C3  BNZ d   1       0.107   4.359  -1.184  0.00  0.00     0.000 A 
ATOM      4  C4  BNZ d   1      -0.602   3.432  -1.860  0.00  0.00     0.000 A 
ATOM      5  C5  BNZ d   1      -0.997   2.264  -1.239  0.00  0.00     0.000 A 
ATOM      6  C6  BNZ d   1      -0.673   2.044   0.080  0.00  0.00     0.000 A 
ENDROOT
TORSDOF 0
ENDMDL
