MODEL 1
REMARK minimizedAffinity 9.80404377
REMARK minimizedRMSD -1
REMARK  0 active torsions:
REMARK  status: ('A' for Active; 'I' for Inactive)
ROOT
ATOM      1  C1  BNZ d   1       0.739   3.376  -0.894  0.00  0.00     0.000 A 
ATOM      2  C2  BNZ d   1       0.404   4.692  -0.715  0.00  0.00     0.000 A 
ATOM      3  C3  BNZ d   1      -0.793   5.176  -1.162  0.00  0.00     0.000 A 
ATOM      4  C4  BNZ d   1      -1.636   4.355  -1.823  0.00  0.00     0.000 A 
ATOM      5  C5  BNZ d   1      -1.308   3.029  -2.020  0.00  0.00     0.000 A 
ATOM      6  C6  BNZ d   1      -0.119   2.535  -1.534  0.00  0.00     0.000 A 
ENDROOT
TORSDOF 0
ENDMDL
