MODEL 1
REMARK minimizedAffinity 0.251001984
REMARK minimizedRMSD -1
REMARK  2 active torsions:
REMARK  status: ('A' for Active; 'I' for Inactive)
REMARK    1  A    between atoms: C1_2  and  C2_3 
REMARK    2  A    between atoms: C2_3  and  C3_4 
ROOT
ATOM      1  C3  UNL d   1      -3.630   0.399  -5.874  0.00  0.00    -0.075 A 
ATOM      2  C4  UNL d   1      -4.610   1.395  -5.999  0.00  0.00     0.002 A 
ATOM      3  C5  UNL d   1      -4.265   2.743  -5.909  0.00  0.00     0.002 A 
ATOM      4  C6  UNL d   1      -2.941   3.113  -5.682  0.00  0.00    -0.004 A 
ATOM      5  C7  UNL d   1      -1.962   2.132  -5.540  0.00  0.00     0.002 A 
ATOM      6  C8  UNL d   1      -2.304   0.782  -5.634  0.00  0.00     0.002 A 
ENDROOT
BRANCH   1   7
ATOM      7  C2  UNL d   1      -3.993  -1.062  -6.000  0.00  0.00     0.056 C 
BRANCH   7   8
ATOM      8  C1  UNL d   1      -5.255  -1.460  -5.228  0.00  0.00     0.007 C 
ATOM      9  C   UNL d   1      -5.968  -2.665  -5.826  0.00  0.00     0.009 C 
ENDBRANCH   7   8
ENDBRANCH   1   7
TORSDOF 2
ENDMDL
