MODEL 1
REMARK minimizedAffinity -1.45438814
REMARK minimizedRMSD -1
REMARK  2 active torsions:
REMARK  status: ('A' for Active; 'I' for Inactive)
REMARK    1  A    between atoms: C1_2  and  C2_3 
REMARK    2  A    between atoms: C2_3  and  C3_4 
ROOT
ATOM      1  C3  UNL d   1      -3.250  -3.597  -5.318  0.00  0.00    -0.075 A 
ATOM      2  C4  UNL d   1      -3.142  -4.819  -5.999  0.00  0.00     0.002 A 
ATOM      3  C5  UNL d   1      -2.551  -5.922  -5.383  0.00  0.00     0.002 A 
ATOM      4  C6  UNL d   1      -2.052  -5.816  -4.087  0.00  0.00    -0.004 A 
ATOM      5  C7  UNL d   1      -2.140  -4.603  -3.407  0.00  0.00     0.002 A 
ATOM      6  C8  UNL d   1      -2.735  -3.499  -4.019  0.00  0.00     0.002 A 
ENDROOT
BRANCH   1   7
ATOM      7  C2  UNL d   1      -3.915  -2.407  -5.968  0.00  0.00     0.056 C 
BRANCH   7   8
ATOM      8  C1  UNL d   1      -3.046  -1.146  -5.999  0.00  0.00     0.007 C 
ATOM      9  C   UNL d   1      -3.852   0.142  -5.899  0.00  0.00     0.009 C 
ENDBRANCH   7   8
ENDBRANCH   1   7
TORSDOF 2
ENDMDL
