MODEL 1
REMARK minimizedAffinity 1.4459902
REMARK minimizedRMSD -1
REMARK  2 active torsions:
REMARK  status: ('A' for Active; 'I' for Inactive)
REMARK    1  A    between atoms: C1_2  and  C2_3 
REMARK    2  A    between atoms: C2_3  and  C3_4 
ROOT
ATOM      1  C3  UNL d   1      -2.902   1.934  -5.982  0.00  0.00    -0.075 A 
ATOM      2  C4  UNL d   1      -2.316   3.208  -5.995  0.00  0.00     0.002 A 
ATOM      3  C5  UNL d   1      -3.112   4.354  -5.996  0.00  0.00     0.002 A 
ATOM      4  C6  UNL d   1      -4.501   4.241  -5.995  0.00  0.00    -0.004 A 
ATOM      5  C7  UNL d   1      -5.094   2.981  -6.000  0.00  0.00     0.002 A 
ATOM      6  C8  UNL d   1      -4.300   1.832  -5.994  0.00  0.00     0.002 A 
ENDROOT
BRANCH   1   7
ATOM      7  C2  UNL d   1      -2.047   0.690  -5.951  0.00  0.00     0.056 C 
BRANCH   7   8
ATOM      8  C1  UNL d   1      -1.986   0.009  -4.580  0.00  0.00     0.007 C 
ATOM      9  C   UNL d   1      -0.583  -0.027  -3.988  0.00  0.00     0.009 C 
ENDBRANCH   7   8
ENDBRANCH   1   7
TORSDOF 2
ENDMDL
