MODEL 1
REMARK minimizedAffinity -0.294467241
REMARK minimizedRMSD -1
REMARK  2 active torsions:
REMARK  status: ('A' for Active; 'I' for Inactive)
REMARK    1  A    between atoms: C1_2  and  C2_3 
REMARK    2  A    between atoms: C2_3  and  C3_4 
ROOT
ATOM      1  C3  UNL d   1      -3.505   1.907  -5.823  0.00  0.00    -0.075 A 
ATOM      2  C4  UNL d   1      -2.651   0.794  -5.818  0.00  0.00     0.002 A 
ATOM      3  C5  UNL d   1      -3.171  -0.498  -5.911  0.00  0.00     0.002 A 
ATOM      4  C6  UNL d   1      -4.547  -0.694  -6.000  0.00  0.00    -0.004 A 
ATOM      5  C7  UNL d   1      -5.405   0.404  -5.989  0.00  0.00     0.002 A 
ATOM      6  C8  UNL d   1      -4.888   1.697  -5.900  0.00  0.00     0.002 A 
ENDROOT
BRANCH   1   7
ATOM      7  C2  UNL d   1      -2.948   3.308  -5.752  0.00  0.00     0.056 C 
BRANCH   7   8
ATOM      8  C1  UNL d   1      -3.988   4.406  -5.997  0.00  0.00     0.007 C 
ATOM      9  C   UNL d   1      -5.420   3.887  -5.996  0.00  0.00     0.009 C 
ENDBRANCH   7   8
ENDBRANCH   1   7
TORSDOF 2
ENDMDL
