MODEL 1
REMARK minimizedAffinity -1.76362681
REMARK minimizedRMSD -1
REMARK  2 active torsions:
REMARK  status: ('A' for Active; 'I' for Inactive)
REMARK    1  A    between atoms: C1_2  and  C2_3 
REMARK    2  A    between atoms: C2_3  and  C3_4 
ROOT
ATOM      1  C3  UNL d   1      -4.164   1.013  -5.703  0.00  0.00    -0.075 A 
ATOM      2  C4  UNL d   1      -5.449   0.478  -5.874  0.00  0.00     0.002 A 
ATOM      3  C5  UNL d   1      -5.633  -0.899  -5.998  0.00  0.00     0.002 A 
ATOM      4  C6  UNL d   1      -4.536  -1.757  -5.963  0.00  0.00    -0.004 A 
ATOM      5  C7  UNL d   1      -3.253  -1.236  -5.811  0.00  0.00     0.002 A 
ATOM      6  C8  UNL d   1      -3.066   0.142  -5.682  0.00  0.00     0.002 A 
ENDROOT
BRANCH   1   7
ATOM      7  C2  UNL d   1      -3.961   2.500  -5.539  0.00  0.00     0.056 C 
BRANCH   7   8
ATOM      8  C1  UNL d   1      -2.586   2.997  -5.997  0.00  0.00     0.007 C 
ATOM      9  C   UNL d   1      -2.466   4.515  -6.000  0.00  0.00     0.009 C 
ENDBRANCH   7   8
ENDBRANCH   1   7
TORSDOF 2
ENDMDL
