MODEL 1
REMARK minimizedAffinity 4.30066395
REMARK minimizedRMSD -1
REMARK  2 active torsions:
REMARK  status: ('A' for Active; 'I' for Inactive)
REMARK    1  A    between atoms: C1_2  and  C2_3 
REMARK    2  A    between atoms: C2_3  and  C3_4 
ROOT
ATOM      1  C3  UNL d   1       1.828  -0.251  -0.824  0.00  0.00    -0.075 A 
ATOM      2  C4  UNL d   1       1.275  -0.010   0.442  0.00  0.00     0.002 A 
ATOM      3  C5  UNL d   1      -0.057  -0.333   0.705  0.00  0.00     0.002 A 
ATOM      4  C6  UNL d   1      -0.853  -0.889  -0.293  0.00  0.00    -0.004 A 
ATOM      5  C7  UNL d   1      -0.318  -1.118  -1.559  0.00  0.00     0.002 A 
ATOM      6  C8  UNL d   1       1.015  -0.800  -1.825  0.00  0.00     0.002 A 
ENDROOT
BRANCH   1   7
ATOM      7  C2  UNL d   1       3.276   0.068  -1.108  0.00  0.00     0.056 C 
BRANCH   7   8
ATOM      8  C1  UNL d   1       3.800   1.301  -0.364  0.00  0.00     0.007 C 
ATOM      9  C   UNL d   1       5.319   1.335  -0.253  0.00  0.00     0.009 C 
ENDBRANCH   7   8
ENDBRANCH   1   7
TORSDOF 2
ENDMDL
