MODEL 1
REMARK minimizedAffinity -0.289838195
REMARK minimizedRMSD -1
REMARK  2 active torsions:
REMARK  status: ('A' for Active; 'I' for Inactive)
REMARK    1  A    between atoms: C1_2  and  C2_3 
REMARK    2  A    between atoms: C2_3  and  C3_4 
ROOT
ATOM      1  C3  UNL d   1      -3.987   0.759  -5.998  0.00  0.00    -0.075 A 
ATOM      2  C4  UNL d   1      -5.381   0.609  -5.999  0.00  0.00     0.002 A 
ATOM      3  C5  UNL d   1      -5.958  -0.661  -5.978  0.00  0.00     0.002 A 
ATOM      4  C6  UNL d   1      -5.150  -1.796  -5.967  0.00  0.00    -0.004 A 
ATOM      5  C7  UNL d   1      -3.763  -1.659  -5.983  0.00  0.00     0.002 A 
ATOM      6  C8  UNL d   1      -3.184  -0.390  -5.999  0.00  0.00     0.002 A 
ENDROOT
BRANCH   1   7
ATOM      7  C2  UNL d   1      -3.357   2.131  -5.991  0.00  0.00     0.056 C 
BRANCH   7   8
ATOM      8  C1  UNL d   1      -4.365   3.279  -5.874  0.00  0.00     0.007 C 
ATOM      9  C   UNL d   1      -3.706   4.648  -5.764  0.00  0.00     0.009 C 
ENDBRANCH   7   8
ENDBRANCH   1   7
TORSDOF 2
ENDMDL
