MODEL 1
REMARK minimizedAffinity 0.550859809
REMARK minimizedRMSD -1
REMARK  2 active torsions:
REMARK  status: ('A' for Active; 'I' for Inactive)
REMARK    1  A    between atoms: C1_2  and  C2_3 
REMARK    2  A    between atoms: C2_3  and  C3_4 
ROOT
ATOM      1  C3  UNL d   1      -2.914   1.102  -5.743  0.00  0.00    -0.075 A 
ATOM      2  C4  UNL d   1      -4.108   0.374  -5.846  0.00  0.00     0.002 A 
ATOM      3  C5  UNL d   1      -5.331   1.034  -5.978  0.00  0.00     0.002 A 
ATOM      4  C6  UNL d   1      -5.375   2.426  -5.999  0.00  0.00    -0.004 A 
ATOM      5  C7  UNL d   1      -4.197   3.159  -5.881  0.00  0.00     0.002 A 
ATOM      6  C8  UNL d   1      -2.972   2.502  -5.753  0.00  0.00     0.002 A 
ENDROOT
BRANCH   1   7
ATOM      7  C2  UNL d   1      -1.585   0.393  -5.629  0.00  0.00     0.056 C 
BRANCH   7   8
ATOM      8  C1  UNL d   1      -0.788   0.761  -4.373  0.00  0.00     0.007 C 
ATOM      9  C   UNL d   1      -0.057  -0.425  -3.758  0.00  0.00     0.009 C 
ENDBRANCH   7   8
ENDBRANCH   1   7
TORSDOF 2
ENDMDL
