MODEL 1
REMARK minimizedAffinity -2.99784565
REMARK minimizedRMSD -1
REMARK  2 active torsions:
REMARK  status: ('A' for Active; 'I' for Inactive)
REMARK    1  A    between atoms: C1_2  and  C2_3 
REMARK    2  A    between atoms: C2_3  and  C3_4 
ROOT
ATOM      1  C3  UNL d   1      -4.579   0.763  -5.958  0.00  0.00    -0.075 A 
ATOM      2  C4  UNL d   1      -5.192   2.024  -6.000  0.00  0.00     0.002 A 
ATOM      3  C5  UNL d   1      -4.422   3.187  -5.997  0.00  0.00     0.002 A 
ATOM      4  C6  UNL d   1      -3.032   3.106  -5.942  0.00  0.00    -0.004 A 
ATOM      5  C7  UNL d   1      -2.413   1.859  -5.883  0.00  0.00     0.002 A 
ATOM      6  C8  UNL d   1      -3.181   0.694  -5.891  0.00  0.00     0.002 A 
ENDROOT
BRANCH   1   7
ATOM      7  C2  UNL d   1      -5.405  -0.500  -5.991  0.00  0.00     0.056 C 
BRANCH   7   8
ATOM      8  C1  UNL d   1      -4.784  -1.672  -5.225  0.00  0.00     0.007 C 
ATOM      9  C   UNL d   1      -4.823  -2.983  -5.998  0.00  0.00     0.009 C 
ENDBRANCH   7   8
ENDBRANCH   1   7
TORSDOF 2
ENDMDL
