MODEL 1
REMARK minimizedAffinity -0.100591764
REMARK minimizedRMSD -1
REMARK  2 active torsions:
REMARK  status: ('A' for Active; 'I' for Inactive)
REMARK    1  A    between atoms: C1_2  and  C2_3 
REMARK    2  A    between atoms: C2_3  and  C3_4 
ROOT
ATOM      1  C3  UNL d   1      -4.089   0.307  -5.967  0.00  0.00    -0.075 A 
ATOM      2  C4  UNL d   1      -5.333   0.952  -5.987  0.00  0.00     0.002 A 
ATOM      3  C5  UNL d   1      -5.409   2.345  -5.989  0.00  0.00     0.002 A 
ATOM      4  C6  UNL d   1      -4.244   3.109  -5.959  0.00  0.00    -0.004 A 
ATOM      5  C7  UNL d   1      -3.003   2.479  -5.922  0.00  0.00     0.002 A 
ATOM      6  C8  UNL d   1      -2.924   1.085  -5.925  0.00  0.00     0.002 A 
ENDROOT
BRANCH   1   7
ATOM      7  C2  UNL d   1      -3.999  -1.200  -5.996  0.00  0.00     0.056 C 
BRANCH   7   8
ATOM      8  C1  UNL d   1      -5.350  -1.908  -5.850  0.00  0.00     0.007 C 
ATOM      9  C   UNL d   1      -5.248  -3.424  -5.952  0.00  0.00     0.009 C 
ENDBRANCH   7   8
ENDBRANCH   1   7
TORSDOF 2
ENDMDL
