MODEL 1
REMARK minimizedAffinity 6.53619337
REMARK minimizedRMSD -1
REMARK  0 active torsions:
REMARK  status: ('A' for Active; 'I' for Inactive)
ROOT
ATOM      1  N1  IND d   1      -2.062  -2.996  -3.381  0.00  0.00    -0.196 N 
ATOM      2  C2  IND d   1      -1.501  -4.117  -2.836  0.00  0.00     0.054 A 
ATOM      3  C3  IND d   1      -2.059  -5.228  -3.368  0.00  0.00    -0.031 A 
ATOM      4  C4  IND d   1      -3.834  -5.441  -5.220  0.00  0.00     0.051 A 
ATOM      5  C5  IND d   1      -4.673  -4.694  -5.999  0.00  0.00    -0.031 A 
ATOM      6  C6  IND d   1      -4.682  -3.315  -5.947  0.00  0.00     0.015 A 
ATOM      7  C7  IND d   1      -3.841  -2.628  -5.117  0.00  0.00    -0.016 A 
ATOM      8  C8  IND d   1      -2.994  -3.384  -4.319  0.00  0.00    -0.047 A 
ATOM      9  C9  IND d   1      -3.010  -4.784  -4.337  0.00  0.00    -0.096 A 
ATOM     10  HN1 IND d   1      -1.866  -2.185  -3.173  0.00  0.00     0.298 HD
ENDROOT
TORSDOF 0
ENDMDL
