MODEL 1
REMARK minimizedAffinity 13.0719633
REMARK minimizedRMSD -1
REMARK  0 active torsions:
REMARK  status: ('A' for Active; 'I' for Inactive)
ROOT
ATOM      1  N1  IND d   1       4.857  -0.422   0.882  0.00  0.00    -0.196 N 
ATOM      2  C2  IND d   1       4.640   0.921   0.744  0.00  0.00     0.054 A 
ATOM      3  C3  IND d   1       3.676   1.149  -0.176  0.00  0.00    -0.031 A 
ATOM      4  C4  IND d   1       2.250  -0.535  -1.502  0.00  0.00     0.051 A 
ATOM      5  C5  IND d   1       2.108  -1.873  -1.742  0.00  0.00    -0.031 A 
ATOM      6  C6  IND d   1       2.889  -2.815  -1.104  0.00  0.00     0.015 A 
ATOM      7  C7  IND d   1       3.838  -2.453  -0.190  0.00  0.00    -0.016 A 
ATOM      8  C8  IND d   1       3.990  -1.095   0.050  0.00  0.00    -0.047 A 
ATOM      9  C9  IND d   1       3.229  -0.132  -0.625  0.00  0.00    -0.096 A 
ATOM     10  HN1 IND d   1       5.439  -0.785   1.402  0.00  0.00     0.298 HD
ENDROOT
TORSDOF 0
ENDMDL
