MODEL 1
REMARK minimizedAffinity 8.7218132
REMARK minimizedRMSD -1
REMARK  0 active torsions:
REMARK  status: ('A' for Active; 'I' for Inactive)
ROOT
ATOM      1  N1  IND d   1      -5.181  -3.451  -5.947  0.00  0.00    -0.196 N 
ATOM      2  C2  IND d   1      -5.094  -2.239  -5.320  0.00  0.00     0.054 A 
ATOM      3  C3  IND d   1      -3.993  -2.192  -4.538  0.00  0.00    -0.031 A 
ATOM      4  C4  IND d   1      -2.139  -3.949  -4.215  0.00  0.00     0.051 A 
ATOM      5  C5  IND d   1      -1.799  -5.229  -4.551  0.00  0.00    -0.031 A 
ATOM      6  C6  IND d   1      -2.582  -5.997  -5.388  0.00  0.00     0.015 A 
ATOM      7  C7  IND d   1      -3.735  -5.506  -5.933  0.00  0.00    -0.016 A 
ATOM      8  C8  IND d   1      -4.088  -4.209  -5.588  0.00  0.00    -0.047 A 
ATOM      9  C9  IND d   1      -3.319  -3.440  -4.705  0.00  0.00    -0.096 A 
ATOM     10  HN1 IND d   1      -5.812  -3.698  -6.477  0.00  0.00     0.298 HD
ENDROOT
TORSDOF 0
ENDMDL
