MODEL 1
REMARK minimizedAffinity 18.271513
REMARK minimizedRMSD -1
REMARK  0 active torsions:
REMARK  status: ('A' for Active; 'I' for Inactive)
ROOT
ATOM      1  N1  IND d   1       1.483  -4.926  -1.964  0.00  0.00    -0.196 N 
ATOM      2  C2  IND d   1       0.790  -4.535  -3.076  0.00  0.00     0.054 A 
ATOM      3  C3  IND d   1       0.779  -3.187  -3.173  0.00  0.00    -0.031 A 
ATOM      4  C4  IND d   1       1.919  -1.429  -1.678  0.00  0.00     0.051 A 
ATOM      5  C5  IND d   1       2.635  -1.301  -0.520  0.00  0.00    -0.031 A 
ATOM      6  C6  IND d   1       3.013  -2.396   0.228  0.00  0.00     0.015 A 
ATOM      7  C7  IND d   1       2.699  -3.668  -0.160  0.00  0.00    -0.016 A 
ATOM      8  C8  IND d   1       1.966  -3.802  -1.331  0.00  0.00    -0.047 A 
ATOM      9  C9  IND d   1       1.542  -2.691  -2.072  0.00  0.00    -0.096 A 
ATOM     10  HN1 IND d   1       1.599  -5.737  -1.704  0.00  0.00     0.298 HD
ENDROOT
TORSDOF 0
ENDMDL
