MODEL 1
REMARK minimizedAffinity 0.785613954
REMARK minimizedRMSD -1
REMARK  0 active torsions:
REMARK  status: ('A' for Active; 'I' for Inactive)
ROOT
ATOM      1  N1  IND d   1       1.880  -2.402  -2.301  0.00  0.00    -0.196 N 
ATOM      2  C2  IND d   1       1.165  -2.790  -3.400  0.00  0.00     0.054 A 
ATOM      3  C3  IND d   1       1.280  -4.124  -3.589  0.00  0.00    -0.031 A 
ATOM      4  C4  IND d   1       2.504  -5.879  -2.157  0.00  0.00     0.051 A 
ATOM      5  C5  IND d   1       3.329  -6.000  -1.074  0.00  0.00    -0.031 A 
ATOM      6  C6  IND d   1       3.719  -4.906  -0.329  0.00  0.00     0.015 A 
ATOM      7  C7  IND d   1       3.287  -3.646  -0.633  0.00  0.00    -0.016 A 
ATOM      8  C8  IND d   1       2.455  -3.518  -1.736  0.00  0.00    -0.047 A 
ATOM      9  C9  IND d   1       2.090  -4.619  -2.521  0.00  0.00    -0.096 A 
ATOM     10  HN1 IND d   1       1.957  -1.596  -2.012  0.00  0.00     0.298 HD
ENDROOT
TORSDOF 0
ENDMDL
