MODEL 1
REMARK minimizedAffinity 18.4628792
REMARK minimizedRMSD -1
REMARK  0 active torsions:
REMARK  status: ('A' for Active; 'I' for Inactive)
ROOT
ATOM      1  N1  IND d   1       1.267  -0.863  -0.868  0.00  0.00    -0.196 N 
ATOM      2  C2  IND d   1       2.319   0.010  -0.871  0.00  0.00     0.054 A 
ATOM      3  C3  IND d   1       3.454  -0.620  -0.494  0.00  0.00    -0.031 A 
ATOM      4  C4  IND d   1       3.837  -3.101   0.074  0.00  0.00     0.051 A 
ATOM      5  C5  IND d   1       3.170  -4.281   0.251  0.00  0.00    -0.031 A 
ATOM      6  C6  IND d   1       1.807  -4.384   0.057  0.00  0.00     0.015 A 
ATOM      7  C7  IND d   1       1.060  -3.310  -0.333  0.00  0.00    -0.016 A 
ATOM      8  C8  IND d   1       1.732  -2.109  -0.507  0.00  0.00    -0.047 A 
ATOM      9  C9  IND d   1       3.108  -1.988  -0.270  0.00  0.00    -0.096 A 
ATOM     10  HN1 IND d   1       0.452  -0.667  -1.059  0.00  0.00     0.298 HD
ENDROOT
TORSDOF 0
ENDMDL
