MODEL 1
REMARK minimizedAffinity 6.24723291
REMARK minimizedRMSD -1
REMARK  0 active torsions:
REMARK  status: ('A' for Active; 'I' for Inactive)
ROOT
ATOM      1  N1  IND d   1      -5.296   3.765  -5.454  0.00  0.00    -0.196 N 
ATOM      2  C2  IND d   1      -5.870   4.879  -6.000  0.00  0.00     0.054 A 
ATOM      3  C3  IND d   1      -5.008   5.920  -5.960  0.00  0.00    -0.031 A 
ATOM      4  C4  IND d   1      -2.569   5.993  -5.137  0.00  0.00     0.051 A 
ATOM      5  C5  IND d   1      -1.618   5.231  -4.520  0.00  0.00    -0.031 A 
ATOM      6  C6  IND d   1      -1.847   3.914  -4.178  0.00  0.00     0.015 A 
ATOM      7  C7  IND d   1      -3.038   3.304  -4.452  0.00  0.00    -0.016 A 
ATOM      8  C8  IND d   1      -4.010   4.077  -5.073  0.00  0.00    -0.047 A 
ATOM      9  C9  IND d   1      -3.797   5.426  -5.384  0.00  0.00    -0.096 A 
ATOM     10  HN1 IND d   1      -5.675   2.999  -5.364  0.00  0.00     0.298 HD
ENDROOT
TORSDOF 0
ENDMDL
