MODEL 1
REMARK minimizedAffinity 17.6780434
REMARK minimizedRMSD -1
REMARK  0 active torsions:
REMARK  status: ('A' for Active; 'I' for Inactive)
ROOT
ATOM      1  N1  IND d   1      -6.000   1.332   3.319  0.00  0.00    -0.196 N 
ATOM      2  C2  IND d   1      -6.000   2.627   3.757  0.00  0.00     0.054 A 
ATOM      3  C3  IND d   1      -4.735   3.099   3.829  0.00  0.00    -0.031 A 
ATOM      4  C4  IND d   1      -2.523   1.954   3.178  0.00  0.00     0.051 A 
ATOM      5  C5  IND d   1      -2.011   0.758   2.761  0.00  0.00    -0.031 A 
ATOM      6  C6  IND d   1      -2.820  -0.330   2.500  0.00  0.00     0.015 A 
ATOM      7  C7  IND d   1      -4.177  -0.257   2.637  0.00  0.00    -0.016 A 
ATOM      8  C8  IND d   1      -4.699   0.954   3.067  0.00  0.00    -0.047 A 
ATOM      9  C9  IND d   1      -3.880   2.048   3.374  0.00  0.00    -0.096 A 
ATOM     10  HN1 IND d   1      -6.696   0.837   3.217  0.00  0.00     0.298 HD
ENDROOT
TORSDOF 0
ENDMDL
