MODEL 1
REMARK minimizedAffinity 9.66207027
REMARK minimizedRMSD -1
REMARK  0 active torsions:
REMARK  status: ('A' for Active; 'I' for Inactive)
ROOT
ATOM      1  N1  IND d   1       4.863  -2.513   0.094  0.00  0.00    -0.196 N 
ATOM      2  C2  IND d   1       5.975  -1.727   0.215  0.00  0.00     0.054 A 
ATOM      3  C3  IND d   1       5.703  -0.463  -0.179  0.00  0.00    -0.031 A 
ATOM      4  C4  IND d   1       3.475   0.564  -0.959  0.00  0.00     0.051 A 
ATOM      5  C5  IND d   1       2.185   0.232  -1.267  0.00  0.00    -0.031 A 
ATOM      6  C6  IND d   1       1.712  -1.057  -1.131  0.00  0.00     0.015 A 
ATOM      7  C7  IND d   1       2.511  -2.065  -0.670  0.00  0.00    -0.016 A 
ATOM      8  C8  IND d   1       3.823  -1.733  -0.363  0.00  0.00    -0.047 A 
ATOM      9  C9  IND d   1       4.321  -0.435  -0.539  0.00  0.00    -0.096 A 
ATOM     10  HN1 IND d   1       4.820  -3.352   0.274  0.00  0.00     0.298 HD
ENDROOT
TORSDOF 0
ENDMDL
