MODEL 1
REMARK minimizedAffinity 15.6840363
REMARK minimizedRMSD -1
REMARK  0 active torsions:
REMARK  status: ('A' for Active; 'I' for Inactive)
ROOT
ATOM      1  N1  IND d   1       4.530   0.262   1.167  0.00  0.00    -0.196 N 
ATOM      2  C2  IND d   1       4.147   1.447   0.602  0.00  0.00     0.054 A 
ATOM      3  C3  IND d   1       3.278   1.225  -0.410  0.00  0.00    -0.031 A 
ATOM      4  C4  IND d   1       2.268  -0.991  -1.243  0.00  0.00     0.051 A 
ATOM      5  C5  IND d   1       2.342  -2.344  -1.063  0.00  0.00    -0.031 A 
ATOM      6  C6  IND d   1       3.163  -2.908  -0.109  0.00  0.00     0.015 A 
ATOM      7  C7  IND d   1       3.937  -2.137   0.712  0.00  0.00    -0.016 A 
ATOM      8  C8  IND d   1       3.869  -0.763   0.527  0.00  0.00    -0.047 A 
ATOM      9  C9  IND d   1       3.069  -0.187  -0.468  0.00  0.00    -0.096 A 
ATOM     10  HN1 IND d   1       5.089   0.173   1.814  0.00  0.00     0.298 HD
ENDROOT
TORSDOF 0
ENDMDL
