MODEL 1
REMARK minimizedAffinity 25.0316906
REMARK minimizedRMSD -1
REMARK  0 active torsions:
REMARK  status: ('A' for Active; 'I' for Inactive)
ROOT
ATOM      1  N1  IND d   1       5.982  -1.706   0.658  0.00  0.00    -0.196 N 
ATOM      2  C2  IND d   1       5.632  -3.008   0.434  0.00  0.00     0.054 A 
ATOM      3  C3  IND d   1       4.327  -3.091   0.091  0.00  0.00    -0.031 A 
ATOM      4  C4  IND d   1       2.606  -1.210  -0.265  0.00  0.00     0.051 A 
ATOM      5  C5  IND d   1       2.448   0.142  -0.144  0.00  0.00    -0.031 A 
ATOM      6  C6  IND d   1       3.482   0.964   0.256  0.00  0.00     0.015 A 
ATOM      7  C7  IND d   1       4.721   0.464   0.540  0.00  0.00    -0.016 A 
ATOM      8  C8  IND d   1       4.883  -0.909   0.425  0.00  0.00    -0.047 A 
ATOM      9  C9  IND d   1       3.826  -1.754   0.061  0.00  0.00    -0.096 A 
ATOM     10  HN1 IND d   1       6.759  -1.431   0.903  0.00  0.00     0.298 HD
ENDROOT
TORSDOF 0
ENDMDL
