MODEL 1
REMARK minimizedAffinity 8.36720848
REMARK minimizedRMSD -1
REMARK  0 active torsions:
REMARK  status: ('A' for Active; 'I' for Inactive)
ROOT
ATOM      1  N1  IND d   1       4.309  -0.336   1.466  0.00  0.00    -0.196 N 
ATOM      2  C2  IND d   1       3.031   0.121   1.296  0.00  0.00     0.054 A 
ATOM      3  C3  IND d   1       2.245  -0.858   0.794  0.00  0.00    -0.031 A 
ATOM      4  C4  IND d   1       2.820  -3.312   0.272  0.00  0.00     0.051 A 
ATOM      5  C5  IND d   1       3.869  -4.187   0.231  0.00  0.00    -0.031 A 
ATOM      6  C6  IND d   1       5.144  -3.817   0.610  0.00  0.00     0.015 A 
ATOM      7  C7  IND d   1       5.415  -2.554   1.056  0.00  0.00    -0.016 A 
ATOM      8  C8  IND d   1       4.354  -1.661   1.093  0.00  0.00    -0.047 A 
ATOM      9  C9  IND d   1       3.067  -2.019   0.670  0.00  0.00    -0.096 A 
ATOM     10  HN1 IND d   1       4.972   0.127   1.758  0.00  0.00     0.298 HD
ENDROOT
TORSDOF 0
ENDMDL
