MODEL 1
REMARK minimizedAffinity 18.7080059
REMARK minimizedRMSD -1
REMARK  0 active torsions:
REMARK  status: ('A' for Active; 'I' for Inactive)
ROOT
ATOM      1  N1  IND d   1       3.033  -2.780   0.007  0.00  0.00    -0.196 N 
ATOM      2  C2  IND d   1       2.686  -1.610  -0.610  0.00  0.00     0.054 A 
ATOM      3  C3  IND d   1       1.973  -1.863  -1.731  0.00  0.00    -0.031 A 
ATOM      4  C4  IND d   1       1.173  -4.116  -2.687  0.00  0.00     0.051 A 
ATOM      5  C5  IND d   1       1.274  -5.465  -2.493  0.00  0.00    -0.031 A 
ATOM      6  C6  IND d   1       1.978  -5.999  -1.433  0.00  0.00     0.015 A 
ATOM      7  C7  IND d   1       2.601  -5.199  -0.517  0.00  0.00    -0.016 A 
ATOM      8  C8  IND d   1       2.507  -3.829  -0.714  0.00  0.00    -0.047 A 
ATOM      9  C9  IND d   1       1.829  -3.282  -1.812  0.00  0.00    -0.096 A 
ATOM     10  HN1 IND d   1       3.501  -2.848   0.725  0.00  0.00     0.298 HD
ENDROOT
TORSDOF 0
ENDMDL
