MODEL 1
REMARK minimizedAffinity 14.4316902
REMARK minimizedRMSD -1
REMARK  0 active torsions:
REMARK  status: ('A' for Active; 'I' for Inactive)
ROOT
ATOM      1  N1  IND d   1      -0.496  -4.641  -1.573  0.00  0.00    -0.196 N 
ATOM      2  C2  IND d   1      -1.090  -4.578  -2.802  0.00  0.00     0.054 A 
ATOM      3  C3  IND d   1      -0.624  -3.515  -3.496  0.00  0.00    -0.031 A 
ATOM      4  C4  IND d   1       1.189  -1.807  -2.848  0.00  0.00     0.051 A 
ATOM      5  C5  IND d   1       1.994  -1.432  -1.808  0.00  0.00    -0.031 A 
ATOM      6  C6  IND d   1       2.013  -2.124  -0.614  0.00  0.00     0.015 A 
ATOM      7  C7  IND d   1       1.231  -3.227  -0.418  0.00  0.00    -0.016 A 
ATOM      8  C8  IND d   1       0.407  -3.606  -1.469  0.00  0.00    -0.047 A 
ATOM      9  C9  IND d   1       0.353  -2.883  -2.667  0.00  0.00    -0.096 A 
ATOM     10  HN1 IND d   1      -0.660  -5.228  -0.966  0.00  0.00     0.298 HD
ENDROOT
TORSDOF 0
ENDMDL
