MODEL 1
REMARK minimizedAffinity 21.9485455
REMARK minimizedRMSD -1
REMARK  0 active torsions:
REMARK  status: ('A' for Active; 'I' for Inactive)
ROOT
ATOM      1  N1  IND d   1      -4.889   2.898  -5.981  0.00  0.00    -0.196 N 
ATOM      2  C2  IND d   1      -5.558   4.091  -5.996  0.00  0.00     0.054 A 
ATOM      3  C3  IND d   1      -4.682   5.121  -5.968  0.00  0.00    -0.031 A 
ATOM      4  C4  IND d   1      -2.108   5.081  -5.997  0.00  0.00     0.051 A 
ATOM      5  C5  IND d   1      -1.044   4.225  -5.947  0.00  0.00    -0.031 A 
ATOM      6  C6  IND d   1      -1.210   2.856  -5.908  0.00  0.00     0.015 A 
ATOM      7  C7  IND d   1      -2.452   2.288  -5.929  0.00  0.00    -0.016 A 
ATOM      8  C8  IND d   1      -3.536   3.154  -5.972  0.00  0.00    -0.047 A 
ATOM      9  C9  IND d   1      -3.375   4.546  -5.969  0.00  0.00    -0.096 A 
ATOM     10  HN1 IND d   1      -5.253   2.119  -5.977  0.00  0.00     0.298 HD
ENDROOT
TORSDOF 0
ENDMDL
