MODEL 1
REMARK minimizedAffinity 8.43557835
REMARK minimizedRMSD -1
REMARK  0 active torsions:
REMARK  status: ('A' for Active; 'I' for Inactive)
ROOT
ATOM      1  N1  IND d   1       1.844  -1.571  -0.177  0.00  0.00    -0.196 N 
ATOM      2  C2  IND d   1       1.217  -2.532  -0.921  0.00  0.00     0.054 A 
ATOM      3  C3  IND d   1       0.988  -2.080  -2.175  0.00  0.00    -0.031 A 
ATOM      4  C4  IND d   1       1.648   0.163  -3.251  0.00  0.00     0.051 A 
ATOM      5  C5  IND d   1       2.204   1.377  -2.957  0.00  0.00    -0.031 A 
ATOM      6  C6  IND d   1       2.680   1.675  -1.697  0.00  0.00     0.015 A 
ATOM      7  C7  IND d   1       2.629   0.762  -0.682  0.00  0.00    -0.016 A 
ATOM      8  C8  IND d   1       2.058  -0.469  -0.975  0.00  0.00    -0.047 A 
ATOM      9  C9  IND d   1       1.535  -0.762  -2.240  0.00  0.00    -0.096 A 
ATOM     10  HN1 IND d   1       2.067  -1.644   0.651  0.00  0.00     0.298 HD
ENDROOT
TORSDOF 0
ENDMDL
