MODEL 1
REMARK minimizedAffinity 15.7789268
REMARK minimizedRMSD -1
REMARK  0 active torsions:
REMARK  status: ('A' for Active; 'I' for Inactive)
ROOT
ATOM      1  N1  IND d   1      -5.492   2.680   3.599  0.00  0.00    -0.196 N 
ATOM      2  C2  IND d   1      -5.784   3.408   4.718  0.00  0.00     0.054 A 
ATOM      3  C3  IND d   1      -5.228   2.837   5.810  0.00  0.00    -0.031 A 
ATOM      4  C4  IND d   1      -3.715   0.761   5.977  0.00  0.00     0.051 A 
ATOM      5  C5  IND d   1      -3.197  -0.258   5.228  0.00  0.00    -0.031 A 
ATOM      6  C6  IND d   1      -3.420  -0.350   3.869  0.00  0.00     0.015 A 
ATOM      7  C7  IND d   1      -4.163   0.584   3.205  0.00  0.00    -0.016 A 
ATOM      8  C8  IND d   1      -4.696   1.616   3.964  0.00  0.00    -0.047 A 
ATOM      9  C9  IND d   1      -4.509   1.691   5.350  0.00  0.00    -0.096 A 
ATOM     10  HN1 IND d   1      -5.760   2.857   2.801  0.00  0.00     0.298 HD
ENDROOT
TORSDOF 0
ENDMDL
