MODEL 1
REMARK minimizedAffinity 29.359581
REMARK minimizedRMSD -1
REMARK  0 active torsions:
REMARK  status: ('A' for Active; 'I' for Inactive)
ROOT
ATOM      1  N1  IND d   1      -3.436   2.005   2.730  0.00  0.00    -0.196 N 
ATOM      2  C2  IND d   1      -3.909   1.140   3.677  0.00  0.00     0.054 A 
ATOM      3  C3  IND d   1      -2.891   0.438   4.223  0.00  0.00    -0.031 A 
ATOM      4  C4  IND d   1      -0.360   0.619   3.788  0.00  0.00     0.051 A 
ATOM      5  C5  IND d   1       0.553   1.242   2.984  0.00  0.00    -0.031 A 
ATOM      6  C6  IND d   1       0.175   2.172   2.036  0.00  0.00     0.015 A 
ATOM      7  C7  IND d   1      -1.134   2.524   1.865  0.00  0.00    -0.016 A 
ATOM      8  C8  IND d   1      -2.064   1.888   2.675  0.00  0.00    -0.047 A 
ATOM      9  C9  IND d   1      -1.691   0.912   3.609  0.00  0.00    -0.096 A 
ATOM     10  HN1 IND d   1      -3.914   2.533   2.249  0.00  0.00     0.298 HD
ENDROOT
TORSDOF 0
ENDMDL
