MODEL 1
REMARK minimizedAffinity 3.79873991
REMARK minimizedRMSD -1
REMARK  0 active torsions:
REMARK  status: ('A' for Active; 'I' for Inactive)
ROOT
ATOM      1  C   UNL d   1       0.524  -1.012   1.503  0.00  0.00     0.077 C 
ATOM      2  C1  UNL d   1       1.464   0.096   1.132  0.00  0.00    -0.074 A 
ATOM      3  C2  UNL d   1       2.830   0.006   1.419  0.00  0.00    -0.005 A 
ATOM      4  C3  UNL d   1       3.694   1.041   1.059  0.00  0.00     0.006 A 
ATOM      5  C4  UNL d   1       3.201   2.173   0.409  0.00  0.00    -0.005 A 
ATOM      6  C5  UNL d   1       1.839   2.281   0.113  0.00  0.00    -0.074 A 
ATOM      7  C6  UNL d   1       1.295   3.487  -0.593  0.00  0.00     0.077 C 
ATOM      8  C7  UNL d   1       0.978   1.234   0.472  0.00  0.00    -0.001 A 
ENDROOT
TORSDOF 0
ENDMDL
