MODEL 1
REMARK minimizedAffinity 10.3270617
REMARK minimizedRMSD -1
REMARK  0 active torsions:
REMARK  status: ('A' for Active; 'I' for Inactive)
ROOT
ATOM      1  C   UNL d   1      -0.682  -2.086   1.149  0.00  0.00     0.077 C 
ATOM      2  C1  UNL d   1       0.399  -2.925   0.533  0.00  0.00    -0.074 A 
ATOM      3  C2  UNL d   1       0.674  -2.850  -0.836  0.00  0.00    -0.005 A 
ATOM      4  C3  UNL d   1       1.689  -3.629  -1.393  0.00  0.00     0.006 A 
ATOM      5  C4  UNL d   1       2.436  -4.489  -0.588  0.00  0.00    -0.005 A 
ATOM      6  C5  UNL d   1       2.176  -4.576   0.784  0.00  0.00    -0.074 A 
ATOM      7  C6  UNL d   1       2.976  -5.488   1.665  0.00  0.00     0.077 C 
ATOM      8  C7  UNL d   1       1.159  -3.785   1.337  0.00  0.00    -0.001 A 
ENDROOT
TORSDOF 0
ENDMDL
