MODEL 1
REMARK minimizedAffinity 6.88808823
REMARK minimizedRMSD -1
REMARK  0 active torsions:
REMARK  status: ('A' for Active; 'I' for Inactive)
ROOT
ATOM      1  C   UNL d   1      -0.269  -2.405   1.193  0.00  0.00     0.077 C 
ATOM      2  C1  UNL d   1      -0.565  -2.631  -0.260  0.00  0.00    -0.074 A 
ATOM      3  C2  UNL d   1       0.454  -2.968  -1.157  0.00  0.00    -0.005 A 
ATOM      4  C3  UNL d   1       0.162  -3.185  -2.503  0.00  0.00     0.006 A 
ATOM      5  C4  UNL d   1      -1.150  -3.066  -2.966  0.00  0.00    -0.005 A 
ATOM      6  C5  UNL d   1      -2.181  -2.730  -2.083  0.00  0.00    -0.074 A 
ATOM      7  C6  UNL d   1      -3.597  -2.609  -2.562  0.00  0.00     0.077 C 
ATOM      8  C7  UNL d   1      -1.881  -2.521  -0.730  0.00  0.00    -0.001 A 
ENDROOT
TORSDOF 0
ENDMDL
