MODEL 1
REMARK minimizedAffinity 0.806930065
REMARK minimizedRMSD -1
REMARK  0 active torsions:
REMARK  status: ('A' for Active; 'I' for Inactive)
ROOT
ATOM      1  C   UNL d   1       1.901   3.601  -0.668  0.00  0.00     0.077 C 
ATOM      2  C1  UNL d   1       2.440   2.365  -0.011  0.00  0.00    -0.074 A 
ATOM      3  C2  UNL d   1       3.333   1.525  -0.683  0.00  0.00    -0.005 A 
ATOM      4  C3  UNL d   1       3.833   0.384  -0.055  0.00  0.00     0.006 A 
ATOM      5  C4  UNL d   1       3.446   0.073   1.249  0.00  0.00    -0.005 A 
ATOM      6  C5  UNL d   1       2.554   0.902   1.937  0.00  0.00    -0.074 A 
ATOM      7  C6  UNL d   1       2.136   0.588   3.342  0.00  0.00     0.077 C 
ATOM      8  C7  UNL d   1       2.062   2.050   1.302  0.00  0.00    -0.001 A 
ENDROOT
TORSDOF 0
ENDMDL
