MODEL 1
REMARK minimizedAffinity 0.30912286
REMARK minimizedRMSD -1
REMARK  0 active torsions:
REMARK  status: ('A' for Active; 'I' for Inactive)
ROOT
ATOM      1  C   UNL d   1       0.770   2.418   0.350  0.00  0.00     0.077 C 
ATOM      2  C1  UNL d   1       1.285   1.145   0.953  0.00  0.00    -0.074 A 
ATOM      3  C2  UNL d   1       2.568   1.079   1.505  0.00  0.00    -0.005 A 
ATOM      4  C3  UNL d   1       3.030  -0.109   2.071  0.00  0.00     0.006 A 
ATOM      5  C4  UNL d   1       2.215  -1.242   2.090  0.00  0.00    -0.005 A 
ATOM      6  C5  UNL d   1       0.929  -1.194   1.544  0.00  0.00    -0.074 A 
ATOM      7  C6  UNL d   1       0.036  -2.399   1.566  0.00  0.00     0.077 C 
ATOM      8  C7  UNL d   1       0.469   0.005   0.984  0.00  0.00    -0.001 A 
ENDROOT
TORSDOF 0
ENDMDL
