MODEL 1
REMARK minimizedAffinity 6.884727
REMARK minimizedRMSD -1
REMARK  0 active torsions:
REMARK  status: ('A' for Active; 'I' for Inactive)
ROOT
ATOM      1  C   UNL d   1      -2.569  -2.174  -3.025  0.00  0.00     0.077 C 
ATOM      2  C1  UNL d   1      -1.411  -2.369  -2.092  0.00  0.00    -0.074 A 
ATOM      3  C2  UNL d   1      -0.146  -2.715  -2.578  0.00  0.00    -0.005 A 
ATOM      4  C3  UNL d   1       0.923  -2.884  -1.699  0.00  0.00     0.006 A 
ATOM      5  C4  UNL d   1       0.739  -2.708  -0.327  0.00  0.00    -0.005 A 
ATOM      6  C5  UNL d   1      -0.518  -2.361   0.178  0.00  0.00    -0.074 A 
ATOM      7  C6  UNL d   1      -0.730  -2.159   1.649  0.00  0.00     0.077 C 
ATOM      8  C7  UNL d   1      -1.586  -2.187  -0.713  0.00  0.00    -0.001 A 
ENDROOT
TORSDOF 0
ENDMDL
