MODEL 1
REMARK minimizedAffinity -2.32296395
REMARK minimizedRMSD -1
REMARK  0 active torsions:
REMARK  status: ('A' for Active; 'I' for Inactive)
ROOT
ATOM      1  C   UNL d   1       1.606  -2.344   5.172  0.00  0.00     0.077 C 
ATOM      2  C1  UNL d   1       1.221  -1.844   3.812  0.00  0.00    -0.074 A 
ATOM      3  C2  UNL d   1       0.358  -2.580   2.993  0.00  0.00    -0.005 A 
ATOM      4  C3  UNL d   1       0.002  -2.097   1.734  0.00  0.00     0.006 A 
ATOM      5  C4  UNL d   1       0.503  -0.876   1.281  0.00  0.00    -0.005 A 
ATOM      6  C5  UNL d   1       1.366  -0.126   2.086  0.00  0.00    -0.074 A 
ATOM      7  C6  UNL d   1       1.907   1.192   1.619  0.00  0.00     0.077 C 
ATOM      8  C7  UNL d   1       1.715  -0.615   3.353  0.00  0.00    -0.001 A 
ENDROOT
TORSDOF 0
ENDMDL
