MODEL 1
REMARK minimizedAffinity 4.15282917
REMARK minimizedRMSD -1
REMARK  0 active torsions:
REMARK  status: ('A' for Active; 'I' for Inactive)
ROOT
ATOM      1  C   UNL d   1       2.531  -0.714  -1.491  0.00  0.00     0.077 C 
ATOM      2  C1  UNL d   1       1.929  -0.356  -0.165  0.00  0.00    -0.074 A 
ATOM      3  C2  UNL d   1       1.607   0.969   0.144  0.00  0.00    -0.005 A 
ATOM      4  C3  UNL d   1       1.038   1.286   1.378  0.00  0.00     0.006 A 
ATOM      5  C4  UNL d   1       0.787   0.282   2.314  0.00  0.00    -0.005 A 
ATOM      6  C5  UNL d   1       1.101  -1.049   2.022  0.00  0.00    -0.074 A 
ATOM      7  C6  UNL d   1       0.828  -2.141   3.013  0.00  0.00     0.077 C 
ATOM      8  C7  UNL d   1       1.666  -1.360   0.778  0.00  0.00    -0.001 A 
ENDROOT
TORSDOF 0
ENDMDL
