MODEL 1
REMARK minimizedAffinity 3.49782681
REMARK minimizedRMSD -1
REMARK  0 active torsions:
REMARK  status: ('A' for Active; 'I' for Inactive)
ROOT
ATOM      1  C   UNL d   1       2.230   0.698   1.052  0.00  0.00     0.077 C 
ATOM      2  C1  UNL d   1       1.626  -0.544   1.637  0.00  0.00    -0.074 A 
ATOM      3  C2  UNL d   1       0.791  -1.365   0.872  0.00  0.00    -0.005 A 
ATOM      4  C3  UNL d   1       0.243  -2.522   1.426  0.00  0.00     0.006 A 
ATOM      5  C4  UNL d   1       0.525  -2.869   2.748  0.00  0.00    -0.005 A 
ATOM      6  C5  UNL d   1       1.358  -2.061   3.528  0.00  0.00    -0.074 A 
ATOM      7  C6  UNL d   1       1.679  -2.424   4.947  0.00  0.00     0.077 C 
ATOM      8  C7  UNL d   1       1.910  -0.903   2.961  0.00  0.00    -0.001 A 
ENDROOT
TORSDOF 0
ENDMDL
