MODEL 1
REMARK minimizedAffinity -3.6369803
REMARK minimizedRMSD -1
REMARK  0 active torsions:
REMARK  status: ('A' for Active; 'I' for Inactive)
ROOT
ATOM      1  C   UNL d   1       0.705  -0.008   0.503  0.00  0.00     0.077 C 
ATOM      2  C1  UNL d   1       1.159  -0.002   1.932  0.00  0.00    -0.074 A 
ATOM      3  C2  UNL d   1       1.717   1.146   2.504  0.00  0.00    -0.005 A 
ATOM      4  C3  UNL d   1       2.126   1.140   3.837  0.00  0.00     0.006 A 
ATOM      5  C4  UNL d   1       1.983  -0.012   4.611  0.00  0.00    -0.005 A 
ATOM      6  C5  UNL d   1       1.427  -1.170   4.056  0.00  0.00    -0.074 A 
ATOM      7  C6  UNL d   1       1.257  -2.414   4.877  0.00  0.00     0.077 C 
ATOM      8  C7  UNL d   1       1.011  -1.153   2.718  0.00  0.00    -0.001 A 
ENDROOT
TORSDOF 0
ENDMDL
