MODEL 1
REMARK minimizedAffinity 12.0550585
REMARK minimizedRMSD -1
REMARK  1 active torsions:
REMARK  status: ('A' for Active; 'I' for Inactive)
REMARK    1  A    between atoms: C3_4  and  O_7 
ROOT
ATOM      1  C   UNL d   1       1.987   0.455  -0.451  0.00  0.00    -0.033 A 
ATOM      2  C1  UNL d   1       2.964   1.447  -0.347  0.00  0.00     0.039 A 
ATOM      3  C2  UNL d   1       4.188   1.163   0.263  0.00  0.00    -0.080 A 
ATOM      4  C3  UNL d   1       4.422  -0.115   0.763  0.00  0.00     0.150 A 
ATOM      5  C4  UNL d   1       3.454  -1.109   0.659  0.00  0.00    -0.007 A 
ATOM      6  C5  UNL d   1       2.233  -0.824   0.051  0.00  0.00     0.039 A 
ENDROOT
BRANCH   4   7
ATOM      7  O   UNL d   1       5.599  -0.438   1.371  0.00  0.00    -0.526 OA
ATOM      8  H5  UNL d   1       6.160   0.355   1.396  0.00  0.00     0.418 HD
ENDBRANCH   4   7
TORSDOF 1
ENDMDL
