MODEL 1
REMARK minimizedAffinity 5.55764103
REMARK minimizedRMSD -1
REMARK  1 active torsions:
REMARK  status: ('A' for Active; 'I' for Inactive)
REMARK    1  A    between atoms: C3_4  and  O_7 
ROOT
ATOM      1  C   UNL d   1      -5.999   4.078   2.948  0.00  0.00    -0.033 A 
ATOM      2  C1  UNL d   1      -4.811   3.817   2.262  0.00  0.00     0.039 A 
ATOM      3  C2  UNL d   1      -3.623   4.432   2.661  0.00  0.00    -0.080 A 
ATOM      4  C3  UNL d   1      -3.635   5.303   3.747  0.00  0.00     0.150 A 
ATOM      5  C4  UNL d   1      -4.814   5.565   4.437  0.00  0.00    -0.007 A 
ATOM      6  C5  UNL d   1      -6.000   4.951   4.037  0.00  0.00     0.039 A 
ENDROOT
BRANCH   4   7
ATOM      7  O   UNL d   1      -2.501   5.931   4.170  0.00  0.00    -0.526 OA
ATOM      8  H5  UNL d   1      -1.771   5.676   3.581  0.00  0.00     0.418 HD
ENDBRANCH   4   7
TORSDOF 1
ENDMDL
