MODEL 1
REMARK minimizedAffinity 2.89737391
REMARK minimizedRMSD -1
REMARK  1 active torsions:
REMARK  status: ('A' for Active; 'I' for Inactive)
REMARK    1  A    between atoms: C3_4  and  O_7 
ROOT
ATOM      1  C   UNL d   1       3.626   1.323  -1.341  0.00  0.00    -0.033 A 
ATOM      2  C1  UNL d   1       4.501   1.381  -0.254  0.00  0.00     0.039 A 
ATOM      3  C2  UNL d   1       4.492   0.368   0.707  0.00  0.00    -0.080 A 
ATOM      4  C3  UNL d   1       3.606  -0.696   0.569  0.00  0.00     0.150 A 
ATOM      5  C4  UNL d   1       2.734  -0.763  -0.514  0.00  0.00    -0.007 A 
ATOM      6  C5  UNL d   1       2.744   0.250  -1.471  0.00  0.00     0.039 A 
ENDROOT
BRANCH   4   7
ATOM      7  O   UNL d   1       3.557  -1.706   1.483  0.00  0.00    -0.526 OA
ATOM      8  H5  UNL d   1       4.195  -1.512   2.190  0.00  0.00     0.418 HD
ENDBRANCH   4   7
TORSDOF 1
ENDMDL
