MODEL 1
REMARK minimizedAffinity 8.58398056
REMARK minimizedRMSD -1
REMARK  1 active torsions:
REMARK  status: ('A' for Active; 'I' for Inactive)
REMARK    1  A    between atoms: C3_4  and  O_7 
ROOT
ATOM      1  C   UNL d   1      -5.993   4.616   4.956  0.00  0.00    -0.033 A 
ATOM      2  C1  UNL d   1      -5.529   5.468   5.960  0.00  0.00     0.039 A 
ATOM      3  C2  UNL d   1      -4.199   5.893   5.958  0.00  0.00    -0.080 A 
ATOM      4  C3  UNL d   1      -3.344   5.459   4.948  0.00  0.00     0.150 A 
ATOM      5  C4  UNL d   1      -3.801   4.613   3.943  0.00  0.00    -0.007 A 
ATOM      6  C5  UNL d   1      -5.129   4.189   3.947  0.00  0.00     0.039 A 
ENDROOT
BRANCH   4   7
ATOM      7  O   UNL d   1      -2.037   5.843   4.907  0.00  0.00    -0.526 OA
ATOM      8  H5  UNL d   1      -1.856   6.403   5.681  0.00  0.00     0.418 HD
ENDBRANCH   4   7
TORSDOF 1
ENDMDL
