MODEL 1
REMARK minimizedAffinity -1.96636713
REMARK minimizedRMSD -1
REMARK  1 active torsions:
REMARK  status: ('A' for Active; 'I' for Inactive)
REMARK    1  A    between atoms: C3_4  and  O_7 
ROOT
ATOM      1  C   UNL d   1       2.812  -1.365   0.746  0.00  0.00    -0.033 A 
ATOM      2  C1  UNL d   1       2.093  -1.272  -0.448  0.00  0.00     0.039 A 
ATOM      3  C2  UNL d   1       2.223  -0.142  -1.257  0.00  0.00    -0.080 A 
ATOM      4  C3  UNL d   1       3.075   0.887  -0.862  0.00  0.00     0.150 A 
ATOM      5  C4  UNL d   1       3.796   0.799   0.324  0.00  0.00    -0.007 A 
ATOM      6  C5  UNL d   1       3.664  -0.330   1.131  0.00  0.00     0.039 A 
ENDROOT
BRANCH   4   7
ATOM      7  O   UNL d   1       3.231   2.011  -1.617  0.00  0.00    -0.526 OA
ATOM      8  H5  UNL d   1       2.649   1.945  -2.392  0.00  0.00     0.418 HD
ENDBRANCH   4   7
TORSDOF 1
ENDMDL
