MODEL 1
REMARK minimizedAffinity 8.78560638
REMARK minimizedRMSD -1
REMARK  1 active torsions:
REMARK  status: ('A' for Active; 'I' for Inactive)
REMARK    1  A    between atoms: C3_4  and  O_7 
ROOT
ATOM      1  C   UNL d   1       2.222  -0.176   0.715  0.00  0.00    -0.033 A 
ATOM      2  C1  UNL d   1       2.579   1.144   0.998  0.00  0.00     0.039 A 
ATOM      3  C2  UNL d   1       3.178   1.933   0.014  0.00  0.00    -0.080 A 
ATOM      4  C3  UNL d   1       3.414   1.391  -1.247  0.00  0.00     0.150 A 
ATOM      5  C4  UNL d   1       3.058   0.078  -1.536  0.00  0.00    -0.007 A 
ATOM      6  C5  UNL d   1       2.461  -0.709  -0.552  0.00  0.00     0.039 A 
ENDROOT
BRANCH   4   7
ATOM      7  O   UNL d   1       4.001   2.121  -2.237  0.00  0.00    -0.526 OA
ATOM      8  H5  UNL d   1       4.218   3.000  -1.885  0.00  0.00     0.418 HD
ENDBRANCH   4   7
TORSDOF 1
ENDMDL
