MODEL 1
REMARK minimizedAffinity 10.4996138
REMARK minimizedRMSD -1
REMARK  1 active torsions:
REMARK  status: ('A' for Active; 'I' for Inactive)
REMARK    1  A    between atoms: C3_4  and  O_7 
ROOT
ATOM      1  C   UNL d   1      -4.004  -0.025  -2.477  0.00  0.00    -0.033 A 
ATOM      2  C1  UNL d   1      -5.151   0.639  -2.040  0.00  0.00     0.039 A 
ATOM      3  C2  UNL d   1      -5.306   0.953  -0.688  0.00  0.00    -0.080 A 
ATOM      4  C3  UNL d   1      -4.307   0.599   0.214  0.00  0.00     0.150 A 
ATOM      5  C4  UNL d   1      -3.160  -0.059  -0.215  0.00  0.00    -0.007 A 
ATOM      6  C5  UNL d   1      -3.007  -0.373  -1.565  0.00  0.00     0.039 A 
ENDROOT
BRANCH   4   7
ATOM      7  O   UNL d   1      -4.416   0.881   1.544  0.00  0.00    -0.526 OA
ATOM      8  H5  UNL d   1      -5.273   1.311   1.698  0.00  0.00     0.418 HD
ENDBRANCH   4   7
TORSDOF 1
ENDMDL
