MODEL 1
REMARK minimizedAffinity -2.34594464
REMARK minimizedRMSD -1
REMARK  1 active torsions:
REMARK  status: ('A' for Active; 'I' for Inactive)
REMARK    1  A    between atoms: C1_2  and  C2_3 
ROOT
ATOM      1  C2  UNL d   1      -1.488   0.756   0.781  0.00  0.00    -0.073 A 
ATOM      2  C3  UNL d   1      -0.210   1.280   1.003  0.00  0.00    -0.002 A 
ATOM      3  C4  UNL d   1       0.898   0.738   0.350  0.00  0.00     0.004 A 
ATOM      4  C5  UNL d   1       0.738  -0.327  -0.536  0.00  0.00    -0.004 A 
ATOM      5  C6  UNL d   1      -0.533  -0.857  -0.781  0.00  0.00    -0.075 A 
ATOM      6  C7  UNL d   1      -0.720  -2.005  -1.729  0.00  0.00     0.076 C 
ATOM      7  C8  UNL d   1      -1.640  -0.310  -0.119  0.00  0.00     0.001 A 
ENDROOT
BRANCH   1   8
ATOM      8  C1  UNL d   1      -2.688   1.342   1.479  0.00  0.00     0.053 C 
ATOM      9  C   UNL d   1      -3.904   0.433   1.382  0.00  0.00     0.018 C 
ENDBRANCH   1   8
TORSDOF 1
ENDMDL
