MODEL 1
REMARK minimizedAffinity -4.21240807
REMARK minimizedRMSD -1
REMARK  1 active torsions:
REMARK  status: ('A' for Active; 'I' for Inactive)
REMARK    1  A    between atoms: C1_2  and  C2_3 
ROOT
ATOM      1  C2  UNL d   1      -0.735   0.078   0.091  0.00  0.00    -0.073 A 
ATOM      2  C3  UNL d   1      -0.430  -1.278  -0.077  0.00  0.00    -0.002 A 
ATOM      3  C4  UNL d   1       0.873  -1.737   0.120  0.00  0.00     0.004 A 
ATOM      4  C5  UNL d   1       1.882  -0.849   0.494  0.00  0.00    -0.004 A 
ATOM      5  C6  UNL d   1       1.594   0.507   0.679  0.00  0.00    -0.075 A 
ATOM      6  C7  UNL d   1       2.668   1.476   1.079  0.00  0.00     0.076 C 
ATOM      7  C8  UNL d   1       0.284   0.961   0.476  0.00  0.00     0.001 A 
ENDROOT
BRANCH   1   8
ATOM      8  C1  UNL d   1      -2.141   0.577  -0.114  0.00  0.00     0.053 C 
ATOM      9  C   UNL d   1      -2.887   0.738   1.201  0.00  0.00     0.018 C 
ENDBRANCH   1   8
TORSDOF 1
ENDMDL
