MODEL 1
REMARK minimizedAffinity -1.68283355
REMARK minimizedRMSD -1
REMARK  1 active torsions:
REMARK  status: ('A' for Active; 'I' for Inactive)
REMARK    1  A    between atoms: C1_2  and  C2_3 
ROOT
ATOM      1  C2  UNL d   1       2.465  -0.678  -0.127  0.00  0.00    -0.073 A 
ATOM      2  C3  UNL d   1       2.161  -2.028  -0.337  0.00  0.00    -0.002 A 
ATOM      3  C4  UNL d   1       0.838  -2.433  -0.517  0.00  0.00     0.004 A 
ATOM      4  C5  UNL d   1      -0.193  -1.494  -0.497  0.00  0.00    -0.004 A 
ATOM      5  C6  UNL d   1       0.091  -0.139  -0.300  0.00  0.00    -0.075 A 
ATOM      6  C7  UNL d   1      -1.007   0.883  -0.273  0.00  0.00     0.076 C 
ATOM      7  C8  UNL d   1       1.422   0.260  -0.117  0.00  0.00     0.001 A 
ENDROOT
BRANCH   1   8
ATOM      8  C1  UNL d   1       3.892  -0.234   0.062  0.00  0.00     0.053 C 
ATOM      9  C   UNL d   1       4.035   1.277  -0.017  0.00  0.00     0.018 C 
ENDBRANCH   1   8
TORSDOF 1
ENDMDL
