MODEL 1
REMARK minimizedAffinity -1.60032451
REMARK minimizedRMSD -1
REMARK  1 active torsions:
REMARK  status: ('A' for Active; 'I' for Inactive)
REMARK    1  A    between atoms: C1_2  and  C2_3 
ROOT
ATOM      1  C2  UNL d   1       1.180  -0.999   0.428  0.00  0.00    -0.073 A 
ATOM      2  C3  UNL d   1       0.769  -1.159   1.756  0.00  0.00    -0.002 A 
ATOM      3  C4  UNL d   1      -0.415  -0.572   2.203  0.00  0.00     0.004 A 
ATOM      4  C5  UNL d   1      -1.203   0.175   1.327  0.00  0.00    -0.004 A 
ATOM      5  C6  UNL d   1      -0.815   0.337  -0.007  0.00  0.00    -0.075 A 
ATOM      6  C7  UNL d   1      -1.650   1.139  -0.961  0.00  0.00     0.076 C 
ATOM      7  C8  UNL d   1       0.377  -0.254  -0.448  0.00  0.00     0.001 A 
ENDROOT
BRANCH   1   8
ATOM      8  C1  UNL d   1       2.454  -1.636  -0.061  0.00  0.00     0.053 C 
ATOM      9  C   UNL d   1       3.435  -1.892   1.072  0.00  0.00     0.018 C 
ENDBRANCH   1   8
TORSDOF 1
ENDMDL
