MODEL 1
REMARK minimizedAffinity -6.66748285
REMARK minimizedRMSD -1
REMARK  1 active torsions:
REMARK  status: ('A' for Active; 'I' for Inactive)
REMARK    1  A    between atoms: C1_2  and  C2_3 
ROOT
ATOM      1  C2  UNL d   1       0.997  -1.071  -0.013  0.00  0.00    -0.073 A 
ATOM      2  C3  UNL d   1       2.048  -1.988   0.100  0.00  0.00    -0.002 A 
ATOM      3  C4  UNL d   1       3.357  -1.541   0.288  0.00  0.00     0.004 A 
ATOM      4  C5  UNL d   1       3.627  -0.176   0.370  0.00  0.00    -0.004 A 
ATOM      5  C6  UNL d   1       2.589   0.756   0.271  0.00  0.00    -0.075 A 
ATOM      6  C7  UNL d   1       2.863   2.229   0.356  0.00  0.00     0.076 C 
ATOM      7  C8  UNL d   1       1.278   0.300   0.080  0.00  0.00     0.001 A 
ENDROOT
BRANCH   1   8
ATOM      8  C1  UNL d   1      -0.418  -1.549  -0.209  0.00  0.00     0.053 C 
ATOM      9  C   UNL d   1      -1.061  -0.938  -1.445  0.00  0.00     0.018 C 
ENDBRANCH   1   8
TORSDOF 1
ENDMDL
