MODEL 1
REMARK minimizedAffinity -4.62382412
REMARK minimizedRMSD -1
REMARK  1 active torsions:
REMARK  status: ('A' for Active; 'I' for Inactive)
REMARK    1  A    between atoms: C1_2  and  C2_3 
ROOT
ATOM      1  C2  UNL d   1       2.625  -0.090  -0.088  0.00  0.00    -0.073 A 
ATOM      2  C3  UNL d   1       2.681  -1.488  -0.063  0.00  0.00    -0.002 A 
ATOM      3  C4  UNL d   1       1.506  -2.240  -0.043  0.00  0.00     0.004 A 
ATOM      4  C5  UNL d   1       0.265  -1.604  -0.055  0.00  0.00    -0.004 A 
ATOM      5  C6  UNL d   1       0.188  -0.208  -0.092  0.00  0.00    -0.075 A 
ATOM      6  C7  UNL d   1      -1.139   0.492  -0.102  0.00  0.00     0.076 C 
ATOM      7  C8  UNL d   1       1.373   0.541  -0.109  0.00  0.00     0.001 A 
ENDROOT
BRANCH   1   8
ATOM      8  C1  UNL d   1       3.892   0.727  -0.117  0.00  0.00     0.053 C 
ATOM      9  C   UNL d   1       3.669   2.141   0.395  0.00  0.00     0.018 C 
ENDBRANCH   1   8
TORSDOF 1
ENDMDL
