MODEL 1
REMARK minimizedAffinity -5.57153034
REMARK minimizedRMSD -1
REMARK  1 active torsions:
REMARK  status: ('A' for Active; 'I' for Inactive)
REMARK    1  A    between atoms: C1_2  and  C2_3 
ROOT
ATOM      1  C2  UNL d   1       0.761  -0.683  -0.389  0.00  0.00    -0.073 A 
ATOM      2  C3  UNL d   1      -0.536  -1.030  -0.781  0.00  0.00    -0.002 A 
ATOM      3  C4  UNL d   1      -1.423  -0.049  -1.228  0.00  0.00     0.004 A 
ATOM      4  C5  UNL d   1      -1.020   1.285  -1.294  0.00  0.00    -0.004 A 
ATOM      5  C6  UNL d   1       0.277   1.649  -0.917  0.00  0.00    -0.075 A 
ATOM      6  C7  UNL d   1       0.726   3.079  -0.980  0.00  0.00     0.076 C 
ATOM      7  C8  UNL d   1       1.161   0.659  -0.467  0.00  0.00     0.001 A 
ENDROOT
BRANCH   1   8
ATOM      8  C1  UNL d   1       1.724  -1.740   0.089  0.00  0.00     0.053 C 
ATOM      9  C   UNL d   1       2.424  -1.333   1.376  0.00  0.00     0.018 C 
ENDBRANCH   1   8
TORSDOF 1
ENDMDL
