MODEL 1
REMARK minimizedAffinity 0.189702973
REMARK minimizedRMSD -1
REMARK  1 active torsions:
REMARK  status: ('A' for Active; 'I' for Inactive)
REMARK    1  A    between atoms: C1_2  and  C2_3 
ROOT
ATOM      1  C2  UNL d   1      -1.222   0.971  -0.140  0.00  0.00    -0.073 A 
ATOM      2  C3  UNL d   1      -0.978  -0.393  -0.339  0.00  0.00    -0.002 A 
ATOM      3  C4  UNL d   1       0.328  -0.884  -0.327  0.00  0.00     0.004 A 
ATOM      4  C5  UNL d   1       1.401  -0.020  -0.109  0.00  0.00    -0.004 A 
ATOM      5  C6  UNL d   1       1.176   1.344   0.104  0.00  0.00    -0.075 A 
ATOM      6  C7  UNL d   1       2.320   2.287   0.337  0.00  0.00     0.076 C 
ATOM      7  C8  UNL d   1      -0.138   1.830   0.087  0.00  0.00     0.001 A 
ENDROOT
BRANCH   1   8
ATOM      8  C1  UNL d   1      -2.631   1.505  -0.146  0.00  0.00     0.053 C 
ATOM      9  C   UNL d   1      -3.352   1.226   1.164  0.00  0.00     0.018 C 
ENDBRANCH   1   8
TORSDOF 1
ENDMDL
