MODEL 1
REMARK minimizedAffinity 4.0767684
REMARK minimizedRMSD -1
REMARK  0 active torsions:
REMARK  status: ('A' for Active; 'I' for Inactive)
ROOT
ATOM      1  N1  IND d   1       0.643  -0.444   2.637  0.00  0.00    -0.196 N 
ATOM      2  C2  IND d   1       1.048  -0.890   1.410  0.00  0.00     0.054 A 
ATOM      3  C3  IND d   1       1.726  -2.053   1.532  0.00  0.00    -0.031 A 
ATOM      4  C4  IND d   1       2.202  -3.455   3.638  0.00  0.00     0.051 A 
ATOM      5  C5  IND d   1       2.064  -3.438   4.997  0.00  0.00    -0.031 A 
ATOM      6  C6  IND d   1       1.430  -2.403   5.653  0.00  0.00     0.015 A 
ATOM      7  C7  IND d   1       0.898  -1.346   4.969  0.00  0.00    -0.016 A 
ATOM      8  C8  IND d   1       1.043  -1.357   3.589  0.00  0.00    -0.047 A 
ATOM      9  C9  IND d   1       1.723  -2.384   2.922  0.00  0.00    -0.096 A 
ATOM     10  HN1 IND d   1       0.212   0.284   2.789  0.00  0.00     0.298 HD
ENDROOT
TORSDOF 0
ENDMDL
