MODEL 1
REMARK minimizedAffinity 5.6688776
REMARK minimizedRMSD -1
REMARK  0 active torsions:
REMARK  status: ('A' for Active; 'I' for Inactive)
ROOT
ATOM      1  N1  IND d   1      -2.643   0.477  -0.018  0.00  0.00    -0.196 N 
ATOM      2  C2  IND d   1      -1.454   0.731   0.607  0.00  0.00     0.054 A 
ATOM      3  C3  IND d   1      -0.808  -0.426   0.875  0.00  0.00    -0.031 A 
ATOM      4  C4  IND d   1      -1.468  -2.843   0.285  0.00  0.00     0.051 A 
ATOM      5  C5  IND d   1      -2.485  -3.581  -0.253  0.00  0.00    -0.031 A 
ATOM      6  C6  IND d   1      -3.628  -2.992  -0.754  0.00  0.00     0.015 A 
ATOM      7  C7  IND d   1      -3.793  -1.636  -0.744  0.00  0.00    -0.016 A 
ATOM      8  C8  IND d   1      -2.766  -0.884  -0.192  0.00  0.00    -0.047 A 
ATOM      9  C9  IND d   1      -1.622  -1.479   0.356  0.00  0.00    -0.096 A 
ATOM     10  HN1 IND d   1      -3.218   1.069  -0.262  0.00  0.00     0.298 HD
ENDROOT
TORSDOF 0
ENDMDL
