MODEL 1
REMARK minimizedAffinity 8.58607197
REMARK minimizedRMSD -1
REMARK  0 active torsions:
REMARK  status: ('A' for Active; 'I' for Inactive)
ROOT
ATOM      1  N1  IND d   1      -3.451  -1.673   0.083  0.00  0.00    -0.196 N 
ATOM      2  C2  IND d   1      -2.878  -0.606  -0.550  0.00  0.00     0.054 A 
ATOM      3  C3  IND d   1      -1.807  -1.007  -1.272  0.00  0.00    -0.031 A 
ATOM      4  C4  IND d   1      -0.879  -3.379  -1.640  0.00  0.00     0.051 A 
ATOM      5  C5  IND d   1      -1.045  -4.675  -1.239  0.00  0.00    -0.031 A 
ATOM      6  C6  IND d   1      -2.044  -5.045  -0.362  0.00  0.00     0.015 A 
ATOM      7  C7  IND d   1      -2.925  -4.129   0.141  0.00  0.00    -0.016 A 
ATOM      8  C8  IND d   1      -2.754  -2.811  -0.258  0.00  0.00    -0.047 A 
ATOM      9  C9  IND d   1      -1.716  -2.424  -1.115  0.00  0.00    -0.096 A 
ATOM     10  HN1 IND d   1      -4.133  -1.639   0.606  0.00  0.00     0.298 HD
ENDROOT
TORSDOF 0
ENDMDL
