MODEL 1
REMARK minimizedAffinity 11.6372957
REMARK minimizedRMSD -1
REMARK  0 active torsions:
REMARK  status: ('A' for Active; 'I' for Inactive)
ROOT
ATOM      1  N1  IND d   1      -2.202   0.082   0.427  0.00  0.00    -0.196 N 
ATOM      2  C2  IND d   1      -0.906   0.239   0.833  0.00  0.00     0.054 A 
ATOM      3  C3  IND d   1      -0.251  -0.942   0.784  0.00  0.00    -0.031 A 
ATOM      4  C4  IND d   1      -1.081  -3.240  -0.029  0.00  0.00     0.051 A 
ATOM      5  C5  IND d   1      -2.203  -3.888  -0.461  0.00  0.00    -0.031 A 
ATOM      6  C6  IND d   1      -3.407  -3.233  -0.625  0.00  0.00     0.015 A 
ATOM      7  C7  IND d   1      -3.530  -1.896  -0.373  0.00  0.00    -0.016 A 
ATOM      8  C8  IND d   1      -2.393  -1.235   0.073  0.00  0.00    -0.047 A 
ATOM      9  C9  IND d   1      -1.180  -1.904   0.282  0.00  0.00    -0.096 A 
ATOM     10  HN1 IND d   1      -2.797   0.702   0.398  0.00  0.00     0.298 HD
ENDROOT
TORSDOF 0
ENDMDL
