MODEL 1
REMARK minimizedAffinity 12.8383369
REMARK minimizedRMSD -1
REMARK  0 active torsions:
REMARK  status: ('A' for Active; 'I' for Inactive)
ROOT
ATOM      1  N1  IND d   1      -0.039  -1.028   2.152  0.00  0.00    -0.196 N 
ATOM      2  C2  IND d   1       0.639   0.149   2.309  0.00  0.00     0.054 A 
ATOM      3  C3  IND d   1       0.150   1.089   1.469  0.00  0.00    -0.031 A 
ATOM      4  C4  IND d   1      -1.826   0.945  -0.175  0.00  0.00     0.051 A 
ATOM      5  C5  IND d   1      -2.731   0.064  -0.697  0.00  0.00    -0.031 A 
ATOM      6  C6  IND d   1      -2.788  -1.252  -0.285  0.00  0.00     0.015 A 
ATOM      7  C7  IND d   1      -1.946  -1.735   0.676  0.00  0.00    -0.016 A 
ATOM      8  C8  IND d   1      -1.021  -0.845   1.203  0.00  0.00    -0.047 A 
ATOM      9  C9  IND d   1      -0.930   0.480   0.758  0.00  0.00    -0.096 A 
ATOM     10  HN1 IND d   1       0.121  -1.759   2.575  0.00  0.00     0.298 HD
ENDROOT
TORSDOF 0
ENDMDL
