MODEL 1
REMARK minimizedAffinity 11.5534878
REMARK minimizedRMSD -1
REMARK  0 active torsions:
REMARK  status: ('A' for Active; 'I' for Inactive)
ROOT
ATOM      1  N1  IND d   1       2.720  -3.147   2.447  0.00  0.00    -0.196 N 
ATOM      2  C2  IND d   1       3.047  -4.032   3.437  0.00  0.00     0.054 A 
ATOM      3  C3  IND d   1       2.806  -3.489   4.651  0.00  0.00    -0.031 A 
ATOM      4  C4  IND d   1       1.782  -1.204   5.247  0.00  0.00     0.051 A 
ATOM      5  C5  IND d   1       1.357  -0.034   4.683  0.00  0.00    -0.031 A 
ATOM      6  C6  IND d   1       1.362   0.161   3.317  0.00  0.00     0.015 A 
ATOM      7  C7  IND d   1       1.783  -0.815   2.460  0.00  0.00    -0.016 A 
ATOM      8  C8  IND d   1       2.223  -2.002   3.029  0.00  0.00    -0.047 A 
ATOM      9  C9  IND d   1       2.260  -2.190   4.417  0.00  0.00    -0.096 A 
ATOM     10  HN1 IND d   1       2.810  -3.283   1.603  0.00  0.00     0.298 HD
ENDROOT
TORSDOF 0
ENDMDL
