MODEL 1
REMARK minimizedAffinity 1.39314711
REMARK minimizedRMSD -1
REMARK  0 active torsions:
REMARK  status: ('A' for Active; 'I' for Inactive)
ROOT
ATOM      1  N1  IND d   1      -3.366  -2.508  -0.009  0.00  0.00    -0.196 N 
ATOM      2  C2  IND d   1      -3.015  -3.820  -0.170  0.00  0.00     0.054 A 
ATOM      3  C3  IND d   1      -1.692  -3.984   0.057  0.00  0.00    -0.031 A 
ATOM      4  C4  IND d   1       0.066  -2.258   0.804  0.00  0.00     0.051 A 
ATOM      5  C5  IND d   1       0.230  -0.923   1.046  0.00  0.00    -0.031 A 
ATOM      6  C6  IND d   1      -0.818  -0.030   0.950  0.00  0.00     0.015 A 
ATOM      7  C7  IND d   1      -2.077  -0.444   0.617  0.00  0.00    -0.016 A 
ATOM      8  C8  IND d   1      -2.246  -1.797   0.364  0.00  0.00    -0.047 A 
ATOM      9  C9  IND d   1      -1.177  -2.701   0.419  0.00  0.00    -0.096 A 
ATOM     10  HN1 IND d   1      -4.153  -2.182  -0.121  0.00  0.00     0.298 HD
ENDROOT
TORSDOF 0
ENDMDL
