MODEL 1
REMARK minimizedAffinity 4.73592329
REMARK minimizedRMSD -1
REMARK  0 active torsions:
REMARK  status: ('A' for Active; 'I' for Inactive)
ROOT
ATOM      1  N1  IND d   1       1.961  -3.857   4.087  0.00  0.00    -0.196 N 
ATOM      2  C2  IND d   1       2.394  -4.599   3.024  0.00  0.00     0.054 A 
ATOM      3  C3  IND d   1       2.281  -3.889   1.878  0.00  0.00    -0.031 A 
ATOM      4  C4  IND d   1       1.506  -1.459   1.530  0.00  0.00     0.051 A 
ATOM      5  C5  IND d   1       0.978  -0.390   2.199  0.00  0.00    -0.031 A 
ATOM      6  C6  IND d   1       0.748  -0.422   3.560  0.00  0.00     0.015 A 
ATOM      7  C7  IND d   1       1.050  -1.526   4.307  0.00  0.00    -0.016 A 
ATOM      8  C8  IND d   1       1.580  -2.615   3.630  0.00  0.00    -0.047 A 
ATOM      9  C9  IND d   1       1.776  -2.603   2.243  0.00  0.00    -0.096 A 
ATOM     10  HN1 IND d   1       1.931  -4.123   4.905  0.00  0.00     0.298 HD
ENDROOT
TORSDOF 0
ENDMDL
