MODEL 1
REMARK minimizedAffinity 3.59449053
REMARK minimizedRMSD -1
REMARK  3 active torsions:
REMARK  status: ('A' for Active; 'I' for Inactive)
REMARK    1  A    between atoms: C3'_2  and  C2'_3 
REMARK    2  A    between atoms: C2'_3  and  C1'_4 
REMARK    3  A    between atoms: C1'_4  and  C1_5 
ROOT
ATOM      1  C1  N4B d   1       1.432  -1.906   3.001  0.00  0.00    -0.075 A 
ATOM      2  C2  N4B d   1       2.072  -3.141   3.246  0.00  0.00     0.002 A 
ATOM      3  C3  N4B d   1       2.184  -3.614   4.530  0.00  0.00     0.002 A 
ATOM      4  C4  N4B d   1       1.682  -2.864   5.583  0.00  0.00    -0.004 A 
ATOM      5  C5  N4B d   1       1.042  -1.684   5.336  0.00  0.00     0.002 A 
ATOM      6  C6  N4B d   1       0.919  -1.198   4.050  0.00  0.00     0.002 A 
ENDROOT
BRANCH   1   7
ATOM      7  C1' N4B d   1       1.362  -1.307   1.623  0.00  0.00     0.057 C 
BRANCH   7   8
ATOM      8  C2' N4B d   1       0.037  -0.566   1.466  0.00  0.00     0.009 C 
BRANCH   8   9
ATOM      9  C3' N4B d   1       0.242   0.885   1.064  0.00  0.00     0.004 C 
ATOM     10  C4' N4B d   1      -0.920   1.445   0.298  0.00  0.00     0.003 C 
ENDBRANCH   8   9
ENDBRANCH   7   8
ENDBRANCH   1   7
TORSDOF 3
ENDMDL
