MODEL 1
REMARK minimizedAffinity 3.7731657
REMARK minimizedRMSD -1
REMARK  3 active torsions:
REMARK  status: ('A' for Active; 'I' for Inactive)
REMARK    1  A    between atoms: C3'_2  and  C2'_3 
REMARK    2  A    between atoms: C2'_3  and  C1'_4 
REMARK    3  A    between atoms: C1'_4  and  C1_5 
ROOT
ATOM      1  C1  N4B d   1      -1.648  -1.063   0.367  0.00  0.00    -0.075 A 
ATOM      2  C2  N4B d   1      -1.222  -2.410   0.343  0.00  0.00     0.002 A 
ATOM      3  C3  N4B d   1      -2.050  -3.383  -0.161  0.00  0.00     0.002 A 
ATOM      4  C4  N4B d   1      -3.310  -3.038  -0.626  0.00  0.00    -0.004 A 
ATOM      5  C5  N4B d   1      -3.704  -1.732  -0.623  0.00  0.00     0.002 A 
ATOM      6  C6  N4B d   1      -2.881  -0.743  -0.123  0.00  0.00     0.002 A 
ENDROOT
BRANCH   1   7
ATOM      7  C1' N4B d   1      -0.813   0.023   0.987  0.00  0.00     0.057 C 
BRANCH   7   8
ATOM      8  C2' N4B d   1       0.397  -0.605   1.672  0.00  0.00     0.009 C 
BRANCH   8   9
ATOM      9  C3' N4B d   1       0.923   0.262   2.804  0.00  0.00     0.004 C 
ATOM     10  C4' N4B d   1       1.128  -0.506   4.076  0.00  0.00     0.003 C 
ENDBRANCH   8   9
ENDBRANCH   7   8
ENDBRANCH   1   7
TORSDOF 3
ENDMDL
