MODEL 1
REMARK minimizedAffinity 3.71246743
REMARK minimizedRMSD -1
REMARK  3 active torsions:
REMARK  status: ('A' for Active; 'I' for Inactive)
REMARK    1  A    between atoms: C3'_2  and  C2'_3 
REMARK    2  A    between atoms: C2'_3  and  C1'_4 
REMARK    3  A    between atoms: C1'_4  and  C1_5 
ROOT
ATOM      1  C1  N4B d   1       1.474  -1.871   4.275  0.00  0.00    -0.075 A 
ATOM      2  C2  N4B d   1       2.229  -2.785   3.508  0.00  0.00     0.002 A 
ATOM      3  C3  N4B d   1       2.351  -2.608   2.152  0.00  0.00     0.002 A 
ATOM      4  C4  N4B d   1       1.713  -1.539   1.540  0.00  0.00    -0.004 A 
ATOM      5  C5  N4B d   1       1.006  -0.646   2.291  0.00  0.00     0.002 A 
ATOM      6  C6  N4B d   1       0.879  -0.810   3.656  0.00  0.00     0.002 A 
ENDROOT
BRANCH   1   7
ATOM      7  C1' N4B d   1       1.241  -2.071   5.747  0.00  0.00     0.057 C 
BRANCH   7   8
ATOM      8  C2' N4B d   1      -0.243  -2.331   5.989  0.00  0.00     0.009 C 
BRANCH   8   9
ATOM      9  C3' N4B d   1      -0.572  -3.814   5.964  0.00  0.00     0.004 C 
ATOM     10  C4' N4B d   1       0.652  -4.681   5.975  0.00  0.00     0.003 C 
ENDBRANCH   8   9
ENDBRANCH   7   8
ENDBRANCH   1   7
TORSDOF 3
ENDMDL
