MODEL 1
REMARK minimizedAffinity 8.85116005
REMARK minimizedRMSD -1
REMARK  3 active torsions:
REMARK  status: ('A' for Active; 'I' for Inactive)
REMARK    1  A    between atoms: C3'_2  and  C2'_3 
REMARK    2  A    between atoms: C2'_3  and  C1'_4 
REMARK    3  A    between atoms: C1'_4  and  C1_5 
ROOT
ATOM      1  C1  N4B d   1       2.329  -2.249   3.294  0.00  0.00    -0.075 A 
ATOM      2  C2  N4B d   1       1.949  -1.112   2.548  0.00  0.00     0.002 A 
ATOM      3  C3  N4B d   1       1.476   0.005   3.192  0.00  0.00     0.002 A 
ATOM      4  C4  N4B d   1       1.358   0.002   4.574  0.00  0.00    -0.004 A 
ATOM      5  C5  N4B d   1       1.752  -1.092   5.289  0.00  0.00     0.002 A 
ATOM      6  C6  N4B d   1       2.232  -2.220   4.655  0.00  0.00     0.002 A 
ENDROOT
BRANCH   1   7
ATOM      7  C1' N4B d   1       2.770  -3.524   2.628  0.00  0.00     0.057 C 
BRANCH   7   8
ATOM      8  C2' N4B d   1       3.081  -4.566   3.699  0.00  0.00     0.009 C 
BRANCH   8   9
ATOM      9  C3' N4B d   1       2.643  -5.959   3.280  0.00  0.00     0.004 C 
ATOM     10  C4' N4B d   1       1.227  -5.999   2.789  0.00  0.00     0.003 C 
ENDBRANCH   8   9
ENDBRANCH   7   8
ENDBRANCH   1   7
TORSDOF 3
ENDMDL
