MODEL 1
REMARK minimizedAffinity 4.97067785
REMARK minimizedRMSD -1
REMARK  3 active torsions:
REMARK  status: ('A' for Active; 'I' for Inactive)
REMARK    1  A    between atoms: C3'_2  and  C2'_3 
REMARK    2  A    between atoms: C2'_3  and  C1'_4 
REMARK    3  A    between atoms: C1'_4  and  C1_5 
ROOT
ATOM      1  C1  N4B d   1       1.531  -1.484   3.620  0.00  0.00    -0.075 A 
ATOM      2  C2  N4B d   1       2.331  -2.648   3.611  0.00  0.00     0.002 A 
ATOM      3  C3  N4B d   1       2.692  -3.242   4.795  0.00  0.00     0.002 A 
ATOM      4  C4  N4B d   1       2.283  -2.682   5.996  0.00  0.00    -0.004 A 
ATOM      5  C5  N4B d   1       1.490  -1.572   5.996  0.00  0.00     0.002 A 
ATOM      6  C6  N4B d   1       1.116  -0.967   4.813  0.00  0.00     0.002 A 
ENDROOT
BRANCH   1   7
ATOM      7  C1' N4B d   1       1.183  -0.750   2.354  0.00  0.00     0.057 C 
BRANCH   7   8
ATOM      8  C2' N4B d   1       0.633  -1.743   1.335  0.00  0.00     0.009 C 
BRANCH   8   9
ATOM      9  C3' N4B d   1      -0.860  -1.965   1.506  0.00  0.00     0.004 C 
ATOM     10  C4' N4B d   1      -1.353  -3.183   0.783  0.00  0.00     0.003 C 
ENDBRANCH   8   9
ENDBRANCH   7   8
ENDBRANCH   1   7
TORSDOF 3
ENDMDL
