MODEL 1
REMARK minimizedAffinity -4.16834879
REMARK minimizedRMSD -1
REMARK  1 active torsions:
REMARK  status: ('A' for Active; 'I' for Inactive)
REMARK    1  A    between atoms: N_2  and  C1_3 
ROOT
ATOM      1  C1  UNL d   1      -0.043  -0.050  -0.183  0.00  0.00     0.143 A 
ATOM      2  C2  UNL d   1      -0.926  -0.073   0.902  0.00  0.00    -0.057 A 
ATOM      3  C3  UNL d   1      -0.484  -0.392   2.191  0.00  0.00     0.033 A 
ATOM      4  C4  UNL d   1       0.849  -0.723   2.414  0.00  0.00    -0.042 A 
ATOM      5  C5  UNL d   1       1.739  -0.731   1.346  0.00  0.00     0.033 A 
ATOM      6  C6  UNL d   1       1.292  -0.405   0.062  0.00  0.00    -0.057 A 
ENDROOT
BRANCH   1   7
ATOM      7  N   UNL d   1      -0.441   0.162  -1.506  0.00  0.00    -0.732 N 
ATOM      8  C   UNL d   1      -0.192   1.431  -2.155  0.00  0.00     0.284 C 
ATOM      9  H3  UNL d   1      -0.272  -0.648  -2.097  0.00  0.00     0.395 HD
ENDBRANCH   1   7
TORSDOF 1
ENDMDL
