MODEL 1
REMARK minimizedAffinity -5.04704285
REMARK minimizedRMSD -1
REMARK  1 active torsions:
REMARK  status: ('A' for Active; 'I' for Inactive)
REMARK    1  A    between atoms: N_2  and  C1_3 
ROOT
ATOM      1  C1  UNL d   1       0.190  -0.163  -0.177  0.00  0.00     0.143 A 
ATOM      2  C2  UNL d   1      -0.632  -0.061   0.951  0.00  0.00    -0.057 A 
ATOM      3  C3  UNL d   1      -0.127  -0.280   2.238  0.00  0.00     0.033 A 
ATOM      4  C4  UNL d   1       1.206  -0.635   2.419  0.00  0.00    -0.042 A 
ATOM      5  C5  UNL d   1       2.034  -0.766   1.310  0.00  0.00     0.033 A 
ATOM      6  C6  UNL d   1       1.526  -0.540   0.027  0.00  0.00    -0.057 A 
ENDROOT
BRANCH   1   7
ATOM      7  N   UNL d   1      -0.275  -0.054  -1.490  0.00  0.00    -0.732 N 
ATOM      8  C   UNL d   1      -0.748   1.215  -2.001  0.00  0.00     0.284 C 
ATOM      9  H3  UNL d   1       0.294  -0.581  -2.149  0.00  0.00     0.395 HD
ENDBRANCH   1   7
TORSDOF 1
ENDMDL
