MODEL 1
REMARK minimizedAffinity 2.67575097
REMARK minimizedRMSD -1
REMARK  0 active torsions:
REMARK  status: ('A' for Active; 'I' for Inactive)
ROOT
ATOM      1  C2' OXE d   1       4.972   4.836  -5.999  0.00  0.00     0.078 C 
ATOM      2  C1' OXE d   1       2.198   5.266  -5.985  0.00  0.00     0.078 C 
ATOM      3  C1  OXE d   1       2.689   3.841  -5.943  0.00  0.00    -0.078 A 
ATOM      4  C2  OXE d   1       4.047   3.638  -5.998  0.00  0.00    -0.078 A 
ATOM      5  C3  OXE d   1       4.555   2.345  -5.907  0.00  0.00     0.003 A 
ATOM      6  C4  OXE d   1       3.693   1.242  -5.917  0.00  0.00    -0.002 A 
ATOM      7  C5  OXE d   1       2.306   1.426  -5.901  0.00  0.00    -0.002 A 
ATOM      8  C6  OXE d   1       1.789   2.716  -5.871  0.00  0.00     0.003 A 
ENDROOT
TORSDOF 0
ENDMDL
