MODEL 1
REMARK minimizedAffinity 1.92613304
REMARK minimizedRMSD -1
REMARK  0 active torsions:
REMARK  status: ('A' for Active; 'I' for Inactive)
ROOT
ATOM      1  C2' OXE d   1       4.119  -4.971   0.376  0.00  0.00     0.078 C 
ATOM      2  C1' OXE d   1       4.739  -4.051   2.955  0.00  0.00     0.078 C 
ATOM      3  C1  OXE d   1       3.680  -3.309   2.179  0.00  0.00    -0.078 A 
ATOM      4  C2  OXE d   1       3.416  -3.737   0.901  0.00  0.00    -0.078 A 
ATOM      5  C3  OXE d   1       2.409  -3.122   0.162  0.00  0.00     0.003 A 
ATOM      6  C4  OXE d   1       1.771  -1.976   0.651  0.00  0.00    -0.002 A 
ATOM      7  C5  OXE d   1       2.053  -1.499   1.935  0.00  0.00    -0.002 A 
ATOM      8  C6  OXE d   1       2.973  -2.178   2.727  0.00  0.00     0.003 A 
ENDROOT
TORSDOF 0
ENDMDL
