MODEL 1
REMARK minimizedAffinity -2.79682064
REMARK minimizedRMSD -1
REMARK  0 active torsions:
REMARK  status: ('A' for Active; 'I' for Inactive)
ROOT
ATOM      1  C2' OXE d   1       1.026   2.064  -5.948  0.00  0.00     0.078 C 
ATOM      2  C1' OXE d   1       3.826   2.269  -5.962  0.00  0.00     0.078 C 
ATOM      3  C1  OXE d   1       3.027   3.548  -5.959  0.00  0.00    -0.078 A 
ATOM      4  C2  OXE d   1       1.658   3.439  -5.999  0.00  0.00    -0.078 A 
ATOM      5  C3  OXE d   1       0.873   4.586  -5.942  0.00  0.00     0.003 A 
ATOM      6  C4  OXE d   1       1.465   5.854  -6.000  0.00  0.00    -0.002 A 
ATOM      7  C5  OXE d   1       2.857   5.988  -6.000  0.00  0.00    -0.002 A 
ATOM      8  C6  OXE d   1       3.651   4.848  -5.936  0.00  0.00     0.003 A 
ENDROOT
TORSDOF 0
ENDMDL
