MODEL 1
REMARK minimizedAffinity -1.71783006
REMARK minimizedRMSD -1
REMARK  0 active torsions:
REMARK  status: ('A' for Active; 'I' for Inactive)
ROOT
ATOM      1  C2' OXE d   1       2.654   5.180   5.973  0.00  0.00     0.078 C 
ATOM      2  C1' OXE d   1       2.409   4.545   3.250  0.00  0.00     0.078 C 
ATOM      3  C1  OXE d   1       1.187   5.069   3.963  0.00  0.00    -0.078 A 
ATOM      4  C2  OXE d   1       1.304   5.333   5.307  0.00  0.00    -0.078 A 
ATOM      5  C3  OXE d   1       0.223   5.871   6.000  0.00  0.00     0.003 A 
ATOM      6  C4  OXE d   1      -1.025   6.000   5.378  0.00  0.00    -0.002 A 
ATOM      7  C5  OXE d   1      -1.176   5.699   4.020  0.00  0.00    -0.002 A 
ATOM      8  C6  OXE d   1      -0.071   5.274   3.290  0.00  0.00     0.003 A 
ENDROOT
TORSDOF 0
ENDMDL
