MODEL 1
REMARK minimizedAffinity -1.17735457
REMARK minimizedRMSD -1
REMARK  0 active torsions:
REMARK  status: ('A' for Active; 'I' for Inactive)
ROOT
ATOM      1  C2' OXE d   1       2.303   2.679  -5.996  0.00  0.00     0.078 C 
ATOM      2  C1' OXE d   1       2.131   5.481  -5.977  0.00  0.00     0.078 C 
ATOM      3  C1  OXE d   1       3.506   4.861  -5.980  0.00  0.00    -0.078 A 
ATOM      4  C2  OXE d   1       3.580   3.489  -5.942  0.00  0.00    -0.078 A 
ATOM      5  C3  OXE d   1       4.823   2.865  -5.998  0.00  0.00     0.003 A 
ATOM      6  C4  OXE d   1       6.000   3.621  -5.938  0.00  0.00    -0.002 A 
ATOM      7  C5  OXE d   1       5.946   5.019  -5.936  0.00  0.00    -0.002 A 
ATOM      8  C6  OXE d   1       4.710   5.653  -5.999  0.00  0.00     0.003 A 
ENDROOT
TORSDOF 0
ENDMDL
