MODEL 1
REMARK minimizedAffinity 1.6447686
REMARK minimizedRMSD -1
REMARK  0 active torsions:
REMARK  status: ('A' for Active; 'I' for Inactive)
ROOT
ATOM      1  C2' OXE d   1       2.142   1.455  -5.986  0.00  0.00     0.078 C 
ATOM      2  C1' OXE d   1       2.238   4.259  -5.908  0.00  0.00     0.078 C 
ATOM      3  C1  OXE d   1       3.547   3.511  -5.930  0.00  0.00    -0.078 A 
ATOM      4  C2  OXE d   1       3.491   2.138  -5.921  0.00  0.00    -0.078 A 
ATOM      5  C3  OXE d   1       4.668   1.399  -5.996  0.00  0.00     0.003 A 
ATOM      6  C4  OXE d   1       5.912   2.038  -5.926  0.00  0.00    -0.002 A 
ATOM      7  C5  OXE d   1       5.992   3.434  -5.894  0.00  0.00    -0.002 A 
ATOM      8  C6  OXE d   1       4.822   4.185  -5.939  0.00  0.00     0.003 A 
ENDROOT
TORSDOF 0
ENDMDL
