MODEL 1
REMARK minimizedAffinity 8.5892849
REMARK minimizedRMSD -1
REMARK  0 active torsions:
REMARK  status: ('A' for Active; 'I' for Inactive)
ROOT
ATOM      1  C2' OXE d   1       3.828   4.770  -5.950  0.00  0.00     0.078 C 
ATOM      2  C1' OXE d   1       1.123   5.516  -5.998  0.00  0.00     0.078 C 
ATOM      3  C1  OXE d   1       1.446   4.043  -5.976  0.00  0.00    -0.078 A 
ATOM      4  C2  OXE d   1       2.773   3.686  -6.000  0.00  0.00    -0.078 A 
ATOM      5  C3  OXE d   1       3.127   2.342  -5.925  0.00  0.00     0.003 A 
ATOM      6  C4  OXE d   1       2.145   1.346  -5.982  0.00  0.00    -0.002 A 
ATOM      7  C5  OXE d   1       0.788   1.687  -5.998  0.00  0.00    -0.002 A 
ATOM      8  C6  OXE d   1       0.422   3.028  -5.953  0.00  0.00     0.003 A 
ENDROOT
TORSDOF 0
ENDMDL
