MODEL 1
REMARK minimizedAffinity -1.22871542
REMARK minimizedRMSD -1
REMARK  0 active torsions:
REMARK  status: ('A' for Active; 'I' for Inactive)
ROOT
ATOM      1  C2' OXE d   1      -2.347   2.302  -3.840  0.00  0.00     0.078 C 
ATOM      2  C1' OXE d   1      -3.824   0.806  -5.700  0.00  0.00     0.078 C 
ATOM      3  C1  OXE d   1      -3.835   0.349  -4.263  0.00  0.00    -0.078 A 
ATOM      4  C2  OXE d   1      -3.072   1.060  -3.368  0.00  0.00    -0.078 A 
ATOM      5  C3  OXE d   1      -3.090   0.714  -2.020  0.00  0.00     0.003 A 
ATOM      6  C4  OXE d   1      -3.755  -0.442  -1.593  0.00  0.00    -0.002 A 
ATOM      7  C5  OXE d   1      -4.506  -1.203  -2.495  0.00  0.00    -0.002 A 
ATOM      8  C6  OXE d   1      -4.591  -0.797  -3.822  0.00  0.00     0.003 A 
ENDROOT
TORSDOF 0
ENDMDL
