MODEL 1
REMARK minimizedAffinity -1.92712951
REMARK minimizedRMSD -1
REMARK  0 active torsions:
REMARK  status: ('A' for Active; 'I' for Inactive)
ROOT
ATOM      1  C2' OXE d   1       5.765   2.845  -5.946  0.00  0.00     0.078 C 
ATOM      2  C1' OXE d   1       4.887   5.510  -6.000  0.00  0.00     0.078 C 
ATOM      3  C1  OXE d   1       3.840   4.425  -5.977  0.00  0.00    -0.078 A 
ATOM      4  C2  OXE d   1       4.278   3.123  -5.998  0.00  0.00    -0.078 A 
ATOM      5  C3  OXE d   1       3.355   2.084  -5.923  0.00  0.00     0.003 A 
ATOM      6  C4  OXE d   1       1.982   2.350  -5.981  0.00  0.00    -0.002 A 
ATOM      7  C5  OXE d   1       1.514   3.668  -6.000  0.00  0.00    -0.002 A 
ATOM      8  C6  OXE d   1       2.427   4.716  -5.955  0.00  0.00     0.003 A 
ENDROOT
TORSDOF 0
ENDMDL
