MODEL 1
REMARK minimizedAffinity 1.7183249
REMARK minimizedRMSD -1
REMARK  3 active torsions:
REMARK  status: ('A' for Active; 'I' for Inactive)
REMARK    1  A    between atoms: C3'_2  and  C2'_3 
REMARK    2  A    between atoms: C2'_3  and  C1'_4 
REMARK    3  A    between atoms: C1'_4  and  C1_5 
ROOT
ATOM      1  C1  N4B d   1       0.476   1.155   0.915  0.00  0.00    -0.075 A 
ATOM      2  C2  N4B d   1       0.812   0.594   2.167  0.00  0.00     0.002 A 
ATOM      3  C3  N4B d   1       0.198   1.044   3.309  0.00  0.00     0.002 A 
ATOM      4  C4  N4B d   1      -0.739   2.064   3.228  0.00  0.00    -0.004 A 
ATOM      5  C5  N4B d   1      -1.077   2.583   2.012  0.00  0.00     0.002 A 
ATOM      6  C6  N4B d   1      -0.470   2.137   0.855  0.00  0.00     0.002 A 
ENDROOT
BRANCH   1   7
ATOM      7  C1' N4B d   1       1.183   0.755  -0.350  0.00  0.00     0.057 C 
BRANCH   7   8
ATOM      8  C2' N4B d   1       2.407  -0.084   0.003  0.00  0.00     0.009 C 
BRANCH   8   9
ATOM      9  C3' N4B d   1       3.602   0.258  -0.869  0.00  0.00     0.004 C 
ATOM     10  C4' N4B d   1       4.678   0.988  -0.121  0.00  0.00     0.003 C 
ENDBRANCH   8   9
ENDBRANCH   7   8
ENDBRANCH   1   7
TORSDOF 3
ENDMDL
