MODEL 1
REMARK minimizedAffinity 7.80089283
REMARK minimizedRMSD -1
REMARK  3 active torsions:
REMARK  status: ('A' for Active; 'I' for Inactive)
REMARK    1  A    between atoms: C3'_2  and  C2'_3 
REMARK    2  A    between atoms: C2'_3  and  C1'_4 
REMARK    3  A    between atoms: C1'_4  and  C1_5 
ROOT
ATOM      1  C1  N4B d   1       3.678   0.067  -0.275  0.00  0.00    -0.075 A 
ATOM      2  C2  N4B d   1       4.798  -0.744   0.011  0.00  0.00     0.002 A 
ATOM      3  C3  N4B d   1       5.944  -0.178   0.515  0.00  0.00     0.002 A 
ATOM      4  C4  N4B d   1       5.999   1.192   0.722  0.00  0.00    -0.004 A 
ATOM      5  C5  N4B d   1       4.904   1.964   0.467  0.00  0.00     0.002 A 
ATOM      6  C6  N4B d   1       3.744   1.409  -0.035  0.00  0.00     0.002 A 
ENDROOT
BRANCH   1   7
ATOM      7  C1' N4B d   1       2.433  -0.493  -0.907  0.00  0.00     0.057 C 
BRANCH   7   8
ATOM      8  C2' N4B d   1       2.610  -1.994  -1.117  0.00  0.00     0.009 C 
BRANCH   8   9
ATOM      9  C3' N4B d   1       1.670  -2.804  -0.240  0.00  0.00     0.004 C 
ATOM     10  C4' N4B d   1       0.705  -3.632  -1.035  0.00  0.00     0.003 C 
ENDBRANCH   8   9
ENDBRANCH   7   8
ENDBRANCH   1   7
TORSDOF 3
ENDMDL
