MODEL 1
REMARK minimizedAffinity 11.9277935
REMARK minimizedRMSD -1
REMARK  3 active torsions:
REMARK  status: ('A' for Active; 'I' for Inactive)
REMARK    1  A    between atoms: C3'_2  and  C2'_3 
REMARK    2  A    between atoms: C2'_3  and  C1'_4 
REMARK    3  A    between atoms: C1'_4  and  C1_5 
ROOT
ATOM      1  C1  N4B d   1       3.023  -1.218  -0.987  0.00  0.00    -0.075 A 
ATOM      2  C2  N4B d   1       4.241  -0.561  -1.272  0.00  0.00     0.002 A 
ATOM      3  C3  N4B d   1       4.465   0.707  -0.796  0.00  0.00     0.002 A 
ATOM      4  C4  N4B d   1       3.482   1.344  -0.052  0.00  0.00    -0.004 A 
ATOM      5  C5  N4B d   1       2.319   0.693   0.240  0.00  0.00     0.002 A 
ATOM      6  C6  N4B d   1       2.083  -0.584  -0.229  0.00  0.00     0.002 A 
ENDROOT
BRANCH   1   7
ATOM      7  C1' N4B d   1       2.698  -2.571  -1.558  0.00  0.00     0.057 C 
BRANCH   7   8
ATOM      8  C2' N4B d   1       1.400  -3.078  -0.938  0.00  0.00     0.009 C 
BRANCH   8   9
ATOM      9  C3' N4B d   1       0.399  -3.517  -1.993  0.00  0.00     0.004 C 
ATOM     10  C4' N4B d   1      -0.632  -4.464  -1.457  0.00  0.00     0.003 C 
ENDBRANCH   8   9
ENDBRANCH   7   8
ENDBRANCH   1   7
TORSDOF 3
ENDMDL
