MODEL 1
REMARK minimizedAffinity 0.84276855
REMARK minimizedRMSD -1
REMARK  3 active torsions:
REMARK  status: ('A' for Active; 'I' for Inactive)
REMARK    1  A    between atoms: C3'_2  and  C2'_3 
REMARK    2  A    between atoms: C2'_3  and  C1'_4 
REMARK    3  A    between atoms: C1'_4  and  C1_5 
ROOT
ATOM      1  C1  N4B d   1       2.154   0.839   0.352  0.00  0.00    -0.075 A 
ATOM      2  C2  N4B d   1       2.532  -0.441  -0.109  0.00  0.00     0.002 A 
ATOM      3  C3  N4B d   1       3.806  -0.655  -0.577  0.00  0.00     0.002 A 
ATOM      4  C4  N4B d   1       4.709   0.397  -0.610  0.00  0.00    -0.004 A 
ATOM      5  C5  N4B d   1       4.344   1.624  -0.139  0.00  0.00     0.002 A 
ATOM      6  C6  N4B d   1       3.069   1.852   0.337  0.00  0.00     0.002 A 
ENDROOT
BRANCH   1   7
ATOM      7  C1' N4B d   1       0.748   1.142   0.791  0.00  0.00     0.057 C 
BRANCH   7   8
ATOM      8  C2' N4B d   1       0.568   0.692   2.238  0.00  0.00     0.009 C 
BRANCH   8   9
ATOM      9  C3' N4B d   1      -0.503   1.497   2.954  0.00  0.00     0.004 C 
ATOM     10  C4' N4B d   1      -1.661   1.843   2.066  0.00  0.00     0.003 C 
ENDBRANCH   8   9
ENDBRANCH   7   8
ENDBRANCH   1   7
TORSDOF 3
ENDMDL
