MODEL 1
REMARK minimizedAffinity 5.97647524
REMARK minimizedRMSD -1
REMARK  3 active torsions:
REMARK  status: ('A' for Active; 'I' for Inactive)
REMARK    1  A    between atoms: C3'_2  and  C2'_3 
REMARK    2  A    between atoms: C2'_3  and  C1'_4 
REMARK    3  A    between atoms: C1'_4  and  C1_5 
ROOT
ATOM      1  C1  N4B d   1       3.221  -1.013   0.007  0.00  0.00    -0.075 A 
ATOM      2  C2  N4B d   1       2.947   0.056  -0.875  0.00  0.00     0.002 A 
ATOM      3  C3  N4B d   1       3.837   1.095  -0.992  0.00  0.00     0.002 A 
ATOM      4  C4  N4B d   1       4.993   1.097  -0.227  0.00  0.00    -0.004 A 
ATOM      5  C5  N4B d   1       5.263   0.048   0.603  0.00  0.00     0.002 A 
ATOM      6  C6  N4B d   1       4.379  -1.005   0.728  0.00  0.00     0.002 A 
ENDROOT
BRANCH   1   7
ATOM      7  C1' N4B d   1       2.237  -2.128   0.232  0.00  0.00     0.057 C 
BRANCH   7   8
ATOM      8  C2' N4B d   1       1.734  -2.633  -1.117  0.00  0.00     0.009 C 
BRANCH   8   9
ATOM      9  C3' N4B d   1       0.789  -3.812  -0.966  0.00  0.00     0.004 C 
ATOM     10  C4' N4B d   1      -0.387  -3.737  -1.894  0.00  0.00     0.003 C 
ENDBRANCH   8   9
ENDBRANCH   7   8
ENDBRANCH   1   7
TORSDOF 3
ENDMDL
