MODEL 1
REMARK minimizedAffinity 4.07468319
REMARK minimizedRMSD -1
REMARK  3 active torsions:
REMARK  status: ('A' for Active; 'I' for Inactive)
REMARK    1  A    between atoms: C3'_2  and  C2'_3 
REMARK    2  A    between atoms: C2'_3  and  C1'_4 
REMARK    3  A    between atoms: C1'_4  and  C1_5 
ROOT
ATOM      1  C1  N4B d   1      -5.066   1.523  -2.793  0.00  0.00    -0.075 A 
ATOM      2  C2  N4B d   1      -3.673   1.385  -2.977  0.00  0.00     0.002 A 
ATOM      3  C3  N4B d   1      -2.911   0.765  -2.017  0.00  0.00     0.002 A 
ATOM      4  C4  N4B d   1      -3.516   0.293  -0.861  0.00  0.00    -0.004 A 
ATOM      5  C5  N4B d   1      -4.866   0.407  -0.703  0.00  0.00     0.002 A 
ATOM      6  C6  N4B d   1      -5.644   1.025  -1.661  0.00  0.00     0.002 A 
ENDROOT
BRANCH   1   7
ATOM      7  C1' N4B d   1      -5.927   2.269  -3.775  0.00  0.00     0.057 C 
BRANCH   7   8
ATOM      8  C2' N4B d   1      -5.996   3.737  -3.366  0.00  0.00     0.009 C 
BRANCH   8   9
ATOM      9  C3' N4B d   1      -4.618   4.317  -3.096  0.00  0.00     0.004 C 
ATOM     10  C4' N4B d   1      -4.146   5.227  -4.192  0.00  0.00     0.003 C 
ENDBRANCH   8   9
ENDBRANCH   7   8
ENDBRANCH   1   7
TORSDOF 3
ENDMDL
