MODEL 1
REMARK minimizedAffinity 14.8924379
REMARK minimizedRMSD -1
REMARK  0 active torsions:
REMARK  status: ('A' for Active; 'I' for Inactive)
ROOT
ATOM      1  N1  IND d   1       5.967  -4.867   5.984  0.00  0.00    -0.196 N 
ATOM      2  C2  IND d   1       4.985  -5.817   5.953  0.00  0.00     0.054 A 
ATOM      3  C3  IND d   1       3.778  -5.241   5.753  0.00  0.00    -0.031 A 
ATOM      4  C4  IND d   1       3.195  -2.766   5.350  0.00  0.00     0.051 A 
ATOM      5  C5  IND d   1       3.752  -1.518   5.324  0.00  0.00    -0.031 A 
ATOM      6  C6  IND d   1       5.103  -1.319   5.519  0.00  0.00     0.015 A 
ATOM      7  C7  IND d   1       5.954  -2.366   5.735  0.00  0.00    -0.016 A 
ATOM      8  C8  IND d   1       5.390  -3.634   5.769  0.00  0.00    -0.047 A 
ATOM      9  C9  IND d   1       4.013  -3.838   5.615  0.00  0.00    -0.096 A 
ATOM     10  HN1 IND d   1       6.804  -5.014   6.116  0.00  0.00     0.298 HD
ENDROOT
TORSDOF 0
ENDMDL
