MODEL 1
REMARK minimizedAffinity 9.96606255
REMARK minimizedRMSD -1
REMARK  0 active torsions:
REMARK  status: ('A' for Active; 'I' for Inactive)
ROOT
ATOM      1  N1  IND d   1       3.831  -5.436   5.566  0.00  0.00    -0.196 N 
ATOM      2  C2  IND d   1       5.003  -6.000   5.985  0.00  0.00     0.054 A 
ATOM      3  C3  IND d   1       5.994  -5.080   5.985  0.00  0.00    -0.031 A 
ATOM      4  C4  IND d   1       5.894  -2.568   5.432  0.00  0.00     0.051 A 
ATOM      5  C5  IND d   1       5.049  -1.601   4.964  0.00  0.00    -0.031 A 
ATOM      6  C6  IND d   1       3.728  -1.867   4.670  0.00  0.00     0.015 A 
ATOM      7  C7  IND d   1       3.196  -3.114   4.844  0.00  0.00    -0.016 A 
ATOM      8  C8  IND d   1       4.053  -4.100   5.312  0.00  0.00    -0.047 A 
ATOM      9  C9  IND d   1       5.406  -3.846   5.572  0.00  0.00    -0.096 A 
ATOM     10  HN1 IND d   1       3.081  -5.846   5.476  0.00  0.00     0.298 HD
ENDROOT
TORSDOF 0
ENDMDL
