MODEL 1
REMARK minimizedAffinity 15.1828346
REMARK minimizedRMSD -1
REMARK  0 active torsions:
REMARK  status: ('A' for Active; 'I' for Inactive)
ROOT
ATOM      1  N1  IND d   1       2.682  -1.335   4.544  0.00  0.00    -0.196 N 
ATOM      2  C2  IND d   1       3.864  -1.996   4.731  0.00  0.00     0.054 A 
ATOM      3  C3  IND d   1       4.232  -2.633   3.597  0.00  0.00    -0.031 A 
ATOM      4  C4  IND d   1       3.098  -2.642   1.285  0.00  0.00     0.051 A 
ATOM      5  C5  IND d   1       1.976  -2.212   0.634  0.00  0.00    -0.031 A 
ATOM      6  C6  IND d   1       1.014  -1.450   1.265  0.00  0.00     0.015 A 
ATOM      7  C7  IND d   1       1.144  -1.078   2.573  0.00  0.00    -0.016 A 
ATOM      8  C8  IND d   1       2.279  -1.519   3.239  0.00  0.00    -0.047 A 
ATOM      9  C9  IND d   1       3.238  -2.328   2.617  0.00  0.00    -0.096 A 
ATOM     10  HN1 IND d   1       2.262  -0.880   5.140  0.00  0.00     0.298 HD
ENDROOT
TORSDOF 0
ENDMDL
