MODEL 1
REMARK minimizedAffinity 7.93643379
REMARK minimizedRMSD -1
REMARK  0 active torsions:
REMARK  status: ('A' for Active; 'I' for Inactive)
ROOT
ATOM      1  N1  IND d   1       1.044  -3.427   0.587  0.00  0.00    -0.196 N 
ATOM      2  C2  IND d   1       2.317  -3.028   0.285  0.00  0.00     0.054 A 
ATOM      3  C3  IND d   1       2.648  -1.931   1.002  0.00  0.00    -0.031 A 
ATOM      4  C4  IND d   1       1.295  -0.683   2.801  0.00  0.00     0.051 A 
ATOM      5  C5  IND d   1       0.065  -0.651   3.396  0.00  0.00    -0.031 A 
ATOM      6  C6  IND d   1      -0.920  -1.564   3.080  0.00  0.00     0.015 A 
ATOM      7  C7  IND d   1      -0.708  -2.553   2.162  0.00  0.00    -0.016 A 
ATOM      8  C8  IND d   1       0.538  -2.583   1.551  0.00  0.00    -0.047 A 
ATOM      9  C9  IND d   1       1.528  -1.634   1.836  0.00  0.00    -0.096 A 
ATOM     10  HN1 IND d   1       0.630  -4.092   0.233  0.00  0.00     0.298 HD
ENDROOT
TORSDOF 0
ENDMDL
