MODEL 1
REMARK minimizedAffinity 11.456212
REMARK minimizedRMSD -1
REMARK  0 active torsions:
REMARK  status: ('A' for Active; 'I' for Inactive)
ROOT
ATOM      1  N1  IND d   1       1.049  -4.575   0.052  0.00  0.00    -0.196 N 
ATOM      2  C2  IND d   1       2.306  -5.106  -0.035  0.00  0.00     0.054 A 
ATOM      3  C3  IND d   1       3.221  -4.226   0.429  0.00  0.00    -0.031 A 
ATOM      4  C4  IND d   1       2.870  -1.899   1.472  0.00  0.00     0.051 A 
ATOM      5  C5  IND d   1       1.903  -0.969   1.731  0.00  0.00    -0.031 A 
ATOM      6  C6  IND d   1       0.574  -1.200   1.441  0.00  0.00     0.015 A 
ATOM      7  C7  IND d   1       0.159  -2.379   0.888  0.00  0.00    -0.016 A 
ATOM      8  C8  IND d   1       1.140  -3.322   0.617  0.00  0.00    -0.047 A 
ATOM      9  C9  IND d   1       2.496  -3.077   0.870  0.00  0.00    -0.096 A 
ATOM     10  HN1 IND d   1       0.323  -4.959  -0.204  0.00  0.00     0.298 HD
ENDROOT
TORSDOF 0
ENDMDL
