MODEL 1
REMARK minimizedAffinity 10.3302069
REMARK minimizedRMSD -1
REMARK  0 active torsions:
REMARK  status: ('A' for Active; 'I' for Inactive)
ROOT
ATOM      1  N1  IND d   1       2.339   5.888  -5.878  0.00  0.00    -0.196 N 
ATOM      2  C2  IND d   1       1.447   4.856  -5.975  0.00  0.00     0.054 A 
ATOM      3  C3  IND d   1       2.098   3.672  -5.999  0.00  0.00    -0.031 A 
ATOM      4  C4  IND d   1       4.618   3.187  -5.789  0.00  0.00     0.051 A 
ATOM      5  C5  IND d   1       5.832   3.809  -5.717  0.00  0.00    -0.031 A 
ATOM      6  C6  IND d   1       5.947   5.184  -5.692  0.00  0.00     0.015 A 
ATOM      7  C7  IND d   1       4.845   5.991  -5.727  0.00  0.00    -0.016 A 
ATOM      8  C8  IND d   1       3.610   5.363  -5.806  0.00  0.00    -0.047 A 
ATOM      9  C9  IND d   1       3.490   3.969  -5.875  0.00  0.00    -0.096 A 
ATOM     10  HN1 IND d   1       2.139   6.724  -5.864  0.00  0.00     0.298 HD
ENDROOT
TORSDOF 0
ENDMDL
