MODEL 1
REMARK minimizedAffinity 9.56846142
REMARK minimizedRMSD -1
REMARK  0 active torsions:
REMARK  status: ('A' for Active; 'I' for Inactive)
ROOT
ATOM      1  N1  IND d   1       1.028  -1.984  -0.265  0.00  0.00    -0.196 N 
ATOM      2  C2  IND d   1       0.757  -0.806   0.373  0.00  0.00     0.054 A 
ATOM      3  C3  IND d   1       1.499  -0.698   1.498  0.00  0.00    -0.031 A 
ATOM      4  C4  IND d   1       3.296  -2.289   2.431  0.00  0.00     0.051 A 
ATOM      5  C5  IND d   1       3.868  -3.512   2.216  0.00  0.00    -0.031 A 
ATOM      6  C6  IND d   1       3.518  -4.302   1.141  0.00  0.00     0.015 A 
ATOM      7  C7  IND d   1       2.586  -3.893   0.229  0.00  0.00    -0.016 A 
ATOM      8  C8  IND d   1       1.998  -2.655   0.447  0.00  0.00    -0.047 A 
ATOM      9  C9  IND d   1       2.318  -1.867   1.560  0.00  0.00    -0.096 A 
ATOM     10  HN1 IND d   1       0.656  -2.260  -0.989  0.00  0.00     0.298 HD
ENDROOT
TORSDOF 0
ENDMDL
