MODEL 1
REMARK minimizedAffinity 15.8948679
REMARK minimizedRMSD -1
REMARK  0 active torsions:
REMARK  status: ('A' for Active; 'I' for Inactive)
ROOT
ATOM      1  N1  IND d   1       1.112  -2.607  -0.756  0.00  0.00    -0.196 N 
ATOM      2  C2  IND d   1      -0.015  -1.839  -0.847  0.00  0.00     0.054 A 
ATOM      3  C3  IND d   1      -0.116  -1.023   0.226  0.00  0.00    -0.031 A 
ATOM      4  C4  IND d   1       1.506  -0.709   2.201  0.00  0.00     0.051 A 
ATOM      5  C5  IND d   1       2.655  -1.214   2.742  0.00  0.00    -0.031 A 
ATOM      6  C6  IND d   1       3.364  -2.228   2.131  0.00  0.00     0.015 A 
ATOM      7  C7  IND d   1       2.955  -2.769   0.945  0.00  0.00    -0.016 A 
ATOM      8  C8  IND d   1       1.785  -2.263   0.396  0.00  0.00    -0.047 A 
ATOM      9  C9  IND d   1       1.038  -1.264   1.033  0.00  0.00    -0.096 A 
ATOM     10  HN1 IND d   1       1.359  -3.205  -1.323  0.00  0.00     0.298 HD
ENDROOT
TORSDOF 0
ENDMDL
