MODEL 1
REMARK minimizedAffinity 17.6001968
REMARK minimizedRMSD -1
REMARK  0 active torsions:
REMARK  status: ('A' for Active; 'I' for Inactive)
ROOT
ATOM      1  N1  IND d   1       2.222   3.914  -4.788  0.00  0.00    -0.196 N 
ATOM      2  C2  IND d   1       1.471   4.986  -5.184  0.00  0.00     0.054 A 
ATOM      3  C3  IND d   1       2.268   5.971  -5.655  0.00  0.00    -0.031 A 
ATOM      4  C4  IND d   1       4.824   6.000  -5.962  0.00  0.00     0.051 A 
ATOM      5  C5  IND d   1       5.948   5.264  -5.710  0.00  0.00    -0.031 A 
ATOM      6  C6  IND d   1       5.885   4.015  -5.128  0.00  0.00     0.015 A 
ATOM      7  C7  IND d   1       4.691   3.447  -4.785  0.00  0.00    -0.016 A 
ATOM      8  C8  IND d   1       3.548   4.194  -5.034  0.00  0.00    -0.047 A 
ATOM      9  C9  IND d   1       3.608   5.480  -5.585  0.00  0.00    -0.096 A 
ATOM     10  HN1 IND d   1       1.917   3.188  -4.443  0.00  0.00     0.298 HD
ENDROOT
TORSDOF 0
ENDMDL
