MODEL 1
REMARK minimizedAffinity 6.32050562
REMARK minimizedRMSD -1
REMARK  0 active torsions:
REMARK  status: ('A' for Active; 'I' for Inactive)
ROOT
ATOM      1  N1  IND d   1       4.495   3.903  -4.865  0.00  0.00    -0.196 N 
ATOM      2  C2  IND d   1       5.209   4.883  -5.494  0.00  0.00     0.054 A 
ATOM      3  C3  IND d   1       4.377   5.821  -6.000  0.00  0.00    -0.031 A 
ATOM      4  C4  IND d   1       1.815   6.000  -5.824  0.00  0.00     0.051 A 
ATOM      5  C5  IND d   1       0.716   5.322  -5.376  0.00  0.00    -0.031 A 
ATOM      6  C6  IND d   1       0.823   4.113  -4.719  0.00  0.00     0.015 A 
ATOM      7  C7  IND d   1       2.039   3.540  -4.475  0.00  0.00    -0.016 A 
ATOM      8  C8  IND d   1       3.156   4.222  -4.934  0.00  0.00    -0.047 A 
ATOM      9  C9  IND d   1       3.052   5.429  -5.639  0.00  0.00    -0.096 A 
ATOM     10  HN1 IND d   1       4.825   3.204  -4.489  0.00  0.00     0.298 HD
ENDROOT
TORSDOF 0
ENDMDL
