MODEL 1
REMARK minimizedAffinity 9.67978096
REMARK minimizedRMSD -1
REMARK  0 active torsions:
REMARK  status: ('A' for Active; 'I' for Inactive)
ROOT
ATOM      1  C   UNL d   1       2.672  -4.866   4.145  0.00  0.00     0.077 C 
ATOM      2  C1  UNL d   1       2.486  -3.390   4.337  0.00  0.00    -0.074 A 
ATOM      3  C2  UNL d   1       2.455  -2.830   5.618  0.00  0.00    -0.005 A 
ATOM      4  C3  UNL d   1       2.292  -1.454   5.781  0.00  0.00     0.006 A 
ATOM      5  C4  UNL d   1       2.158  -0.626   4.666  0.00  0.00    -0.005 A 
ATOM      6  C5  UNL d   1       2.187  -1.168   3.377  0.00  0.00    -0.074 A 
ATOM      7  C6  UNL d   1       2.054  -0.291   2.168  0.00  0.00     0.077 C 
ATOM      8  C7  UNL d   1       2.359  -2.550   3.222  0.00  0.00    -0.001 A 
ENDROOT
TORSDOF 0
ENDMDL
