MODEL 1
REMARK minimizedAffinity 10.7331123
REMARK minimizedRMSD -1
REMARK  0 active torsions:
REMARK  status: ('A' for Active; 'I' for Inactive)
ROOT
ATOM      1  C   UNL d   1       5.997  -4.938   5.998  0.00  0.00     0.077 C 
ATOM      2  C1  UNL d   1       5.246  -3.701   5.605  0.00  0.00    -0.074 A 
ATOM      3  C2  UNL d   1       5.843  -2.439   5.690  0.00  0.00    -0.005 A 
ATOM      4  C3  UNL d   1       5.136  -1.298   5.311  0.00  0.00     0.006 A 
ATOM      5  C4  UNL d   1       3.825  -1.407   4.844  0.00  0.00    -0.005 A 
ATOM      6  C5  UNL d   1       3.211  -2.660   4.751  0.00  0.00    -0.074 A 
ATOM      7  C6  UNL d   1       1.807  -2.796   4.242  0.00  0.00     0.077 C 
ATOM      8  C7  UNL d   1       3.931  -3.803   5.127  0.00  0.00    -0.001 A 
ENDROOT
TORSDOF 0
ENDMDL
