MODEL 1
REMARK minimizedAffinity 15.3026915
REMARK minimizedRMSD -1
REMARK  0 active torsions:
REMARK  status: ('A' for Active; 'I' for Inactive)
ROOT
ATOM      1  C   UNL d   1       0.072  -1.767  -0.671  0.00  0.00     0.077 C 
ATOM      2  C1  UNL d   1       0.850  -1.931   0.602  0.00  0.00    -0.074 A 
ATOM      3  C2  UNL d   1       0.917  -0.897   1.541  0.00  0.00    -0.005 A 
ATOM      4  C3  UNL d   1       1.636  -1.067   2.724  0.00  0.00     0.006 A 
ATOM      5  C4  UNL d   1       2.294  -2.271   2.979  0.00  0.00    -0.005 A 
ATOM      6  C5  UNL d   1       2.236  -3.317   2.053  0.00  0.00    -0.074 A 
ATOM      7  C6  UNL d   1       2.929  -4.621   2.316  0.00  0.00     0.077 C 
ATOM      8  C7  UNL d   1       1.506  -3.140   0.869  0.00  0.00    -0.001 A 
ENDROOT
TORSDOF 0
ENDMDL
