MODEL 1
REMARK minimizedAffinity 11.3866663
REMARK minimizedRMSD -1
REMARK  0 active torsions:
REMARK  status: ('A' for Active; 'I' for Inactive)
ROOT
ATOM      1  C   UNL d   1      -5.960   2.627  -1.812  0.00  0.00     0.077 C 
ATOM      2  C1  UNL d   1      -5.077   2.864  -0.623  0.00  0.00    -0.074 A 
ATOM      3  C2  UNL d   1      -3.767   2.374  -0.591  0.00  0.00    -0.005 A 
ATOM      4  C3  UNL d   1      -2.955   2.610   0.517  0.00  0.00     0.006 A 
ATOM      5  C4  UNL d   1      -3.442   3.339   1.603  0.00  0.00    -0.005 A 
ATOM      6  C5  UNL d   1      -4.748   3.838   1.589  0.00  0.00    -0.074 A 
ATOM      7  C6  UNL d   1      -5.285   4.631   2.743  0.00  0.00     0.077 C 
ATOM      8  C7  UNL d   1      -5.557   3.601   0.468  0.00  0.00    -0.001 A 
ENDROOT
TORSDOF 0
ENDMDL
