MODEL 1
REMARK minimizedAffinity -0.52629149
REMARK minimizedRMSD -1
REMARK  0 active torsions:
REMARK  status: ('A' for Active; 'I' for Inactive)
ROOT
ATOM      1  C   UNL d   1       2.005  -0.012   2.253  0.00  0.00     0.077 C 
ATOM      2  C1  UNL d   1       2.582  -1.097   3.113  0.00  0.00    -0.074 A 
ATOM      3  C2  UNL d   1       1.761  -1.877   3.934  0.00  0.00    -0.005 A 
ATOM      4  C3  UNL d   1       2.312  -2.889   4.721  0.00  0.00     0.006 A 
ATOM      5  C4  UNL d   1       3.686  -3.131   4.695  0.00  0.00    -0.005 A 
ATOM      6  C5  UNL d   1       4.522  -2.362   3.879  0.00  0.00    -0.074 A 
ATOM      7  C6  UNL d   1       5.999  -2.616   3.831  0.00  0.00     0.077 C 
ATOM      8  C7  UNL d   1       3.961  -1.352   3.086  0.00  0.00    -0.001 A 
ENDROOT
TORSDOF 0
ENDMDL
