MODEL 1
REMARK minimizedAffinity 2.51529002
REMARK minimizedRMSD -1
REMARK  0 active torsions:
REMARK  status: ('A' for Active; 'I' for Inactive)
ROOT
ATOM      1  C   UNL d   1       5.995  -2.301   5.663  0.00  0.00     0.077 C 
ATOM      2  C1  UNL d   1       4.563  -2.288   5.220  0.00  0.00    -0.074 A 
ATOM      3  C2  UNL d   1       3.576  -2.951   5.958  0.00  0.00    -0.005 A 
ATOM      4  C3  UNL d   1       2.246  -2.922   5.539  0.00  0.00     0.006 A 
ATOM      5  C4  UNL d   1       1.890  -2.232   4.379  0.00  0.00    -0.005 A 
ATOM      6  C5  UNL d   1       2.862  -1.562   3.630  0.00  0.00    -0.074 A 
ATOM      7  C6  UNL d   1       2.495  -0.807   2.387  0.00  0.00     0.077 C 
ATOM      8  C7  UNL d   1       4.195  -1.590   4.061  0.00  0.00    -0.001 A 
ENDROOT
TORSDOF 0
ENDMDL
