MODEL 1
REMARK minimizedAffinity 0.489500135
REMARK minimizedRMSD -1
REMARK  0 active torsions:
REMARK  status: ('A' for Active; 'I' for Inactive)
ROOT
ATOM      1  C   UNL d   1       5.997  -2.161   4.649  0.00  0.00     0.077 C 
ATOM      2  C1  UNL d   1       4.509  -2.188   4.464  0.00  0.00    -0.074 A 
ATOM      3  C2  UNL d   1       3.710  -3.078   5.189  0.00  0.00    -0.005 A 
ATOM      4  C3  UNL d   1       2.327  -3.084   5.013  0.00  0.00     0.006 A 
ATOM      5  C4  UNL d   1       1.729  -2.202   4.112  0.00  0.00    -0.005 A 
ATOM      6  C5  UNL d   1       2.511  -1.305   3.379  0.00  0.00    -0.074 A 
ATOM      7  C6  UNL d   1       1.884  -0.343   2.414  0.00  0.00     0.077 C 
ATOM      8  C7  UNL d   1       3.900  -1.299   3.567  0.00  0.00    -0.001 A 
ENDROOT
TORSDOF 0
ENDMDL
