MODEL 1
REMARK minimizedAffinity 2.10477471
REMARK minimizedRMSD -1
REMARK  0 active torsions:
REMARK  status: ('A' for Active; 'I' for Inactive)
ROOT
ATOM      1  C   UNL d   1       6.000  -3.501   6.000  0.00  0.00     0.077 C 
ATOM      2  C1  UNL d   1       5.288  -2.707   4.945  0.00  0.00    -0.074 A 
ATOM      3  C2  UNL d   1       6.000  -2.065   3.926  0.00  0.00    -0.005 A 
ATOM      4  C3  UNL d   1       5.324  -1.339   2.946  0.00  0.00     0.006 A 
ATOM      5  C4  UNL d   1       3.932  -1.247   2.974  0.00  0.00    -0.005 A 
ATOM      6  C5  UNL d   1       3.203  -1.882   3.985  0.00  0.00    -0.074 A 
ATOM      7  C6  UNL d   1       1.706  -1.802   4.025  0.00  0.00     0.077 C 
ATOM      8  C7  UNL d   1       3.889  -2.617   4.962  0.00  0.00    -0.001 A 
ENDROOT
TORSDOF 0
ENDMDL
