MODEL 1
REMARK minimizedAffinity 6.92605734
REMARK minimizedRMSD -1
REMARK  0 active torsions:
REMARK  status: ('A' for Active; 'I' for Inactive)
ROOT
ATOM      1  C   UNL d   1      -5.999   3.606  -4.792  0.00  0.00     0.077 C 
ATOM      2  C1  UNL d   1      -5.973   2.190  -4.299  0.00  0.00    -0.074 A 
ATOM      3  C2  UNL d   1      -5.987   1.904  -2.930  0.00  0.00    -0.005 A 
ATOM      4  C3  UNL d   1      -5.972   0.582  -2.488  0.00  0.00     0.006 A 
ATOM      5  C4  UNL d   1      -5.941  -0.467  -3.408  0.00  0.00    -0.005 A 
ATOM      6  C5  UNL d   1      -5.927  -0.201  -4.781  0.00  0.00    -0.074 A 
ATOM      7  C6  UNL d   1      -5.904  -1.316  -5.783  0.00  0.00     0.077 C 
ATOM      8  C7  UNL d   1      -5.950   1.131  -5.218  0.00  0.00    -0.001 A 
ENDROOT
TORSDOF 0
ENDMDL
