MODEL 1
REMARK minimizedAffinity 4.73106956
REMARK minimizedRMSD -1
REMARK  1 active torsions:
REMARK  status: ('A' for Active; 'I' for Inactive)
REMARK    1  A    between atoms: C1_2  and  C2_3 
ROOT
ATOM      1  C2  UNL d   1       2.026  -3.985   0.591  0.00  0.00    -0.077 A 
ATOM      2  C3  UNL d   1       3.191  -3.342   1.032  0.00  0.00     0.002 A 
ATOM      3  C4  UNL d   1       3.188  -1.968   1.280  0.00  0.00     0.002 A 
ATOM      4  C5  UNL d   1       2.022  -1.228   1.095  0.00  0.00    -0.004 A 
ATOM      5  C6  UNL d   1       0.859  -1.858   0.655  0.00  0.00     0.002 A 
ATOM      6  C7  UNL d   1       0.860  -3.231   0.405  0.00  0.00     0.002 A 
ENDROOT
BRANCH   1   7
ATOM      7  C1  UNL d   1       2.014  -5.475   0.369  0.00  0.00     0.055 C 
ATOM      8  C   UNL d   1       3.406  -5.998   0.044  0.00  0.00     0.019 C 
ENDBRANCH   1   7
TORSDOF 1
ENDMDL
