MODEL 1
REMARK minimizedAffinity 4.58056879
REMARK minimizedRMSD -1
REMARK  1 active torsions:
REMARK  status: ('A' for Active; 'I' for Inactive)
REMARK    1  A    between atoms: C1_2  and  C2_3 
ROOT
ATOM      1  C2  UNL d   1       2.805   4.808  -5.933  0.00  0.00    -0.077 A 
ATOM      2  C3  UNL d   1       3.490   3.585  -5.897  0.00  0.00     0.002 A 
ATOM      3  C4  UNL d   1       4.886   3.558  -5.888  0.00  0.00     0.002 A 
ATOM      4  C5  UNL d   1       5.608   4.750  -5.910  0.00  0.00    -0.004 A 
ATOM      5  C6  UNL d   1       4.935   5.971  -5.947  0.00  0.00     0.002 A 
ATOM      6  C7  UNL d   1       3.540   6.000  -5.958  0.00  0.00     0.002 A 
ENDROOT
BRANCH   1   7
ATOM      7  C1  UNL d   1       1.299   4.841  -5.894  0.00  0.00     0.055 C 
ATOM      8  C   UNL d   1       0.752   3.892  -4.837  0.00  0.00     0.019 C 
ENDBRANCH   1   7
TORSDOF 1
ENDMDL
