MODEL 1
REMARK minimizedAffinity 9.29409695
REMARK minimizedRMSD -1
REMARK  1 active torsions:
REMARK  status: ('A' for Active; 'I' for Inactive)
REMARK    1  A    between atoms: C1_2  and  C2_3 
ROOT
ATOM      1  C2  UNL d   1      -2.562   0.770  -2.260  0.00  0.00    -0.077 A 
ATOM      2  C3  UNL d   1      -1.492   0.115  -1.635  0.00  0.00     0.002 A 
ATOM      3  C4  UNL d   1      -1.728  -0.946  -0.758  0.00  0.00     0.002 A 
ATOM      4  C5  UNL d   1      -3.032  -1.364  -0.503  0.00  0.00    -0.004 A 
ATOM      5  C6  UNL d   1      -4.103  -0.718  -1.118  0.00  0.00     0.002 A 
ATOM      6  C7  UNL d   1      -3.869   0.344  -1.994  0.00  0.00     0.002 A 
ENDROOT
BRANCH   1   7
ATOM      7  C1  UNL d   1      -2.307   1.882  -3.243  0.00  0.00     0.055 C 
ATOM      8  C   UNL d   1      -1.191   2.799  -2.764  0.00  0.00     0.019 C 
ENDBRANCH   1   7
TORSDOF 1
ENDMDL
