MODEL 1
REMARK minimizedAffinity 1.52627099
REMARK minimizedRMSD -1
REMARK  1 active torsions:
REMARK  status: ('A' for Active; 'I' for Inactive)
REMARK    1  A    between atoms: C1_2  and  C2_3 
ROOT
ATOM      1  C2  UNL d   1      -3.834   1.232  -3.786  0.00  0.00    -0.077 A 
ATOM      2  C3  UNL d   1      -4.071   0.530  -2.596  0.00  0.00     0.002 A 
ATOM      3  C4  UNL d   1      -3.327   0.812  -1.449  0.00  0.00     0.002 A 
ATOM      4  C5  UNL d   1      -2.344   1.799  -1.479  0.00  0.00    -0.004 A 
ATOM      5  C6  UNL d   1      -2.099   2.502  -2.658  0.00  0.00     0.002 A 
ATOM      6  C7  UNL d   1      -2.841   2.220  -3.806  0.00  0.00     0.002 A 
ENDROOT
BRANCH   1   7
ATOM      7  C1  UNL d   1      -4.668   0.963  -5.011  0.00  0.00     0.055 C 
ATOM      8  C   UNL d   1      -5.981   0.284  -4.648  0.00  0.00     0.019 C 
ENDBRANCH   1   7
TORSDOF 1
ENDMDL
