MODEL 1
REMARK minimizedAffinity 4.41962862
REMARK minimizedRMSD -1
REMARK  0 active torsions:
REMARK  status: ('A' for Active; 'I' for Inactive)
ROOT
ATOM      1  C   UNL d   1       1.591  -0.243   0.653  0.00  0.00     0.020 A 
ATOM      2  C1  UNL d   1       0.728  -1.238   0.197  0.00  0.00     0.020 A 
ATOM      3  C2  UNL d   1      -0.595  -1.274   0.644  0.00  0.00     0.034 A 
ATOM      4  C3  UNL d   1      -1.058  -0.314   1.550  0.00  0.00     0.017 A 
ATOM      5  C4  UNL d   1      -0.191   0.685   2.008  0.00  0.00     0.017 A 
ATOM      6  C5  UNL d   1       1.133   0.717   1.557  0.00  0.00     0.034 A 
ATOM      7 Cl   UNL d   1      -0.689   1.904   3.127  0.00  0.00    -0.070 Cl
ATOM      8 Cl1  UNL d   1      -2.705  -0.419   2.061  0.00  0.00    -0.070 Cl
ENDROOT
TORSDOF 0
ENDMDL
