MODEL 1
REMARK minimizedAffinity -1.44884765
REMARK minimizedRMSD -1
REMARK  0 active torsions:
REMARK  status: ('A' for Active; 'I' for Inactive)
ROOT
ATOM      1  C   UNL d   1       0.232   0.330   2.054  0.00  0.00     0.020 A 
ATOM      2  C1  UNL d   1      -0.297   1.620   2.073  0.00  0.00     0.020 A 
ATOM      3  C2  UNL d   1      -0.546   2.290   0.873  0.00  0.00     0.034 A 
ATOM      4  C3  UNL d   1      -0.265   1.671  -0.351  0.00  0.00     0.017 A 
ATOM      5  C4  UNL d   1       0.267   0.376  -0.368  0.00  0.00     0.017 A 
ATOM      6  C5  UNL d   1       0.513  -0.290   0.836  0.00  0.00     0.034 A 
ATOM      7 Cl   UNL d   1       0.639  -0.453  -1.838  0.00  0.00    -0.070 Cl
ATOM      8 Cl1  UNL d   1      -0.597   2.559  -1.795  0.00  0.00    -0.070 Cl
ENDROOT
TORSDOF 0
ENDMDL
