MODEL 1
REMARK minimizedAffinity -1.36282337
REMARK minimizedRMSD -1
REMARK  0 active torsions:
REMARK  status: ('A' for Active; 'I' for Inactive)
ROOT
ATOM      1  C   UNL d   1       0.379   0.830   1.867  0.00  0.00     0.020 A 
ATOM      2  C1  UNL d   1       0.483  -0.257   1.001  0.00  0.00     0.020 A 
ATOM      3  C2  UNL d   1       0.497  -0.051  -0.380  0.00  0.00     0.034 A 
ATOM      4  C3  UNL d   1       0.407   1.245  -0.899  0.00  0.00     0.017 A 
ATOM      5  C4  UNL d   1       0.303   2.337  -0.029  0.00  0.00     0.017 A 
ATOM      6  C5  UNL d   1       0.290   2.125   1.353  0.00  0.00     0.034 A 
ATOM      7 Cl   UNL d   1       0.188   3.966  -0.595  0.00  0.00    -0.070 Cl
ATOM      8 Cl1  UNL d   1       0.430   1.426  -2.617  0.00  0.00    -0.070 Cl
ENDROOT
TORSDOF 0
ENDMDL
