MODEL 1
REMARK minimizedAffinity -2.76892924
REMARK minimizedRMSD -1
REMARK  0 active torsions:
REMARK  status: ('A' for Active; 'I' for Inactive)
ROOT
ATOM      1  C   UNL d   1       0.050   0.349  -1.033  0.00  0.00     0.020 A 
ATOM      2  C1  UNL d   1       0.832  -0.411  -0.165  0.00  0.00     0.020 A 
ATOM      3  C2  UNL d   1       0.680  -1.798  -0.121  0.00  0.00     0.034 A 
ATOM      4  C3  UNL d   1      -0.257  -2.430  -0.947  0.00  0.00     0.017 A 
ATOM      5  C4  UNL d   1      -1.042  -1.666  -1.819  0.00  0.00     0.017 A 
ATOM      6  C5  UNL d   1      -0.885  -0.277  -1.858  0.00  0.00     0.034 A 
ATOM      7 Cl   UNL d   1      -2.219  -2.373  -2.868  0.00  0.00    -0.070 Cl
ATOM      8 Cl1  UNL d   1      -0.392  -4.149  -0.841  0.00  0.00    -0.070 Cl
ENDROOT
TORSDOF 0
ENDMDL
