MODEL 1
REMARK minimizedAffinity -3.30977154
REMARK minimizedRMSD -1
REMARK  0 active torsions:
REMARK  status: ('A' for Active; 'I' for Inactive)
ROOT
ATOM      1  C   UNL d   1      -0.001   0.434   1.544  0.00  0.00     0.020 A 
ATOM      2  C1  UNL d   1      -0.684  -0.746   1.834  0.00  0.00     0.020 A 
ATOM      3  C2  UNL d   1      -1.024  -1.627   0.805  0.00  0.00     0.034 A 
ATOM      4  C3  UNL d   1      -0.682  -1.329  -0.519  0.00  0.00     0.017 A 
ATOM      5  C4  UNL d   1       0.004  -0.144  -0.809  0.00  0.00     0.017 A 
ATOM      6  C5  UNL d   1       0.342   0.734   0.225  0.00  0.00     0.034 A 
ATOM      7 Cl   UNL d   1       0.461   0.292  -2.418  0.00  0.00    -0.070 Cl
ATOM      8 Cl1  UNL d   1      -1.133  -2.464  -1.741  0.00  0.00    -0.070 Cl
ENDROOT
TORSDOF 0
ENDMDL
