MODEL 1
REMARK minimizedAffinity -5.3053093
REMARK minimizedRMSD -1
REMARK  0 active torsions:
REMARK  status: ('A' for Active; 'I' for Inactive)
ROOT
ATOM      1  C   UNL d   1      -1.096   2.945   1.517  0.00  0.00     0.020 A 
ATOM      2  C1  UNL d   1      -1.506   2.750   0.199  0.00  0.00     0.020 A 
ATOM      3  C2  UNL d   1      -0.988   1.686  -0.543  0.00  0.00     0.034 A 
ATOM      4  C3  UNL d   1      -0.057   0.814   0.032  0.00  0.00     0.017 A 
ATOM      5  C4  UNL d   1       0.354   1.011   1.356  0.00  0.00     0.017 A 
ATOM      6  C5  UNL d   1      -0.168   2.077   2.094  0.00  0.00     0.034 A 
ATOM      7 Cl   UNL d   1       1.499  -0.024   2.134  0.00  0.00    -0.070 Cl
ATOM      8 Cl1  UNL d   1       0.541  -0.481  -0.943  0.00  0.00    -0.070 Cl
ENDROOT
TORSDOF 0
ENDMDL
