MODEL 1
REMARK minimizedAffinity -3.06307173
REMARK minimizedRMSD -1
REMARK  0 active torsions:
REMARK  status: ('A' for Active; 'I' for Inactive)
ROOT
ATOM      1  C   UNL d   1      -0.398   1.861   2.283  0.00  0.00     0.020 A 
ATOM      2  C1  UNL d   1      -0.659   3.078   1.654  0.00  0.00     0.020 A 
ATOM      3  C2  UNL d   1      -0.704   3.149   0.260  0.00  0.00     0.034 A 
ATOM      4  C3  UNL d   1      -0.489   2.000  -0.510  0.00  0.00     0.017 A 
ATOM      5  C4  UNL d   1      -0.227   0.779   0.122  0.00  0.00     0.017 A 
ATOM      6  C5  UNL d   1      -0.183   0.714   1.518  0.00  0.00     0.034 A 
ATOM      7 Cl   UNL d   1       0.049  -0.681  -0.762  0.00  0.00    -0.070 Cl
ATOM      8 Cl1  UNL d   1      -0.560   2.161  -2.229  0.00  0.00    -0.070 Cl
ENDROOT
TORSDOF 0
ENDMDL
