MODEL 1
REMARK minimizedAffinity -0.602048337
REMARK minimizedRMSD -1
REMARK  1 active torsions:
REMARK  status: ('A' for Active; 'I' for Inactive)
REMARK    1  A    between atoms: C1_2  and  C2_3 
ROOT
ATOM      1  C2  UNL d   1       3.688   5.291   0.058  0.00  0.00    -0.076 A 
ATOM      2  C3  UNL d   1       4.876   5.657  -0.600  0.00  0.00     0.004 A 
ATOM      3  C4  UNL d   1       4.871   6.000  -1.951  0.00  0.00    -0.003 A 
ATOM      4  C5  UNL d   1       3.679   5.983  -2.666  0.00  0.00     0.000 A 
ATOM      5  C6  UNL d   1       2.489   5.640  -2.025  0.00  0.00     0.000 A 
ATOM      6  C7  UNL d   1       2.473   5.308  -0.660  0.00  0.00    -0.073 A 
ATOM      7  C8  UNL d   1       1.162   4.939  -0.021  0.00  0.00     0.078 C 
ENDROOT
BRANCH   1   8
ATOM      8  C1  UNL d   1       3.759   4.903   1.517  0.00  0.00     0.053 C 
ATOM      9  C   UNL d   1       5.087   5.279   2.157  0.00  0.00     0.018 C 
ENDBRANCH   1   8
TORSDOF 1
ENDMDL
