MODEL 1
REMARK minimizedAffinity 15.3509884
REMARK minimizedRMSD -1
REMARK  1 active torsions:
REMARK  status: ('A' for Active; 'I' for Inactive)
REMARK    1  A    between atoms: C1_2  and  C2_3 
ROOT
ATOM      1  C2  UNL d   1       1.984  -5.441   2.195  0.00  0.00    -0.076 A 
ATOM      2  C3  UNL d   1       0.778  -5.527   2.912  0.00  0.00     0.004 A 
ATOM      3  C4  UNL d   1      -0.424  -5.804   2.264  0.00  0.00    -0.003 A 
ATOM      4  C5  UNL d   1      -0.440  -6.000   0.887  0.00  0.00     0.000 A 
ATOM      5  C6  UNL d   1       0.750  -5.935   0.162  0.00  0.00     0.000 A 
ATOM      6  C7  UNL d   1       1.973  -5.673   0.803  0.00  0.00    -0.073 A 
ATOM      7  C8  UNL d   1       3.224  -5.609  -0.028  0.00  0.00     0.078 C 
ENDROOT
BRANCH   1   8
ATOM      8  C1  UNL d   1       3.253  -5.111   2.949  0.00  0.00     0.053 C 
ATOM      9  C   UNL d   1       3.263  -5.691   4.354  0.00  0.00     0.018 C 
ENDBRANCH   1   8
TORSDOF 1
ENDMDL
