MODEL 1
REMARK minimizedAffinity 4.71724749
REMARK minimizedRMSD -1
REMARK  1 active torsions:
REMARK  status: ('A' for Active; 'I' for Inactive)
REMARK    1  A    between atoms: C1_2  and  C2_3 
ROOT
ATOM      1  C2  UNL d   1       1.604  -0.261  -2.594  0.00  0.00    -0.076 A 
ATOM      2  C3  UNL d   1       1.776   0.580  -1.481  0.00  0.00     0.004 A 
ATOM      3  C4  UNL d   1       1.642   1.962  -1.598  0.00  0.00    -0.003 A 
ATOM      4  C5  UNL d   1       1.334   2.526  -2.832  0.00  0.00     0.000 A 
ATOM      5  C6  UNL d   1       1.143   1.706  -3.943  0.00  0.00     0.000 A 
ATOM      6  C7  UNL d   1       1.258   0.309  -3.838  0.00  0.00    -0.073 A 
ATOM      7  C8  UNL d   1       1.048  -0.527  -5.070  0.00  0.00     0.078 C 
ENDROOT
BRANCH   1   8
ATOM      8  C1  UNL d   1       1.789  -1.751  -2.412  0.00  0.00     0.053 C 
ATOM      9  C   UNL d   1       2.477  -2.097  -1.100  0.00  0.00     0.018 C 
ENDBRANCH   1   8
TORSDOF 1
ENDMDL
