MODEL 1
REMARK minimizedAffinity 2.47084427
REMARK minimizedRMSD -1
REMARK  1 active torsions:
REMARK  status: ('A' for Active; 'I' for Inactive)
REMARK    1  A    between atoms: C1_2  and  C2_3 
ROOT
ATOM      1  C2  UNL d   1       1.288   1.283  -0.014  0.00  0.00    -0.076 A 
ATOM      2  C3  UNL d   1       2.253   0.690  -0.846  0.00  0.00     0.004 A 
ATOM      3  C4  UNL d   1       2.145   0.760  -2.234  0.00  0.00    -0.003 A 
ATOM      4  C5  UNL d   1       1.070   1.425  -2.812  0.00  0.00     0.000 A 
ATOM      5  C6  UNL d   1       0.112   2.034  -2.003  0.00  0.00     0.000 A 
ATOM      6  C7  UNL d   1       0.215   1.987  -0.602  0.00  0.00    -0.073 A 
ATOM      7  C8  UNL d   1      -0.850   2.656   0.223  0.00  0.00     0.078 C 
ENDROOT
BRANCH   1   8
ATOM      8  C1  UNL d   1       1.443   1.152   1.484  0.00  0.00     0.053 C 
ATOM      9  C   UNL d   1       2.830   1.551   1.964  0.00  0.00     0.018 C 
ENDBRANCH   1   8
TORSDOF 1
ENDMDL
