MODEL 1
REMARK minimizedAffinity 10.7079601
REMARK minimizedRMSD -1
REMARK  1 active torsions:
REMARK  status: ('A' for Active; 'I' for Inactive)
REMARK    1  A    between atoms: C1_2  and  C2_3 
ROOT
ATOM      1  C2  UNL d   1       0.416   0.277  -1.171  0.00  0.00    -0.076 A 
ATOM      2  C3  UNL d   1      -0.678   0.762  -0.435  0.00  0.00     0.004 A 
ATOM      3  C4  UNL d   1      -0.522   1.800   0.482  0.00  0.00    -0.003 A 
ATOM      4  C5  UNL d   1       0.731   2.370   0.678  0.00  0.00     0.000 A 
ATOM      5  C6  UNL d   1       1.825   1.913  -0.057  0.00  0.00     0.000 A 
ATOM      6  C7  UNL d   1       1.681   0.878  -0.998  0.00  0.00    -0.073 A 
ATOM      7  C8  UNL d   1       2.896   0.420  -1.758  0.00  0.00     0.078 C 
ENDROOT
BRANCH   1   8
ATOM      8  C1  UNL d   1       0.192  -0.869  -2.132  0.00  0.00     0.053 C 
ATOM      9  C   UNL d   1      -1.024  -1.707  -1.766  0.00  0.00     0.018 C 
ENDBRANCH   1   8
TORSDOF 1
ENDMDL
