MODEL 1
REMARK minimizedAffinity 8.20391369
REMARK minimizedRMSD -1
REMARK  1 active torsions:
REMARK  status: ('A' for Active; 'I' for Inactive)
REMARK    1  A    between atoms: C1_2  and  C2_3 
ROOT
ATOM      1  C2  UNL d   1       1.241  -0.719  -2.386  0.00  0.00    -0.076 A 
ATOM      2  C3  UNL d   1       1.109  -1.770  -3.310  0.00  0.00     0.004 A 
ATOM      3  C4  UNL d   1       1.149  -1.528  -4.682  0.00  0.00    -0.003 A 
ATOM      4  C5  UNL d   1       1.321  -0.230  -5.152  0.00  0.00     0.000 A 
ATOM      5  C6  UNL d   1       1.471   0.822  -4.249  0.00  0.00     0.000 A 
ATOM      6  C7  UNL d   1       1.450   0.592  -2.863  0.00  0.00    -0.073 A 
ATOM      7  C8  UNL d   1       1.610   1.765  -1.935  0.00  0.00     0.078 C 
ENDROOT
BRANCH   1   8
ATOM      8  C1  UNL d   1       1.163  -1.039  -0.910  0.00  0.00     0.053 C 
ATOM      9  C   UNL d   1       1.566  -2.473  -0.602  0.00  0.00     0.018 C 
ENDBRANCH   1   8
TORSDOF 1
ENDMDL
