MODEL 1
REMARK minimizedAffinity -0.197696507
REMARK minimizedRMSD -1
REMARK  1 active torsions:
REMARK  status: ('A' for Active; 'I' for Inactive)
REMARK    1  A    between atoms: C1_2  and  C2_3 
ROOT
ATOM      1  C2  UNL d   1       0.786  -0.953  -0.876  0.00  0.00    -0.076 A 
ATOM      2  C3  UNL d   1       0.847  -1.906   0.157  0.00  0.00     0.004 A 
ATOM      3  C4  UNL d   1       1.919  -2.791   0.254  0.00  0.00    -0.003 A 
ATOM      4  C5  UNL d   1       2.948  -2.738  -0.679  0.00  0.00     0.000 A 
ATOM      5  C6  UNL d   1       2.913  -1.788  -1.700  0.00  0.00     0.000 A 
ATOM      6  C7  UNL d   1       1.848  -0.877  -1.802  0.00  0.00    -0.073 A 
ATOM      7  C8  UNL d   1       1.858   0.122  -2.926  0.00  0.00     0.078 C 
ENDROOT
BRANCH   1   8
ATOM      8  C1  UNL d   1      -0.415  -0.037  -0.946  0.00  0.00     0.053 C 
ATOM      9  C   UNL d   1      -0.058   1.414  -0.661  0.00  0.00     0.018 C 
ENDBRANCH   1   8
TORSDOF 1
ENDMDL
