MODEL 1
REMARK minimizedAffinity 10.0672007
REMARK minimizedRMSD -1
REMARK  1 active torsions:
REMARK  status: ('A' for Active; 'I' for Inactive)
REMARK    1  A    between atoms: C1_2  and  C2_3 
ROOT
ATOM      1  C2  UNL d   1       0.142  -1.303  -1.220  0.00  0.00    -0.076 A 
ATOM      2  C3  UNL d   1      -0.170  -1.838  -2.482  0.00  0.00     0.004 A 
ATOM      3  C4  UNL d   1       0.828  -2.350  -3.310  0.00  0.00    -0.003 A 
ATOM      4  C5  UNL d   1       2.153  -2.336  -2.889  0.00  0.00     0.000 A 
ATOM      5  C6  UNL d   1       2.478  -1.824  -1.633  0.00  0.00     0.000 A 
ATOM      6  C7  UNL d   1       1.482  -1.319  -0.780  0.00  0.00    -0.073 A 
ATOM      7  C8  UNL d   1       1.890  -0.774   0.562  0.00  0.00     0.078 C 
ENDROOT
BRANCH   1   8
ATOM      8  C1  UNL d   1      -0.979  -0.737  -0.377  0.00  0.00     0.053 C 
ATOM      9  C   UNL d   1      -2.349  -0.971  -0.996  0.00  0.00     0.018 C 
ENDBRANCH   1   8
TORSDOF 1
ENDMDL
