MODEL 1
REMARK minimizedAffinity 10.8503542
REMARK minimizedRMSD -1
REMARK  1 active torsions:
REMARK  status: ('A' for Active; 'I' for Inactive)
REMARK    1  A    between atoms: C1_2  and  C2_3 
ROOT
ATOM      1  C2  UNL d   1       0.223  -0.329  -0.905  0.00  0.00    -0.076 A 
ATOM      2  C3  UNL d   1       0.216  -1.702  -0.605  0.00  0.00     0.004 A 
ATOM      3  C4  UNL d   1       1.359  -2.481  -0.781  0.00  0.00    -0.003 A 
ATOM      4  C5  UNL d   1       2.528  -1.899  -1.260  0.00  0.00     0.000 A 
ATOM      5  C6  UNL d   1       2.557  -0.534  -1.546  0.00  0.00     0.000 A 
ATOM      6  C7  UNL d   1       1.419   0.268  -1.359  0.00  0.00    -0.073 A 
ATOM      7  C8  UNL d   1       1.506   1.733  -1.690  0.00  0.00     0.078 C 
ENDROOT
BRANCH   1   8
ATOM      8  C1  UNL d   1      -1.054   0.459  -0.720  0.00  0.00     0.053 C 
ATOM      9  C   UNL d   1      -2.282  -0.433  -0.638  0.00  0.00     0.018 C 
ENDBRANCH   1   8
TORSDOF 1
ENDMDL
