MODEL 1
REMARK minimizedAffinity 13.3238869
REMARK minimizedRMSD -1
REMARK  1 active torsions:
REMARK  status: ('A' for Active; 'I' for Inactive)
REMARK    1  A    between atoms: C1_2  and  C2_3 
ROOT
ATOM      1  C2  UNL d   1       0.452   2.265  -0.374  0.00  0.00    -0.076 A 
ATOM      2  C3  UNL d   1       1.782   1.820  -0.469  0.00  0.00     0.004 A 
ATOM      3  C4  UNL d   1       2.628   1.846   0.638  0.00  0.00    -0.003 A 
ATOM      4  C5  UNL d   1       2.158   2.317   1.859  0.00  0.00     0.000 A 
ATOM      5  C6  UNL d   1       0.836   2.746   1.976  0.00  0.00     0.000 A 
ATOM      6  C7  UNL d   1      -0.035   2.711   0.873  0.00  0.00    -0.073 A 
ATOM      7  C8  UNL d   1      -1.448   3.191   1.055  0.00  0.00     0.078 C 
ENDROOT
BRANCH   1   8
ATOM      8  C1  UNL d   1      -0.411   2.239  -1.615  0.00  0.00     0.053 C 
ATOM      9  C   UNL d   1       0.014   3.278  -2.642  0.00  0.00     0.018 C 
ENDBRANCH   1   8
TORSDOF 1
ENDMDL
