MODEL 1
REMARK minimizedAffinity 7.53842831
REMARK minimizedRMSD -1
REMARK  1 active torsions:
REMARK  status: ('A' for Active; 'I' for Inactive)
REMARK    1  A    between atoms: C1_2  and  C2_3 
ROOT
ATOM      1  C2  UNL d   1       0.992  -0.418  -0.885  0.00  0.00    -0.076 A 
ATOM      2  C3  UNL d   1       1.112  -0.931   0.418  0.00  0.00     0.004 A 
ATOM      3  C4  UNL d   1       1.815  -2.110   0.662  0.00  0.00    -0.003 A 
ATOM      4  C5  UNL d   1       2.410  -2.794  -0.392  0.00  0.00     0.000 A 
ATOM      5  C6  UNL d   1       2.316  -2.289  -1.689  0.00  0.00     0.000 A 
ATOM      6  C7  UNL d   1       1.625  -1.093  -1.950  0.00  0.00    -0.073 A 
ATOM      7  C8  UNL d   1       1.550  -0.598  -3.368  0.00  0.00     0.078 C 
ENDROOT
BRANCH   1   8
ATOM      8  C1  UNL d   1       0.195   0.850  -1.093  0.00  0.00     0.053 C 
ATOM      9  C   UNL d   1       0.951   2.093  -0.651  0.00  0.00     0.018 C 
ENDBRANCH   1   8
TORSDOF 1
ENDMDL
