MODEL 1
REMARK minimizedAffinity -1.09431434
REMARK minimizedRMSD -1
REMARK  1 active torsions:
REMARK  status: ('A' for Active; 'I' for Inactive)
REMARK    1  A    between atoms: C1_2  and  C2_3 
ROOT
ATOM      1  C2  UNL d   1       0.491   0.029  -1.308  0.00  0.00    -0.076 A 
ATOM      2  C3  UNL d   1       1.742   0.177  -1.931  0.00  0.00     0.004 A 
ATOM      3  C4  UNL d   1       2.645  -0.883  -1.990  0.00  0.00    -0.003 A 
ATOM      4  C5  UNL d   1       2.311  -2.110  -1.427  0.00  0.00     0.000 A 
ATOM      5  C6  UNL d   1       1.067  -2.280  -0.820  0.00  0.00     0.000 A 
ATOM      6  C7  UNL d   1       0.139  -1.226  -0.766  0.00  0.00    -0.073 A 
ATOM      7  C8  UNL d   1      -1.185  -1.464  -0.094  0.00  0.00     0.078 C 
ENDROOT
BRANCH   1   8
ATOM      8  C1  UNL d   1      -0.436   1.222  -1.250  0.00  0.00     0.053 C 
ATOM      9  C   UNL d   1       0.175   2.465  -1.880  0.00  0.00     0.018 C 
ENDBRANCH   1   8
TORSDOF 1
ENDMDL
