MODEL 1
REMARK minimizedAffinity -1.01179421
REMARK minimizedRMSD -1
REMARK  1 active torsions:
REMARK  status: ('A' for Active; 'I' for Inactive)
REMARK    1  A    between atoms: C1_2  and  C2_3 
ROOT
ATOM      1  C2  UNL d   1       1.727  -2.333  -0.338  0.00  0.00    -0.076 A 
ATOM      2  C3  UNL d   1       3.125  -2.283  -0.480  0.00  0.00     0.004 A 
ATOM      3  C4  UNL d   1       3.732  -1.306  -1.267  0.00  0.00    -0.003 A 
ATOM      4  C5  UNL d   1       2.950  -0.363  -1.926  0.00  0.00     0.000 A 
ATOM      5  C6  UNL d   1       1.563  -0.387  -1.782  0.00  0.00     0.000 A 
ATOM      6  C7  UNL d   1       0.937  -1.355  -0.979  0.00  0.00    -0.073 A 
ATOM      7  C8  UNL d   1      -0.563  -1.338  -0.864  0.00  0.00     0.078 C 
ENDROOT
BRANCH   1   8
ATOM      8  C1  UNL d   1       1.124  -3.432   0.508  0.00  0.00     0.053 C 
ATOM      9  C   UNL d   1       2.068  -4.611   0.691  0.00  0.00     0.018 C 
ENDBRANCH   1   8
TORSDOF 1
ENDMDL
