MODEL 1
REMARK minimizedAffinity 5.74108648
REMARK minimizedRMSD -1
REMARK  1 active torsions:
REMARK  status: ('A' for Active; 'I' for Inactive)
REMARK    1  A    between atoms: C1_2  and  C2_3 
ROOT
ATOM      1  C2  UNL d   1       1.883   0.333  -1.906  0.00  0.00    -0.076 A 
ATOM      2  C3  UNL d   1       1.071  -0.460  -1.076  0.00  0.00     0.004 A 
ATOM      3  C4  UNL d   1       1.406  -1.784  -0.797  0.00  0.00    -0.003 A 
ATOM      4  C5  UNL d   1       2.559  -2.337  -1.343  0.00  0.00     0.000 A 
ATOM      5  C6  UNL d   1       3.385  -1.560  -2.155  0.00  0.00     0.000 A 
ATOM      6  C7  UNL d   1       3.070  -0.219  -2.433  0.00  0.00    -0.073 A 
ATOM      7  C8  UNL d   1       3.994   0.571  -3.319  0.00  0.00     0.078 C 
ENDROOT
BRANCH   1   8
ATOM      8  C1  UNL d   1       1.454   1.754  -2.195  0.00  0.00     0.053 C 
ATOM      9  C   UNL d   1       0.433   2.270  -1.193  0.00  0.00     0.018 C 
ENDBRANCH   1   8
TORSDOF 1
ENDMDL
