MODEL 1
REMARK minimizedAffinity 7.7011323
REMARK minimizedRMSD -1
REMARK  1 active torsions:
REMARK  status: ('A' for Active; 'I' for Inactive)
REMARK    1  A    between atoms: C1_2  and  C2_3 
ROOT
ATOM      1  C2  UNL d   1       1.670  -2.914  -0.551  0.00  0.00    -0.076 A 
ATOM      2  C3  UNL d   1       0.503  -2.683  -1.301  0.00  0.00     0.004 A 
ATOM      3  C4  UNL d   1       0.493  -1.763  -2.348  0.00  0.00    -0.003 A 
ATOM      4  C5  UNL d   1       1.650  -1.059  -2.663  0.00  0.00     0.000 A 
ATOM      5  C6  UNL d   1       2.821  -1.288  -1.941  0.00  0.00     0.000 A 
ATOM      6  C7  UNL d   1       2.852  -2.224  -0.893  0.00  0.00    -0.073 A 
ATOM      7  C8  UNL d   1       4.141  -2.427  -0.144  0.00  0.00     0.078 C 
ENDROOT
BRANCH   1   8
ATOM      8  C1  UNL d   1       1.613  -3.904   0.590  0.00  0.00     0.053 C 
ATOM      9  C   UNL d   1       2.112  -5.283   0.190  0.00  0.00     0.018 C 
ENDBRANCH   1   8
TORSDOF 1
ENDMDL
