MODEL 1
REMARK minimizedAffinity 10.4159565
REMARK minimizedRMSD -1
REMARK  1 active torsions:
REMARK  status: ('A' for Active; 'I' for Inactive)
REMARK    1  A    between atoms: C1_2  and  C2_3 
ROOT
ATOM      1  C2  UNL d   1      -4.635  -1.523   1.416  0.00  0.00    -0.076 A 
ATOM      2  C3  UNL d   1      -3.392  -1.495   2.073  0.00  0.00     0.004 A 
ATOM      3  C4  UNL d   1      -2.232  -1.124   1.396  0.00  0.00    -0.003 A 
ATOM      4  C5  UNL d   1      -2.296  -0.774   0.051  0.00  0.00     0.000 A 
ATOM      5  C6  UNL d   1      -3.523  -0.779  -0.611  0.00  0.00     0.000 A 
ATOM      6  C7  UNL d   1      -4.705  -1.135   0.061  0.00  0.00    -0.073 A 
ATOM      7  C8  UNL d   1      -6.000  -1.129  -0.703  0.00  0.00     0.078 C 
ENDROOT
BRANCH   1   8
ATOM      8  C1  UNL d   1      -5.856  -1.960   2.195  0.00  0.00     0.053 C 
ATOM      9  C   UNL d   1      -5.991  -3.473   2.265  0.00  0.00     0.018 C 
ENDBRANCH   1   8
TORSDOF 1
ENDMDL
