MODEL 1
REMARK minimizedAffinity 2.4869225
REMARK minimizedRMSD -1
REMARK  1 active torsions:
REMARK  status: ('A' for Active; 'I' for Inactive)
REMARK    1  A    between atoms: C1_2  and  C2_3 
ROOT
ATOM      1  C2  UNL d   1       1.987   0.794  -1.866  0.00  0.00    -0.076 A 
ATOM      2  C3  UNL d   1       1.966  -0.578  -1.560  0.00  0.00     0.004 A 
ATOM      3  C4  UNL d   1       3.148  -1.312  -1.472  0.00  0.00    -0.003 A 
ATOM      4  C5  UNL d   1       4.370  -0.685  -1.688  0.00  0.00     0.000 A 
ATOM      5  C6  UNL d   1       4.411   0.679  -1.976  0.00  0.00     0.000 A 
ATOM      6  C7  UNL d   1       3.229   1.436  -2.052  0.00  0.00    -0.073 A 
ATOM      7  C8  UNL d   1       3.332   2.903  -2.371  0.00  0.00     0.078 C 
ENDROOT
BRANCH   1   8
ATOM      8  C1  UNL d   1       0.672   1.532  -1.975  0.00  0.00     0.053 C 
ATOM      9  C   UNL d   1      -0.035   1.663  -0.635  0.00  0.00     0.018 C 
ENDBRANCH   1   8
TORSDOF 1
ENDMDL
