MODEL 1
REMARK minimizedAffinity -2.29352021
REMARK minimizedRMSD -1
REMARK  0 active torsions:
REMARK  status: ('A' for Active; 'I' for Inactive)
ROOT
ATOM      1  C   UNL d   1      -0.917   0.775  -0.274  0.00  0.00     0.023 A 
ATOM      2  C1  UNL d   1       0.182   1.424   0.287  0.00  0.00     0.003 A 
ATOM      3  C2  UNL d   1       1.352   0.711   0.559  0.00  0.00     0.048 A 
ATOM      4  C3  UNL d   1       1.415  -0.650   0.265  0.00  0.00     0.023 A 
ATOM      5  C4  UNL d   1       0.318  -1.304  -0.298  0.00  0.00     0.048 A 
ATOM      6  C5  UNL d   1      -0.850  -0.587  -0.567  0.00  0.00     0.003 A 
ATOM      7  I   UNL d   1       3.155  -1.714   0.668  0.00  0.00    -0.146 I 
ENDROOT
TORSDOF 0
ENDMDL
