MODEL 1
REMARK minimizedAffinity -4.2760911
REMARK minimizedRMSD -1
REMARK  0 active torsions:
REMARK  status: ('A' for Active; 'I' for Inactive)
ROOT
ATOM      1  C   UNL d   1       3.503  -0.485   0.458  0.00  0.00     0.023 A 
ATOM      2  C1  UNL d   1       2.543  -1.491   0.343  0.00  0.00     0.003 A 
ATOM      3  C2  UNL d   1       1.198  -1.158   0.169  0.00  0.00     0.048 A 
ATOM      4  C3  UNL d   1       0.820   0.183   0.110  0.00  0.00     0.023 A 
ATOM      5  C4  UNL d   1       1.777   1.193   0.224  0.00  0.00     0.048 A 
ATOM      6  C5  UNL d   1       3.120   0.855   0.399  0.00  0.00     0.003 A 
ATOM      7  I   UNL d   1      -1.181   0.681  -0.148  0.00  0.00    -0.146 I 
ENDROOT
TORSDOF 0
ENDMDL
