MODEL 1
REMARK minimizedAffinity -3.30446672
REMARK minimizedRMSD -1
REMARK  0 active torsions:
REMARK  status: ('A' for Active; 'I' for Inactive)
ROOT
ATOM      1  C   UNL d   1      -1.598   0.318  -0.296  0.00  0.00     0.023 A 
ATOM      2  C1  UNL d   1      -0.663   1.070   0.416  0.00  0.00     0.003 A 
ATOM      3  C2  UNL d   1       0.596   0.536   0.697  0.00  0.00     0.048 A 
ATOM      4  C3  UNL d   1       0.915  -0.750   0.262  0.00  0.00     0.023 A 
ATOM      5  C4  UNL d   1      -0.017  -1.506  -0.451  0.00  0.00     0.048 A 
ATOM      6  C5  UNL d   1      -1.275  -0.968  -0.729  0.00  0.00     0.003 A 
ATOM      7  I   UNL d   1       2.789  -1.546   0.678  0.00  0.00    -0.146 I 
ENDROOT
TORSDOF 0
ENDMDL
