MODEL 1
REMARK minimizedAffinity -4.36132669
REMARK minimizedRMSD -1
REMARK  0 active torsions:
REMARK  status: ('A' for Active; 'I' for Inactive)
ROOT
ATOM      1  C   UNL d   1       2.865  -1.234   0.647  0.00  0.00     0.023 A 
ATOM      2  C1  UNL d   1       1.882  -1.986   0.003  0.00  0.00     0.003 A 
ATOM      3  C2  UNL d   1       0.584  -1.484  -0.115  0.00  0.00     0.048 A 
ATOM      4  C3  UNL d   1       0.277  -0.230   0.412  0.00  0.00     0.023 A 
ATOM      5  C4  UNL d   1       1.258   0.525   1.056  0.00  0.00     0.048 A 
ATOM      6  C5  UNL d   1       2.554   0.020   1.172  0.00  0.00     0.003 A 
ATOM      7  I   UNL d   1      -1.655   0.518   0.238  0.00  0.00    -0.146 I 
ENDROOT
TORSDOF 0
ENDMDL
