MODEL 1
REMARK minimizedAffinity -3.7713964
REMARK minimizedRMSD -1
REMARK  0 active torsions:
REMARK  status: ('A' for Active; 'I' for Inactive)
ROOT
ATOM      1  C   UNL d   1       2.445  -1.408   0.194  0.00  0.00     0.023 A 
ATOM      2  C1  UNL d   1       2.162  -0.374   1.087  0.00  0.00     0.003 A 
ATOM      3  C2  UNL d   1       0.919   0.261   1.051  0.00  0.00     0.048 A 
ATOM      4  C3  UNL d   1      -0.037  -0.143   0.120  0.00  0.00     0.023 A 
ATOM      5  C4  UNL d   1       0.240  -1.178  -0.774  0.00  0.00     0.048 A 
ATOM      6  C5  UNL d   1       1.485  -1.810  -0.735  0.00  0.00     0.003 A 
ATOM      7  I   UNL d   1      -1.888   0.801   0.065  0.00  0.00    -0.146 I 
ENDROOT
TORSDOF 0
ENDMDL
