MODEL 1
REMARK minimizedAffinity -4.0631299
REMARK minimizedRMSD -1
REMARK  0 active torsions:
REMARK  status: ('A' for Active; 'I' for Inactive)
ROOT
ATOM      1  C   UNL d   1       3.767  -0.374   0.624  0.00  0.00     0.023 A 
ATOM      2  C1  UNL d   1       3.132   0.867   0.665  0.00  0.00     0.003 A 
ATOM      3  C2  UNL d   1       1.762   0.961   0.415  0.00  0.00     0.048 A 
ATOM      4  C3  UNL d   1       1.032  -0.192   0.125  0.00  0.00     0.023 A 
ATOM      5  C4  UNL d   1       1.662  -1.436   0.084  0.00  0.00     0.048 A 
ATOM      6  C5  UNL d   1       3.033  -1.524   0.334  0.00  0.00     0.003 A 
ATOM      7  I   UNL d   1      -1.009  -0.055  -0.247  0.00  0.00    -0.146 I 
ENDROOT
TORSDOF 0
ENDMDL
