MODEL 1
REMARK minimizedAffinity -1.28388464
REMARK minimizedRMSD -1
REMARK  0 active torsions:
REMARK  status: ('A' for Active; 'I' for Inactive)
ROOT
ATOM      1  C   UNL d   1       2.387  -1.257   0.516  0.00  0.00     0.023 A 
ATOM      2  C1  UNL d   1       2.237   0.127   0.593  0.00  0.00     0.003 A 
ATOM      3  C2  UNL d   1       0.985   0.709   0.381  0.00  0.00     0.048 A 
ATOM      4  C3  UNL d   1      -0.113  -0.101   0.093  0.00  0.00     0.023 A 
ATOM      5  C4  UNL d   1       0.032  -1.487   0.015  0.00  0.00     0.048 A 
ATOM      6  C5  UNL d   1       1.285  -2.064   0.228  0.00  0.00     0.003 A 
ATOM      7  I   UNL d   1      -1.978   0.761  -0.224  0.00  0.00    -0.146 I 
ENDROOT
TORSDOF 0
ENDMDL
