MODEL 1
REMARK minimizedAffinity 12.3117094
REMARK minimizedRMSD -1
REMARK  3 active torsions:
REMARK  status: ('A' for Active; 'I' for Inactive)
REMARK    1  A    between atoms: C3'_2  and  C2'_3 
REMARK    2  A    between atoms: C2'_3  and  C1'_4 
REMARK    3  A    between atoms: C1'_4  and  C1_5 
ROOT
ATOM      1  C1  N4B d   1      -5.248   0.250  -3.005  0.00  0.00    -0.075 A 
ATOM      2  C2  N4B d   1      -3.841   0.143  -2.949  0.00  0.00     0.002 A 
ATOM      3  C3  N4B d   1      -3.194   0.236  -1.741  0.00  0.00     0.002 A 
ATOM      4  C4  N4B d   1      -3.928   0.454  -0.584  0.00  0.00    -0.004 A 
ATOM      5  C5  N4B d   1      -5.288   0.531  -0.645  0.00  0.00     0.002 A 
ATOM      6  C6  N4B d   1      -5.953   0.435  -1.851  0.00  0.00     0.002 A 
ENDROOT
BRANCH   1   7
ATOM      7  C1' N4B d   1      -5.993   0.240  -4.312  0.00  0.00     0.057 C 
BRANCH   7   8
ATOM      8  C2' N4B d   1      -5.468   1.366  -5.197  0.00  0.00     0.009 C 
BRANCH   8   9
ATOM      9  C3' N4B d   1      -5.995   2.723  -4.763  0.00  0.00     0.004 C 
ATOM     10  C4' N4B d   1      -5.544   3.836  -5.661  0.00  0.00     0.003 C 
ENDBRANCH   8   9
ENDBRANCH   7   8
ENDBRANCH   1   7
TORSDOF 3
ENDMDL
