MODEL 1
REMARK minimizedAffinity 5.26108027
REMARK minimizedRMSD -1
REMARK  3 active torsions:
REMARK  status: ('A' for Active; 'I' for Inactive)
REMARK    1  A    between atoms: C3'_2  and  C2'_3 
REMARK    2  A    between atoms: C2'_3  and  C1'_4 
REMARK    3  A    between atoms: C1'_4  and  C1_5 
ROOT
ATOM      1  C1  N4B d   1       4.012   1.339   0.255  0.00  0.00    -0.075 A 
ATOM      2  C2  N4B d   1       4.753   2.117   1.172  0.00  0.00     0.002 A 
ATOM      3  C3  N4B d   1       5.732   2.966   0.718  0.00  0.00     0.002 A 
ATOM      4  C4  N4B d   1       5.999   3.040  -0.641  0.00  0.00    -0.004 A 
ATOM      5  C5  N4B d   1       5.262   2.305  -1.522  0.00  0.00     0.002 A 
ATOM      6  C6  N4B d   1       4.272   1.450  -1.080  0.00  0.00     0.002 A 
ENDROOT
BRANCH   1   7
ATOM      7  C1' N4B d   1       2.991   0.333   0.711  0.00  0.00     0.057 C 
BRANCH   7   8
ATOM      8  C2' N4B d   1       2.219  -0.181  -0.500  0.00  0.00     0.009 C 
BRANCH   8   9
ATOM      9  C3' N4B d   1       2.190  -1.699  -0.553  0.00  0.00     0.004 C 
ATOM     10  C4' N4B d   1       2.151  -2.230  -1.955  0.00  0.00     0.003 C 
ENDBRANCH   8   9
ENDBRANCH   7   8
ENDBRANCH   1   7
TORSDOF 3
ENDMDL
