MODEL 1
REMARK minimizedAffinity 3.33755422
REMARK minimizedRMSD -1
REMARK  3 active torsions:
REMARK  status: ('A' for Active; 'I' for Inactive)
REMARK    1  A    between atoms: C3'_2  and  C2'_3 
REMARK    2  A    between atoms: C2'_3  and  C1'_4 
REMARK    3  A    between atoms: C1'_4  and  C1_5 
ROOT
ATOM      1  C1  N4B d   1       2.535  -0.948  -0.023  0.00  0.00    -0.075 A 
ATOM      2  C2  N4B d   1       3.248  -0.110   0.862  0.00  0.00     0.002 A 
ATOM      3  C3  N4B d   1       3.752   1.088   0.417  0.00  0.00     0.002 A 
ATOM      4  C4  N4B d   1       3.573   1.457  -0.908  0.00  0.00    -0.004 A 
ATOM      5  C5  N4B d   1       2.861   0.653  -1.749  0.00  0.00     0.002 A 
ATOM      6  C6  N4B d   1       2.345  -0.551  -1.315  0.00  0.00     0.002 A 
ENDROOT
BRANCH   1   7
ATOM      7  C1' N4B d   1       2.039  -2.306   0.395  0.00  0.00     0.057 C 
BRANCH   7   8
ATOM      8  C2' N4B d   1       1.443  -3.016  -0.816  0.00  0.00     0.009 C 
BRANCH   8   9
ATOM      9  C3' N4B d   1       0.746  -4.309  -0.430  0.00  0.00     0.004 C 
ATOM     10  C4' N4B d   1      -0.583  -4.477  -1.105  0.00  0.00     0.003 C 
ENDBRANCH   8   9
ENDBRANCH   7   8
ENDBRANCH   1   7
TORSDOF 3
ENDMDL
