MODEL 1
REMARK minimizedAffinity 12.0607853
REMARK minimizedRMSD -1
REMARK  3 active torsions:
REMARK  status: ('A' for Active; 'I' for Inactive)
REMARK    1  A    between atoms: C3'_2  and  C2'_3 
REMARK    2  A    between atoms: C2'_3  and  C1'_4 
REMARK    3  A    between atoms: C1'_4  and  C1_5 
ROOT
ATOM      1  C1  N4B d   1       4.480   3.587  -2.617  0.00  0.00    -0.075 A 
ATOM      2  C2  N4B d   1       4.410   4.401  -1.464  0.00  0.00     0.002 A 
ATOM      3  C3  N4B d   1       5.136   5.564  -1.400  0.00  0.00     0.002 A 
ATOM      4  C4  N4B d   1       5.951   5.924  -2.463  0.00  0.00    -0.004 A 
ATOM      5  C5  N4B d   1       5.994   5.146  -3.582  0.00  0.00     0.002 A 
ATOM      6  C6  N4B d   1       5.266   3.976  -3.663  0.00  0.00     0.002 A 
ENDROOT
BRANCH   1   7
ATOM      7  C1' N4B d   1       3.771   2.263  -2.699  0.00  0.00     0.057 C 
BRANCH   7   8
ATOM      8  C2' N4B d   1       4.141   1.578  -4.011  0.00  0.00     0.009 C 
BRANCH   8   9
ATOM      9  C3' N4B d   1       5.629   1.285  -4.099  0.00  0.00     0.004 C 
ATOM     10  C4' N4B d   1       5.984   0.433  -5.281  0.00  0.00     0.003 C 
ENDBRANCH   8   9
ENDBRANCH   7   8
ENDBRANCH   1   7
TORSDOF 3
ENDMDL
