MODEL 1
REMARK minimizedAffinity 10.9894953
REMARK minimizedRMSD -1
REMARK  3 active torsions:
REMARK  status: ('A' for Active; 'I' for Inactive)
REMARK    1  A    between atoms: C3'_2  and  C2'_3 
REMARK    2  A    between atoms: C2'_3  and  C1'_4 
REMARK    3  A    between atoms: C1'_4  and  C1_5 
ROOT
ATOM      1  C1  N4B d   1       2.421  -0.739  -0.228  0.00  0.00    -0.075 A 
ATOM      2  C2  N4B d   1       2.067  -1.065  -1.556  0.00  0.00     0.002 A 
ATOM      3  C3  N4B d   1       1.435  -2.254  -1.826  0.00  0.00     0.002 A 
ATOM      4  C4  N4B d   1       1.165  -3.137  -0.791  0.00  0.00    -0.004 A 
ATOM      5  C5  N4B d   1       1.487  -2.804   0.492  0.00  0.00     0.002 A 
ATOM      6  C6  N4B d   1       2.119  -1.610   0.778  0.00  0.00     0.002 A 
ENDROOT
BRANCH   1   7
ATOM      7  C1' N4B d   1       3.190   0.511   0.105  0.00  0.00     0.057 C 
BRANCH   7   8
ATOM      8  C2' N4B d   1       3.356   1.348  -1.160  0.00  0.00     0.009 C 
BRANCH   8   9
ATOM      9  C3' N4B d   1       4.082   2.654  -0.885  0.00  0.00     0.004 C 
ATOM     10  C4' N4B d   1       4.281   2.911   0.579  0.00  0.00     0.003 C 
ENDBRANCH   8   9
ENDBRANCH   7   8
ENDBRANCH   1   7
TORSDOF 3
ENDMDL
