MODEL 1
REMARK minimizedAffinity 2.75351
REMARK minimizedRMSD -1
REMARK  0 active torsions:
REMARK  status: ('A' for Active; 'I' for Inactive)
ROOT
ATOM      1  C   UNL d   1       0.162  -0.310   2.435  0.00  0.00    -0.002 A 
ATOM      2  C1  UNL d   1      -1.096   0.153   2.791  0.00  0.00     0.010 A 
ATOM      3  C2  UNL d   1      -2.132   0.189   1.855  0.00  0.00     0.041 A 
ATOM      4  C3  UNL d   1      -1.879  -0.256   0.543  0.00  0.00    -0.075 A 
ATOM      5  S   UNL d   1      -2.995  -0.305  -0.771  0.00  0.00     0.015 SA
ATOM      6  C4  UNL d   1      -1.827  -0.943  -1.836  0.00  0.00     0.022 A 
ATOM      7  C5  UNL d   1      -0.610  -1.120  -1.222  0.00  0.00     0.026 A 
ATOM      8  C6  UNL d   1      -0.620  -0.727   0.160  0.00  0.00    -0.082 A 
ATOM      9  C7  UNL d   1       0.409  -0.750   1.131  0.00  0.00     0.045 A 
ENDROOT
TORSDOF 0
ENDMDL
