MODEL 1
REMARK minimizedAffinity 3.32516074
REMARK minimizedRMSD -1
REMARK  0 active torsions:
REMARK  status: ('A' for Active; 'I' for Inactive)
ROOT
ATOM      1  C   UNL d   1       3.230   1.515   1.994  0.00  0.00    -0.002 A 
ATOM      2  C1  UNL d   1       2.446   2.162   1.049  0.00  0.00     0.010 A 
ATOM      3  C2  UNL d   1       2.493   3.551   0.918  0.00  0.00     0.041 A 
ATOM      4  C3  UNL d   1       3.351   4.287   1.761  0.00  0.00    -0.075 A 
ATOM      5  S   UNL d   1       3.574   5.996   1.780  0.00  0.00     0.015 SA
ATOM      6  C4  UNL d   1       4.715   5.907   3.043  0.00  0.00     0.022 A 
ATOM      7  C5  UNL d   1       4.932   4.613   3.452  0.00  0.00     0.026 A 
ATOM      8  C6  UNL d   1       4.150   3.657   2.719  0.00  0.00    -0.082 A 
ATOM      9  C7  UNL d   1       4.079   2.248   2.828  0.00  0.00     0.045 A 
ENDROOT
TORSDOF 0
ENDMDL
