MODEL 1
REMARK minimizedAffinity -2.34341097
REMARK minimizedRMSD -1
REMARK  0 active torsions:
REMARK  status: ('A' for Active; 'I' for Inactive)
ROOT
ATOM      1  C   UNL d   1      -2.262  -0.705  -1.031  0.00  0.00    -0.002 A 
ATOM      2  C1  UNL d   1      -2.032   0.186   0.008  0.00  0.00     0.010 A 
ATOM      3  C2  UNL d   1      -0.781   0.247   0.627  0.00  0.00     0.041 A 
ATOM      4  C3  UNL d   1       0.244  -0.609   0.178  0.00  0.00    -0.075 A 
ATOM      5  S   UNL d   1       1.854  -0.709   0.785  0.00  0.00     0.015 SA
ATOM      6  C4  UNL d   1       2.274  -1.935  -0.321  0.00  0.00     0.022 A 
ATOM      7  C5  UNL d   1       1.223  -2.273  -1.141  0.00  0.00     0.026 A 
ATOM      8  C6  UNL d   1       0.036  -1.513  -0.867  0.00  0.00    -0.082 A 
ATOM      9  C7  UNL d   1      -1.243  -1.552  -1.473  0.00  0.00     0.045 A 
ENDROOT
TORSDOF 0
ENDMDL
