MODEL 1
REMARK minimizedAffinity 5.00239897
REMARK minimizedRMSD -1
REMARK  0 active torsions:
REMARK  status: ('A' for Active; 'I' for Inactive)
ROOT
ATOM      1  C   UNL d   1      -1.930  -3.489  -2.095  0.00  0.00     0.124 A 
ATOM      2  C1  UNL d   1      -1.971  -2.102  -2.109  0.00  0.00     0.062 A 
ATOM      3  C2  UNL d   1      -1.456  -1.375  -1.040  0.00  0.00     0.162 A 
ATOM      4  C3  UNL d   1      -0.895  -2.035   0.054  0.00  0.00    -0.034 A 
ATOM      5  C4  UNL d   1      -0.859  -3.431   0.061  0.00  0.00     0.162 A 
ATOM      6  C5  UNL d   1      -1.375  -4.152  -1.010  0.00  0.00     0.062 A 
ATOM      7  F   UNL d   1      -1.334  -5.492  -0.995  0.00  0.00    -0.097 F 
ATOM      8  F1  UNL d   1      -0.326  -4.097   1.097  0.00  0.00    -0.096 F 
ATOM      9  I   UNL d   1      -0.124  -0.953   1.656  0.00  0.00    -0.060 I 
ATOM     10  F2  UNL d   1      -1.509  -0.036  -1.080  0.00  0.00    -0.096 F 
ATOM     11  F3  UNL d   1      -2.509  -1.459  -3.156  0.00  0.00    -0.097 F 
ATOM     12  F4  UNL d   1      -2.427  -4.186  -3.126  0.00  0.00    -0.092 F 
ENDROOT
TORSDOF 0
ENDMDL
