MODEL 1
REMARK minimizedAffinity 23.0556889
REMARK minimizedRMSD -1
REMARK  0 active torsions:
REMARK  status: ('A' for Active; 'I' for Inactive)
ROOT
ATOM      1  C   UNL d   1       2.582  -0.146   2.815  0.00  0.00     0.124 A 
ATOM      2  C1  UNL d   1       2.312   0.866   1.904  0.00  0.00     0.062 A 
ATOM      3  C2  UNL d   1       3.286   1.268   0.995  0.00  0.00     0.162 A 
ATOM      4  C3  UNL d   1       4.540   0.657   0.991  0.00  0.00    -0.034 A 
ATOM      5  C4  UNL d   1       4.805  -0.359   1.911  0.00  0.00     0.162 A 
ATOM      6  C5  UNL d   1       3.828  -0.758   2.818  0.00  0.00     0.062 A 
ATOM      7  F   UNL d   1       4.091  -1.735   3.697  0.00  0.00    -0.097 F 
ATOM      8  F1  UNL d   1       6.000  -0.968   1.935  0.00  0.00    -0.096 F 
ATOM      9  I   UNL d   1       6.000   1.255  -0.366  0.00  0.00    -0.060 I 
ATOM     10  F2  UNL d   1       2.998   2.248   0.126  0.00  0.00    -0.096 F 
ATOM     11  F3  UNL d   1       1.110   1.459   1.900  0.00  0.00    -0.097 F 
ATOM     12  F4  UNL d   1       1.643  -0.530   3.689  0.00  0.00    -0.092 F 
ENDROOT
TORSDOF 0
ENDMDL
