MODEL 1
REMARK minimizedAffinity 13.9741659
REMARK minimizedRMSD -1
REMARK  0 active torsions:
REMARK  status: ('A' for Active; 'I' for Inactive)
ROOT
ATOM      1  C   UNL d   1      -3.284  -4.379  -0.307  0.00  0.00     0.124 A 
ATOM      2  C1  UNL d   1      -2.775  -3.557  -1.303  0.00  0.00     0.062 A 
ATOM      3  C2  UNL d   1      -3.351  -3.553  -2.570  0.00  0.00     0.162 A 
ATOM      4  C3  UNL d   1      -4.444  -4.373  -2.848  0.00  0.00    -0.034 A 
ATOM      5  C4  UNL d   1      -4.950  -5.198  -1.842  0.00  0.00     0.162 A 
ATOM      6  C5  UNL d   1      -4.370  -5.198  -0.577  0.00  0.00     0.062 A 
ATOM      7  F   UNL d   1      -4.863  -5.993   0.384  0.00  0.00    -0.097 F 
ATOM      8  F1  UNL d   1      -6.000  -6.000  -2.075  0.00  0.00    -0.096 F 
ATOM      9  I   UNL d   1      -5.309  -4.371  -4.741  0.00  0.00    -0.060 I 
ATOM     10  F2  UNL d   1      -2.839  -2.748  -3.513  0.00  0.00    -0.096 F 
ATOM     11  F3  UNL d   1      -1.725  -2.764  -1.045  0.00  0.00    -0.097 F 
ATOM     12  F4  UNL d   1      -2.727  -4.381   0.911  0.00  0.00    -0.092 F 
ENDROOT
TORSDOF 0
ENDMDL
