MODEL 1
REMARK minimizedAffinity 16.8790703
REMARK minimizedRMSD -1
REMARK  0 active torsions:
REMARK  status: ('A' for Active; 'I' for Inactive)
ROOT
ATOM      1  C   UNL d   1      -2.222  -3.249   0.303  0.00  0.00     0.124 A 
ATOM      2  C1  UNL d   1      -2.998  -4.384   0.494  0.00  0.00     0.062 A 
ATOM      3  C2  UNL d   1      -3.751  -4.902  -0.556  0.00  0.00     0.162 A 
ATOM      4  C3  UNL d   1      -3.731  -4.285  -1.807  0.00  0.00    -0.034 A 
ATOM      5  C4  UNL d   1      -2.949  -3.144  -1.991  0.00  0.00     0.162 A 
ATOM      6  C5  UNL d   1      -2.198  -2.630  -0.939  0.00  0.00     0.062 A 
ATOM      7  F   UNL d   1      -1.449  -1.534  -1.125  0.00  0.00    -0.097 F 
ATOM      8  F1  UNL d   1      -2.907  -2.526  -3.181  0.00  0.00    -0.096 F 
ATOM      9  I   UNL d   1      -4.856  -5.056  -3.380  0.00  0.00    -0.060 I 
ATOM     10  F2  UNL d   1      -4.492  -6.000  -0.343  0.00  0.00    -0.096 F 
ATOM     11  F3  UNL d   1      -3.024  -4.983   1.693  0.00  0.00    -0.097 F 
ATOM     12  F4  UNL d   1      -1.500  -2.753   1.315  0.00  0.00    -0.092 F 
ENDROOT
TORSDOF 0
ENDMDL
