MODEL 1
REMARK minimizedAffinity 25.644537
REMARK minimizedRMSD -1
REMARK  0 active torsions:
REMARK  status: ('A' for Active; 'I' for Inactive)
ROOT
ATOM      1  C   UNL d   1      -2.086  -3.487   0.786  0.00  0.00     0.124 A 
ATOM      2  C1  UNL d   1      -1.985  -2.802  -0.416  0.00  0.00     0.062 A 
ATOM      3  C2  UNL d   1      -2.820  -3.128  -1.480  0.00  0.00     0.162 A 
ATOM      4  C3  UNL d   1      -3.765  -4.146  -1.347  0.00  0.00    -0.034 A 
ATOM      5  C4  UNL d   1      -3.860  -4.832  -0.135  0.00  0.00     0.162 A 
ATOM      6  C5  UNL d   1      -3.022  -4.502   0.926  0.00  0.00     0.062 A 
ATOM      7  F   UNL d   1      -3.121  -5.165   2.087  0.00  0.00    -0.097 F 
ATOM      8  F1  UNL d   1      -4.757  -5.816   0.028  0.00  0.00    -0.096 F 
ATOM      9  I   UNL d   1      -5.016  -4.638  -2.936  0.00  0.00    -0.060 I 
ATOM     10  F2  UNL d   1      -2.701  -2.449  -2.631  0.00  0.00    -0.096 F 
ATOM     11  F3  UNL d   1      -1.080  -1.822  -0.554  0.00  0.00    -0.097 F 
ATOM     12  F4  UNL d   1      -1.280  -3.172   1.808  0.00  0.00    -0.092 F 
ENDROOT
TORSDOF 0
ENDMDL
