MODEL 1
REMARK minimizedAffinity 7.11700153
REMARK minimizedRMSD -1
REMARK  0 active torsions:
REMARK  status: ('A' for Active; 'I' for Inactive)
ROOT
ATOM      1  C   UNL d   1      -2.060  -3.233  -0.197  0.00  0.00     0.124 A 
ATOM      2  C1  UNL d   1      -2.788  -4.413  -0.232  0.00  0.00     0.062 A 
ATOM      3  C2  UNL d   1      -3.438  -4.800  -1.401  0.00  0.00     0.162 A 
ATOM      4  C3  UNL d   1      -3.361  -4.006  -2.545  0.00  0.00    -0.034 A 
ATOM      5  C4  UNL d   1      -2.627  -2.819  -2.501  0.00  0.00     0.162 A 
ATOM      6  C5  UNL d   1      -1.980  -2.437  -1.331  0.00  0.00     0.062 A 
ATOM      7  F   UNL d   1      -1.276  -1.296  -1.298  0.00  0.00    -0.097 F 
ATOM      8  F1  UNL d   1      -2.533  -2.032  -3.583  0.00  0.00    -0.096 F 
ATOM      9  I   UNL d   1      -4.331  -4.581  -4.294  0.00  0.00    -0.060 I 
ATOM     10  F2  UNL d   1      -4.135  -5.946  -1.406  0.00  0.00    -0.096 F 
ATOM     11  F3  UNL d   1      -2.868  -5.183   0.863  0.00  0.00    -0.097 F 
ATOM     12  F4  UNL d   1      -1.437  -2.862   0.929  0.00  0.00    -0.092 F 
ENDROOT
TORSDOF 0
ENDMDL
