MODEL 1
REMARK minimizedAffinity 19.6453686
REMARK minimizedRMSD -1
REMARK  0 active torsions:
REMARK  status: ('A' for Active; 'I' for Inactive)
ROOT
ATOM      1  C   UNL d   1      -1.905  -3.014  -0.552  0.00  0.00     0.124 A 
ATOM      2  C1  UNL d   1      -2.398  -4.102   0.155  0.00  0.00     0.062 A 
ATOM      3  C2  UNL d   1      -3.327  -4.956  -0.432  0.00  0.00     0.162 A 
ATOM      4  C3  UNL d   1      -3.770  -4.725  -1.734  0.00  0.00    -0.034 A 
ATOM      5  C4  UNL d   1      -3.270  -3.628  -2.439  0.00  0.00     0.162 A 
ATOM      6  C5  UNL d   1      -2.341  -2.778  -1.847  0.00  0.00     0.062 A 
ATOM      7  F   UNL d   1      -1.866  -1.728  -2.532  0.00  0.00    -0.097 F 
ATOM      8  F1  UNL d   1      -3.674  -3.377  -3.693  0.00  0.00    -0.096 F 
ATOM      9  I   UNL d   1      -5.160  -5.999  -2.616  0.00  0.00    -0.060 I 
ATOM     10  F2  UNL d   1      -3.787  -5.999   0.275  0.00  0.00    -0.096 F 
ATOM     11  F3  UNL d   1      -1.978  -4.332   1.408  0.00  0.00    -0.097 F 
ATOM     12  F4  UNL d   1      -1.011  -2.194   0.016  0.00  0.00    -0.092 F 
ENDROOT
TORSDOF 0
ENDMDL
