MODEL 1
REMARK minimizedAffinity 9.5421524
REMARK minimizedRMSD -1
REMARK  0 active torsions:
REMARK  status: ('A' for Active; 'I' for Inactive)
ROOT
ATOM      1  C   UNL d   1      -2.696  -3.672  -0.949  0.00  0.00     0.124 A 
ATOM      2  C1  UNL d   1      -2.154  -4.004   0.285  0.00  0.00     0.062 A 
ATOM      3  C2  UNL d   1      -1.191  -3.187   0.869  0.00  0.00     0.162 A 
ATOM      4  C3  UNL d   1      -0.762  -2.029   0.220  0.00  0.00    -0.034 A 
ATOM      5  C4  UNL d   1      -1.311  -1.703  -1.021  0.00  0.00     0.162 A 
ATOM      6  C5  UNL d   1      -2.274  -2.522  -1.601  0.00  0.00     0.062 A 
ATOM      7  F   UNL d   1      -2.795  -2.200  -2.793  0.00  0.00    -0.097 F 
ATOM      8  F1  UNL d   1      -0.922  -0.597  -1.673  0.00  0.00    -0.096 F 
ATOM      9  I   UNL d   1       0.678  -0.805   1.090  0.00  0.00    -0.060 I 
ATOM     10  F2  UNL d   1      -0.685  -3.533   2.063  0.00  0.00    -0.096 F 
ATOM     11  F3  UNL d   1      -2.560  -5.115   0.917  0.00  0.00    -0.097 F 
ATOM     12  F4  UNL d   1      -3.622  -4.461  -1.509  0.00  0.00    -0.092 F 
ENDROOT
TORSDOF 0
ENDMDL
