MODEL 1
REMARK minimizedAffinity 7.7713356
REMARK minimizedRMSD -1
REMARK  0 active torsions:
REMARK  status: ('A' for Active; 'I' for Inactive)
ROOT
ATOM      1  C   UNL d   1      -0.607  -1.821   0.323  0.00  0.00     0.124 A 
ATOM      2  C1  UNL d   1      -1.064  -1.446  -0.932  0.00  0.00     0.062 A 
ATOM      3  C2  UNL d   1      -2.057  -2.187  -1.567  0.00  0.00     0.162 A 
ATOM      4  C3  UNL d   1      -2.600  -3.312  -0.946  0.00  0.00    -0.034 A 
ATOM      5  C4  UNL d   1      -2.135  -3.684   0.317  0.00  0.00     0.162 A 
ATOM      6  C5  UNL d   1      -1.143  -2.939   0.947  0.00  0.00     0.062 A 
ATOM      7  F   UNL d   1      -0.703  -3.304   2.160  0.00  0.00    -0.097 F 
ATOM      8  F1  UNL d   1      -2.636  -4.760   0.942  0.00  0.00    -0.096 F 
ATOM      9  I   UNL d   1      -4.084  -4.423  -1.891  0.00  0.00    -0.060 I 
ATOM     10  F2  UNL d   1      -2.479  -1.801  -2.780  0.00  0.00    -0.096 F 
ATOM     11  F3  UNL d   1      -0.548  -0.366  -1.537  0.00  0.00    -0.097 F 
ATOM     12  F4  UNL d   1       0.348  -1.106   0.931  0.00  0.00    -0.092 F 
ENDROOT
TORSDOF 0
ENDMDL
