MODEL 1
REMARK minimizedAffinity 23.5853024
REMARK minimizedRMSD -1
REMARK  0 active torsions:
REMARK  status: ('A' for Active; 'I' for Inactive)
ROOT
ATOM      1  C   UNL d   1       1.597   1.333   2.300  0.00  0.00     0.124 A 
ATOM      2  C1  UNL d   1       2.329   1.975   1.311  0.00  0.00     0.062 A 
ATOM      3  C2  UNL d   1       3.587   1.499   0.951  0.00  0.00     0.162 A 
ATOM      4  C3  UNL d   1       4.120   0.374   1.580  0.00  0.00    -0.034 A 
ATOM      5  C4  UNL d   1       3.377  -0.266   2.574  0.00  0.00     0.162 A 
ATOM      6  C5  UNL d   1       2.121   0.214   2.930  0.00  0.00     0.062 A 
ATOM      7  F   UNL d   1       1.415  -0.408   3.886  0.00  0.00    -0.097 F 
ATOM      8  F1  UNL d   1       3.859  -1.351   3.199  0.00  0.00    -0.096 F 
ATOM      9  I   UNL d   1       5.999  -0.342   1.045  0.00  0.00    -0.060 I 
ATOM     10  F2  UNL d   1       4.273   2.139  -0.008  0.00  0.00    -0.096 F 
ATOM     11  F3  UNL d   1       1.826   3.058   0.701  0.00  0.00    -0.097 F 
ATOM     12  F4  UNL d   1       0.388   1.794   2.645  0.00  0.00    -0.092 F 
ENDROOT
TORSDOF 0
ENDMDL
