MODEL 1
REMARK minimizedAffinity 16.4473133
REMARK minimizedRMSD -1
REMARK  0 active torsions:
REMARK  status: ('A' for Active; 'I' for Inactive)
ROOT
ATOM      1  C   UNL d   1      -2.252  -3.577  -2.094  0.00  0.00     0.124 A 
ATOM      2  C1  UNL d   1      -3.244  -3.138  -1.228  0.00  0.00     0.062 A 
ATOM      3  C2  UNL d   1      -2.969  -2.976   0.127  0.00  0.00     0.162 A 
ATOM      4  C3  UNL d   1      -1.696  -3.253   0.624  0.00  0.00    -0.034 A 
ATOM      5  C4  UNL d   1      -0.703  -3.696  -0.253  0.00  0.00     0.162 A 
ATOM      6  C5  UNL d   1      -0.983  -3.855  -1.606  0.00  0.00     0.062 A 
ATOM      7  F   UNL d   1      -0.023  -4.279  -2.441  0.00  0.00    -0.097 F 
ATOM      8  F1  UNL d   1       0.532  -3.971   0.193  0.00  0.00    -0.096 F 
ATOM      9  I   UNL d   1      -1.281  -3.014   2.650  0.00  0.00    -0.060 I 
ATOM     10  F2  UNL d   1      -3.946  -2.551   0.940  0.00  0.00    -0.096 F 
ATOM     11  F3  UNL d   1      -4.470  -2.869  -1.698  0.00  0.00    -0.097 F 
ATOM     12  F4  UNL d   1      -2.519  -3.732  -3.397  0.00  0.00    -0.092 F 
ENDROOT
TORSDOF 0
ENDMDL
