MODEL 1
REMARK minimizedAffinity 10.7795448
REMARK minimizedRMSD -1
REMARK  0 active torsions:
REMARK  status: ('A' for Active; 'I' for Inactive)
ROOT
ATOM      1  C   UNL d   1      -2.408  -5.689  -2.285  0.00  0.00     0.124 A 
ATOM      2  C1  UNL d   1      -3.686  -5.401  -1.824  0.00  0.00     0.062 A 
ATOM      3  C2  UNL d   1      -4.710  -5.129  -2.726  0.00  0.00     0.162 A 
ATOM      4  C3  UNL d   1      -4.462  -5.146  -4.099  0.00  0.00    -0.034 A 
ATOM      5  C4  UNL d   1      -3.175  -5.436  -4.554  0.00  0.00     0.162 A 
ATOM      6  C5  UNL d   1      -2.154  -5.707  -3.649  0.00  0.00     0.062 A 
ATOM      7  F   UNL d   1      -0.921  -5.986  -4.096  0.00  0.00    -0.097 F 
ATOM      8  F1  UNL d   1      -2.902  -5.461  -5.867  0.00  0.00    -0.096 F 
ATOM      9  I   UNL d   1      -5.992  -4.741  -5.451  0.00  0.00    -0.060 I 
ATOM     10  F2  UNL d   1      -5.935  -4.854  -2.253  0.00  0.00    -0.096 F 
ATOM     11  F3  UNL d   1      -3.933  -5.382  -0.506  0.00  0.00    -0.097 F 
ATOM     12  F4  UNL d   1      -1.424  -5.949  -1.414  0.00  0.00    -0.092 F 
ENDROOT
TORSDOF 0
ENDMDL
