MODEL 1
REMARK minimizedAffinity 19.6003971
REMARK minimizedRMSD -1
REMARK  0 active torsions:
REMARK  status: ('A' for Active; 'I' for Inactive)
ROOT
ATOM      1  C   UNL d   1      -2.147  -3.679   0.123  0.00  0.00     0.124 A 
ATOM      2  C1  UNL d   1      -1.207  -2.698  -0.158  0.00  0.00     0.062 A 
ATOM      3  C2  UNL d   1      -0.992  -2.290  -1.471  0.00  0.00     0.162 A 
ATOM      4  C3  UNL d   1      -1.720  -2.863  -2.514  0.00  0.00    -0.034 A 
ATOM      5  C4  UNL d   1      -2.663  -3.850  -2.224  0.00  0.00     0.162 A 
ATOM      6  C5  UNL d   1      -2.875  -4.254  -0.909  0.00  0.00     0.062 A 
ATOM      7  F   UNL d   1      -3.783  -5.202  -0.640  0.00  0.00    -0.097 F 
ATOM      8  F1  UNL d   1      -3.381  -4.421  -3.202  0.00  0.00    -0.096 F 
ATOM      9  I   UNL d   1      -1.402  -2.256  -4.479  0.00  0.00    -0.060 I 
ATOM     10  F2  UNL d   1      -0.077  -1.339  -1.714  0.00  0.00    -0.096 F 
ATOM     11  F3  UNL d   1      -0.502  -2.141   0.838  0.00  0.00    -0.097 F 
ATOM     12  F4  UNL d   1      -2.351  -4.070   1.388  0.00  0.00    -0.092 F 
ENDROOT
TORSDOF 0
ENDMDL
