MODEL 1
REMARK minimizedAffinity 5.17256212
REMARK minimizedRMSD -1
REMARK  0 active torsions:
REMARK  status: ('A' for Active; 'I' for Inactive)
ROOT
ATOM      1  C   UNL d   1       5.009   2.049   1.234  0.00  0.00     0.124 A 
ATOM      2  C1  UNL d   1       4.504   3.251   0.758  0.00  0.00     0.062 A 
ATOM      3  C2  UNL d   1       4.499   4.380   1.572  0.00  0.00     0.162 A 
ATOM      4  C3  UNL d   1       5.002   4.313   2.871  0.00  0.00    -0.034 A 
ATOM      5  C4  UNL d   1       5.508   3.101   3.344  0.00  0.00     0.162 A 
ATOM      6  C5  UNL d   1       5.510   1.975   2.526  0.00  0.00     0.062 A 
ATOM      7  F   UNL d   1       5.999   0.815   2.988  0.00  0.00    -0.097 F 
ATOM      8  F1  UNL d   1       5.999   3.001   4.588  0.00  0.00    -0.096 F 
ATOM      9  I   UNL d   1       4.997   5.999   4.092  0.00  0.00    -0.060 I 
ATOM     10  F2  UNL d   1       4.005   5.528   1.086  0.00  0.00    -0.096 F 
ATOM     11  F3  UNL d   1       4.018   3.325  -0.490  0.00  0.00    -0.097 F 
ATOM     12  F4  UNL d   1       5.012   0.964   0.449  0.00  0.00    -0.092 F 
ENDROOT
TORSDOF 0
ENDMDL
