MODEL 1
REMARK minimizedAffinity 23.6767216
REMARK minimizedRMSD -1
REMARK  0 active torsions:
REMARK  status: ('A' for Active; 'I' for Inactive)
ROOT
ATOM      1  C   UNL d   1       0.549  -4.632  -5.933  0.00  0.00     0.124 A 
ATOM      2  C1  UNL d   1      -0.246  -3.494  -5.940  0.00  0.00     0.062 A 
ATOM      3  C2  UNL d   1       0.340  -2.232  -5.953  0.00  0.00     0.162 A 
ATOM      4  C3  UNL d   1       1.729  -2.100  -5.961  0.00  0.00    -0.034 A 
ATOM      5  C4  UNL d   1       2.521  -3.250  -5.953  0.00  0.00     0.162 A 
ATOM      6  C5  UNL d   1       1.931  -4.509  -5.940  0.00  0.00     0.062 A 
ATOM      7  F   UNL d   1       2.700  -5.608  -5.933  0.00  0.00    -0.097 F 
ATOM      8  F1  UNL d   1       3.859  -3.160  -5.960  0.00  0.00    -0.096 F 
ATOM      9  I   UNL d   1       2.609  -0.214  -5.981  0.00  0.00    -0.060 I 
ATOM     10  F2  UNL d   1      -0.452  -1.149  -5.960  0.00  0.00    -0.096 F 
ATOM     11  F3  UNL d   1      -1.582  -3.611  -5.933  0.00  0.00    -0.097 F 
ATOM     12  F4  UNL d   1      -0.018  -5.846  -5.919  0.00  0.00    -0.092 F 
ENDROOT
TORSDOF 0
ENDMDL
