MODEL 1
REMARK minimizedAffinity 14.4466991
REMARK minimizedRMSD -1
REMARK  0 active torsions:
REMARK  status: ('A' for Active; 'I' for Inactive)
ROOT
ATOM      1  C   UNL d   1      -4.877  -5.239  -1.953  0.00  0.00     0.124 A 
ATOM      2  C1  UNL d   1      -5.010  -5.221  -3.334  0.00  0.00     0.062 A 
ATOM      3  C2  UNL d   1      -4.120  -4.488  -4.114  0.00  0.00     0.162 A 
ATOM      4  C3  UNL d   1      -3.088  -3.767  -3.513  0.00  0.00    -0.034 A 
ATOM      5  C4  UNL d   1      -2.962  -3.789  -2.123  0.00  0.00     0.162 A 
ATOM      6  C5  UNL d   1      -3.854  -4.523  -1.349  0.00  0.00     0.062 A 
ATOM      7  F   UNL d   1      -3.724  -4.539  -0.014  0.00  0.00    -0.097 F 
ATOM      8  F1  UNL d   1      -1.981  -3.107  -1.513  0.00  0.00    -0.096 F 
ATOM      9  I   UNL d   1      -1.755  -2.669  -4.675  0.00  0.00    -0.060 I 
ATOM     10  F2  UNL d   1      -4.272  -4.489  -5.446  0.00  0.00    -0.096 F 
ATOM     11  F3  UNL d   1      -5.999  -5.912  -3.921  0.00  0.00    -0.097 F 
ATOM     12  F4  UNL d   1      -5.736  -5.945  -1.205  0.00  0.00    -0.092 F 
ENDROOT
TORSDOF 0
ENDMDL
