MODEL 1
REMARK minimizedAffinity -2.25701547
REMARK minimizedRMSD -1
REMARK  0 active torsions:
REMARK  status: ('A' for Active; 'I' for Inactive)
ROOT
ATOM      1  C   UNL d   1       3.983  -4.015  -0.647  0.00  0.00     0.077 C 
ATOM      2  C1  UNL d   1       2.754  -3.319  -0.144  0.00  0.00    -0.074 A 
ATOM      3  C2  UNL d   1       1.588  -4.037   0.144  0.00  0.00    -0.005 A 
ATOM      4  C3  UNL d   1       0.455  -3.377   0.620  0.00  0.00     0.006 A 
ATOM      5  C4  UNL d   1       0.476  -1.996   0.813  0.00  0.00    -0.005 A 
ATOM      6  C5  UNL d   1       1.632  -1.261   0.532  0.00  0.00    -0.074 A 
ATOM      7  C6  UNL d   1       1.674   0.223   0.743  0.00  0.00     0.077 C 
ATOM      8  C7  UNL d   1       2.769  -1.932   0.060  0.00  0.00    -0.001 A 
ENDROOT
TORSDOF 0
ENDMDL
