MODEL 1
REMARK minimizedAffinity 0.893556714
REMARK minimizedRMSD -1
REMARK  0 active torsions:
REMARK  status: ('A' for Active; 'I' for Inactive)
ROOT
ATOM      1  C   UNL d   1       3.377  -4.692   0.034  0.00  0.00     0.077 C 
ATOM      2  C1  UNL d   1       2.373  -3.577   0.063  0.00  0.00    -0.074 A 
ATOM      3  C2  UNL d   1       1.067  -3.774  -0.397  0.00  0.00    -0.005 A 
ATOM      4  C3  UNL d   1       0.142  -2.731  -0.355  0.00  0.00     0.006 A 
ATOM      5  C4  UNL d   1       0.513  -1.483   0.146  0.00  0.00    -0.005 A 
ATOM      6  C5  UNL d   1       1.814  -1.267   0.611  0.00  0.00    -0.074 A 
ATOM      7  C6  UNL d   1       2.227   0.065   1.162  0.00  0.00     0.077 C 
ATOM      8  C7  UNL d   1       2.736  -2.323   0.572  0.00  0.00    -0.001 A 
ENDROOT
TORSDOF 0
ENDMDL
