MODEL 1
REMARK minimizedAffinity -4.43340826
REMARK minimizedRMSD -1
REMARK  0 active torsions:
REMARK  status: ('A' for Active; 'I' for Inactive)
ROOT
ATOM      1  C   UNL d   1      -1.151  -1.141   0.420  0.00  0.00     0.077 C 
ATOM      2  C1  UNL d   1       0.124  -1.911   0.243  0.00  0.00    -0.074 A 
ATOM      3  C2  UNL d   1       0.104  -3.279  -0.050  0.00  0.00    -0.005 A 
ATOM      4  C3  UNL d   1       1.297  -3.979  -0.222  0.00  0.00     0.006 A 
ATOM      5  C4  UNL d   1       2.522  -3.321  -0.103  0.00  0.00    -0.005 A 
ATOM      6  C5  UNL d   1       2.562  -1.954   0.189  0.00  0.00    -0.074 A 
ATOM      7  C6  UNL d   1       3.870  -1.229   0.310  0.00  0.00     0.077 C 
ATOM      8  C7  UNL d   1       1.358  -1.255   0.353  0.00  0.00    -0.001 A 
ENDROOT
TORSDOF 0
ENDMDL
