MODEL 1
REMARK minimizedAffinity -3.55578399
REMARK minimizedRMSD -1
REMARK  0 active torsions:
REMARK  status: ('A' for Active; 'I' for Inactive)
ROOT
ATOM      1  C   UNL d   1       3.970  -5.342  -0.027  0.00  0.00     0.077 C 
ATOM      2  C1  UNL d   1       3.299  -4.000   0.003  0.00  0.00    -0.074 A 
ATOM      3  C2  UNL d   1       4.043  -2.822  -0.115  0.00  0.00    -0.005 A 
ATOM      4  C3  UNL d   1       3.404  -1.582  -0.096  0.00  0.00     0.006 A 
ATOM      5  C4  UNL d   1       2.018  -1.508   0.042  0.00  0.00    -0.005 A 
ATOM      6  C5  UNL d   1       1.257  -2.676   0.160  0.00  0.00    -0.074 A 
ATOM      7  C6  UNL d   1      -0.235  -2.614   0.298  0.00  0.00     0.077 C 
ATOM      8  C7  UNL d   1       1.906  -3.918   0.132  0.00  0.00    -0.001 A 
ENDROOT
TORSDOF 0
ENDMDL
