MODEL 1
REMARK minimizedAffinity 1.26265609
REMARK minimizedRMSD -1
REMARK  0 active torsions:
REMARK  status: ('A' for Active; 'I' for Inactive)
ROOT
ATOM      1  C   UNL d   1       4.112  -1.103   1.161  0.00  0.00     0.077 C 
ATOM      2  C1  UNL d   1       2.715  -1.617   0.979  0.00  0.00    -0.074 A 
ATOM      3  C2  UNL d   1       2.481  -2.931   0.561  0.00  0.00    -0.005 A 
ATOM      4  C3  UNL d   1       1.176  -3.398   0.405  0.00  0.00     0.006 A 
ATOM      5  C4  UNL d   1       0.093  -2.557   0.665  0.00  0.00    -0.005 A 
ATOM      6  C5  UNL d   1       0.307  -1.240   1.085  0.00  0.00    -0.074 A 
ATOM      7  C6  UNL d   1      -0.845  -0.326   1.379  0.00  0.00     0.077 C 
ATOM      8  C7  UNL d   1       1.622  -0.781   1.246  0.00  0.00    -0.001 A 
ENDROOT
TORSDOF 0
ENDMDL
