MODEL 1
REMARK minimizedAffinity -2.49302983
REMARK minimizedRMSD -1
REMARK  0 active torsions:
REMARK  status: ('A' for Active; 'I' for Inactive)
ROOT
ATOM      1  C   UNL d   1       2.800  -4.266  -0.426  0.00  0.00     0.077 C 
ATOM      2  C1  UNL d   1       2.016  -3.036  -0.076  0.00  0.00    -0.074 A 
ATOM      3  C2  UNL d   1       2.638  -1.786   0.006  0.00  0.00    -0.005 A 
ATOM      4  C3  UNL d   1       1.894  -0.650   0.324  0.00  0.00     0.006 A 
ATOM      5  C4  UNL d   1       0.523  -0.752   0.563  0.00  0.00    -0.005 A 
ATOM      6  C5  UNL d   1      -0.116  -1.994   0.485  0.00  0.00    -0.074 A 
ATOM      7  C6  UNL d   1      -1.591  -2.119   0.730  0.00  0.00     0.077 C 
ATOM      8  C7  UNL d   1       0.637  -3.130   0.158  0.00  0.00    -0.001 A 
ENDROOT
TORSDOF 0
ENDMDL
