MODEL 1
REMARK minimizedAffinity 1.82711005
REMARK minimizedRMSD -1
REMARK  0 active torsions:
REMARK  status: ('A' for Active; 'I' for Inactive)
ROOT
ATOM      1  C   UNL d   1       3.497  -0.539   1.741  0.00  0.00     0.077 C 
ATOM      2  C1  UNL d   1       2.078  -0.724   1.293  0.00  0.00    -0.074 A 
ATOM      3  C2  UNL d   1       1.750  -1.669   0.316  0.00  0.00    -0.005 A 
ATOM      4  C3  UNL d   1       0.424  -1.836  -0.084  0.00  0.00     0.006 A 
ATOM      5  C4  UNL d   1      -0.586  -1.061   0.490  0.00  0.00    -0.005 A 
ATOM      6  C5  UNL d   1      -0.277  -0.112   1.469  0.00  0.00    -0.074 A 
ATOM      7  C6  UNL d   1      -1.351   0.721   2.103  0.00  0.00     0.077 C 
ATOM      8  C7  UNL d   1       1.057   0.045   1.870  0.00  0.00    -0.001 A 
ENDROOT
TORSDOF 0
ENDMDL
