MODEL 1
REMARK minimizedAffinity -3.74417877
REMARK minimizedRMSD -1
REMARK  0 active torsions:
REMARK  status: ('A' for Active; 'I' for Inactive)
ROOT
ATOM      1  C   UNL d   1       3.310  -4.558  -0.126  0.00  0.00     0.077 C 
ATOM      2  C1  UNL d   1       2.261  -3.509   0.096  0.00  0.00    -0.074 A 
ATOM      3  C2  UNL d   1       0.901  -3.825   0.024  0.00  0.00    -0.005 A 
ATOM      4  C3  UNL d   1      -0.063  -2.841   0.242  0.00  0.00     0.006 A 
ATOM      5  C4  UNL d   1       0.323  -1.532   0.535  0.00  0.00    -0.005 A 
ATOM      6  C5  UNL d   1       1.679  -1.197   0.612  0.00  0.00    -0.074 A 
ATOM      7  C6  UNL d   1       2.111   0.202   0.936  0.00  0.00     0.077 C 
ATOM      8  C7  UNL d   1       2.641  -2.194   0.398  0.00  0.00    -0.001 A 
ENDROOT
TORSDOF 0
ENDMDL
