MODEL 1
REMARK minimizedAffinity -0.749637187
REMARK minimizedRMSD -1
REMARK  0 active torsions:
REMARK  status: ('A' for Active; 'I' for Inactive)
ROOT
ATOM      1  C   UNL d   1       4.059  -1.417   0.031  0.00  0.00     0.077 C 
ATOM      2  C1  UNL d   1       2.696  -2.035   0.135  0.00  0.00    -0.074 A 
ATOM      3  C2  UNL d   1       2.482  -3.368  -0.227  0.00  0.00    -0.005 A 
ATOM      4  C3  UNL d   1       1.211  -3.932  -0.116  0.00  0.00     0.006 A 
ATOM      5  C4  UNL d   1       0.143  -3.168   0.358  0.00  0.00    -0.005 A 
ATOM      6  C5  UNL d   1       0.339  -1.833   0.726  0.00  0.00    -0.074 A 
ATOM      7  C6  UNL d   1      -0.796  -1.001   1.246  0.00  0.00     0.077 C 
ATOM      8  C7  UNL d   1       1.620  -1.276   0.617  0.00  0.00    -0.001 A 
ENDROOT
TORSDOF 0
ENDMDL
