MODEL 1
REMARK minimizedAffinity -3.2567358
REMARK minimizedRMSD -1
REMARK  0 active torsions:
REMARK  status: ('A' for Active; 'I' for Inactive)
ROOT
ATOM      1  C   UNL d   1       3.329  -4.575   0.000  0.00  0.00     0.077 C 
ATOM      2  C1  UNL d   1       2.334  -3.479   0.242  0.00  0.00    -0.074 A 
ATOM      3  C2  UNL d   1       0.960  -3.724   0.152  0.00  0.00    -0.005 A 
ATOM      4  C3  UNL d   1       0.046  -2.697   0.388  0.00  0.00     0.006 A 
ATOM      5  C4  UNL d   1       0.496  -1.417   0.717  0.00  0.00    -0.005 A 
ATOM      6  C5  UNL d   1       1.866  -1.155   0.812  0.00  0.00    -0.074 A 
ATOM      7  C6  UNL d   1       2.367   0.212   1.174  0.00  0.00     0.077 C 
ATOM      8  C7  UNL d   1       2.778  -2.193   0.580  0.00  0.00    -0.001 A 
ENDROOT
TORSDOF 0
ENDMDL
