MODEL 1
REMARK minimizedAffinity -4.14769316
REMARK minimizedRMSD -1
REMARK  0 active torsions:
REMARK  status: ('A' for Active; 'I' for Inactive)
ROOT
ATOM      1  C   UNL d   1       3.258  -4.797  -0.081  0.00  0.00     0.077 C 
ATOM      2  C1  UNL d   1       2.250  -3.705   0.121  0.00  0.00    -0.074 A 
ATOM      3  C2  UNL d   1       0.880  -3.960   0.001  0.00  0.00    -0.005 A 
ATOM      4  C3  UNL d   1      -0.046  -2.937   0.200  0.00  0.00     0.006 A 
ATOM      5  C4  UNL d   1       0.387  -1.650   0.521  0.00  0.00    -0.005 A 
ATOM      6  C5  UNL d   1       1.753  -1.376   0.646  0.00  0.00    -0.074 A 
ATOM      7  C6  UNL d   1       2.235  -0.000   0.999  0.00  0.00     0.077 C 
ATOM      8  C7  UNL d   1       2.677  -2.411   0.451  0.00  0.00    -0.001 A 
ENDROOT
TORSDOF 0
ENDMDL
