MODEL 1
REMARK minimizedAffinity -2.342556
REMARK minimizedRMSD -1
REMARK  0 active torsions:
REMARK  status: ('A' for Active; 'I' for Inactive)
ROOT
ATOM      1  C   UNL d   1       3.282  -4.911  -0.244  0.00  0.00     0.077 C 
ATOM      2  C1  UNL d   1       2.457  -3.714   0.126  0.00  0.00    -0.074 A 
ATOM      3  C2  UNL d   1       3.063  -2.495   0.447  0.00  0.00    -0.005 A 
ATOM      4  C3  UNL d   1       2.282  -1.388   0.780  0.00  0.00     0.006 A 
ATOM      5  C4  UNL d   1       0.891  -1.489   0.796  0.00  0.00    -0.005 A 
ATOM      6  C5  UNL d   1       0.267  -2.700   0.477  0.00  0.00    -0.074 A 
ATOM      7  C6  UNL d   1      -1.227  -2.823   0.480  0.00  0.00     0.077 C 
ATOM      8  C7  UNL d   1       1.058  -3.806   0.137  0.00  0.00    -0.001 A 
ENDROOT
TORSDOF 0
ENDMDL
