MODEL 1
REMARK minimizedAffinity -0.706399739
REMARK minimizedRMSD -1
REMARK  0 active torsions:
REMARK  status: ('A' for Active; 'I' for Inactive)
ROOT
ATOM      1  C   UNL d   1       4.327  -1.903   0.298  0.00  0.00     0.077 C 
ATOM      2  C1  UNL d   1       2.859  -2.161   0.466  0.00  0.00    -0.074 A 
ATOM      3  C2  UNL d   1       2.334  -3.449   0.316  0.00  0.00    -0.005 A 
ATOM      4  C3  UNL d   1       0.968  -3.676   0.485  0.00  0.00     0.006 A 
ATOM      5  C4  UNL d   1       0.115  -2.619   0.806  0.00  0.00    -0.005 A 
ATOM      6  C5  UNL d   1       0.622  -1.325   0.961  0.00  0.00    -0.074 A 
ATOM      7  C6  UNL d   1      -0.280  -0.180   1.315  0.00  0.00     0.077 C 
ATOM      8  C7  UNL d   1       1.996  -1.107   0.797  0.00  0.00    -0.001 A 
ENDROOT
TORSDOF 0
ENDMDL
