MODEL 1
REMARK minimizedAffinity 1.26807511
REMARK minimizedRMSD -1
REMARK  0 active torsions:
REMARK  status: ('A' for Active; 'I' for Inactive)
ROOT
ATOM      1  C   UNL d   1       3.467  -0.855  -0.026  0.00  0.00     0.077 C 
ATOM      2  C1  UNL d   1       2.988  -2.275   0.029  0.00  0.00    -0.074 A 
ATOM      3  C2  UNL d   1       1.634  -2.571   0.222  0.00  0.00    -0.005 A 
ATOM      4  C3  UNL d   1       1.202  -3.896   0.261  0.00  0.00     0.006 A 
ATOM      5  C4  UNL d   1       2.117  -4.938   0.107  0.00  0.00    -0.005 A 
ATOM      6  C5  UNL d   1       3.474  -4.662  -0.088  0.00  0.00    -0.074 A 
ATOM      7  C6  UNL d   1       4.470  -5.771  -0.265  0.00  0.00     0.077 C 
ATOM      8  C7  UNL d   1       3.900  -3.328  -0.133  0.00  0.00    -0.001 A 
ENDROOT
TORSDOF 0
ENDMDL
