MODEL 1
REMARK minimizedAffinity 10.2141762
REMARK minimizedRMSD -1
REMARK  0 active torsions:
REMARK  status: ('A' for Active; 'I' for Inactive)
ROOT
ATOM      1  C   UNL d   1       0.579  -1.038   4.042  0.00  0.00     0.077 C 
ATOM      2  C1  UNL d   1      -0.527  -0.028   3.951  0.00  0.00    -0.074 A 
ATOM      3  C2  UNL d   1      -1.416   0.162   5.013  0.00  0.00    -0.005 A 
ATOM      4  C3  UNL d   1      -2.434   1.111   4.917  0.00  0.00     0.006 A 
ATOM      5  C4  UNL d   1      -2.573   1.878   3.760  0.00  0.00    -0.005 A 
ATOM      6  C5  UNL d   1      -1.692   1.702   2.687  0.00  0.00    -0.074 A 
ATOM      7  C6  UNL d   1      -1.821   2.525   1.440  0.00  0.00     0.077 C 
ATOM      8  C7  UNL d   1      -0.668   0.752   2.794  0.00  0.00    -0.001 A 
ENDROOT
TORSDOF 0
ENDMDL
