MODEL 1
REMARK minimizedAffinity 2.34971023
REMARK minimizedRMSD -1
REMARK  0 active torsions:
REMARK  status: ('A' for Active; 'I' for Inactive)
ROOT
ATOM      1  C   UNL d   1       2.407   1.448  -3.108  0.00  0.00     0.077 C 
ATOM      2  C1  UNL d   1       2.656   2.317  -1.912  0.00  0.00    -0.074 A 
ATOM      3  C2  UNL d   1       3.920   2.374  -1.315  0.00  0.00    -0.005 A 
ATOM      4  C3  UNL d   1       4.138   3.194  -0.208  0.00  0.00     0.006 A 
ATOM      5  C4  UNL d   1       3.098   3.965   0.312  0.00  0.00    -0.005 A 
ATOM      6  C5  UNL d   1       1.828   3.922  -0.273  0.00  0.00    -0.074 A 
ATOM      7  C6  UNL d   1       0.701   4.752   0.267  0.00  0.00     0.077 C 
ATOM      8  C7  UNL d   1       1.618   3.100  -1.389  0.00  0.00    -0.001 A 
ENDROOT
TORSDOF 0
ENDMDL
