MODEL 1
REMARK minimizedAffinity -3.94741607
REMARK minimizedRMSD -1
REMARK  0 active torsions:
REMARK  status: ('A' for Active; 'I' for Inactive)
ROOT
ATOM      1  C   UNL d   1      -1.027  -0.439   0.425  0.00  0.00     0.077 C 
ATOM      2  C1  UNL d   1       0.036  -1.465   0.165  0.00  0.00    -0.074 A 
ATOM      3  C2  UNL d   1      -0.300  -2.791  -0.123  0.00  0.00    -0.005 A 
ATOM      4  C3  UNL d   1       0.700  -3.732  -0.372  0.00  0.00     0.006 A 
ATOM      5  C4  UNL d   1       2.043  -3.356  -0.336  0.00  0.00    -0.005 A 
ATOM      6  C5  UNL d   1       2.398  -2.033  -0.051  0.00  0.00    -0.074 A 
ATOM      7  C6  UNL d   1       3.836  -1.610  -0.018  0.00  0.00     0.077 C 
ATOM      8  C7  UNL d   1       1.387  -1.093   0.191  0.00  0.00    -0.001 A 
ENDROOT
TORSDOF 0
ENDMDL
