MODEL 1
REMARK minimizedAffinity -0.466281563
REMARK minimizedRMSD -1
REMARK  0 active torsions:
REMARK  status: ('A' for Active; 'I' for Inactive)
ROOT
ATOM      1  C1  DEN d   1       1.686  -0.767   1.848  0.00  0.00     0.130 A 
ATOM      2  C2  DEN d   1       2.100  -1.334   0.567  0.00  0.00    -0.031 A 
ATOM      3  C3  DEN d   1       1.046  -1.039  -0.425  0.00  0.00     0.027 A 
ATOM      4  C4  DEN d   1      -1.172   0.237  -0.104  0.00  0.00     0.027 A 
ATOM      5  C5  DEN d   1      -1.967   0.894   0.808  0.00  0.00    -0.003 A 
ATOM      6  C6  DEN d   1      -1.619   1.014   2.128  0.00  0.00     0.001 A 
ATOM      7  C7  DEN d   1      -0.424   0.506   2.563  0.00  0.00     0.017 A 
ATOM      8  C8  DEN d   1       0.380  -0.164   1.650  0.00  0.00    -0.094 A 
ATOM      9  C9  DEN d   1       0.016  -0.264   0.318  0.00  0.00    -0.072 A 
ENDROOT
TORSDOF 0
ENDMDL
