MODEL 1
REMARK minimizedAffinity -2.3889401
REMARK minimizedRMSD -1
REMARK  0 active torsions:
REMARK  status: ('A' for Active; 'I' for Inactive)
ROOT
ATOM      1  C1  DEN d   1      -1.168   0.374  -1.523  0.00  0.00     0.130 A 
ATOM      2  C2  DEN d   1       0.022   0.023  -2.295  0.00  0.00    -0.031 A 
ATOM      3  C3  DEN d   1       1.073  -0.398  -1.346  0.00  0.00     0.027 A 
ATOM      4  C4  DEN d   1       0.972  -0.545   1.227  0.00  0.00     0.027 A 
ATOM      5  C5  DEN d   1       0.177  -0.339   2.333  0.00  0.00    -0.003 A 
ATOM      6  C6  DEN d   1      -1.100   0.146   2.234  0.00  0.00     0.001 A 
ATOM      7  C7  DEN d   1      -1.636   0.400   0.999  0.00  0.00     0.017 A 
ATOM      8  C8  DEN d   1      -0.838   0.203  -0.120  0.00  0.00    -0.094 A 
ATOM      9  C9  DEN d   1       0.447  -0.300  -0.000  0.00  0.00    -0.072 A 
ENDROOT
TORSDOF 0
ENDMDL
