MODEL 1
REMARK minimizedAffinity -4.25968647
REMARK minimizedRMSD -1
REMARK  0 active torsions:
REMARK  status: ('A' for Active; 'I' for Inactive)
ROOT
ATOM      1  C1  DEN d   1       1.425  -0.615   1.122  0.00  0.00     0.130 A 
ATOM      2  C2  DEN d   1       1.159  -1.222  -0.180  0.00  0.00    -0.031 A 
ATOM      3  C3  DEN d   1      -0.112  -0.669  -0.689  0.00  0.00     0.027 A 
ATOM      4  C4  DEN d   1      -1.683   1.061   0.403  0.00  0.00     0.027 A 
ATOM      5  C5  DEN d   1      -1.883   1.852   1.513  0.00  0.00    -0.003 A 
ATOM      6  C6  DEN d   1      -1.020   1.851   2.576  0.00  0.00     0.001 A 
ATOM      7  C7  DEN d   1       0.109   1.076   2.533  0.00  0.00     0.017 A 
ATOM      8  C8  DEN d   1       0.314   0.270   1.421  0.00  0.00    -0.094 A 
ATOM      9  C9  DEN d   1      -0.564   0.294   0.351  0.00  0.00    -0.072 A 
ENDROOT
TORSDOF 0
ENDMDL
