MODEL 1
REMARK minimizedAffinity -3.97110868
REMARK minimizedRMSD -1
REMARK  0 active torsions:
REMARK  status: ('A' for Active; 'I' for Inactive)
ROOT
ATOM      1  C1  DEN d   1      -1.735   1.149   0.499  0.00  0.00     0.130 A 
ATOM      2  C2  DEN d   1      -1.729   1.669   1.863  0.00  0.00    -0.031 A 
ATOM      3  C3  DEN d   1      -0.510   1.176   2.535  0.00  0.00     0.027 A 
ATOM      4  C4  DEN d   1       1.361  -0.332   1.598  0.00  0.00     0.027 A 
ATOM      5  C5  DEN d   1       1.790  -1.034   0.493  0.00  0.00    -0.003 A 
ATOM      6  C6  DEN d   1       1.063  -1.085  -0.666  0.00  0.00     0.001 A 
ATOM      7  C7  DEN d   1      -0.111  -0.385  -0.763  0.00  0.00     0.017 A 
ATOM      8  C8  DEN d   1      -0.553   0.319   0.349  0.00  0.00    -0.094 A 
ATOM      9  C9  DEN d   1       0.203   0.369   1.508  0.00  0.00    -0.072 A 
ENDROOT
TORSDOF 0
ENDMDL
