MODEL 1
REMARK minimizedAffinity 7.21734762
REMARK minimizedRMSD -1
REMARK  0 active torsions:
REMARK  status: ('A' for Active; 'I' for Inactive)
ROOT
ATOM      1  C   UNL d   1      -5.801  -1.713   0.351  0.00  0.00     0.078 C 
ATOM      2  C1  UNL d   1      -5.249  -3.092   0.552  0.00  0.00    -0.077 A 
ATOM      3  C2  UNL d   1      -5.995  -4.080   1.207  0.00  0.00    -0.001 A 
ATOM      4  C3  UNL d   1      -5.465  -5.357   1.396  0.00  0.00     0.003 A 
ATOM      5  C4  UNL d   1      -4.185  -5.658   0.934  0.00  0.00    -0.005 A 
ATOM      6  C5  UNL d   1      -3.434  -4.682   0.284  0.00  0.00     0.003 A 
ATOM      7  C6  UNL d   1      -3.962  -3.404   0.094  0.00  0.00    -0.001 A 
ENDROOT
TORSDOF 0
ENDMDL
