MODEL 1
REMARK minimizedAffinity -3.82183361
REMARK minimizedRMSD -1
REMARK  0 active torsions:
REMARK  status: ('A' for Active; 'I' for Inactive)
ROOT
ATOM      1  C   UNL d   1      -4.887  -5.998   2.459  0.00  0.00     0.078 C 
ATOM      2  C1  UNL d   1      -4.891  -4.705   1.698  0.00  0.00    -0.077 A 
ATOM      3  C2  UNL d   1      -3.803  -4.337   0.897  0.00  0.00    -0.001 A 
ATOM      4  C3  UNL d   1      -3.816  -3.126   0.202  0.00  0.00     0.003 A 
ATOM      5  C4  UNL d   1      -4.914  -2.274   0.303  0.00  0.00    -0.005 A 
ATOM      6  C5  UNL d   1      -6.000  -2.631   1.099  0.00  0.00     0.003 A 
ATOM      7  C6  UNL d   1      -5.988  -3.841   1.795  0.00  0.00    -0.001 A 
ENDROOT
TORSDOF 0
ENDMDL
