MODEL 1
REMARK minimizedAffinity -0.504971206
REMARK minimizedRMSD -1
REMARK  0 active torsions:
REMARK  status: ('A' for Active; 'I' for Inactive)
ROOT
ATOM      1  C   UNL d   1      -4.321   0.227   4.797  0.00  0.00     0.078 C 
ATOM      2  C1  UNL d   1      -3.526   0.679   3.609  0.00  0.00    -0.077 A 
ATOM      3  C2  UNL d   1      -2.437  -0.068   3.143  0.00  0.00    -0.001 A 
ATOM      4  C3  UNL d   1      -1.700   0.371   2.042  0.00  0.00     0.003 A 
ATOM      5  C4  UNL d   1      -2.042   1.558   1.398  0.00  0.00    -0.005 A 
ATOM      6  C5  UNL d   1      -3.123   2.309   1.856  0.00  0.00     0.003 A 
ATOM      7  C6  UNL d   1      -3.862   1.872   2.957  0.00  0.00    -0.001 A 
ENDROOT
TORSDOF 0
ENDMDL
