MODEL 1
REMARK minimizedAffinity 4.78117132
REMARK minimizedRMSD -1
REMARK  0 active torsions:
REMARK  status: ('A' for Active; 'I' for Inactive)
ROOT
ATOM      1  C   UNL d   1      -5.128  -1.743  -0.013  0.00  0.00     0.078 C 
ATOM      2  C1  UNL d   1      -4.903  -3.225   0.042  0.00  0.00    -0.077 A 
ATOM      3  C2  UNL d   1      -3.608  -3.758   0.045  0.00  0.00    -0.001 A 
ATOM      4  C3  UNL d   1      -3.414  -5.139   0.087  0.00  0.00     0.003 A 
ATOM      5  C4  UNL d   1      -4.509  -5.999   0.125  0.00  0.00    -0.005 A 
ATOM      6  C5  UNL d   1      -5.802  -5.478   0.120  0.00  0.00     0.003 A 
ATOM      7  C6  UNL d   1      -5.998  -4.097   0.078  0.00  0.00    -0.001 A 
ENDROOT
TORSDOF 0
ENDMDL
