MODEL 1
REMARK minimizedAffinity -0.258999437
REMARK minimizedRMSD -1
REMARK  0 active torsions:
REMARK  status: ('A' for Active; 'I' for Inactive)
ROOT
ATOM      1  C   UNL d   1      -1.806  -2.264  -5.998  0.00  0.00     0.078 C 
ATOM      2  C1  UNL d   1      -3.265  -2.551  -5.802  0.00  0.00    -0.077 A 
ATOM      3  C2  UNL d   1      -3.780  -3.838  -6.000  0.00  0.00    -0.001 A 
ATOM      4  C3  UNL d   1      -5.141  -4.088  -5.824  0.00  0.00     0.003 A 
ATOM      5  C4  UNL d   1      -6.000  -3.056  -5.450  0.00  0.00    -0.005 A 
ATOM      6  C5  UNL d   1      -5.497  -1.772  -5.253  0.00  0.00     0.003 A 
ATOM      7  C6  UNL d   1      -4.136  -1.519  -5.429  0.00  0.00    -0.001 A 
ENDROOT
TORSDOF 0
ENDMDL
