MODEL 1
REMARK minimizedAffinity 9.61072159
REMARK minimizedRMSD -1
REMARK  0 active torsions:
REMARK  status: ('A' for Active; 'I' for Inactive)
ROOT
ATOM      1  C   UNL d   1       3.007   2.675  -5.996  0.00  0.00     0.078 C 
ATOM      2  C1  UNL d   1       2.307   1.476  -5.431  0.00  0.00    -0.077 A 
ATOM      3  C2  UNL d   1       1.028   1.113  -5.870  0.00  0.00    -0.001 A 
ATOM      4  C3  UNL d   1       0.384   0.000  -5.328  0.00  0.00     0.003 A 
ATOM      5  C4  UNL d   1       1.011  -0.759  -4.342  0.00  0.00    -0.005 A 
ATOM      6  C5  UNL d   1       2.283  -0.404  -3.896  0.00  0.00     0.003 A 
ATOM      7  C6  UNL d   1       2.928   0.708  -4.437  0.00  0.00    -0.001 A 
ENDROOT
TORSDOF 0
ENDMDL
