MODEL 1
REMARK minimizedAffinity 5.23954296
REMARK minimizedRMSD -1
REMARK  0 active torsions:
REMARK  status: ('A' for Active; 'I' for Inactive)
ROOT
ATOM      1  C   UNL d   1      -5.152  -0.345  -3.734  0.00  0.00     0.078 C 
ATOM      2  C1  UNL d   1      -4.771  -1.564  -4.521  0.00  0.00    -0.077 A 
ATOM      3  C2  UNL d   1      -3.583  -1.602  -5.261  0.00  0.00    -0.001 A 
ATOM      4  C3  UNL d   1      -3.245  -2.739  -5.996  0.00  0.00     0.003 A 
ATOM      5  C4  UNL d   1      -4.091  -3.847  -6.000  0.00  0.00    -0.005 A 
ATOM      6  C5  UNL d   1      -5.276  -3.817  -5.268  0.00  0.00     0.003 A 
ATOM      7  C6  UNL d   1      -5.616  -2.681  -4.532  0.00  0.00    -0.001 A 
ENDROOT
TORSDOF 0
ENDMDL
