MODEL 1
REMARK minimizedAffinity 2.59383559
REMARK minimizedRMSD -1
REMARK  0 active torsions:
REMARK  status: ('A' for Active; 'I' for Inactive)
ROOT
ATOM      1  C   UNL d   1      -3.389   3.369   2.476  0.00  0.00     0.078 C 
ATOM      2  C1  UNL d   1      -2.676   2.137   2.006  0.00  0.00    -0.077 A 
ATOM      3  C2  UNL d   1      -2.707   1.754   0.659  0.00  0.00    -0.001 A 
ATOM      4  C3  UNL d   1      -2.046   0.600   0.238  0.00  0.00     0.003 A 
ATOM      5  C4  UNL d   1      -1.350  -0.183   1.156  0.00  0.00    -0.005 A 
ATOM      6  C5  UNL d   1      -1.315   0.188   2.499  0.00  0.00     0.003 A 
ATOM      7  C6  UNL d   1      -1.975   1.342   2.923  0.00  0.00    -0.001 A 
ENDROOT
TORSDOF 0
ENDMDL
