MODEL 1
REMARK minimizedAffinity 7.58002472
REMARK minimizedRMSD -1
REMARK  0 active torsions:
REMARK  status: ('A' for Active; 'I' for Inactive)
ROOT
ATOM      1  C   UNL d   1      -4.871  -4.119  -5.988  0.00  0.00     0.078 C 
ATOM      2  C1  UNL d   1      -3.456  -3.625  -5.998  0.00  0.00    -0.077 A 
ATOM      3  C2  UNL d   1      -2.379  -4.520  -5.998  0.00  0.00    -0.001 A 
ATOM      4  C3  UNL d   1      -1.066  -4.045  -5.998  0.00  0.00     0.003 A 
ATOM      5  C4  UNL d   1      -0.818  -2.674  -5.998  0.00  0.00    -0.005 A 
ATOM      6  C5  UNL d   1      -1.883  -1.775  -5.997  0.00  0.00     0.003 A 
ATOM      7  C6  UNL d   1      -3.196  -2.248  -5.996  0.00  0.00    -0.001 A 
ENDROOT
TORSDOF 0
ENDMDL
