MODEL 1
REMARK minimizedAffinity 12.3756905
REMARK minimizedRMSD -1
REMARK  0 active torsions:
REMARK  status: ('A' for Active; 'I' for Inactive)
ROOT
ATOM      1  C   UNL d   1       0.606   0.691   3.240  0.00  0.00     0.078 C 
ATOM      2  C1  UNL d   1      -0.703   0.657   2.508  0.00  0.00    -0.077 A 
ATOM      3  C2  UNL d   1      -1.810  -0.013   3.042  0.00  0.00    -0.001 A 
ATOM      4  C3  UNL d   1      -3.019  -0.045   2.345  0.00  0.00     0.003 A 
ATOM      5  C4  UNL d   1      -3.132   0.591   1.110  0.00  0.00    -0.005 A 
ATOM      6  C5  UNL d   1      -2.035   1.259   0.570  0.00  0.00     0.003 A 
ATOM      7  C6  UNL d   1      -0.825   1.292   1.265  0.00  0.00    -0.001 A 
ENDROOT
TORSDOF 0
ENDMDL
