MODEL 1
REMARK minimizedAffinity 6.10748386
REMARK minimizedRMSD -1
REMARK  0 active torsions:
REMARK  status: ('A' for Active; 'I' for Inactive)
ROOT
ATOM      1  C   UNL d   1      -1.158  -3.128  -5.790  0.00  0.00     0.078 C 
ATOM      2  C1  UNL d   1      -0.337  -1.977  -5.288  0.00  0.00    -0.077 A 
ATOM      3  C2  UNL d   1      -0.688  -0.656  -5.589  0.00  0.00    -0.001 A 
ATOM      4  C3  UNL d   1       0.091   0.405  -5.123  0.00  0.00     0.003 A 
ATOM      5  C4  UNL d   1       1.226   0.155  -4.355  0.00  0.00    -0.005 A 
ATOM      6  C5  UNL d   1       1.585  -1.157  -4.053  0.00  0.00     0.003 A 
ATOM      7  C6  UNL d   1       0.807  -2.219  -4.517  0.00  0.00    -0.001 A 
ENDROOT
TORSDOF 0
ENDMDL
