MODEL 1
REMARK minimizedAffinity 7.75007772
REMARK minimizedRMSD -1
REMARK  0 active torsions:
REMARK  status: ('A' for Active; 'I' for Inactive)
ROOT
ATOM      1  C   UNL d   1       5.911  -1.529   4.735  0.00  0.00     0.078 C 
ATOM      2  C1  UNL d   1       5.929  -3.028   4.768  0.00  0.00    -0.077 A 
ATOM      3  C2  UNL d   1       5.922  -3.723   5.984  0.00  0.00    -0.001 A 
ATOM      4  C3  UNL d   1       5.948  -5.118   6.000  0.00  0.00     0.003 A 
ATOM      5  C4  UNL d   1       5.984  -5.831   4.803  0.00  0.00    -0.005 A 
ATOM      6  C5  UNL d   1       5.994  -5.149   3.589  0.00  0.00     0.003 A 
ATOM      7  C6  UNL d   1       5.968  -3.753   3.570  0.00  0.00    -0.001 A 
ENDROOT
TORSDOF 0
ENDMDL
