MODEL 1
REMARK minimizedAffinity 5.90119314
REMARK minimizedRMSD -1
REMARK  0 active torsions:
REMARK  status: ('A' for Active; 'I' for Inactive)
ROOT
ATOM      1  C   UNL d   1       5.842   3.692  -4.776  0.00  0.00     0.078 C 
ATOM      2  C1  UNL d   1       4.499   4.349  -4.885  0.00  0.00    -0.077 A 
ATOM      3  C2  UNL d   1       3.605   3.998  -5.905  0.00  0.00    -0.001 A 
ATOM      4  C3  UNL d   1       2.362   4.626  -6.000  0.00  0.00     0.003 A 
ATOM      5  C4  UNL d   1       2.001   5.608  -5.080  0.00  0.00    -0.005 A 
ATOM      6  C5  UNL d   1       2.885   5.966  -4.064  0.00  0.00     0.003 A 
ATOM      7  C6  UNL d   1       4.129   5.339  -3.967  0.00  0.00    -0.001 A 
ENDROOT
TORSDOF 0
ENDMDL
