MODEL 1
REMARK minimizedAffinity 4.82180595
REMARK minimizedRMSD -1
REMARK  0 active torsions:
REMARK  status: ('A' for Active; 'I' for Inactive)
ROOT
ATOM      1  C   UNL d   1       2.388   3.838  -1.530  0.00  0.00     0.078 C 
ATOM      2  C1  UNL d   1       2.742   4.238  -2.931  0.00  0.00    -0.077 A 
ATOM      3  C2  UNL d   1       1.766   4.716  -3.814  0.00  0.00    -0.001 A 
ATOM      4  C3  UNL d   1       2.108   5.075  -5.118  0.00  0.00     0.003 A 
ATOM      5  C4  UNL d   1       3.427   4.960  -5.553  0.00  0.00    -0.005 A 
ATOM      6  C5  UNL d   1       4.405   4.483  -4.683  0.00  0.00     0.003 A 
ATOM      7  C6  UNL d   1       4.065   4.123  -3.378  0.00  0.00    -0.001 A 
ENDROOT
TORSDOF 0
ENDMDL
