MODEL 1
REMARK minimizedAffinity 3.51241302
REMARK minimizedRMSD -1
REMARK  0 active torsions:
REMARK  status: ('A' for Active; 'I' for Inactive)
ROOT
ATOM      1  C   UNL d   1      -5.766  -3.399  -5.992  0.00  0.00     0.078 C 
ATOM      2  C1  UNL d   1      -4.286  -3.644  -5.985  0.00  0.00    -0.077 A 
ATOM      3  C2  UNL d   1      -3.379  -2.578  -5.979  0.00  0.00    -0.001 A 
ATOM      4  C3  UNL d   1      -2.004  -2.820  -5.982  0.00  0.00     0.003 A 
ATOM      5  C4  UNL d   1      -1.525  -4.128  -5.992  0.00  0.00    -0.005 A 
ATOM      6  C5  UNL d   1      -2.420  -5.196  -6.000  0.00  0.00     0.003 A 
ATOM      7  C6  UNL d   1      -3.795  -4.955  -5.997  0.00  0.00    -0.001 A 
ENDROOT
TORSDOF 0
ENDMDL
