MODEL 1
REMARK minimizedAffinity 6.13533592
REMARK minimizedRMSD -1
REMARK  0 active torsions:
REMARK  status: ('A' for Active; 'I' for Inactive)
ROOT
ATOM      1  C   UNL d   1       3.568   1.198  -6.000  0.00  0.00     0.078 C 
ATOM      2  C1  UNL d   1       4.100   2.599  -5.958  0.00  0.00    -0.077 A 
ATOM      3  C2  UNL d   1       5.478   2.847  -5.918  0.00  0.00    -0.001 A 
ATOM      4  C3  UNL d   1       5.958   4.156  -5.870  0.00  0.00     0.003 A 
ATOM      5  C4  UNL d   1       5.068   5.228  -5.860  0.00  0.00    -0.005 A 
ATOM      6  C5  UNL d   1       3.696   4.992  -5.897  0.00  0.00     0.003 A 
ATOM      7  C6  UNL d   1       3.213   3.683  -5.945  0.00  0.00    -0.001 A 
ENDROOT
TORSDOF 0
ENDMDL
