MODEL 1
REMARK minimizedAffinity -1.50907993
REMARK minimizedRMSD -1
REMARK  0 active torsions:
REMARK  status: ('A' for Active; 'I' for Inactive)
ROOT
ATOM      1  C   UNL d   1      -3.915   0.931   5.775  0.00  0.00     0.078 C 
ATOM      2  C1  UNL d   1      -2.772   1.437   4.947  0.00  0.00    -0.077 A 
ATOM      3  C2  UNL d   1      -2.004   0.564   4.166  0.00  0.00    -0.001 A 
ATOM      4  C3  UNL d   1      -0.937   1.048   3.408  0.00  0.00     0.003 A 
ATOM      5  C4  UNL d   1      -0.627   2.407   3.423  0.00  0.00    -0.005 A 
ATOM      6  C5  UNL d   1      -1.383   3.283   4.199  0.00  0.00     0.003 A 
ATOM      7  C6  UNL d   1      -2.451   2.801   4.958  0.00  0.00    -0.001 A 
ENDROOT
TORSDOF 0
ENDMDL
