MODEL 1
REMARK minimizedAffinity 7.05764484
REMARK minimizedRMSD -1
REMARK  0 active torsions:
REMARK  status: ('A' for Active; 'I' for Inactive)
ROOT
ATOM      1  C1  DEN d   1       2.080   0.036   0.181  0.00  0.00     0.130 A 
ATOM      2  C2  DEN d   1       2.106  -0.670  -1.097  0.00  0.00    -0.031 A 
ATOM      3  C3  DEN d   1       1.611   0.252  -2.138  0.00  0.00     0.027 A 
ATOM      4  C4  DEN d   1       0.818   2.695  -1.899  0.00  0.00     0.027 A 
ATOM      5  C5  DEN d   1       0.604   3.723  -1.008  0.00  0.00    -0.003 A 
ATOM      6  C6  DEN d   1       0.833   3.585   0.335  0.00  0.00     0.001 A 
ATOM      7  C7  DEN d   1       1.333   2.406   0.821  0.00  0.00     0.017 A 
ATOM      8  C8  DEN d   1       1.544   1.362  -0.070  0.00  0.00    -0.094 A 
ATOM      9  C9  DEN d   1       1.318   1.525  -1.426  0.00  0.00    -0.072 A 
ENDROOT
TORSDOF 0
ENDMDL
