MODEL 1
REMARK minimizedAffinity 7.811831
REMARK minimizedRMSD -1
REMARK  0 active torsions:
REMARK  status: ('A' for Active; 'I' for Inactive)
ROOT
ATOM      1  C1  DEN d   1       1.202   3.254  -0.527  0.00  0.00     0.130 A 
ATOM      2  C2  DEN d   1       1.036   3.299  -1.977  0.00  0.00    -0.031 A 
ATOM      3  C3  DEN d   1       1.028   1.911  -2.479  0.00  0.00     0.027 A 
ATOM      4  C4  DEN d   1       1.249  -0.294  -1.159  0.00  0.00     0.027 A 
ATOM      5  C5  DEN d   1       1.421  -0.839   0.094  0.00  0.00    -0.003 A 
ATOM      6  C6  DEN d   1       1.564  -0.064   1.214  0.00  0.00     0.001 A 
ATOM      7  C7  DEN d   1       1.494   1.300   1.110  0.00  0.00     0.017 A 
ATOM      8  C8  DEN d   1       1.328   1.857  -0.151  0.00  0.00    -0.094 A 
ATOM      9  C9  DEN d   1       1.173   1.057  -1.270  0.00  0.00    -0.072 A 
ENDROOT
TORSDOF 0
ENDMDL
