MODEL 1
REMARK minimizedAffinity -1.15457547
REMARK minimizedRMSD -1
REMARK  0 active torsions:
REMARK  status: ('A' for Active; 'I' for Inactive)
ROOT
ATOM      1  C1  DEN d   1       0.500  -1.757  -2.021  0.00  0.00     0.130 A 
ATOM      2  C2  DEN d   1       1.051  -2.893  -1.286  0.00  0.00    -0.031 A 
ATOM      3  C3  DEN d   1       1.600  -2.389  -0.011  0.00  0.00     0.027 A 
ATOM      4  C4  DEN d   1       1.645   0.025   0.895  0.00  0.00     0.027 A 
ATOM      5  C5  DEN d   1       1.307   1.333   0.623  0.00  0.00    -0.003 A 
ATOM      6  C6  DEN d   1       0.712   1.704  -0.554  0.00  0.00     0.001 A 
ATOM      7  C7  DEN d   1       0.396   0.750  -1.485  0.00  0.00     0.017 A 
ATOM      8  C8  DEN d   1       0.740  -0.570  -1.221  0.00  0.00    -0.094 A 
ATOM      9  C9  DEN d   1       1.330  -0.926  -0.020  0.00  0.00    -0.072 A 
ENDROOT
TORSDOF 0
ENDMDL
