MODEL 1
REMARK minimizedAffinity -0.505543053
REMARK minimizedRMSD -1
REMARK  0 active torsions:
REMARK  status: ('A' for Active; 'I' for Inactive)
ROOT
ATOM      1  C1  DEN d   1       1.401   1.719   1.465  0.00  0.00     0.130 A 
ATOM      2  C2  DEN d   1       1.098   0.292   1.408  0.00  0.00    -0.031 A 
ATOM      3  C3  DEN d   1       0.794  -0.054   0.005  0.00  0.00     0.027 A 
ATOM      4  C4  DEN d   1       0.767   1.472  -2.074  0.00  0.00     0.027 A 
ATOM      5  C5  DEN d   1       0.947   2.763  -2.521  0.00  0.00    -0.003 A 
ATOM      6  C6  DEN d   1       1.254   3.793  -1.673  0.00  0.00     0.001 A 
ATOM      7  C7  DEN d   1       1.436   3.543  -0.339  0.00  0.00     0.017 A 
ATOM      8  C8  DEN d   1       1.250   2.246   0.121  0.00  0.00    -0.094 A 
ATOM      9  C9  DEN d   1       0.951   1.216  -0.754  0.00  0.00    -0.072 A 
ENDROOT
TORSDOF 0
ENDMDL
