MODEL 1
REMARK minimizedAffinity -3.50880241
REMARK minimizedRMSD -1
REMARK  0 active torsions:
REMARK  status: ('A' for Active; 'I' for Inactive)
ROOT
ATOM      1  C1  DEN d   1       1.103   0.393  -1.496  0.00  0.00     0.130 A 
ATOM      2  C2  DEN d   1       1.199  -0.589  -0.420  0.00  0.00    -0.031 A 
ATOM      3  C3  DEN d   1       1.192   0.138   0.865  0.00  0.00     0.027 A 
ATOM      4  C4  DEN d   1       1.036   2.677   1.291  0.00  0.00     0.027 A 
ATOM      5  C5  DEN d   1       0.949   3.913   0.689  0.00  0.00    -0.003 A 
ATOM      6  C6  DEN d   1       0.941   4.064  -0.672  0.00  0.00     0.001 A 
ATOM      7  C7  DEN d   1       0.977   2.956  -1.478  0.00  0.00     0.017 A 
ATOM      8  C8  DEN d   1       1.072   1.707  -0.878  0.00  0.00    -0.094 A 
ATOM      9  C9  DEN d   1       1.066   1.575   0.500  0.00  0.00    -0.072 A 
ENDROOT
TORSDOF 0
ENDMDL
