MODEL 1
REMARK minimizedAffinity -0.501552701
REMARK minimizedRMSD -1
REMARK  0 active torsions:
REMARK  status: ('A' for Active; 'I' for Inactive)
ROOT
ATOM      1  C1  DEN d   1      -2.914   1.879   2.042  0.00  0.00     0.130 A 
ATOM      2  C2  DEN d   1      -4.110   1.042   2.006  0.00  0.00    -0.031 A 
ATOM      3  C3  DEN d   1      -4.717   1.056   3.352  0.00  0.00     0.027 A 
ATOM      4  C4  DEN d   1      -3.927   2.289   5.476  0.00  0.00     0.027 A 
ATOM      5  C5  DEN d   1      -2.955   3.113   5.999  0.00  0.00    -0.003 A 
ATOM      6  C6  DEN d   1      -1.892   3.553   5.256  0.00  0.00     0.001 A 
ATOM      7  C7  DEN d   1      -1.799   3.207   3.933  0.00  0.00     0.017 A 
ATOM      8  C8  DEN d   1      -2.771   2.370   3.401  0.00  0.00    -0.094 A 
ATOM      9  C9  DEN d   1      -3.845   1.946   4.165  0.00  0.00    -0.072 A 
ENDROOT
TORSDOF 0
ENDMDL
