MODEL 1
REMARK minimizedAffinity -3.73898149
REMARK minimizedRMSD -1
REMARK  0 active torsions:
REMARK  status: ('A' for Active; 'I' for Inactive)
ROOT
ATOM      1  C1  DEN d   1       1.301   0.077   0.695  0.00  0.00     0.130 A 
ATOM      2  C2  DEN d   1       1.185   1.210   1.609  0.00  0.00    -0.031 A 
ATOM      3  C3  DEN d   1       1.012   2.433   0.800  0.00  0.00     0.027 A 
ATOM      4  C4  DEN d   1       0.909   2.681  -1.765  0.00  0.00     0.027 A 
ATOM      5  C5  DEN d   1       0.972   2.003  -2.962  0.00  0.00    -0.003 A 
ATOM      6  C6  DEN d   1       1.182   0.650  -3.024  0.00  0.00     0.001 A 
ATOM      7  C7  DEN d   1       1.291  -0.074  -1.866  0.00  0.00     0.017 A 
ATOM      8  C8  DEN d   1       1.235   0.605  -0.656  0.00  0.00    -0.094 A 
ATOM      9  C9  DEN d   1       1.010   1.970  -0.614  0.00  0.00    -0.072 A 
ENDROOT
TORSDOF 0
ENDMDL
