MODEL 1
REMARK minimizedAffinity 1.76264036
REMARK minimizedRMSD -1
REMARK  0 active torsions:
REMARK  status: ('A' for Active; 'I' for Inactive)
ROOT
ATOM      1  C1  DEN d   1       1.197   2.693   1.559  0.00  0.00     0.130 A 
ATOM      2  C2  DEN d   1       1.562   1.790   2.647  0.00  0.00    -0.031 A 
ATOM      3  C3  DEN d   1       1.733   0.438   2.080  0.00  0.00     0.027 A 
ATOM      4  C4  DEN d   1       1.475  -0.341  -0.365  0.00  0.00     0.027 A 
ATOM      5  C5  DEN d   1       1.164   0.062  -1.645  0.00  0.00    -0.003 A 
ATOM      6  C6  DEN d   1       0.813   1.353  -1.939  0.00  0.00     0.001 A 
ATOM      7  C7  DEN d   1       0.807   2.297  -0.946  0.00  0.00     0.017 A 
ATOM      8  C8  DEN d   1       1.112   1.896   0.348  0.00  0.00    -0.094 A 
ATOM      9  C9  DEN d   1       1.476   0.589   0.622  0.00  0.00    -0.072 A 
ENDROOT
TORSDOF 0
ENDMDL
