MODEL 1
REMARK minimizedAffinity 1.43419492
REMARK minimizedRMSD -1
REMARK  0 active torsions:
REMARK  status: ('A' for Active; 'I' for Inactive)
ROOT
ATOM      1  C1  DEN d   1       1.126  -0.992   0.621  0.00  0.00     0.130 A 
ATOM      2  C2  DEN d   1       1.120  -1.699  -0.657  0.00  0.00    -0.031 A 
ATOM      3  C3  DEN d   1       1.111  -0.691  -1.736  0.00  0.00     0.027 A 
ATOM      4  C4  DEN d   1       1.111   1.882  -1.553  0.00  0.00     0.027 A 
ATOM      5  C5  DEN d   1       1.104   2.945  -0.677  0.00  0.00    -0.003 A 
ATOM      6  C6  DEN d   1       1.069   2.772   0.681  0.00  0.00     0.001 A 
ATOM      7  C7  DEN d   1       1.086   1.506   1.205  0.00  0.00     0.017 A 
ATOM      8  C8  DEN d   1       1.086   0.429   0.328  0.00  0.00    -0.094 A 
ATOM      9  C9  DEN d   1       1.134   0.625  -1.042  0.00  0.00    -0.072 A 
ENDROOT
TORSDOF 0
ENDMDL
