MODEL 1
REMARK minimizedAffinity -3.48776984
REMARK minimizedRMSD -1
REMARK  0 active torsions:
REMARK  status: ('A' for Active; 'I' for Inactive)
ROOT
ATOM      1  C1  DEN d   1       1.085   0.866  -2.205  0.00  0.00     0.130 A 
ATOM      2  C2  DEN d   1       0.888  -0.422  -1.545  0.00  0.00    -0.031 A 
ATOM      3  C3  DEN d   1       0.836  -0.185  -0.088  0.00  0.00     0.027 A 
ATOM      4  C4  DEN d   1       1.035   2.040   1.202  0.00  0.00     0.027 A 
ATOM      5  C5  DEN d   1       1.221   3.399   1.074  0.00  0.00    -0.003 A 
ATOM      6  C6  DEN d   1       1.408   3.999  -0.143  0.00  0.00     0.001 A 
ATOM      7  C7  DEN d   1       1.367   3.245  -1.285  0.00  0.00     0.017 A 
ATOM      8  C8  DEN d   1       1.187   1.873  -1.164  0.00  0.00    -0.094 A 
ATOM      9  C9  DEN d   1       0.988   1.287   0.074  0.00  0.00    -0.072 A 
ENDROOT
TORSDOF 0
ENDMDL
