MODEL 1
REMARK minimizedAffinity -3.85040879
REMARK minimizedRMSD -1
REMARK  0 active torsions:
REMARK  status: ('A' for Active; 'I' for Inactive)
ROOT
ATOM      1  C1  DEN d   1       1.328  -0.375  -1.884  0.00  0.00     0.130 A 
ATOM      2  C2  DEN d   1       1.435  -1.294  -0.754  0.00  0.00    -0.031 A 
ATOM      3  C3  DEN d   1       1.195  -0.526   0.484  0.00  0.00     0.027 A 
ATOM      4  C4  DEN d   1       0.665   1.984   0.759  0.00  0.00     0.027 A 
ATOM      5  C5  DEN d   1       0.483   3.173   0.088  0.00  0.00    -0.003 A 
ATOM      6  C6  DEN d   1       0.602   3.269  -1.273  0.00  0.00     0.001 A 
ATOM      7  C7  DEN d   1       0.867   2.146  -2.012  0.00  0.00     0.017 A 
ATOM      8  C8  DEN d   1       1.060   0.945  -1.342  0.00  0.00    -0.094 A 
ATOM      9  C9  DEN d   1       0.923   0.866   0.034  0.00  0.00    -0.072 A 
ENDROOT
TORSDOF 0
ENDMDL
