MODEL 1
REMARK minimizedAffinity -1.81750309
REMARK minimizedRMSD -1
REMARK  0 active torsions:
REMARK  status: ('A' for Active; 'I' for Inactive)
ROOT
ATOM      1  C1  DEN d   1       0.767  -1.316  -1.846  0.00  0.00     0.130 A 
ATOM      2  C2  DEN d   1       1.126  -2.311  -0.840  0.00  0.00    -0.031 A 
ATOM      3  C3  DEN d   1       1.475  -1.597   0.405  0.00  0.00     0.027 A 
ATOM      4  C4  DEN d   1       1.490   0.940   0.869  0.00  0.00     0.027 A 
ATOM      5  C5  DEN d   1       1.272   2.183   0.318  0.00  0.00    -0.003 A 
ATOM      6  C6  DEN d   1       0.906   2.348  -0.991  0.00  0.00     0.001 A 
ATOM      7  C7  DEN d   1       0.703   1.248  -1.783  0.00  0.00     0.017 A 
ATOM      8  C8  DEN d   1       0.929  -0.009  -1.236  0.00  0.00    -0.094 A 
ATOM      9  C9  DEN d   1       1.286  -0.154   0.093  0.00  0.00    -0.072 A 
ENDROOT
TORSDOF 0
ENDMDL
