MODEL 1
REMARK minimizedAffinity 2.76658726
REMARK minimizedRMSD -1
REMARK  0 active torsions:
REMARK  status: ('A' for Active; 'I' for Inactive)
ROOT
ATOM      1  C1  DEN d   1       0.706   0.277   0.808  0.00  0.00     0.130 A 
ATOM      2  C2  DEN d   1       0.957  -0.834  -0.106  0.00  0.00    -0.031 A 
ATOM      3  C3  DEN d   1       1.208  -0.272  -1.448  0.00  0.00     0.027 A 
ATOM      4  C4  DEN d   1       1.236   2.197  -2.195  0.00  0.00     0.027 A 
ATOM      5  C5  DEN d   1       1.067   3.498  -1.777  0.00  0.00    -0.003 A 
ATOM      6  C6  DEN d   1       0.735   3.813  -0.486  0.00  0.00     0.001 A 
ATOM      7  C7  DEN d   1       0.606   2.815   0.444  0.00  0.00     0.017 A 
ATOM      8  C8  DEN d   1       0.767   1.500   0.028  0.00  0.00    -0.094 A 
ATOM      9  C9  DEN d   1       1.115   1.203  -1.279  0.00  0.00    -0.072 A 
ENDROOT
TORSDOF 0
ENDMDL
