MODEL 1
REMARK minimizedAffinity 7.165277
REMARK minimizedRMSD -1
REMARK  2 active torsions:
REMARK  status: ('A' for Active; 'I' for Inactive)
REMARK    1  A    between atoms: C1_2  and  C2_3 
REMARK    2  A    between atoms: C2_3  and  C3_4 
ROOT
ATOM      1  C3  UNL d   1       2.655  -0.998  -0.221  0.00  0.00    -0.075 A 
ATOM      2  C4  UNL d   1       2.529  -1.970  -1.225  0.00  0.00     0.002 A 
ATOM      3  C5  UNL d   1       2.890  -1.680  -2.541  0.00  0.00     0.002 A 
ATOM      4  C6  UNL d   1       3.370  -0.415  -2.872  0.00  0.00    -0.004 A 
ATOM      5  C7  UNL d   1       3.483   0.564  -1.887  0.00  0.00     0.002 A 
ATOM      6  C8  UNL d   1       3.127   0.275  -0.568  0.00  0.00     0.002 A 
ENDROOT
BRANCH   1   7
ATOM      7  C2  UNL d   1       2.294  -1.315   1.210  0.00  0.00     0.056 C 
BRANCH   7   8
ATOM      8  C1  UNL d   1       1.566  -0.178   1.936  0.00  0.00     0.007 C 
ATOM      9  C   UNL d   1       0.826  -0.640   3.184  0.00  0.00     0.009 C 
ENDBRANCH   7   8
ENDBRANCH   1   7
TORSDOF 2
ENDMDL
