MODEL 1
REMARK minimizedAffinity 11.769557
REMARK minimizedRMSD -1
REMARK  2 active torsions:
REMARK  status: ('A' for Active; 'I' for Inactive)
REMARK    1  A    between atoms: C1_2  and  C2_3 
REMARK    2  A    between atoms: C2_3  and  C3_4 
ROOT
ATOM      1  C3  UNL d   1       4.846   2.537   0.984  0.00  0.00    -0.075 A 
ATOM      2  C4  UNL d   1       5.174   3.001  -0.298  0.00  0.00     0.002 A 
ATOM      3  C5  UNL d   1       4.416   2.618  -1.405  0.00  0.00     0.002 A 
ATOM      4  C6  UNL d   1       3.329   1.762  -1.246  0.00  0.00    -0.004 A 
ATOM      5  C7  UNL d   1       3.004   1.282   0.021  0.00  0.00     0.002 A 
ATOM      6  C8  UNL d   1       3.758   1.667   1.131  0.00  0.00     0.002 A 
ENDROOT
BRANCH   1   7
ATOM      7  C2  UNL d   1       5.645   2.971   2.190  0.00  0.00     0.056 C 
BRANCH   7   8
ATOM      8  C1  UNL d   1       4.985   4.087   3.007  0.00  0.00     0.007 C 
ATOM      9  C   UNL d   1       5.319   4.023   4.491  0.00  0.00     0.009 C 
ENDBRANCH   7   8
ENDBRANCH   1   7
TORSDOF 2
ENDMDL
