MODEL 1
REMARK minimizedAffinity 10.2321253
REMARK minimizedRMSD -1
REMARK  2 active torsions:
REMARK  status: ('A' for Active; 'I' for Inactive)
REMARK    1  A    between atoms: C1_2  and  C2_3 
REMARK    2  A    between atoms: C2_3  and  C3_4 
ROOT
ATOM      1  C3  UNL d   1       4.913   3.347  -1.147  0.00  0.00    -0.075 A 
ATOM      2  C4  UNL d   1       4.938   3.984   0.102  0.00  0.00     0.002 A 
ATOM      3  C5  UNL d   1       5.473   5.266   0.233  0.00  0.00     0.002 A 
ATOM      4  C6  UNL d   1       5.998   5.921  -0.879  0.00  0.00    -0.004 A 
ATOM      5  C7  UNL d   1       5.994   5.291  -2.121  0.00  0.00     0.002 A 
ATOM      6  C8  UNL d   1       5.455   4.010  -2.256  0.00  0.00     0.002 A 
ENDROOT
BRANCH   1   7
ATOM      7  C2  UNL d   1       4.309   1.971  -1.301  0.00  0.00     0.056 C 
BRANCH   7   8
ATOM      8  C1  UNL d   1       3.175   1.674  -0.314  0.00  0.00     0.007 C 
ATOM      9  C   UNL d   1       2.621   0.262  -0.444  0.00  0.00     0.009 C 
ENDBRANCH   7   8
ENDBRANCH   1   7
TORSDOF 2
ENDMDL
