MODEL 1
REMARK minimizedAffinity 12.624855
REMARK minimizedRMSD -1
REMARK  2 active torsions:
REMARK  status: ('A' for Active; 'I' for Inactive)
REMARK    1  A    between atoms: C1_2  and  C2_3 
REMARK    2  A    between atoms: C2_3  and  C3_4 
ROOT
ATOM      1  C3  UNL d   1      -4.897   4.483   2.845  0.00  0.00    -0.075 A 
ATOM      2  C4  UNL d   1      -5.981   4.514   3.735  0.00  0.00     0.002 A 
ATOM      3  C5  UNL d   1      -5.916   5.272   4.904  0.00  0.00     0.002 A 
ATOM      4  C6  UNL d   1      -4.766   5.999   5.204  0.00  0.00    -0.004 A 
ATOM      5  C7  UNL d   1      -3.677   5.962   4.335  0.00  0.00     0.002 A 
ATOM      6  C8  UNL d   1      -3.741   5.208   3.162  0.00  0.00     0.002 A 
ENDROOT
BRANCH   1   7
ATOM      7  C2  UNL d   1      -4.973   3.688   1.564  0.00  0.00     0.056 C 
BRANCH   7   8
ATOM      8  C1  UNL d   1      -4.220   2.354   1.612  0.00  0.00     0.007 C 
ATOM      9  C   UNL d   1      -4.375   1.530   0.340  0.00  0.00     0.009 C 
ENDBRANCH   7   8
ENDBRANCH   1   7
TORSDOF 2
ENDMDL
