MODEL 1
REMARK minimizedAffinity 2.5466063
REMARK minimizedRMSD -1
REMARK  2 active torsions:
REMARK  status: ('A' for Active; 'I' for Inactive)
REMARK    1  A    between atoms: C1_2  and  C2_3 
REMARK    2  A    between atoms: C2_3  and  C3_4 
ROOT
ATOM      1  C3  UNL d   1      -3.650   0.964   0.041  0.00  0.00    -0.075 A 
ATOM      2  C4  UNL d   1      -2.295   1.320  -0.020  0.00  0.00     0.002 A 
ATOM      3  C5  UNL d   1      -1.518   0.964  -1.123  0.00  0.00     0.002 A 
ATOM      4  C6  UNL d   1      -2.082   0.240  -2.171  0.00  0.00    -0.004 A 
ATOM      5  C7  UNL d   1      -3.423  -0.134  -2.113  0.00  0.00     0.002 A 
ATOM      6  C8  UNL d   1      -4.204   0.225  -1.013  0.00  0.00     0.002 A 
ENDROOT
BRANCH   1   7
ATOM      7  C2  UNL d   1      -4.504   1.371   1.218  0.00  0.00     0.056 C 
BRANCH   7   8
ATOM      8  C1  UNL d   1      -4.457   2.870   1.534  0.00  0.00     0.007 C 
ATOM      9  C   UNL d   1      -5.318   3.260   2.728  0.00  0.00     0.009 C 
ENDBRANCH   7   8
ENDBRANCH   1   7
TORSDOF 2
ENDMDL
