MODEL 1
REMARK minimizedAffinity -5.44999218
REMARK minimizedRMSD -1
REMARK  1 active torsions:
REMARK  status: ('A' for Active; 'I' for Inactive)
REMARK    1  A    between atoms: C1_2  and  C2_3 
ROOT
ATOM      1  C2  UNL d   1       0.189  -0.366   0.193  0.00  0.00    -0.076 A 
ATOM      2  C3  UNL d   1       0.983  -1.167  -0.646  0.00  0.00     0.004 A 
ATOM      3  C4  UNL d   1       0.922  -2.558  -0.577  0.00  0.00    -0.003 A 
ATOM      4  C5  UNL d   1       0.066  -3.171   0.331  0.00  0.00     0.000 A 
ATOM      5  C6  UNL d   1      -0.741  -2.392   1.159  0.00  0.00     0.000 A 
ATOM      6  C7  UNL d   1      -0.705  -0.988   1.091  0.00  0.00    -0.073 A 
ATOM      7  C8  UNL d   1      -1.593  -0.197   2.012  0.00  0.00     0.078 C 
ENDROOT
BRANCH   1   8
ATOM      8  C1  UNL d   1       0.317   1.137   0.093  0.00  0.00     0.053 C 
ATOM      9  C   UNL d   1       1.765   1.594  -0.002  0.00  0.00     0.018 C 
ENDBRANCH   1   8
TORSDOF 1
ENDMDL
