MODEL 1
REMARK minimizedAffinity -3.94064879
REMARK minimizedRMSD -1
REMARK  1 active torsions:
REMARK  status: ('A' for Active; 'I' for Inactive)
REMARK    1  A    between atoms: C1_2  and  C2_3 
ROOT
ATOM      1  C2  UNL d   1      -0.813  -1.096   0.571  0.00  0.00    -0.076 A 
ATOM      2  C3  UNL d   1      -1.082   0.135  -0.052  0.00  0.00     0.004 A 
ATOM      3  C4  UNL d   1      -0.262   0.619  -1.071  0.00  0.00    -0.003 A 
ATOM      4  C5  UNL d   1       0.840  -0.122  -1.483  0.00  0.00     0.000 A 
ATOM      5  C6  UNL d   1       1.112  -1.354  -0.889  0.00  0.00     0.000 A 
ATOM      6  C7  UNL d   1       0.286  -1.863   0.128  0.00  0.00    -0.073 A 
ATOM      7  C8  UNL d   1       0.630  -3.194   0.739  0.00  0.00     0.078 C 
ENDROOT
BRANCH   1   8
ATOM      8  C1  UNL d   1      -1.721  -1.556   1.688  0.00  0.00     0.053 C 
ATOM      9  C   UNL d   1      -2.959  -2.276   1.174  0.00  0.00     0.018 C 
ENDBRANCH   1   8
TORSDOF 1
ENDMDL
