MODEL 1
REMARK minimizedAffinity -1.94041336
REMARK minimizedRMSD -1
REMARK  1 active torsions:
REMARK  status: ('A' for Active; 'I' for Inactive)
REMARK    1  A    between atoms: C1_2  and  C2_3 
ROOT
ATOM      1  C2  UNL d   1       0.485  -1.416   0.080  0.00  0.00    -0.076 A 
ATOM      2  C3  UNL d   1      -0.136  -0.700   1.119  0.00  0.00     0.004 A 
ATOM      3  C4  UNL d   1      -0.391   0.665   0.998  0.00  0.00    -0.003 A 
ATOM      4  C5  UNL d   1      -0.031   1.336  -0.165  0.00  0.00     0.000 A 
ATOM      5  C6  UNL d   1       0.569   0.639  -1.213  0.00  0.00     0.000 A 
ATOM      6  C7  UNL d   1       0.819  -0.741  -1.113  0.00  0.00    -0.073 A 
ATOM      7  C8  UNL d   1       1.475  -1.441  -2.271  0.00  0.00     0.078 C 
ENDROOT
BRANCH   1   8
ATOM      8  C1  UNL d   1       0.761  -2.889   0.280  0.00  0.00     0.053 C 
ATOM      9  C   UNL d   1      -0.513  -3.712   0.385  0.00  0.00     0.018 C 
ENDBRANCH   1   8
TORSDOF 1
ENDMDL
