MODEL 1
REMARK minimizedAffinity -2.62523532
REMARK minimizedRMSD -1
REMARK  1 active torsions:
REMARK  status: ('A' for Active; 'I' for Inactive)
REMARK    1  A    between atoms: C1_2  and  C2_3 
ROOT
ATOM      1  C2  UNL d   1       0.024   0.045  -0.228  0.00  0.00    -0.076 A 
ATOM      2  C3  UNL d   1      -0.651  -0.009   1.004  0.00  0.00     0.004 A 
ATOM      3  C4  UNL d   1      -0.922  -1.229   1.621  0.00  0.00    -0.003 A 
ATOM      4  C5  UNL d   1      -0.521  -2.415   1.016  0.00  0.00     0.000 A 
ATOM      5  C6  UNL d   1       0.165  -2.380  -0.198  0.00  0.00     0.000 A 
ATOM      6  C7  UNL d   1       0.460  -1.157  -0.825  0.00  0.00    -0.073 A 
ATOM      7  C8  UNL d   1       1.197  -1.177  -2.136  0.00  0.00     0.078 C 
ENDROOT
BRANCH   1   8
ATOM      8  C1  UNL d   1       0.265   1.396  -0.863  0.00  0.00     0.053 C 
ATOM      9  C   UNL d   1       0.870   2.397   0.110  0.00  0.00     0.018 C 
ENDBRANCH   1   8
TORSDOF 1
ENDMDL
