MODEL 1
REMARK minimizedAffinity -4.47427177
REMARK minimizedRMSD -1
REMARK  1 active torsions:
REMARK  status: ('A' for Active; 'I' for Inactive)
REMARK    1  A    between atoms: C1_2  and  C2_3 
ROOT
ATOM      1  C2  UNL d   1       0.179  -0.895  -0.711  0.00  0.00    -0.076 A 
ATOM      2  C3  UNL d   1       0.618  -1.593  -1.849  0.00  0.00     0.004 A 
ATOM      3  C4  UNL d   1       0.408  -2.965  -1.975  0.00  0.00    -0.003 A 
ATOM      4  C5  UNL d   1      -0.245  -3.661  -0.964  0.00  0.00     0.000 A 
ATOM      5  C6  UNL d   1      -0.703  -2.982   0.164  0.00  0.00     0.000 A 
ATOM      6  C7  UNL d   1      -0.514  -1.596   0.299  0.00  0.00    -0.073 A 
ATOM      7  C8  UNL d   1      -1.023  -0.915   1.540  0.00  0.00     0.078 C 
ENDROOT
BRANCH   1   8
ATOM      8  C1  UNL d   1       0.459   0.588  -0.618  0.00  0.00     0.053 C 
ATOM      9  C   UNL d   1      -0.077   1.359  -1.815  0.00  0.00     0.018 C 
ENDBRANCH   1   8
TORSDOF 1
ENDMDL
