MODEL 1
REMARK minimizedAffinity -6.18198586
REMARK minimizedRMSD -1
REMARK  1 active torsions:
REMARK  status: ('A' for Active; 'I' for Inactive)
REMARK    1  A    between atoms: C1_2  and  C2_3 
ROOT
ATOM      1  C2  UNL d   1      -0.248  -0.371   0.337  0.00  0.00    -0.076 A 
ATOM      2  C3  UNL d   1       0.602  -1.049  -0.554  0.00  0.00     0.004 A 
ATOM      3  C4  UNL d   1       0.837  -2.417  -0.420  0.00  0.00    -0.003 A 
ATOM      4  C5  UNL d   1       0.226  -3.128   0.606  0.00  0.00     0.000 A 
ATOM      5  C6  UNL d   1      -0.634  -2.475   1.489  0.00  0.00     0.000 A 
ATOM      6  C7  UNL d   1      -0.895  -1.100   1.358  0.00  0.00    -0.073 A 
ATOM      7  C8  UNL d   1      -1.826  -0.445   2.341  0.00  0.00     0.078 C 
ENDROOT
BRANCH   1   8
ATOM      8  C1  UNL d   1      -0.444   1.118   0.158  0.00  0.00     0.053 C 
ATOM      9  C   UNL d   1       0.873   1.870   0.045  0.00  0.00     0.018 C 
ENDBRANCH   1   8
TORSDOF 1
ENDMDL
