MODEL 1
REMARK minimizedAffinity -2.05885243
REMARK minimizedRMSD -1
REMARK  1 active torsions:
REMARK  status: ('A' for Active; 'I' for Inactive)
REMARK    1  A    between atoms: C1_2  and  C2_3 
ROOT
ATOM      1  C2  UNL d   1       0.661  -1.026  -0.245  0.00  0.00    -0.076 A 
ATOM      2  C3  UNL d   1       0.323  -0.104   0.760  0.00  0.00     0.004 A 
ATOM      3  C4  UNL d   1       0.088   1.235   0.456  0.00  0.00    -0.003 A 
ATOM      4  C5  UNL d   1       0.188   1.675  -0.859  0.00  0.00     0.000 A 
ATOM      5  C6  UNL d   1       0.505   0.771  -1.872  0.00  0.00     0.000 A 
ATOM      6  C7  UNL d   1       0.728  -0.587  -1.585  0.00  0.00    -0.073 A 
ATOM      7  C8  UNL d   1       1.073  -1.517  -2.715  0.00  0.00     0.078 C 
ENDROOT
BRANCH   1   8
ATOM      8  C1  UNL d   1       0.931  -2.461   0.148  0.00  0.00     0.053 C 
ATOM      9  C   UNL d   1      -0.340  -3.293   0.223  0.00  0.00     0.018 C 
ENDBRANCH   1   8
TORSDOF 1
ENDMDL
