MODEL 1
REMARK minimizedAffinity -5.45430183
REMARK minimizedRMSD -1
REMARK  1 active torsions:
REMARK  status: ('A' for Active; 'I' for Inactive)
REMARK    1  A    between atoms: C1_2  and  C2_3 
ROOT
ATOM      1  C2  UNL d   1       1.071   2.118   0.480  0.00  0.00    -0.076 A 
ATOM      2  C3  UNL d   1       0.809   2.047   1.859  0.00  0.00     0.004 A 
ATOM      3  C4  UNL d   1       1.337   2.990   2.739  0.00  0.00    -0.003 A 
ATOM      4  C5  UNL d   1       2.135   4.020   2.254  0.00  0.00     0.000 A 
ATOM      5  C6  UNL d   1       2.391   4.116   0.886  0.00  0.00     0.000 A 
ATOM      6  C7  UNL d   1       1.852   3.183  -0.016  0.00  0.00    -0.073 A 
ATOM      7  C8  UNL d   1       2.165   3.331  -1.480  0.00  0.00     0.078 C 
ENDROOT
BRANCH   1   8
ATOM      8  C1  UNL d   1       0.493   1.051  -0.423  0.00  0.00     0.053 C 
ATOM      9  C   UNL d   1       0.027  -0.175   0.348  0.00  0.00     0.018 C 
ENDBRANCH   1   8
TORSDOF 1
ENDMDL
