MODEL 1
REMARK minimizedAffinity -3.48715758
REMARK minimizedRMSD -1
REMARK  1 active torsions:
REMARK  status: ('A' for Active; 'I' for Inactive)
REMARK    1  A    between atoms: C1_2  and  C2_3 
ROOT
ATOM      1  C2  UNL d   1      -0.141  -1.300  -0.632  0.00  0.00    -0.076 A 
ATOM      2  C3  UNL d   1      -0.609  -2.573  -0.261  0.00  0.00     0.004 A 
ATOM      3  C4  UNL d   1      -1.209  -2.783   0.980  0.00  0.00    -0.003 A 
ATOM      4  C5  UNL d   1      -1.352  -1.724   1.869  0.00  0.00     0.000 A 
ATOM      5  C6  UNL d   1      -0.910  -0.451   1.511  0.00  0.00     0.000 A 
ATOM      6  C7  UNL d   1      -0.317  -0.218   0.257  0.00  0.00    -0.073 A 
ATOM      7  C8  UNL d   1       0.147   1.174  -0.075  0.00  0.00     0.078 C 
ENDROOT
BRANCH   1   8
ATOM      8  C1  UNL d   1       0.525  -1.138  -1.979  0.00  0.00     0.053 C 
ATOM      9  C   UNL d   1       0.313  -2.342  -2.883  0.00  0.00     0.018 C 
ENDBRANCH   1   8
TORSDOF 1
ENDMDL
