MODEL 1
REMARK minimizedAffinity -6.28999424
REMARK minimizedRMSD -1
REMARK  1 active torsions:
REMARK  status: ('A' for Active; 'I' for Inactive)
REMARK    1  A    between atoms: C1_2  and  C2_3 
ROOT
ATOM      1  C2  UNL d   1      -0.006  -1.309   0.121  0.00  0.00    -0.076 A 
ATOM      2  C3  UNL d   1      -0.906  -2.237   0.673  0.00  0.00     0.004 A 
ATOM      3  C4  UNL d   1      -1.942  -1.823   1.508  0.00  0.00    -0.003 A 
ATOM      4  C5  UNL d   1      -2.095  -0.474   1.806  0.00  0.00     0.000 A 
ATOM      5  C6  UNL d   1      -1.222   0.463   1.254  0.00  0.00     0.000 A 
ATOM      6  C7  UNL d   1      -0.183   0.064   0.396  0.00  0.00    -0.073 A 
ATOM      7  C8  UNL d   1       0.733   1.117  -0.166  0.00  0.00     0.078 C 
ENDROOT
BRANCH   1   8
ATOM      8  C1  UNL d   1       1.114  -1.819  -0.756  0.00  0.00     0.053 C 
ATOM      9  C   UNL d   1       0.637  -2.844  -1.773  0.00  0.00     0.018 C 
ENDBRANCH   1   8
TORSDOF 1
ENDMDL
