MODEL 1
REMARK minimizedAffinity -5.98918343
REMARK minimizedRMSD -1
REMARK  1 active torsions:
REMARK  status: ('A' for Active; 'I' for Inactive)
REMARK    1  A    between atoms: C1_2  and  C2_3 
ROOT
ATOM      1  C2  UNL d   1       0.052  -0.294   0.137  0.00  0.00    -0.076 A 
ATOM      2  C3  UNL d   1       1.010  -1.158  -0.420  0.00  0.00     0.004 A 
ATOM      3  C4  UNL d   1       0.943  -2.535  -0.212  0.00  0.00    -0.003 A 
ATOM      4  C5  UNL d   1      -0.085  -3.070   0.558  0.00  0.00     0.000 A 
ATOM      5  C6  UNL d   1      -1.054  -2.229   1.104  0.00  0.00     0.000 A 
ATOM      6  C7  UNL d   1      -1.010  -0.840   0.890  0.00  0.00    -0.073 A 
ATOM      7  C8  UNL d   1      -2.078   0.020   1.508  0.00  0.00     0.078 C 
ENDROOT
BRANCH   1   8
ATOM      8  C1  UNL d   1       0.192   1.193  -0.101  0.00  0.00     0.053 C 
ATOM      9  C   UNL d   1       1.471   1.760   0.495  0.00  0.00     0.018 C 
ENDBRANCH   1   8
TORSDOF 1
ENDMDL
