MODEL 1
REMARK minimizedAffinity -2.99820566
REMARK minimizedRMSD -1
REMARK  1 active torsions:
REMARK  status: ('A' for Active; 'I' for Inactive)
REMARK    1  A    between atoms: C1_2  and  C2_3 
ROOT
ATOM      1  C2  UNL d   1      -1.085  -0.986   0.844  0.00  0.00    -0.076 A 
ATOM      2  C3  UNL d   1      -0.537  -0.718  -0.423  0.00  0.00     0.004 A 
ATOM      3  C4  UNL d   1       0.005   0.531  -0.721  0.00  0.00    -0.003 A 
ATOM      4  C5  UNL d   1       0.009   1.532   0.243  0.00  0.00     0.000 A 
ATOM      5  C6  UNL d   1      -0.514   1.279   1.511  0.00  0.00     0.000 A 
ATOM      6  C7  UNL d   1      -1.050   0.020   1.833  0.00  0.00    -0.073 A 
ATOM      7  C8  UNL d   1      -1.606  -0.196   3.214  0.00  0.00     0.078 C 
ENDROOT
BRANCH   1   8
ATOM      8  C1  UNL d   1      -1.684  -2.351   1.100  0.00  0.00     0.053 C 
ATOM      9  C   UNL d   1      -3.204  -2.335   1.068  0.00  0.00     0.018 C 
ENDBRANCH   1   8
TORSDOF 1
ENDMDL
