MODEL 1
REMARK minimizedAffinity -3.70782948
REMARK minimizedRMSD -1
REMARK  2 active torsions:
REMARK  status: ('A' for Active; 'I' for Inactive)
REMARK    1  A    between atoms: C2'_3  and  C1'_4 
REMARK    2  A    between atoms: C1'_4  and  C1_5 
ROOT
ATOM      1  C1  I4B d   1       0.132  -0.492  -0.516  0.00  0.00    -0.075 A 
ATOM      2  C2  I4B d   1       0.518  -0.369   0.796  0.00  0.00     0.003 A 
ATOM      3  C3  I4B d   1       0.062   0.723   1.574  0.00  0.00     0.002 A 
ATOM      4  C4  I4B d   1      -0.732   1.688   0.990  0.00  0.00    -0.004 A 
ATOM      5  C5  I4B d   1      -1.141   1.550  -0.333  0.00  0.00     0.002 A 
ATOM      6  C6  I4B d   1      -0.716   0.447  -1.088  0.00  0.00     0.003 A 
ENDROOT
BRANCH   1   7
ATOM      7  C1' I4B d   1       0.660  -1.639  -1.318  0.00  0.00     0.060 C 
BRANCH   7   8
ATOM      8  C2' I4B d   1      -0.289  -2.807  -1.141  0.00  0.00    -0.013 C 
ATOM      9  C4' I4B d   1      -1.225  -2.932  -2.315  0.00  0.00     0.013 C 
ATOM     10  C3' I4B d   1       0.533  -4.050  -0.969  0.00  0.00     0.013 C 
ENDBRANCH   7   8
ENDBRANCH   1   7
TORSDOF 2
ENDMDL
