MODEL 1
REMARK minimizedAffinity -3.91214347
REMARK minimizedRMSD -1
REMARK  2 active torsions:
REMARK  status: ('A' for Active; 'I' for Inactive)
REMARK    1  A    between atoms: C2'_3  and  C1'_4 
REMARK    2  A    between atoms: C1'_4  and  C1_5 
ROOT
ATOM      1  C1  I4B d   1      -1.018   1.090   0.203  0.00  0.00    -0.075 A 
ATOM      2  C2  I4B d   1      -0.817   1.782  -0.966  0.00  0.00     0.003 A 
ATOM      3  C3  I4B d   1       0.183   1.365  -1.877  0.00  0.00     0.002 A 
ATOM      4  C4  I4B d   1       0.987   0.289  -1.559  0.00  0.00    -0.004 A 
ATOM      5  C5  I4B d   1       0.766  -0.424  -0.384  0.00  0.00     0.002 A 
ATOM      6  C6  I4B d   1      -0.251  -0.029   0.497  0.00  0.00     0.003 A 
ENDROOT
BRANCH   1   7
ATOM      7  C1' I4B d   1      -2.061   1.578   1.158  0.00  0.00     0.060 C 
BRANCH   7   8
ATOM      8  C2' I4B d   1      -1.479   2.746   1.928  0.00  0.00    -0.013 C 
ATOM      9  C4' I4B d   1       0.026   2.716   1.909  0.00  0.00     0.013 C 
ATOM     10  C3' I4B d   1      -2.003   4.011   1.316  0.00  0.00     0.013 C 
ENDBRANCH   7   8
ENDBRANCH   1   7
TORSDOF 2
ENDMDL
