MODEL 1
REMARK minimizedAffinity -5.22891521
REMARK minimizedRMSD -1
REMARK  2 active torsions:
REMARK  status: ('A' for Active; 'I' for Inactive)
REMARK    1  A    between atoms: C2'_3  and  C1'_4 
REMARK    2  A    between atoms: C1'_4  and  C1_5 
ROOT
ATOM      1  C1  I4B d   1      -0.482   0.707   0.688  0.00  0.00    -0.075 A 
ATOM      2  C2  I4B d   1      -1.151   1.446  -0.255  0.00  0.00     0.003 A 
ATOM      3  C3  I4B d   1      -1.414   2.819  -0.030  0.00  0.00     0.002 A 
ATOM      4  C4  I4B d   1      -1.037   3.396   1.165  0.00  0.00    -0.004 A 
ATOM      5  C5  I4B d   1      -0.338   2.651   2.110  0.00  0.00     0.002 A 
ATOM      6  C6  I4B d   1      -0.048   1.301   1.866  0.00  0.00     0.003 A 
ENDROOT
BRANCH   1   7
ATOM      7  C1' I4B d   1      -0.250  -0.748   0.432  0.00  0.00     0.060 C 
BRANCH   7   8
ATOM      8  C2' I4B d   1      -0.001  -0.927  -1.052  0.00  0.00    -0.013 C 
ATOM      9  C4' I4B d   1       1.414  -0.562  -1.416  0.00  0.00     0.013 C 
ATOM     10  C3' I4B d   1      -0.299  -2.355  -1.403  0.00  0.00     0.013 C 
ENDBRANCH   7   8
ENDBRANCH   1   7
TORSDOF 2
ENDMDL
