MODEL 1
REMARK minimizedAffinity 1.42857695
REMARK minimizedRMSD -1
REMARK  1 active torsions:
REMARK  status: ('A' for Active; 'I' for Inactive)
REMARK    1  A    between atoms: C3_4  and  O_7 
ROOT
ATOM      1  C   UNL d   1      -1.567   0.142   2.126  0.00  0.00    -0.033 A 
ATOM      2  C1  UNL d   1      -2.566  -0.572   2.790  0.00  0.00     0.039 A 
ATOM      3  C2  UNL d   1      -3.615   0.107   3.414  0.00  0.00    -0.080 A 
ATOM      4  C3  UNL d   1      -3.654   1.497   3.364  0.00  0.00     0.150 A 
ATOM      5  C4  UNL d   1      -2.664   2.215   2.700  0.00  0.00    -0.007 A 
ATOM      6  C5  UNL d   1      -1.617   1.535   2.079  0.00  0.00     0.039 A 
ENDROOT
BRANCH   4   7
ATOM      7  O   UNL d   1      -4.655   2.204   3.962  0.00  0.00    -0.526 OA
ATOM      8  H5  UNL d   1      -5.251   1.578   4.406  0.00  0.00     0.418 HD
ENDBRANCH   4   7
TORSDOF 1
ENDMDL
