MODEL 1
REMARK minimizedAffinity 3.10813594
REMARK minimizedRMSD -1
REMARK  1 active torsions:
REMARK  status: ('A' for Active; 'I' for Inactive)
REMARK    1  A    between atoms: C3_4  and  O_7 
ROOT
ATOM      1  C   UNL d   1      -0.225   0.845   1.034  0.00  0.00    -0.033 A 
ATOM      2  C1  UNL d   1      -0.165   2.215   1.297  0.00  0.00     0.039 A 
ATOM      3  C2  UNL d   1      -1.187   2.835   2.019  0.00  0.00    -0.080 A 
ATOM      4  C3  UNL d   1      -2.261   2.075   2.473  0.00  0.00     0.150 A 
ATOM      5  C4  UNL d   1      -2.325   0.709   2.218  0.00  0.00    -0.007 A 
ATOM      6  C5  UNL d   1      -1.305   0.092   1.496  0.00  0.00     0.039 A 
ENDROOT
BRANCH   4   7
ATOM      7  O   UNL d   1      -3.284   2.636   3.178  0.00  0.00    -0.526 OA
ATOM      8  H5  UNL d   1      -3.119   3.591   3.253  0.00  0.00     0.418 HD
ENDBRANCH   4   7
TORSDOF 1
ENDMDL
