MODEL 1
REMARK minimizedAffinity 6.02049875
REMARK minimizedRMSD -1
REMARK  1 active torsions:
REMARK  status: ('A' for Active; 'I' for Inactive)
REMARK    1  A    between atoms: C3_4  and  O_7 
ROOT
ATOM      1  C   UNL d   1      -5.999   1.862   6.000  0.00  0.00    -0.033 A 
ATOM      2  C1  UNL d   1      -5.078   2.911   5.974  0.00  0.00     0.039 A 
ATOM      3  C2  UNL d   1      -4.127   2.982   4.954  0.00  0.00    -0.080 A 
ATOM      4  C3  UNL d   1      -4.107   2.000   3.968  0.00  0.00     0.150 A 
ATOM      5  C4  UNL d   1      -5.023   0.954   3.986  0.00  0.00    -0.007 A 
ATOM      6  C5  UNL d   1      -5.972   0.884   5.005  0.00  0.00     0.039 A 
ENDROOT
BRANCH   4   7
ATOM      7  O   UNL d   1      -3.194   2.024   2.956  0.00  0.00    -0.526 OA
ATOM      8  H5  UNL d   1      -2.607   2.788   3.089  0.00  0.00     0.418 HD
ENDBRANCH   4   7
TORSDOF 1
ENDMDL
