MODEL 1
REMARK minimizedAffinity -5.50169516
REMARK minimizedRMSD -1
REMARK  1 active torsions:
REMARK  status: ('A' for Active; 'I' for Inactive)
REMARK    1  A    between atoms: C3_4  and  O_7 
ROOT
ATOM      1  C   UNL d   1      -2.232   1.051   1.570  0.00  0.00    -0.033 A 
ATOM      2  C1  UNL d   1      -1.720  -0.228   1.341  0.00  0.00     0.039 A 
ATOM      3  C2  UNL d   1      -0.358  -0.401   1.087  0.00  0.00    -0.080 A 
ATOM      4  C3  UNL d   1       0.480   0.711   1.064  0.00  0.00     0.150 A 
ATOM      5  C4  UNL d   1      -0.023   1.987   1.295  0.00  0.00    -0.007 A 
ATOM      6  C5  UNL d   1      -1.384   2.158   1.548  0.00  0.00     0.039 A 
ENDROOT
BRANCH   4   7
ATOM      7  O   UNL d   1       1.815   0.593   0.815  0.00  0.00    -0.526 OA
ATOM      8  H5  UNL d   1       2.015  -0.343   0.646  0.00  0.00     0.418 HD
ENDBRANCH   4   7
TORSDOF 1
ENDMDL
