MODEL 1
REMARK minimizedAffinity -2.64924073
REMARK minimizedRMSD -1
REMARK  1 active torsions:
REMARK  status: ('A' for Active; 'I' for Inactive)
REMARK    1  A    between atoms: C3_4  and  O_7 
ROOT
ATOM      1  C   UNL d   1       0.671   0.410   0.700  0.00  0.00    -0.033 A 
ATOM      2  C1  UNL d   1       1.125   1.524   1.408  0.00  0.00     0.039 A 
ATOM      3  C2  UNL d   1       0.231   2.284   2.165  0.00  0.00    -0.080 A 
ATOM      4  C3  UNL d   1      -1.112   1.920   2.206  0.00  0.00     0.150 A 
ATOM      5  C4  UNL d   1      -1.570   0.808   1.506  0.00  0.00    -0.007 A 
ATOM      6  C5  UNL d   1      -0.676   0.051   0.750  0.00  0.00     0.039 A 
ENDROOT
BRANCH   4   7
ATOM      7  O   UNL d   1      -2.022   2.634   2.927  0.00  0.00    -0.526 OA
ATOM      8  H5  UNL d   1      -1.568   3.390   3.335  0.00  0.00     0.418 HD
ENDBRANCH   4   7
TORSDOF 1
ENDMDL
