MODEL 1
REMARK minimizedAffinity -0.790518403
REMARK minimizedRMSD -1
REMARK  1 active torsions:
REMARK  status: ('A' for Active; 'I' for Inactive)
REMARK    1  A    between atoms: C3_4  and  O_7 
ROOT
ATOM      1  C   UNL d   1      -0.399   1.230   0.302  0.00  0.00    -0.033 A 
ATOM      2  C1  UNL d   1      -1.237   1.208   1.418  0.00  0.00     0.039 A 
ATOM      3  C2  UNL d   1      -1.028   0.272   2.433  0.00  0.00    -0.080 A 
ATOM      4  C3  UNL d   1       0.022  -0.635   2.320  0.00  0.00     0.150 A 
ATOM      5  C4  UNL d   1       0.864  -0.617   1.212  0.00  0.00    -0.007 A 
ATOM      6  C5  UNL d   1       0.652   0.318   0.200  0.00  0.00     0.039 A 
ENDROOT
BRANCH   4   7
ATOM      7  O   UNL d   1       0.263  -1.570   3.282  0.00  0.00    -0.526 OA
ATOM      8  H5  UNL d   1      -0.415  -1.482   3.973  0.00  0.00     0.418 HD
ENDBRANCH   4   7
TORSDOF 1
ENDMDL
