MODEL 1
REMARK minimizedAffinity 3.13163257
REMARK minimizedRMSD -1
REMARK  1 active torsions:
REMARK  status: ('A' for Active; 'I' for Inactive)
REMARK    1  A    between atoms: C3_4  and  O_7 
ROOT
ATOM      1  C   UNL d   1      -3.802  -2.325  -0.470  0.00  0.00    -0.033 A 
ATOM      2  C1  UNL d   1      -3.802  -1.216  -1.318  0.00  0.00     0.039 A 
ATOM      3  C2  UNL d   1      -3.858  -1.393  -2.702  0.00  0.00    -0.080 A 
ATOM      4  C3  UNL d   1      -3.914  -2.682  -3.225  0.00  0.00     0.150 A 
ATOM      5  C4  UNL d   1      -3.919  -3.791  -2.386  0.00  0.00    -0.007 A 
ATOM      6  C5  UNL d   1      -3.862  -3.613  -1.004  0.00  0.00     0.039 A 
ENDROOT
BRANCH   4   7
ATOM      7  O   UNL d   1      -3.965  -2.904  -4.569  0.00  0.00    -0.526 OA
ATOM      8  H5  UNL d   1      -3.926  -2.047  -5.024  0.00  0.00     0.418 HD
ENDBRANCH   4   7
TORSDOF 1
ENDMDL
