MODEL 1
REMARK minimizedAffinity -4.02589273
REMARK minimizedRMSD -1
REMARK  1 active torsions:
REMARK  status: ('A' for Active; 'I' for Inactive)
REMARK    1  A    between atoms: C3_4  and  O_7 
ROOT
ATOM      1  C   UNL d   1       0.870   1.452   0.433  0.00  0.00    -0.033 A 
ATOM      2  C1  UNL d   1       0.177   0.366   0.973  0.00  0.00     0.039 A 
ATOM      3  C2  UNL d   1      -1.036   0.569   1.633  0.00  0.00    -0.080 A 
ATOM      4  C3  UNL d   1      -1.546   1.859   1.745  0.00  0.00     0.150 A 
ATOM      5  C4  UNL d   1      -0.864   2.945   1.205  0.00  0.00    -0.007 A 
ATOM      6  C5  UNL d   1       0.348   2.741   0.547  0.00  0.00     0.039 A 
ENDROOT
BRANCH   4   7
ATOM      7  O   UNL d   1      -2.724   2.107   2.384  0.00  0.00    -0.526 OA
ATOM      8  H5  UNL d   1      -3.069   1.267   2.731  0.00  0.00     0.418 HD
ENDBRANCH   4   7
TORSDOF 1
ENDMDL
