MODEL 1
REMARK minimizedAffinity -4.29117727
REMARK minimizedRMSD -1
REMARK  1 active torsions:
REMARK  status: ('A' for Active; 'I' for Inactive)
REMARK    1  A    between atoms: C3_4  and  O_7 
ROOT
ATOM      1  C   UNL d   1       0.464  -0.015   0.698  0.00  0.00    -0.033 A 
ATOM      2  C1  UNL d   1      -0.628  -0.573   1.366  0.00  0.00     0.039 A 
ATOM      3  C2  UNL d   1      -1.502   0.246   2.084  0.00  0.00    -0.080 A 
ATOM      4  C3  UNL d   1      -1.274   1.618   2.126  0.00  0.00     0.150 A 
ATOM      5  C4  UNL d   1      -0.189   2.181   1.460  0.00  0.00    -0.007 A 
ATOM      6  C5  UNL d   1       0.683   1.362   0.744  0.00  0.00     0.039 A 
ENDROOT
BRANCH   4   7
ATOM      7  O   UNL d   1      -2.096   2.457   2.817  0.00  0.00    -0.526 OA
ATOM      8  H5  UNL d   1      -2.785   1.925   3.250  0.00  0.00     0.418 HD
ENDBRANCH   4   7
TORSDOF 1
ENDMDL
