MODEL 1
REMARK minimizedAffinity 0.165177718
REMARK minimizedRMSD -1
REMARK  1 active torsions:
REMARK  status: ('A' for Active; 'I' for Inactive)
REMARK    1  A    between atoms: C3_4  and  O_7 
ROOT
ATOM      1  C   UNL d   1       0.635  -0.063   0.745  0.00  0.00    -0.033 A 
ATOM      2  C1  UNL d   1      -0.463  -0.567   1.447  0.00  0.00     0.039 A 
ATOM      3  C2  UNL d   1      -1.505   0.283   1.821  0.00  0.00    -0.080 A 
ATOM      4  C3  UNL d   1      -1.438   1.633   1.487  0.00  0.00     0.150 A 
ATOM      5  C4  UNL d   1      -0.350   2.141   0.785  0.00  0.00    -0.007 A 
ATOM      6  C5  UNL d   1       0.690   1.291   0.413  0.00  0.00     0.039 A 
ENDROOT
BRANCH   4   7
ATOM      7  O   UNL d   1      -2.429   2.503   1.835  0.00  0.00    -0.526 OA
ATOM      8  H5  UNL d   1      -3.101   2.017   2.341  0.00  0.00     0.418 HD
ENDBRANCH   4   7
TORSDOF 1
ENDMDL
