MODEL 1
REMARK minimizedAffinity -2.78731394
REMARK minimizedRMSD -1
REMARK  1 active torsions:
REMARK  status: ('A' for Active; 'I' for Inactive)
REMARK    1  A    between atoms: C3_4  and  O_7 
ROOT
ATOM      1  C   UNL d   1      -1.893  -0.114   1.648  0.00  0.00    -0.033 A 
ATOM      2  C1  UNL d   1      -0.648   0.034   1.034  0.00  0.00     0.039 A 
ATOM      3  C2  UNL d   1      -0.008   1.276   1.038  0.00  0.00    -0.080 A 
ATOM      4  C3  UNL d   1      -0.623   2.359   1.660  0.00  0.00     0.150 A 
ATOM      5  C4  UNL d   1      -1.862   2.217   2.277  0.00  0.00    -0.007 A 
ATOM      6  C5  UNL d   1      -2.499   0.977   2.271  0.00  0.00     0.039 A 
ENDROOT
BRANCH   4   7
ATOM      7  O   UNL d   1      -0.040   3.591   1.685  0.00  0.00    -0.526 OA
ATOM      8  H5  UNL d   1       0.797   3.545   1.195  0.00  0.00     0.418 HD
ENDBRANCH   4   7
TORSDOF 1
ENDMDL
