MODEL 1
REMARK minimizedAffinity 0.00738339359
REMARK minimizedRMSD -1
REMARK  1 active torsions:
REMARK  status: ('A' for Active; 'I' for Inactive)
REMARK    1  A    between atoms: C3_4  and  O_7 
ROOT
ATOM      1  C   UNL d   1      -3.730  -4.717  -0.412  0.00  0.00    -0.033 A 
ATOM      2  C1  UNL d   1      -2.980  -5.305  -1.432  0.00  0.00     0.039 A 
ATOM      3  C2  UNL d   1      -2.650  -4.569  -2.572  0.00  0.00    -0.080 A 
ATOM      4  C3  UNL d   1      -3.075  -3.248  -2.679  0.00  0.00     0.150 A 
ATOM      5  C4  UNL d   1      -3.819  -2.654  -1.664  0.00  0.00    -0.007 A 
ATOM      6  C5  UNL d   1      -4.149  -3.391  -0.528  0.00  0.00     0.039 A 
ENDROOT
BRANCH   4   7
ATOM      7  O   UNL d   1      -2.781  -2.491  -3.774  0.00  0.00    -0.526 OA
ATOM      8  H5  UNL d   1      -2.287  -3.041  -4.404  0.00  0.00     0.418 HD
ENDBRANCH   4   7
TORSDOF 1
ENDMDL
