MODEL 1
REMARK minimizedAffinity -4.67347622
REMARK minimizedRMSD -1
REMARK  1 active torsions:
REMARK  status: ('A' for Active; 'I' for Inactive)
REMARK    1  A    between atoms: C3_4  and  O_7 
ROOT
ATOM      1  C   UNL d   1       0.476   0.234   0.905  0.00  0.00    -0.033 A 
ATOM      2  C1  UNL d   1       0.384   1.591   1.220  0.00  0.00     0.039 A 
ATOM      3  C2  UNL d   1      -0.807   2.113   1.727  0.00  0.00    -0.080 A 
ATOM      4  C3  UNL d   1      -1.897   1.268   1.916  0.00  0.00     0.150 A 
ATOM      5  C4  UNL d   1      -1.812  -0.085   1.607  0.00  0.00    -0.007 A 
ATOM      6  C5  UNL d   1      -0.622  -0.605   1.100  0.00  0.00     0.039 A 
ENDROOT
BRANCH   4   7
ATOM      7  O   UNL d   1      -3.083   1.733   2.404  0.00  0.00    -0.526 OA
ATOM      8  H5  UNL d   1      -3.003   2.691   2.544  0.00  0.00     0.418 HD
ENDBRANCH   4   7
TORSDOF 1
ENDMDL
