MODEL 1
REMARK minimizedAffinity -2.00067878
REMARK minimizedRMSD -1
REMARK  1 active torsions:
REMARK  status: ('A' for Active; 'I' for Inactive)
REMARK    1  A    between atoms: C3_4  and  O_7 
ROOT
ATOM      1  C   UNL d   1       0.261   1.338   0.817  0.00  0.00    -0.033 A 
ATOM      2  C1  UNL d   1      -0.808   2.036   1.381  0.00  0.00     0.039 A 
ATOM      3  C2  UNL d   1      -1.850   1.341   1.998  0.00  0.00    -0.080 A 
ATOM      4  C3  UNL d   1      -1.810  -0.050   2.045  0.00  0.00     0.150 A 
ATOM      5  C4  UNL d   1      -0.746  -0.752   1.488  0.00  0.00    -0.007 A 
ATOM      6  C5  UNL d   1       0.293  -0.056   0.871  0.00  0.00     0.039 A 
ENDROOT
BRANCH   4   7
ATOM      7  O   UNL d   1      -2.806  -0.772   2.632  0.00  0.00    -0.526 OA
ATOM      8  H5  UNL d   1      -3.488  -0.156   2.948  0.00  0.00     0.418 HD
ENDBRANCH   4   7
TORSDOF 1
ENDMDL
