MODEL 1
REMARK minimizedAffinity 0.648087144
REMARK minimizedRMSD -1
REMARK  2 active torsions:
REMARK  status: ('A' for Active; 'I' for Inactive)
REMARK    1  A    between atoms: C1_2  and  C2_3 
REMARK    2  A    between atoms: C2_3  and  C3_4 
ROOT
ATOM      1  C3  UNL d   1       3.253  -5.357   2.287  0.00  0.00    -0.075 A 
ATOM      2  C4  UNL d   1       3.644  -5.999   3.471  0.00  0.00     0.002 A 
ATOM      3  C5  UNL d   1       4.961  -5.913   3.923  0.00  0.00     0.002 A 
ATOM      4  C6  UNL d   1       5.905  -5.194   3.193  0.00  0.00    -0.004 A 
ATOM      5  C7  UNL d   1       5.532  -4.565   2.007  0.00  0.00     0.002 A 
ATOM      6  C8  UNL d   1       4.214  -4.646   1.555  0.00  0.00     0.002 A 
ENDROOT
BRANCH   1   7
ATOM      7  C2  UNL d   1       1.823  -5.422   1.809  0.00  0.00     0.056 C 
BRANCH   7   8
ATOM      8  C1  UNL d   1       0.801  -4.896   2.823  0.00  0.00     0.007 C 
ATOM      9  C   UNL d   1       0.242  -5.983   3.730  0.00  0.00     0.009 C 
ENDBRANCH   7   8
ENDBRANCH   1   7
TORSDOF 2
ENDMDL
