MODEL 1
REMARK minimizedAffinity 11.192441
REMARK minimizedRMSD -1
REMARK  2 active torsions:
REMARK  status: ('A' for Active; 'I' for Inactive)
REMARK    1  A    between atoms: C1_2  and  C2_3 
REMARK    2  A    between atoms: C2_3  and  C3_4 
ROOT
ATOM      1  C3  UNL d   1      -1.302  -0.337   1.170  0.00  0.00    -0.075 A 
ATOM      2  C4  UNL d   1      -0.761   0.709   1.931  0.00  0.00     0.002 A 
ATOM      3  C5  UNL d   1      -0.163   0.451   3.165  0.00  0.00     0.002 A 
ATOM      4  C6  UNL d   1      -0.108  -0.851   3.658  0.00  0.00    -0.004 A 
ATOM      5  C7  UNL d   1      -0.657  -1.896   2.917  0.00  0.00     0.002 A 
ATOM      6  C8  UNL d   1      -1.252  -1.641   1.680  0.00  0.00     0.002 A 
ENDROOT
BRANCH   1   7
ATOM      7  C2  UNL d   1      -1.925  -0.069  -0.180  0.00  0.00     0.056 C 
BRANCH   7   8
ATOM      8  C1  UNL d   1      -3.427   0.227  -0.126  0.00  0.00     0.007 C 
ATOM      9  C   UNL d   1      -4.166  -0.187  -1.392  0.00  0.00     0.009 C 
ENDBRANCH   7   8
ENDBRANCH   1   7
TORSDOF 2
ENDMDL
