MODEL 1
REMARK minimizedAffinity 8.24986553
REMARK minimizedRMSD -1
REMARK  2 active torsions:
REMARK  status: ('A' for Active; 'I' for Inactive)
REMARK    1  A    between atoms: C1_2  and  C2_3 
REMARK    2  A    between atoms: C2_3  and  C3_4 
ROOT
ATOM      1  C3  UNL d   1      -5.271  -0.484   1.640  0.00  0.00    -0.075 A 
ATOM      2  C4  UNL d   1      -3.877  -0.394   1.758  0.00  0.00     0.002 A 
ATOM      3  C5  UNL d   1      -3.225   0.822   1.548  0.00  0.00     0.002 A 
ATOM      4  C6  UNL d   1      -3.956   1.958   1.208  0.00  0.00    -0.004 A 
ATOM      5  C7  UNL d   1      -5.340   1.876   1.071  0.00  0.00     0.002 A 
ATOM      6  C8  UNL d   1      -5.995   0.662   1.285  0.00  0.00     0.002 A 
ENDROOT
BRANCH   1   7
ATOM      7  C2  UNL d   1      -5.986  -1.790   1.895  0.00  0.00     0.056 C 
BRANCH   7   8
ATOM      8  C1  UNL d   1      -5.611  -2.457   3.222  0.00  0.00     0.007 C 
ATOM      9  C   UNL d   1      -5.996  -3.929   3.284  0.00  0.00     0.009 C 
ENDBRANCH   7   8
ENDBRANCH   1   7
TORSDOF 2
ENDMDL
