MODEL 1
REMARK minimizedAffinity 2.91310287
REMARK minimizedRMSD -1
REMARK  2 active torsions:
REMARK  status: ('A' for Active; 'I' for Inactive)
REMARK    1  A    between atoms: C1_2  and  C2_3 
REMARK    2  A    between atoms: C2_3  and  C3_4 
ROOT
ATOM      1  C3  UNL d   1      -4.594  -0.838   0.786  0.00  0.00    -0.075 A 
ATOM      2  C4  UNL d   1      -3.369  -0.180   0.968  0.00  0.00     0.002 A 
ATOM      3  C5  UNL d   1      -3.321   1.069   1.588  0.00  0.00     0.002 A 
ATOM      4  C6  UNL d   1      -4.495   1.679   2.025  0.00  0.00    -0.004 A 
ATOM      5  C7  UNL d   1      -5.719   1.042   1.834  0.00  0.00     0.002 A 
ATOM      6  C8  UNL d   1      -5.770  -0.210   1.217  0.00  0.00     0.002 A 
ENDROOT
BRANCH   1   7
ATOM      7  C2  UNL d   1      -4.650  -2.203   0.141  0.00  0.00     0.056 C 
BRANCH   7   8
ATOM      8  C1  UNL d   1      -5.999  -2.533  -0.505  0.00  0.00     0.007 C 
ATOM      9  C   UNL d   1      -5.876  -2.991  -1.952  0.00  0.00     0.009 C 
ENDBRANCH   7   8
ENDBRANCH   1   7
TORSDOF 2
ENDMDL
