MODEL 1
REMARK minimizedAffinity 7.80001211
REMARK minimizedRMSD -1
REMARK  2 active torsions:
REMARK  status: ('A' for Active; 'I' for Inactive)
REMARK    1  A    between atoms: C1_2  and  C2_3 
REMARK    2  A    between atoms: C2_3  and  C3_4 
ROOT
ATOM      1  C3  UNL d   1      -4.022   0.372   4.018  0.00  0.00    -0.075 A 
ATOM      2  C4  UNL d   1      -2.753  -0.009   3.556  0.00  0.00     0.002 A 
ATOM      3  C5  UNL d   1      -2.307   0.395   2.297  0.00  0.00     0.002 A 
ATOM      4  C6  UNL d   1      -3.125   1.172   1.481  0.00  0.00    -0.004 A 
ATOM      5  C7  UNL d   1      -4.394   1.542   1.922  0.00  0.00     0.002 A 
ATOM      6  C8  UNL d   1      -4.841   1.144   3.184  0.00  0.00     0.002 A 
ENDROOT
BRANCH   1   7
ATOM      7  C2  UNL d   1      -4.499  -0.036   5.391  0.00  0.00     0.056 C 
BRANCH   7   8
ATOM      8  C1  UNL d   1      -3.720  -1.208   5.999  0.00  0.00     0.007 C 
ATOM      9  C   UNL d   1      -4.503  -2.514   5.999  0.00  0.00     0.009 C 
ENDBRANCH   7   8
ENDBRANCH   1   7
TORSDOF 2
ENDMDL
