MODEL 1
REMARK minimizedAffinity -0.581383884
REMARK minimizedRMSD -1
REMARK  2 active torsions:
REMARK  status: ('A' for Active; 'I' for Inactive)
REMARK    1  A    between atoms: C1_2  and  C2_3 
REMARK    2  A    between atoms: C2_3  and  C3_4 
ROOT
ATOM      1  C3  UNL d   1      -5.562   3.378   3.217  0.00  0.00    -0.075 A 
ATOM      2  C4  UNL d   1      -5.991   2.199   3.845  0.00  0.00     0.002 A 
ATOM      3  C5  UNL d   1      -5.709   0.954   3.282  0.00  0.00     0.002 A 
ATOM      4  C6  UNL d   1      -5.006   0.871   2.083  0.00  0.00    -0.004 A 
ATOM      5  C7  UNL d   1      -4.589   2.036   1.442  0.00  0.00     0.002 A 
ATOM      6  C8  UNL d   1      -4.865   3.283   2.005  0.00  0.00     0.002 A 
ENDROOT
BRANCH   1   7
ATOM      7  C2  UNL d   1      -5.838   4.727   3.836  0.00  0.00     0.056 C 
BRANCH   7   8
ATOM      8  C1  UNL d   1      -4.783   5.175   4.852  0.00  0.00     0.007 C 
ATOM      9  C   UNL d   1      -5.361   5.999   5.995  0.00  0.00     0.009 C 
ENDBRANCH   7   8
ENDBRANCH   1   7
TORSDOF 2
ENDMDL
