MODEL 1
REMARK minimizedAffinity 13.6527958
REMARK minimizedRMSD -1
REMARK  2 active torsions:
REMARK  status: ('A' for Active; 'I' for Inactive)
REMARK    1  A    between atoms: C1_2  and  C2_3 
REMARK    2  A    between atoms: C2_3  and  C3_4 
ROOT
ATOM      1  C3  UNL d   1      -4.231   0.221   3.011  0.00  0.00    -0.075 A 
ATOM      2  C4  UNL d   1      -2.927  -0.239   2.778  0.00  0.00     0.002 A 
ATOM      3  C5  UNL d   1      -2.303  -0.008   1.551  0.00  0.00     0.002 A 
ATOM      4  C6  UNL d   1      -2.977   0.675   0.541  0.00  0.00    -0.004 A 
ATOM      5  C7  UNL d   1      -4.279   1.122   0.756  0.00  0.00     0.002 A 
ATOM      6  C8  UNL d   1      -4.904   0.896   1.984  0.00  0.00     0.002 A 
ENDROOT
BRANCH   1   7
ATOM      7  C2  UNL d   1      -4.901   0.000   4.346  0.00  0.00     0.056 C 
BRANCH   7   8
ATOM      8  C1  UNL d   1      -3.939  -0.412   5.466  0.00  0.00     0.007 C 
ATOM      9  C   UNL d   1      -4.205  -1.814   6.000  0.00  0.00     0.009 C 
ENDBRANCH   7   8
ENDBRANCH   1   7
TORSDOF 2
ENDMDL
