MODEL 1
REMARK minimizedAffinity 0.95251137
REMARK minimizedRMSD -1
REMARK  2 active torsions:
REMARK  status: ('A' for Active; 'I' for Inactive)
REMARK    1  A    between atoms: C1_2  and  C2_3 
REMARK    2  A    between atoms: C2_3  and  C3_4 
ROOT
ATOM      1  C3  UNL d   1      -1.453  -1.459  -5.836  0.00  0.00    -0.075 A 
ATOM      2  C4  UNL d   1      -1.506  -2.859  -5.895  0.00  0.00     0.002 A 
ATOM      3  C5  UNL d   1      -2.732  -3.519  -5.981  0.00  0.00     0.002 A 
ATOM      4  C6  UNL d   1      -3.919  -2.790  -6.000  0.00  0.00    -0.004 A 
ATOM      5  C7  UNL d   1      -3.880  -1.399  -5.925  0.00  0.00     0.002 A 
ATOM      6  C8  UNL d   1      -2.654  -0.736  -5.843  0.00  0.00     0.002 A 
ENDROOT
BRANCH   1   7
ATOM      7  C2  UNL d   1      -0.128  -0.737  -5.772  0.00  0.00     0.056 C 
BRANCH   7   8
ATOM      8  C1  UNL d   1       0.831  -1.288  -4.712  0.00  0.00     0.007 C 
ATOM      9  C   UNL d   1       1.803  -0.243  -4.181  0.00  0.00     0.009 C 
ENDBRANCH   7   8
ENDBRANCH   1   7
TORSDOF 2
ENDMDL
