MODEL 1
REMARK minimizedAffinity 6.13294888
REMARK minimizedRMSD -1
REMARK  2 active torsions:
REMARK  status: ('A' for Active; 'I' for Inactive)
REMARK    1  A    between atoms: C1_2  and  C2_3 
REMARK    2  A    between atoms: C2_3  and  C3_4 
ROOT
ATOM      1  C3  UNL d   1      -0.416  -0.830  -5.260  0.00  0.00    -0.075 A 
ATOM      2  C4  UNL d   1      -0.637  -2.165  -5.627  0.00  0.00     0.002 A 
ATOM      3  C5  UNL d   1      -1.910  -2.596  -5.999  0.00  0.00     0.002 A 
ATOM      4  C6  UNL d   1      -2.979  -1.702  -6.000  0.00  0.00    -0.004 A 
ATOM      5  C7  UNL d   1      -2.774  -0.377  -5.622  0.00  0.00     0.002 A 
ATOM      6  C8  UNL d   1      -1.500   0.058  -5.253  0.00  0.00     0.002 A 
ENDROOT
BRANCH   1   7
ATOM      7  C2  UNL d   1       0.966  -0.350  -4.885  0.00  0.00     0.056 C 
BRANCH   7   8
ATOM      8  C1  UNL d   1       1.226  -0.317  -3.375  0.00  0.00     0.007 C 
ATOM      9  C   UNL d   1       2.550   0.340  -3.008  0.00  0.00     0.009 C 
ENDBRANCH   7   8
ENDBRANCH   1   7
TORSDOF 2
ENDMDL
