MODEL 1
REMARK minimizedAffinity 6.33884478
REMARK minimizedRMSD -1
REMARK  2 active torsions:
REMARK  status: ('A' for Active; 'I' for Inactive)
REMARK    1  A    between atoms: C1_2  and  C2_3 
REMARK    2  A    between atoms: C2_3  and  C3_4 
ROOT
ATOM      1  C3  UNL d   1      -2.822   0.304   1.328  0.00  0.00    -0.075 A 
ATOM      2  C4  UNL d   1      -2.131   1.522   1.403  0.00  0.00     0.002 A 
ATOM      3  C5  UNL d   1      -0.902   1.600   2.059  0.00  0.00     0.002 A 
ATOM      4  C6  UNL d   1      -0.353   0.467   2.654  0.00  0.00    -0.004 A 
ATOM      5  C7  UNL d   1      -1.038  -0.745   2.600  0.00  0.00     0.002 A 
ATOM      6  C8  UNL d   1      -2.266  -0.828   1.941  0.00  0.00     0.002 A 
ENDROOT
BRANCH   1   7
ATOM      7  C2  UNL d   1      -4.138   0.206   0.594  0.00  0.00     0.056 C 
BRANCH   7   8
ATOM      8  C1  UNL d   1      -4.486  -1.210   0.123  0.00  0.00     0.007 C 
ATOM      9  C   UNL d   1      -5.970  -1.402  -0.157  0.00  0.00     0.009 C 
ENDBRANCH   7   8
ENDBRANCH   1   7
TORSDOF 2
ENDMDL
