MODEL 1
REMARK minimizedAffinity 0.989705265
REMARK minimizedRMSD -1
REMARK  2 active torsions:
REMARK  status: ('A' for Active; 'I' for Inactive)
REMARK    1  A    between atoms: C1_2  and  C2_3 
REMARK    2  A    between atoms: C2_3  and  C3_4 
ROOT
ATOM      1  C3  UNL d   1      -3.100  -2.618  -5.868  0.00  0.00    -0.075 A 
ATOM      2  C4  UNL d   1      -3.587  -1.307  -5.770  0.00  0.00     0.002 A 
ATOM      3  C5  UNL d   1      -2.706  -0.229  -5.676  0.00  0.00     0.002 A 
ATOM      4  C6  UNL d   1      -1.331  -0.448  -5.669  0.00  0.00    -0.004 A 
ATOM      5  C7  UNL d   1      -0.836  -1.748  -5.750  0.00  0.00     0.002 A 
ATOM      6  C8  UNL d   1      -1.715  -2.828  -5.848  0.00  0.00     0.002 A 
ENDROOT
BRANCH   1   7
ATOM      7  C2  UNL d   1      -4.047  -3.787  -5.999  0.00  0.00     0.056 C 
BRANCH   7   8
ATOM      8  C1  UNL d   1      -5.469  -3.495  -5.508  0.00  0.00     0.007 C 
ATOM      9  C   UNL d   1      -5.992  -2.136  -5.956  0.00  0.00     0.009 C 
ENDBRANCH   7   8
ENDBRANCH   1   7
TORSDOF 2
ENDMDL
