MODEL 1
REMARK minimizedAffinity 6.78505468
REMARK minimizedRMSD -1
REMARK  2 active torsions:
REMARK  status: ('A' for Active; 'I' for Inactive)
REMARK    1  A    between atoms: C1_2  and  C2_3 
REMARK    2  A    between atoms: C2_3  and  C3_4 
ROOT
ATOM      1  C3  UNL d   1       3.087  -5.666   2.344  0.00  0.00    -0.075 A 
ATOM      2  C4  UNL d   1       2.555  -5.014   1.222  0.00  0.00     0.002 A 
ATOM      3  C5  UNL d   1       1.201  -4.683   1.170  0.00  0.00     0.002 A 
ATOM      4  C6  UNL d   1       0.360  -5.009   2.232  0.00  0.00    -0.004 A 
ATOM      5  C7  UNL d   1       0.874  -5.672   3.345  0.00  0.00     0.002 A 
ATOM      6  C8  UNL d   1       2.230  -5.999   3.401  0.00  0.00     0.002 A 
ENDROOT
BRANCH   1   7
ATOM      7  C2  UNL d   1       4.558  -5.999   2.418  0.00  0.00     0.056 C 
BRANCH   7   8
ATOM      8  C1  UNL d   1       5.369  -5.049   3.305  0.00  0.00     0.007 C 
ATOM      9  C   UNL d   1       6.000  -5.740   4.506  0.00  0.00     0.009 C 
ENDBRANCH   7   8
ENDBRANCH   1   7
TORSDOF 2
ENDMDL
