MODEL 1
REMARK minimizedAffinity 1.61628127
REMARK minimizedRMSD -1
REMARK  2 active torsions:
REMARK  status: ('A' for Active; 'I' for Inactive)
REMARK    1  A    between atoms: C1_2  and  C2_3 
REMARK    2  A    between atoms: C2_3  and  C3_4 
ROOT
ATOM      1  C3  UNL d   1      -5.438   2.250   4.014  0.00  0.00    -0.075 A 
ATOM      2  C4  UNL d   1      -5.808   1.266   4.942  0.00  0.00     0.002 A 
ATOM      3  C5  UNL d   1      -5.264  -0.017   4.867  0.00  0.00     0.002 A 
ATOM      4  C6  UNL d   1      -4.355  -0.335   3.861  0.00  0.00    -0.004 A 
ATOM      5  C7  UNL d   1      -3.994   0.631   2.924  0.00  0.00     0.002 A 
ATOM      6  C8  UNL d   1      -4.532   1.917   2.998  0.00  0.00     0.002 A 
ENDROOT
BRANCH   1   7
ATOM      7  C2  UNL d   1      -6.000   3.649   4.107  0.00  0.00     0.056 C 
BRANCH   7   8
ATOM      8  C1  UNL d   1      -5.242   4.563   5.075  0.00  0.00     0.007 C 
ATOM      9  C   UNL d   1      -4.992   5.956   4.515  0.00  0.00     0.009 C 
ENDBRANCH   7   8
ENDBRANCH   1   7
TORSDOF 2
ENDMDL
