MODEL 1
REMARK minimizedAffinity 7.93392563
REMARK minimizedRMSD -1
REMARK  1 active torsions:
REMARK  status: ('A' for Active; 'I' for Inactive)
REMARK    1  A    between atoms: C1_2  and  C2_3 
ROOT
ATOM      1  C2  UNL d   1       5.319   4.097  -4.838  0.00  0.00    -0.073 A 
ATOM      2  C3  UNL d   1       4.469   5.189  -5.043  0.00  0.00    -0.002 A 
ATOM      3  C4  UNL d   1       4.092   5.999  -3.971  0.00  0.00     0.004 A 
ATOM      4  C5  UNL d   1       4.565   5.730  -2.687  0.00  0.00    -0.004 A 
ATOM      5  C6  UNL d   1       5.425   4.650  -2.464  0.00  0.00    -0.075 A 
ATOM      6  C7  UNL d   1       5.941   4.345  -1.088  0.00  0.00     0.076 C 
ATOM      7  C8  UNL d   1       5.797   3.839  -3.545  0.00  0.00     0.001 A 
ENDROOT
BRANCH   1   8
ATOM      8  C1  UNL d   1       5.735   3.223  -5.993  0.00  0.00     0.053 C 
ATOM      9  C   UNL d   1       5.417   1.757  -5.743  0.00  0.00     0.018 C 
ENDBRANCH   1   8
TORSDOF 1
ENDMDL
