MODEL 1
REMARK minimizedAffinity 8.6030817
REMARK minimizedRMSD -1
REMARK  1 active torsions:
REMARK  status: ('A' for Active; 'I' for Inactive)
REMARK    1  A    between atoms: C1_2  and  C2_3 
ROOT
ATOM      1  C2  UNL d   1       5.088   5.487  -2.152  0.00  0.00    -0.073 A 
ATOM      2  C3  UNL d   1       3.793   5.982  -2.346  0.00  0.00    -0.002 A 
ATOM      3  C4  UNL d   1       3.007   5.504  -3.395  0.00  0.00     0.004 A 
ATOM      4  C5  UNL d   1       3.502   4.524  -4.254  0.00  0.00    -0.004 A 
ATOM      5  C6  UNL d   1       4.789   4.008  -4.069  0.00  0.00    -0.075 A 
ATOM      6  C7  UNL d   1       5.338   2.955  -4.986  0.00  0.00     0.076 C 
ATOM      7  C8  UNL d   1       5.574   4.495  -3.015  0.00  0.00     0.001 A 
ENDROOT
BRANCH   1   8
ATOM      8  C1  UNL d   1       5.939   5.996  -1.017  0.00  0.00     0.053 C 
ATOM      9  C   UNL d   1       5.986   5.014   0.144  0.00  0.00     0.018 C 
ENDBRANCH   1   8
TORSDOF 1
ENDMDL
