MODEL 1
REMARK minimizedAffinity 3.64666557
REMARK minimizedRMSD -1
REMARK  1 active torsions:
REMARK  status: ('A' for Active; 'I' for Inactive)
REMARK    1  A    between atoms: C1_2  and  C2_3 
ROOT
ATOM      1  C2  UNL d   1       5.271   5.031  -4.466  0.00  0.00    -0.073 A 
ATOM      2  C3  UNL d   1       3.930   5.429  -4.513  0.00  0.00    -0.002 A 
ATOM      3  C4  UNL d   1       3.261   5.793  -3.343  0.00  0.00     0.004 A 
ATOM      4  C5  UNL d   1       3.927   5.770  -2.118  0.00  0.00    -0.004 A 
ATOM      5  C6  UNL d   1       5.270   5.386  -2.052  0.00  0.00    -0.075 A 
ATOM      6  C7  UNL d   1       6.000   5.354  -0.741  0.00  0.00     0.076 C 
ATOM      7  C8  UNL d   1       5.934   5.020  -3.230  0.00  0.00     0.001 A 
ENDROOT
BRANCH   1   8
ATOM      8  C1  UNL d   1       5.999   4.644  -5.727  0.00  0.00     0.053 C 
ATOM      9  C   UNL d   1       5.912   3.150  -5.999  0.00  0.00     0.018 C 
ENDBRANCH   1   8
TORSDOF 1
ENDMDL
