MODEL 1
REMARK minimizedAffinity -3.43656826
REMARK minimizedRMSD -1
REMARK  1 active torsions:
REMARK  status: ('A' for Active; 'I' for Inactive)
REMARK    1  A    between atoms: C1_2  and  C2_3 
ROOT
ATOM      1  C2  UNL d   1       5.338   3.514  -5.291  0.00  0.00    -0.073 A 
ATOM      2  C3  UNL d   1       4.666   4.522  -5.993  0.00  0.00    -0.002 A 
ATOM      3  C4  UNL d   1       4.421   5.757  -5.392  0.00  0.00     0.004 A 
ATOM      4  C5  UNL d   1       4.849   6.000  -4.087  0.00  0.00    -0.004 A 
ATOM      5  C6  UNL d   1       5.532   5.010  -3.373  0.00  0.00    -0.075 A 
ATOM      6  C7  UNL d   1       5.998   5.255  -1.968  0.00  0.00     0.076 C 
ATOM      7  C8  UNL d   1       5.773   3.772  -3.983  0.00  0.00     0.001 A 
ENDROOT
BRANCH   1   8
ATOM      8  C1  UNL d   1       5.611   2.181  -5.938  0.00  0.00     0.053 C 
ATOM      9  C   UNL d   1       5.631   1.049  -4.924  0.00  0.00     0.018 C 
ENDBRANCH   1   8
TORSDOF 1
ENDMDL
