MODEL 1
REMARK minimizedAffinity 0.41055581
REMARK minimizedRMSD -1
REMARK  1 active torsions:
REMARK  status: ('A' for Active; 'I' for Inactive)
REMARK    1  A    between atoms: C1_2  and  C2_3 
ROOT
ATOM      1  C2  UNL d   1      -0.514  -3.294  -2.276  0.00  0.00    -0.073 A 
ATOM      2  C3  UNL d   1      -1.014  -2.178  -2.956  0.00  0.00    -0.002 A 
ATOM      3  C4  UNL d   1      -1.466  -2.297  -4.271  0.00  0.00     0.004 A 
ATOM      4  C5  UNL d   1      -1.428  -3.532  -4.917  0.00  0.00    -0.004 A 
ATOM      5  C6  UNL d   1      -0.943  -4.662  -4.251  0.00  0.00    -0.075 A 
ATOM      6  C7  UNL d   1      -0.893  -5.998  -4.932  0.00  0.00     0.076 C 
ATOM      7  C8  UNL d   1      -0.488  -4.534  -2.931  0.00  0.00     0.001 A 
ENDROOT
BRANCH   1   8
ATOM      8  C1  UNL d   1      -0.031  -3.172  -0.854  0.00  0.00     0.053 C 
ATOM      9  C   UNL d   1      -0.991  -2.366   0.006  0.00  0.00     0.018 C 
ENDBRANCH   1   8
TORSDOF 1
ENDMDL
