MODEL 1
REMARK minimizedAffinity 6.91463614
REMARK minimizedRMSD -1
REMARK  1 active torsions:
REMARK  status: ('A' for Active; 'I' for Inactive)
REMARK    1  A    between atoms: C1_2  and  C2_3 
ROOT
ATOM      1  C2  UNL d   1       2.156  -2.278  -3.556  0.00  0.00    -0.073 A 
ATOM      2  C3  UNL d   1       1.450  -2.884  -4.601  0.00  0.00    -0.002 A 
ATOM      3  C4  UNL d   1       0.064  -3.030  -4.524  0.00  0.00     0.004 A 
ATOM      4  C5  UNL d   1      -0.629  -2.565  -3.407  0.00  0.00    -0.004 A 
ATOM      5  C6  UNL d   1       0.057  -1.946  -2.357  0.00  0.00    -0.075 A 
ATOM      6  C7  UNL d   1      -0.674  -1.443  -1.148  0.00  0.00     0.076 C 
ATOM      7  C8  UNL d   1       1.449  -1.806  -2.441  0.00  0.00     0.001 A 
ENDROOT
BRANCH   1   8
ATOM      8  C1  UNL d   1       3.652  -2.113  -3.637  0.00  0.00     0.053 C 
ATOM      9  C   UNL d   1       4.243  -1.614  -2.328  0.00  0.00     0.018 C 
ENDBRANCH   1   8
TORSDOF 1
ENDMDL
