MODEL 1
REMARK minimizedAffinity 1.36275315
REMARK minimizedRMSD -1
REMARK  1 active torsions:
REMARK  status: ('A' for Active; 'I' for Inactive)
REMARK    1  A    between atoms: C1_2  and  C2_3 
ROOT
ATOM      1  C2  UNL d   1       5.361   3.563  -4.564  0.00  0.00    -0.073 A 
ATOM      2  C3  UNL d   1       4.192   4.173  -5.035  0.00  0.00    -0.002 A 
ATOM      3  C4  UNL d   1       3.608   5.221  -4.323  0.00  0.00     0.004 A 
ATOM      4  C5  UNL d   1       4.189   5.674  -3.138  0.00  0.00    -0.004 A 
ATOM      5  C6  UNL d   1       5.363   5.086  -2.658  0.00  0.00    -0.075 A 
ATOM      6  C7  UNL d   1       5.999   5.560  -1.384  0.00  0.00     0.076 C 
ATOM      7  C8  UNL d   1       5.942   4.032  -3.377  0.00  0.00     0.001 A 
ENDROOT
BRANCH   1   8
ATOM      8  C1  UNL d   1       5.999   2.435  -5.333  0.00  0.00     0.053 C 
ATOM      9  C   UNL d   1       5.903   1.113  -4.590  0.00  0.00     0.018 C 
ENDBRANCH   1   8
TORSDOF 1
ENDMDL
