MODEL 1
REMARK minimizedAffinity 4.76156282
REMARK minimizedRMSD -1
REMARK  1 active torsions:
REMARK  status: ('A' for Active; 'I' for Inactive)
REMARK    1  A    between atoms: C1_2  and  C2_3 
ROOT
ATOM      1  C2  UNL d   1       5.312   4.173  -3.804  0.00  0.00    -0.073 A 
ATOM      2  C3  UNL d   1       5.999   4.441  -2.614  0.00  0.00    -0.002 A 
ATOM      3  C4  UNL d   1       5.357   5.095  -1.562  0.00  0.00     0.004 A 
ATOM      4  C5  UNL d   1       4.022   5.482  -1.685  0.00  0.00    -0.004 A 
ATOM      5  C6  UNL d   1       3.316   5.212  -2.862  0.00  0.00    -0.075 A 
ATOM      6  C7  UNL d   1       1.880   5.623  -3.011  0.00  0.00     0.076 C 
ATOM      7  C8  UNL d   1       3.968   4.557  -3.915  0.00  0.00     0.001 A 
ENDROOT
BRANCH   1   8
ATOM      8  C1  UNL d   1       5.999   3.461  -4.940  0.00  0.00     0.053 C 
ATOM      9  C   UNL d   1       5.972   1.951  -4.766  0.00  0.00     0.018 C 
ENDBRANCH   1   8
TORSDOF 1
ENDMDL
