MODEL 1
REMARK minimizedAffinity 3.64448833
REMARK minimizedRMSD -1
REMARK  1 active torsions:
REMARK  status: ('A' for Active; 'I' for Inactive)
REMARK    1  A    between atoms: C1_2  and  C2_3 
ROOT
ATOM      1  C2  UNL d   1       5.432   4.765  -3.353  0.00  0.00    -0.073 A 
ATOM      2  C3  UNL d   1       4.377   5.373  -4.043  0.00  0.00    -0.002 A 
ATOM      3  C4  UNL d   1       3.856   4.785  -5.196  0.00  0.00     0.004 A 
ATOM      4  C5  UNL d   1       4.379   3.580  -5.667  0.00  0.00    -0.004 A 
ATOM      5  C6  UNL d   1       5.425   2.950  -4.984  0.00  0.00    -0.075 A 
ATOM      6  C7  UNL d   1       5.999   1.655  -5.479  0.00  0.00     0.076 C 
ATOM      7  C8  UNL d   1       5.944   3.549  -3.829  0.00  0.00     0.001 A 
ENDROOT
BRANCH   1   8
ATOM      8  C1  UNL d   1       5.993   5.393  -2.104  0.00  0.00     0.053 C 
ATOM      9  C   UNL d   1       5.998   4.425  -0.932  0.00  0.00     0.018 C 
ENDBRANCH   1   8
TORSDOF 1
ENDMDL
