MODEL 1
REMARK minimizedAffinity -2.17065787
REMARK minimizedRMSD -1
REMARK  1 active torsions:
REMARK  status: ('A' for Active; 'I' for Inactive)
REMARK    1  A    between atoms: C1_2  and  C2_3 
ROOT
ATOM      1  C2  UNL d   1       5.598   3.838  -5.000  0.00  0.00    -0.073 A 
ATOM      2  C3  UNL d   1       4.874   4.964  -5.407  0.00  0.00    -0.002 A 
ATOM      3  C4  UNL d   1       4.509   5.941  -4.479  0.00  0.00     0.004 A 
ATOM      4  C5  UNL d   1       4.869   5.804  -3.138  0.00  0.00    -0.004 A 
ATOM      5  C6  UNL d   1       5.602   4.691  -2.715  0.00  0.00    -0.075 A 
ATOM      6  C7  UNL d   1       5.995   4.529  -1.276  0.00  0.00     0.076 C 
ATOM      7  C8  UNL d   1       5.963   3.714  -3.652  0.00  0.00     0.001 A 
ENDROOT
BRANCH   1   8
ATOM      8  C1  UNL d   1       6.000   2.784  -6.000  0.00  0.00     0.053 C 
ATOM      9  C   UNL d   1       5.931   1.384  -5.411  0.00  0.00     0.018 C 
ENDBRANCH   1   8
TORSDOF 1
ENDMDL
