MODEL 1
REMARK minimizedAffinity -3.33234882
REMARK minimizedRMSD -1
REMARK  1 active torsions:
REMARK  status: ('A' for Active; 'I' for Inactive)
REMARK    1  A    between atoms: C1_2  and  C2_3 
ROOT
ATOM      1  C2  UNL d   1       4.706   5.003  -3.214  0.00  0.00    -0.073 A 
ATOM      2  C3  UNL d   1       3.942   5.902  -3.967  0.00  0.00    -0.002 A 
ATOM      3  C4  UNL d   1       3.849   5.760  -5.352  0.00  0.00     0.004 A 
ATOM      4  C5  UNL d   1       4.512   4.716  -5.997  0.00  0.00    -0.004 A 
ATOM      5  C6  UNL d   1       5.271   3.801  -5.260  0.00  0.00    -0.075 A 
ATOM      6  C7  UNL d   1       5.992   2.674  -5.939  0.00  0.00     0.076 C 
ATOM      7  C8  UNL d   1       5.362   3.952  -3.870  0.00  0.00     0.001 A 
ENDROOT
BRANCH   1   8
ATOM      8  C1  UNL d   1       4.804   5.149  -1.717  0.00  0.00     0.053 C 
ATOM      9  C   UNL d   1       5.996   5.997  -1.304  0.00  0.00     0.018 C 
ENDBRANCH   1   8
TORSDOF 1
ENDMDL
