MODEL 1
REMARK minimizedAffinity 3.27540135
REMARK minimizedRMSD -1
REMARK  1 active torsions:
REMARK  status: ('A' for Active; 'I' for Inactive)
REMARK    1  A    between atoms: C1_2  and  C2_3 
ROOT
ATOM      1  C2  UNL d   1      -0.707  -4.429  -3.420  0.00  0.00    -0.073 A 
ATOM      2  C3  UNL d   1      -1.255  -3.400  -4.194  0.00  0.00    -0.002 A 
ATOM      3  C4  UNL d   1      -1.168  -2.074  -3.768  0.00  0.00     0.004 A 
ATOM      4  C5  UNL d   1      -0.528  -1.763  -2.568  0.00  0.00    -0.004 A 
ATOM      5  C6  UNL d   1       0.037  -2.776  -1.787  0.00  0.00    -0.075 A 
ATOM      6  C7  UNL d   1       0.727  -2.458  -0.493  0.00  0.00     0.076 C 
ATOM      7  C8  UNL d   1      -0.057  -4.105  -2.221  0.00  0.00     0.001 A 
ENDROOT
BRANCH   1   8
ATOM      8  C1  UNL d   1      -0.793  -5.861  -3.880  0.00  0.00     0.053 C 
ATOM      9  C   UNL d   1      -1.561  -5.996  -5.185  0.00  0.00     0.018 C 
ENDBRANCH   1   8
TORSDOF 1
ENDMDL
