MODEL 1
REMARK minimizedAffinity -2.68949938
REMARK minimizedRMSD -1
REMARK  1 active torsions:
REMARK  status: ('A' for Active; 'I' for Inactive)
REMARK    1  A    between atoms: C1_2  and  C2_3 
ROOT
ATOM      1  C2  UNL d   1       5.503   3.800  -5.068  0.00  0.00    -0.073 A 
ATOM      2  C3  UNL d   1       4.601   4.752  -5.556  0.00  0.00    -0.002 A 
ATOM      3  C4  UNL d   1       4.148   5.782  -4.731  0.00  0.00     0.004 A 
ATOM      4  C5  UNL d   1       4.597   5.875  -3.414  0.00  0.00    -0.004 A 
ATOM      5  C6  UNL d   1       5.508   4.940  -2.911  0.00  0.00    -0.075 A 
ATOM      6  C7  UNL d   1       5.999   5.025  -1.496  0.00  0.00     0.076 C 
ATOM      7  C8  UNL d   1       5.956   3.907  -3.745  0.00  0.00     0.001 A 
ENDROOT
BRANCH   1   8
ATOM      8  C1  UNL d   1       6.000   2.689  -5.957  0.00  0.00     0.053 C 
ATOM      9  C   UNL d   1       5.656   1.316  -5.401  0.00  0.00     0.018 C 
ENDBRANCH   1   8
TORSDOF 1
ENDMDL
