MODEL 1
REMARK minimizedAffinity 1.78607023
REMARK minimizedRMSD -1
REMARK  0 active torsions:
REMARK  status: ('A' for Active; 'I' for Inactive)
ROOT
ATOM      1  O1  BZF d   1       1.242   1.626   0.448  0.00  0.00    -0.204 OA
ATOM      2  C2  BZF d   1       1.482   2.511  -0.585  0.00  0.00     0.174 A 
ATOM      3  C3  BZF d   1       2.292   1.958  -1.510  0.00  0.00    -0.012 A 
ATOM      4  C3A BZF d   1       2.502   0.613  -1.071  0.00  0.00    -0.107 A 
ATOM      5  C4  BZF d   1       3.206  -0.442  -1.579  0.00  0.00     0.055 A 
ATOM      6  C5  BZF d   1       3.268  -1.598  -0.867  0.00  0.00    -0.016 A 
ATOM      7  C6  BZF d   1       2.644  -1.733   0.355  0.00  0.00     0.022 A 
ATOM      8  C7  BZF d   1       1.930  -0.716   0.897  0.00  0.00     0.029 A 
ATOM      9  C7A BZF d   1       1.837   0.442   0.166  0.00  0.00     0.058 A 
ENDROOT
TORSDOF 0
ENDMDL
