MODEL 1
REMARK minimizedAffinity 5.8386445
REMARK minimizedRMSD -1
REMARK  0 active torsions:
REMARK  status: ('A' for Active; 'I' for Inactive)
ROOT
ATOM      1  O1  BZF d   1      -0.236   1.040   0.638  0.00  0.00    -0.204 OA
ATOM      2  C2  BZF d   1      -1.341   0.490   1.257  0.00  0.00     0.174 A 
ATOM      3  C3  BZF d   1      -1.166  -0.832   1.462  0.00  0.00    -0.012 A 
ATOM      4  C3A BZF d   1       0.167  -1.107   1.022  0.00  0.00    -0.107 A 
ATOM      5  C4  BZF d   1       0.929  -2.240   0.986  0.00  0.00     0.055 A 
ATOM      6  C5  BZF d   1       2.167  -2.187   0.428  0.00  0.00    -0.016 A 
ATOM      7  C6  BZF d   1       2.672  -1.020  -0.108  0.00  0.00     0.022 A 
ATOM      8  C7  BZF d   1       1.956   0.130  -0.091  0.00  0.00     0.029 A 
ATOM      9  C7A BZF d   1       0.717   0.087   0.502  0.00  0.00     0.058 A 
ENDROOT
TORSDOF 0
ENDMDL
