MODEL 1
REMARK minimizedAffinity 2.73723865
REMARK minimizedRMSD -1
REMARK  0 active torsions:
REMARK  status: ('A' for Active; 'I' for Inactive)
ROOT
ATOM      1  O1  BZF d   1      -3.024  -2.332   2.466  0.00  0.00    -0.204 OA
ATOM      2  C2  BZF d   1      -2.509  -2.532   1.199  0.00  0.00     0.174 A 
ATOM      3  C3  BZF d   1      -2.669  -3.816   0.816  0.00  0.00    -0.012 A 
ATOM      4  C3A BZF d   1      -3.407  -4.435   1.874  0.00  0.00    -0.107 A 
ATOM      5  C4  BZF d   1      -3.886  -5.699   2.069  0.00  0.00     0.055 A 
ATOM      6  C5  BZF d   1      -4.501  -5.998   3.243  0.00  0.00    -0.016 A 
ATOM      7  C6  BZF d   1      -4.651  -5.061   4.244  0.00  0.00     0.022 A 
ATOM      8  C7  BZF d   1      -4.196  -3.793   4.094  0.00  0.00     0.029 A 
ATOM      9  C7A BZF d   1      -3.603  -3.478   2.896  0.00  0.00     0.058 A 
ENDROOT
TORSDOF 0
ENDMDL
