MODEL 1
REMARK minimizedAffinity 2.45491433
REMARK minimizedRMSD -1
REMARK  0 active torsions:
REMARK  status: ('A' for Active; 'I' for Inactive)
ROOT
ATOM      1  O1  BZF d   1       1.356   0.325   0.378  0.00  0.00    -0.204 OA
ATOM      2  C2  BZF d   1       1.983  -0.874   0.655  0.00  0.00     0.174 A 
ATOM      3  C3  BZF d   1       1.203  -1.653   1.432  0.00  0.00    -0.012 A 
ATOM      4  C3A BZF d   1      -0.024  -0.931   1.578  0.00  0.00    -0.107 A 
ATOM      5  C4  BZF d   1      -1.197  -1.195   2.226  0.00  0.00     0.055 A 
ATOM      6  C5  BZF d   1      -2.173  -0.249   2.235  0.00  0.00    -0.016 A 
ATOM      7  C6  BZF d   1      -2.008   0.970   1.611  0.00  0.00     0.022 A 
ATOM      8  C7  BZF d   1      -0.865   1.275   0.951  0.00  0.00     0.029 A 
ATOM      9  C7A BZF d   1       0.111   0.309   0.912  0.00  0.00     0.058 A 
ENDROOT
TORSDOF 0
ENDMDL
