MODEL 1
REMARK minimizedAffinity 8.44350529
REMARK minimizedRMSD -1
REMARK  0 active torsions:
REMARK  status: ('A' for Active; 'I' for Inactive)
ROOT
ATOM      1  O1  BZF d   1       3.906  -1.645  -2.258  0.00  0.00    -0.204 OA
ATOM      2  C2  BZF d   1       4.134  -0.367  -2.729  0.00  0.00     0.174 A 
ATOM      3  C3  BZF d   1       3.480   0.543  -1.978  0.00  0.00    -0.012 A 
ATOM      4  C3A BZF d   1       2.876  -0.207  -0.920  0.00  0.00    -0.107 A 
ATOM      5  C4  BZF d   1       2.107   0.137   0.155  0.00  0.00     0.055 A 
ATOM      6  C5  BZF d   1       1.615  -0.844   0.957  0.00  0.00    -0.016 A 
ATOM      7  C6  BZF d   1       1.868  -2.177   0.711  0.00  0.00     0.022 A 
ATOM      8  C7  BZF d   1       2.630  -2.568  -0.340  0.00  0.00     0.029 A 
ATOM      9  C7A BZF d   1       3.155  -1.577  -1.133  0.00  0.00     0.058 A 
ENDROOT
TORSDOF 0
ENDMDL
