MODEL 1
REMARK minimizedAffinity 8.19641876
REMARK minimizedRMSD -1
REMARK  0 active torsions:
REMARK  status: ('A' for Active; 'I' for Inactive)
ROOT
ATOM      1  O1  BZF d   1      -3.399  -2.727  -0.681  0.00  0.00    -0.204 OA
ATOM      2  C2  BZF d   1      -2.929  -3.447   0.401  0.00  0.00     0.174 A 
ATOM      3  C3  BZF d   1      -2.647  -2.627   1.434  0.00  0.00    -0.012 A 
ATOM      4  C3A BZF d   1      -3.046  -1.324   1.001  0.00  0.00    -0.107 A 
ATOM      5  C4  BZF d   1      -3.030  -0.092   1.592  0.00  0.00     0.055 A 
ATOM      6  C5  BZF d   1      -3.422   0.991   0.871  0.00  0.00    -0.016 A 
ATOM      7  C6  BZF d   1      -3.830   0.880  -0.442  0.00  0.00     0.022 A 
ATOM      8  C7  BZF d   1      -3.867  -0.320  -1.069  0.00  0.00     0.029 A 
ATOM      9  C7A BZF d   1      -3.503  -1.422  -0.333  0.00  0.00     0.058 A 
ENDROOT
TORSDOF 0
ENDMDL
