MODEL 1
REMARK minimizedAffinity 5.39503956
REMARK minimizedRMSD -1
REMARK  0 active torsions:
REMARK  status: ('A' for Active; 'I' for Inactive)
ROOT
ATOM      1  O1  BZF d   1      -1.409   1.894  -3.201  0.00  0.00    -0.204 OA
ATOM      2  C2  BZF d   1      -1.723   3.057  -3.878  0.00  0.00     0.174 A 
ATOM      3  C3  BZF d   1      -2.997   3.424  -3.633  0.00  0.00    -0.012 A 
ATOM      4  C3A BZF d   1      -3.483   2.480  -2.675  0.00  0.00    -0.107 A 
ATOM      5  C4  BZF d   1      -4.677   2.327  -2.029  0.00  0.00     0.055 A 
ATOM      6  C5  BZF d   1      -4.852   1.258  -1.209  0.00  0.00    -0.016 A 
ATOM      7  C6  BZF d   1      -3.859   0.320  -1.016  0.00  0.00     0.022 A 
ATOM      8  C7  BZF d   1      -2.657   0.431  -1.631  0.00  0.00     0.029 A 
ATOM      9  C7A BZF d   1      -2.465   1.529  -2.434  0.00  0.00     0.058 A 
ENDROOT
TORSDOF 0
ENDMDL
