MODEL 1
REMARK minimizedAffinity 0.740195751
REMARK minimizedRMSD -1
REMARK  0 active torsions:
REMARK  status: ('A' for Active; 'I' for Inactive)
ROOT
ATOM      1  O1  BZF d   1       0.555   1.441   0.264  0.00  0.00    -0.204 OA
ATOM      2  C2  BZF d   1       1.523   2.357  -0.102  0.00  0.00     0.174 A 
ATOM      3  C3  BZF d   1       2.687   1.736  -0.383  0.00  0.00    -0.012 A 
ATOM      4  C3A BZF d   1       2.404   0.338  -0.270  0.00  0.00    -0.107 A 
ATOM      5  C4  BZF d   1       3.156  -0.789  -0.446  0.00  0.00     0.055 A 
ATOM      6  C5  BZF d   1       2.599  -2.001  -0.185  0.00  0.00    -0.016 A 
ATOM      7  C6  BZF d   1       1.298  -2.123   0.256  0.00  0.00     0.022 A 
ATOM      8  C7  BZF d   1       0.512  -1.034   0.441  0.00  0.00     0.029 A 
ATOM      9  C7A BZF d   1       1.061   0.190   0.147  0.00  0.00     0.058 A 
ENDROOT
TORSDOF 0
ENDMDL
