MODEL 1
REMARK minimizedAffinity -3.64924693
REMARK minimizedRMSD -1
REMARK  0 active torsions:
REMARK  status: ('A' for Active; 'I' for Inactive)
ROOT
ATOM      1  O1  BZF d   1       2.599  -2.472   2.935  0.00  0.00    -0.204 OA
ATOM      2  C2  BZF d   1       1.678  -1.868   2.102  0.00  0.00     0.174 A 
ATOM      3  C3  BZF d   1       0.472  -2.462   2.211  0.00  0.00    -0.012 A 
ATOM      4  C3A BZF d   1       0.628  -3.443   3.241  0.00  0.00    -0.107 A 
ATOM      5  C4  BZF d   1      -0.222  -4.344   3.816  0.00  0.00     0.055 A 
ATOM      6  C5  BZF d   1       0.262  -5.209   4.746  0.00  0.00    -0.016 A 
ATOM      7  C6  BZF d   1       1.590  -5.204   5.120  0.00  0.00     0.022 A 
ATOM      8  C7  BZF d   1       2.470  -4.325   4.581  0.00  0.00     0.029 A 
ATOM      9  C7A BZF d   1       1.977  -3.428   3.666  0.00  0.00     0.058 A 
ENDROOT
TORSDOF 0
ENDMDL
