MODEL 1
REMARK minimizedAffinity 10.248703
REMARK minimizedRMSD -1
REMARK  0 active torsions:
REMARK  status: ('A' for Active; 'I' for Inactive)
ROOT
ATOM      1  O1  BZF d   1       0.521   1.656   1.017  0.00  0.00    -0.204 OA
ATOM      2  C2  BZF d   1      -0.317   0.594   1.298  0.00  0.00     0.174 A 
ATOM      3  C3  BZF d   1       0.186  -0.555   0.803  0.00  0.00    -0.012 A 
ATOM      4  C3A BZF d   1       1.459  -0.204   0.254  0.00  0.00    -0.107 A 
ATOM      5  C4  BZF d   1       2.444  -0.918  -0.367  0.00  0.00     0.055 A 
ATOM      6  C5  BZF d   1       3.531  -0.263  -0.850  0.00  0.00    -0.016 A 
ATOM      7  C6  BZF d   1       3.665   1.106  -0.734  0.00  0.00     0.022 A 
ATOM      8  C7  BZF d   1       2.717   1.856  -0.122  0.00  0.00     0.029 A 
ATOM      9  C7A BZF d   1       1.632   1.192   0.396  0.00  0.00     0.058 A 
ENDROOT
TORSDOF 0
ENDMDL
