MODEL 1
REMARK minimizedAffinity 0.481389612
REMARK minimizedRMSD -1
REMARK  0 active torsions:
REMARK  status: ('A' for Active; 'I' for Inactive)
ROOT
ATOM      1  O1  BZF d   1      -5.999  -5.997  -1.295  0.00  0.00    -0.204 OA
ATOM      2  C2  BZF d   1      -5.176  -5.978  -2.404  0.00  0.00     0.174 A 
ATOM      3  C3  BZF d   1      -3.940  -5.550  -2.076  0.00  0.00    -0.012 A 
ATOM      4  C3A BZF d   1      -3.968  -5.373  -0.657  0.00  0.00    -0.107 A 
ATOM      5  C4  BZF d   1      -3.035  -4.978   0.259  0.00  0.00     0.055 A 
ATOM      6  C5  BZF d   1      -3.403  -4.839   1.559  0.00  0.00    -0.016 A 
ATOM      7  C6  BZF d   1      -4.695  -5.080   1.978  0.00  0.00     0.022 A 
ATOM      8  C7  BZF d   1      -5.654  -5.479   1.108  0.00  0.00     0.029 A 
ATOM      9  C7A BZF d   1      -5.277  -5.652  -0.202  0.00  0.00     0.058 A 
ENDROOT
TORSDOF 0
ENDMDL
