MODEL 1
REMARK minimizedAffinity -3.00322366
REMARK minimizedRMSD -1
REMARK  0 active torsions:
REMARK  status: ('A' for Active; 'I' for Inactive)
ROOT
ATOM      1  O1  BZF d   1      -5.198  -5.994   1.245  0.00  0.00    -0.204 OA
ATOM      2  C2  BZF d   1      -4.236  -5.975   2.236  0.00  0.00     0.174 A 
ATOM      3  C3  BZF d   1      -2.998  -5.998   1.702  0.00  0.00    -0.012 A 
ATOM      4  C3A BZF d   1      -3.198  -5.940   0.286  0.00  0.00    -0.107 A 
ATOM      5  C4  BZF d   1      -2.347  -5.915  -0.782  0.00  0.00     0.055 A 
ATOM      6  C5  BZF d   1      -2.864  -5.931  -2.038  0.00  0.00    -0.016 A 
ATOM      7  C6  BZF d   1      -4.224  -5.977  -2.263  0.00  0.00     0.022 A 
ATOM      8  C7  BZF d   1      -5.108  -5.998  -1.236  0.00  0.00     0.029 A 
ATOM      9  C7A BZF d   1      -4.589  -5.948   0.035  0.00  0.00     0.058 A 
ENDROOT
TORSDOF 0
ENDMDL
