MODEL 1
REMARK minimizedAffinity 9.09058475
REMARK minimizedRMSD -1
REMARK  0 active torsions:
REMARK  status: ('A' for Active; 'I' for Inactive)
ROOT
ATOM      1  O1  BZF d   1      -1.834  -5.685  -3.737  0.00  0.00    -0.204 OA
ATOM      2  C2  BZF d   1      -2.561  -5.912  -4.890  0.00  0.00     0.174 A 
ATOM      3  C3  BZF d   1      -1.745  -5.999  -5.960  0.00  0.00    -0.012 A 
ATOM      4  C3A BZF d   1      -0.419  -5.907  -5.431  0.00  0.00    -0.107 A 
ATOM      5  C4  BZF d   1       0.823  -5.945  -5.998  0.00  0.00     0.055 A 
ATOM      6  C5  BZF d   1       1.914  -5.753  -5.212  0.00  0.00    -0.016 A 
ATOM      7  C6  BZF d   1       1.801  -5.515  -3.858  0.00  0.00     0.022 A 
ATOM      8  C7  BZF d   1       0.590  -5.474  -3.249  0.00  0.00     0.029 A 
ATOM      9  C7A BZF d   1      -0.513  -5.700  -4.035  0.00  0.00     0.058 A 
ENDROOT
TORSDOF 0
ENDMDL
