MODEL 1
REMARK minimizedAffinity 9.05490208
REMARK minimizedRMSD -1
REMARK  0 active torsions:
REMARK  status: ('A' for Active; 'I' for Inactive)
ROOT
ATOM      1  O1  BZF d   1       0.046   0.698  -0.145  0.00  0.00    -0.204 OA
ATOM      2  C2  BZF d   1       1.221   0.951  -0.826  0.00  0.00     0.174 A 
ATOM      3  C3  BZF d   1       1.858  -0.200  -1.126  0.00  0.00    -0.012 A 
ATOM      4  C3A BZF d   1       0.983  -1.241  -0.680  0.00  0.00    -0.107 A 
ATOM      5  C4  BZF d   1       1.053  -2.604  -0.713  0.00  0.00     0.055 A 
ATOM      6  C5  BZF d   1       0.065  -3.331  -0.127  0.00  0.00    -0.016 A 
ATOM      7  C6  BZF d   1      -1.002  -2.728   0.505  0.00  0.00     0.022 A 
ATOM      8  C7  BZF d   1      -1.118  -1.378   0.559  0.00  0.00     0.029 A 
ATOM      9  C7A BZF d   1      -0.139  -0.642  -0.061  0.00  0.00     0.058 A 
ENDROOT
TORSDOF 0
ENDMDL
