MODEL 1
REMARK minimizedAffinity -1.9731971
REMARK minimizedRMSD -1
REMARK  0 active torsions:
REMARK  status: ('A' for Active; 'I' for Inactive)
ROOT
ATOM      1  O1  BZF d   1      -0.449  -5.905  -5.993  0.00  0.00    -0.204 OA
ATOM      2  C2  BZF d   1      -1.639  -5.916  -5.291  0.00  0.00     0.174 A 
ATOM      3  C3  BZF d   1      -1.410  -6.000  -3.964  0.00  0.00    -0.012 A 
ATOM      4  C3A BZF d   1       0.013  -5.952  -3.824  0.00  0.00    -0.107 A 
ATOM      5  C4  BZF d   1       0.851  -5.979  -2.746  0.00  0.00     0.055 A 
ATOM      6  C5  BZF d   1       2.194  -5.990  -2.954  0.00  0.00    -0.016 A 
ATOM      7  C6  BZF d   1       2.732  -5.979  -4.224  0.00  0.00     0.022 A 
ATOM      8  C7  BZF d   1       1.941  -5.947  -5.324  0.00  0.00     0.029 A 
ATOM      9  C7A BZF d   1       0.584  -5.903  -5.116  0.00  0.00     0.058 A 
ENDROOT
TORSDOF 0
ENDMDL
