MODEL 1
REMARK minimizedAffinity 3.59770584
REMARK minimizedRMSD -1
REMARK  0 active torsions:
REMARK  status: ('A' for Active; 'I' for Inactive)
ROOT
ATOM      1  O1  BZF d   1      -2.235  -5.998  -4.397  0.00  0.00    -0.204 OA
ATOM      2  C2  BZF d   1      -2.574  -5.977  -3.058  0.00  0.00     0.174 A 
ATOM      3  C3  BZF d   1      -1.512  -5.633  -2.301  0.00  0.00    -0.012 A 
ATOM      4  C3A BZF d   1      -0.466  -5.337  -3.232  0.00  0.00    -0.107 A 
ATOM      5  C4  BZF d   1       0.827  -4.922  -3.091  0.00  0.00     0.055 A 
ATOM      6  C5  BZF d   1       1.605  -4.795  -4.198  0.00  0.00    -0.016 A 
ATOM      7  C6  BZF d   1       1.124  -5.079  -5.459  0.00  0.00     0.022 A 
ATOM      8  C7  BZF d   1      -0.153  -5.489  -5.650  0.00  0.00     0.029 A 
ATOM      9  C7A BZF d   1      -0.952  -5.586  -4.537  0.00  0.00     0.058 A 
ENDROOT
TORSDOF 0
ENDMDL
