MODEL 1
REMARK minimizedAffinity 6.47308969
REMARK minimizedRMSD -1
REMARK  0 active torsions:
REMARK  status: ('A' for Active; 'I' for Inactive)
ROOT
ATOM      1  O1  BZF d   1       3.793  -0.510  -0.541  0.00  0.00    -0.204 OA
ATOM      2  C2  BZF d   1       3.872  -0.736   0.820  0.00  0.00     0.174 A 
ATOM      3  C3  BZF d   1       2.691  -0.479   1.417  0.00  0.00    -0.012 A 
ATOM      4  C3A BZF d   1       1.792  -0.156   0.351  0.00  0.00    -0.107 A 
ATOM      5  C4  BZF d   1       0.469   0.176   0.307  0.00  0.00     0.055 A 
ATOM      6  C5  BZF d   1      -0.091   0.504  -0.888  0.00  0.00    -0.016 A 
ATOM      7  C6  BZF d   1       0.645   0.515  -2.055  0.00  0.00     0.022 A 
ATOM      8  C7  BZF d   1       1.960   0.188  -2.062  0.00  0.00     0.029 A 
ATOM      9  C7A BZF d   1       2.520  -0.176  -0.862  0.00  0.00     0.058 A 
ENDROOT
TORSDOF 0
ENDMDL
