MODEL 1
REMARK minimizedAffinity 3.00669456
REMARK minimizedRMSD -1
REMARK  0 active torsions:
REMARK  status: ('A' for Active; 'I' for Inactive)
ROOT
ATOM      1  O1  BZF d   1      -2.227   0.953  -2.665  0.00  0.00    -0.204 OA
ATOM      2  C2  BZF d   1      -1.982   2.312  -2.613  0.00  0.00     0.174 A 
ATOM      3  C3  BZF d   1      -1.842   2.724  -1.336  0.00  0.00    -0.012 A 
ATOM      4  C3A BZF d   1      -1.918   1.533  -0.546  0.00  0.00    -0.107 A 
ATOM      5  C4  BZF d   1      -1.832   1.289   0.795  0.00  0.00     0.055 A 
ATOM      6  C5  BZF d   1      -2.022   0.022   1.249  0.00  0.00    -0.016 A 
ATOM      7  C6  BZF d   1      -2.304  -1.022   0.392  0.00  0.00     0.022 A 
ATOM      8  C7  BZF d   1      -2.394  -0.829  -0.946  0.00  0.00     0.029 A 
ATOM      9  C7A BZF d   1      -2.170   0.443  -1.411  0.00  0.00     0.058 A 
ENDROOT
TORSDOF 0
ENDMDL
