MODEL 1
REMARK minimizedAffinity -4.35343409
REMARK minimizedRMSD -1
REMARK  0 active torsions:
REMARK  status: ('A' for Active; 'I' for Inactive)
ROOT
ATOM      1  C   UNL d   1      -0.781  -2.056   3.186  0.00  0.00     0.020 A 
ATOM      2  C1  UNL d   1       0.353  -2.820   2.911  0.00  0.00     0.020 A 
ATOM      3  C2  UNL d   1       1.153  -2.510   1.809  0.00  0.00     0.034 A 
ATOM      4  C3  UNL d   1       0.820  -1.433   0.978  0.00  0.00     0.017 A 
ATOM      5  C4  UNL d   1      -0.318  -0.668   1.255  0.00  0.00     0.017 A 
ATOM      6  C5  UNL d   1      -1.115  -0.982   2.360  0.00  0.00     0.034 A 
ATOM      7 Cl   UNL d   1      -0.792   0.675   0.276  0.00  0.00    -0.070 Cl
ATOM      8 Cl1  UNL d   1       1.855  -1.107  -0.367  0.00  0.00    -0.070 Cl
ENDROOT
TORSDOF 0
ENDMDL
