MODEL 1
REMARK minimizedAffinity -3.75675106
REMARK minimizedRMSD -1
REMARK  0 active torsions:
REMARK  status: ('A' for Active; 'I' for Inactive)
ROOT
ATOM      1  C   UNL d   1       2.006  -1.747  -0.839  0.00  0.00     0.020 A 
ATOM      2  C1  UNL d   1       1.794  -2.553   0.278  0.00  0.00     0.020 A 
ATOM      3  C2  UNL d   1       0.823  -2.201   1.218  0.00  0.00     0.034 A 
ATOM      4  C3  UNL d   1       0.060  -1.041   1.042  0.00  0.00     0.017 A 
ATOM      5  C4  UNL d   1       0.273  -0.233  -0.080  0.00  0.00     0.017 A 
ATOM      6  C5  UNL d   1       1.247  -0.590  -1.018  0.00  0.00     0.034 A 
ATOM      7 Cl   UNL d   1      -0.629   1.213  -0.366  0.00  0.00    -0.070 Cl
ATOM      8 Cl1  UNL d   1      -1.124  -0.668   2.244  0.00  0.00    -0.070 Cl
ENDROOT
TORSDOF 0
ENDMDL
