MODEL 1
REMARK minimizedAffinity -4.86136484
REMARK minimizedRMSD -1
REMARK  0 active torsions:
REMARK  status: ('A' for Active; 'I' for Inactive)
ROOT
ATOM      1  C   UNL d   1       2.899  -0.380  -0.054  0.00  0.00     0.020 A 
ATOM      2  C1  UNL d   1       2.673  -1.517   0.720  0.00  0.00     0.020 A 
ATOM      3  C2  UNL d   1       1.412  -1.745   1.274  0.00  0.00     0.034 A 
ATOM      4  C3  UNL d   1       0.371  -0.835   1.055  0.00  0.00     0.017 A 
ATOM      5  C4  UNL d   1       0.599   0.306   0.277  0.00  0.00     0.017 A 
ATOM      6  C5  UNL d   1       1.864   0.530  -0.275  0.00  0.00     0.034 A 
ATOM      7 Cl   UNL d   1      -0.635   1.475  -0.038  0.00  0.00    -0.070 Cl
ATOM      8 Cl1  UNL d   1      -1.163  -1.181   1.770  0.00  0.00    -0.070 Cl
ENDROOT
TORSDOF 0
ENDMDL
