MODEL 1
REMARK minimizedAffinity -2.76972985
REMARK minimizedRMSD -1
REMARK  0 active torsions:
REMARK  status: ('A' for Active; 'I' for Inactive)
ROOT
ATOM      1  C   UNL d   1       1.313   0.756   0.374  0.00  0.00     0.020 A 
ATOM      2  C1  UNL d   1       0.503  -0.310  -0.016  0.00  0.00     0.020 A 
ATOM      3  C2  UNL d   1      -0.476  -0.122  -0.993  0.00  0.00     0.034 A 
ATOM      4  C3  UNL d   1      -0.647   1.135  -1.585  0.00  0.00     0.017 A 
ATOM      5  C4  UNL d   1       0.166   2.204  -1.194  0.00  0.00     0.017 A 
ATOM      6  C5  UNL d   1       1.145   2.011  -0.214  0.00  0.00     0.034 A 
ATOM      7 Cl   UNL d   1       0.014   3.784  -1.879  0.00  0.00    -0.070 Cl
ATOM      8 Cl1  UNL d   1      -1.877   1.295  -2.788  0.00  0.00    -0.070 Cl
ENDROOT
TORSDOF 0
ENDMDL
