MODEL 1
REMARK minimizedAffinity -4.81759548
REMARK minimizedRMSD -1
REMARK  0 active torsions:
REMARK  status: ('A' for Active; 'I' for Inactive)
ROOT
ATOM      1  C   UNL d   1       2.136  -2.399   1.055  0.00  0.00     0.020 A 
ATOM      2  C1  UNL d   1       0.757  -2.542   0.906  0.00  0.00     0.020 A 
ATOM      3  C2  UNL d   1       0.000  -1.495   0.374  0.00  0.00     0.034 A 
ATOM      4  C3  UNL d   1       0.622  -0.302  -0.010  0.00  0.00     0.017 A 
ATOM      5  C4  UNL d   1       2.006  -0.159   0.140  0.00  0.00     0.017 A 
ATOM      6  C5  UNL d   1       2.759  -1.210   0.672  0.00  0.00     0.034 A 
ATOM      7 Cl   UNL d   1       2.844   1.283  -0.312  0.00  0.00    -0.070 Cl
ATOM      8 Cl1  UNL d   1      -0.376   0.950  -0.660  0.00  0.00    -0.070 Cl
ENDROOT
TORSDOF 0
ENDMDL
