MODEL 1
REMARK minimizedAffinity -2.75383925
REMARK minimizedRMSD -1
REMARK  0 active torsions:
REMARK  status: ('A' for Active; 'I' for Inactive)
ROOT
ATOM      1  C   UNL d   1       1.832  -2.752   1.050  0.00  0.00     0.020 A 
ATOM      2  C1  UNL d   1       0.476  -2.911   0.768  0.00  0.00     0.020 A 
ATOM      3  C2  UNL d   1      -0.262  -1.839   0.261  0.00  0.00     0.034 A 
ATOM      4  C3  UNL d   1       0.357  -0.604   0.034  0.00  0.00     0.017 A 
ATOM      5  C4  UNL d   1       1.718  -0.446   0.318  0.00  0.00     0.017 A 
ATOM      6  C5  UNL d   1       2.452  -1.522   0.825  0.00  0.00     0.034 A 
ATOM      7 Cl   UNL d   1       2.550   1.048   0.064  0.00  0.00    -0.070 Cl
ATOM      8 Cl1  UNL d   1      -0.616   0.678  -0.595  0.00  0.00    -0.070 Cl
ENDROOT
TORSDOF 0
ENDMDL
