MODEL 1
REMARK minimizedAffinity -4.08180237
REMARK minimizedRMSD -1
REMARK  0 active torsions:
REMARK  status: ('A' for Active; 'I' for Inactive)
ROOT
ATOM      1  C   UNL d   1       1.485   0.494  -0.733  0.00  0.00     0.020 A 
ATOM      2  C1  UNL d   1       0.225   1.032  -0.480  0.00  0.00     0.020 A 
ATOM      3  C2  UNL d   1      -0.679   0.343   0.332  0.00  0.00     0.034 A 
ATOM      4  C3  UNL d   1      -0.323  -0.888   0.894  0.00  0.00     0.017 A 
ATOM      5  C4  UNL d   1       0.943  -1.428   0.639  0.00  0.00     0.017 A 
ATOM      6  C5  UNL d   1       1.844  -0.734  -0.175  0.00  0.00     0.034 A 
ATOM      7 Cl   UNL d   1       1.454  -2.942   1.297  0.00  0.00    -0.070 Cl
ATOM      8 Cl1  UNL d   1      -1.490  -1.685   1.888  0.00  0.00    -0.070 Cl
ENDROOT
TORSDOF 0
ENDMDL
