MODEL 1
REMARK minimizedAffinity -2.47787642
REMARK minimizedRMSD -1
REMARK  0 active torsions:
REMARK  status: ('A' for Active; 'I' for Inactive)
ROOT
ATOM      1  C   UNL d   1      -0.714   0.839  -1.015  0.00  0.00     0.020 A 
ATOM      2  C1  UNL d   1       0.602   0.623  -1.421  0.00  0.00     0.020 A 
ATOM      3  C2  UNL d   1       1.473  -0.106  -0.608  0.00  0.00     0.034 A 
ATOM      4  C3  UNL d   1       1.028  -0.621   0.615  0.00  0.00     0.017 A 
ATOM      5  C4  UNL d   1      -0.294  -0.404   1.021  0.00  0.00     0.017 A 
ATOM      6  C5  UNL d   1      -1.161   0.326   0.203  0.00  0.00     0.034 A 
ATOM      7 Cl   UNL d   1      -0.915  -1.009   2.516  0.00  0.00    -0.070 Cl
ATOM      8 Cl1  UNL d   1       2.159  -1.514   1.569  0.00  0.00    -0.070 Cl
ENDROOT
TORSDOF 0
ENDMDL
