MODEL 1
REMARK minimizedAffinity -3.2982378
REMARK minimizedRMSD -1
REMARK  0 active torsions:
REMARK  status: ('A' for Active; 'I' for Inactive)
ROOT
ATOM      1  C   UNL d   1       0.146   0.970  -0.507  0.00  0.00     0.020 A 
ATOM      2  C1  UNL d   1      -0.824  -0.032  -0.482  0.00  0.00     0.020 A 
ATOM      3  C2  UNL d   1      -0.509  -1.296   0.019  0.00  0.00     0.034 A 
ATOM      4  C3  UNL d   1       0.780  -1.564   0.496  0.00  0.00     0.017 A 
ATOM      5  C4  UNL d   1       1.753  -0.558   0.470  0.00  0.00     0.017 A 
ATOM      6  C5  UNL d   1       1.432   0.707  -0.032  0.00  0.00     0.034 A 
ATOM      7 Cl   UNL d   1       3.364  -0.812   1.042  0.00  0.00    -0.070 Cl
ATOM      8 Cl1  UNL d   1       1.100  -3.150   1.101  0.00  0.00    -0.070 Cl
ENDROOT
TORSDOF 0
ENDMDL
