MODEL 1
REMARK minimizedAffinity -4.47441816
REMARK minimizedRMSD -1
REMARK  0 active torsions:
REMARK  status: ('A' for Active; 'I' for Inactive)
ROOT
ATOM      1  C   UNL d   1       1.055   0.637  -0.569  0.00  0.00     0.020 A 
ATOM      2  C1  UNL d   1      -0.179   1.084  -0.099  0.00  0.00     0.020 A 
ATOM      3  C2  UNL d   1      -0.936   0.277   0.753  0.00  0.00     0.034 A 
ATOM      4  C3  UNL d   1      -0.460  -0.982   1.138  0.00  0.00     0.017 A 
ATOM      5  C4  UNL d   1       0.780  -1.430   0.666  0.00  0.00     0.017 A 
ATOM      6  C5  UNL d   1       1.533  -0.617  -0.187  0.00  0.00     0.034 A 
ATOM      7 Cl   UNL d   1       1.434  -2.970   1.097  0.00  0.00    -0.070 Cl
ATOM      8 Cl1  UNL d   1      -1.448  -1.927   2.194  0.00  0.00    -0.070 Cl
ENDROOT
TORSDOF 0
ENDMDL
