MODEL 1
REMARK minimizedAffinity -4.1085701
REMARK minimizedRMSD -1
REMARK  0 active torsions:
REMARK  status: ('A' for Active; 'I' for Inactive)
ROOT
ATOM      1  C   UNL d   1       2.394  -0.620  -0.143  0.00  0.00     0.020 A 
ATOM      2  C1  UNL d   1       2.114  -1.703   0.690  0.00  0.00     0.020 A 
ATOM      3  C2  UNL d   1       0.871  -1.797   1.319  0.00  0.00     0.034 A 
ATOM      4  C3  UNL d   1      -0.097  -0.807   1.117  0.00  0.00     0.017 A 
ATOM      5  C4  UNL d   1       0.184   0.280   0.281  0.00  0.00     0.017 A 
ATOM      6  C5  UNL d   1       1.431   0.369  -0.346  0.00  0.00     0.034 A 
ATOM      7 Cl   UNL d   1      -0.959   1.541  -0.017  0.00  0.00    -0.070 Cl
ATOM      8 Cl1  UNL d   1      -1.613  -0.988   1.927  0.00  0.00    -0.070 Cl
ENDROOT
TORSDOF 0
ENDMDL
