MODEL 1
REMARK minimizedAffinity -3.09093475
REMARK minimizedRMSD -1
REMARK  0 active torsions:
REMARK  status: ('A' for Active; 'I' for Inactive)
ROOT
ATOM      1  C   UNL d   1       0.878   0.679  -0.497  0.00  0.00     0.020 A 
ATOM      2  C1  UNL d   1      -0.318   1.179   0.015  0.00  0.00     0.020 A 
ATOM      3  C2  UNL d   1      -1.082   0.403   0.889  0.00  0.00     0.034 A 
ATOM      4  C3  UNL d   1      -0.651  -0.877   1.254  0.00  0.00     0.017 A 
ATOM      5  C4  UNL d   1       0.550  -1.379   0.739  0.00  0.00     0.017 A 
ATOM      6  C5  UNL d   1       1.311  -0.597  -0.136  0.00  0.00     0.034 A 
ATOM      7 Cl   UNL d   1       1.147  -2.950   1.143  0.00  0.00    -0.070 Cl
ATOM      8 Cl1  UNL d   1      -1.646  -1.781   2.339  0.00  0.00    -0.070 Cl
ENDROOT
TORSDOF 0
ENDMDL
