MODEL 1
REMARK minimizedAffinity -5.23753166
REMARK minimizedRMSD -1
REMARK  0 active torsions:
REMARK  status: ('A' for Active; 'I' for Inactive)
ROOT
ATOM      1  C   UNL d   1       0.504  -2.931   0.990  0.00  0.00     0.020 A 
ATOM      2  C1  UNL d   1       1.859  -2.988   0.663  0.00  0.00     0.020 A 
ATOM      3  C2  UNL d   1       2.531  -1.828   0.271  0.00  0.00     0.034 A 
ATOM      4  C3  UNL d   1       1.849  -0.607   0.205  0.00  0.00     0.017 A 
ATOM      5  C4  UNL d   1       0.490  -0.552   0.534  0.00  0.00     0.017 A 
ATOM      6  C5  UNL d   1      -0.178  -1.716   0.926  0.00  0.00     0.034 A 
ATOM      7 Cl   UNL d   1      -0.419   0.917   0.477  0.00  0.00    -0.070 Cl
ATOM      8 Cl1  UNL d   1       2.743   0.787  -0.287  0.00  0.00    -0.070 Cl
ENDROOT
TORSDOF 0
ENDMDL
