MODEL 1
REMARK minimizedAffinity -4.36463737
REMARK minimizedRMSD -1
REMARK  0 active torsions:
REMARK  status: ('A' for Active; 'I' for Inactive)
ROOT
ATOM      1  C   UNL d   1       1.310  -2.976   2.377  0.00  0.00     0.020 A 
ATOM      2  C1  UNL d   1       1.922  -2.587   1.186  0.00  0.00     0.020 A 
ATOM      3  C2  UNL d   1       1.339  -1.596   0.393  0.00  0.00     0.034 A 
ATOM      4  C3  UNL d   1       0.141  -0.991   0.791  0.00  0.00     0.017 A 
ATOM      5  C4  UNL d   1      -0.472  -1.382   1.987  0.00  0.00     0.017 A 
ATOM      6  C5  UNL d   1       0.116  -2.374   2.777  0.00  0.00     0.034 A 
ATOM      7 Cl   UNL d   1      -1.950  -0.680   2.543  0.00  0.00    -0.070 Cl
ATOM      8 Cl1  UNL d   1      -0.523   0.228  -0.238  0.00  0.00    -0.070 Cl
ENDROOT
TORSDOF 0
ENDMDL
