MODEL 1
REMARK minimizedAffinity -5.64854193
REMARK minimizedRMSD -1
REMARK  0 active torsions:
REMARK  status: ('A' for Active; 'I' for Inactive)
ROOT
ATOM      1  C   UNL d   1      -0.204  -2.599   2.424  0.00  0.00     0.020 A 
ATOM      2  C1  UNL d   1       0.973  -3.071   1.845  0.00  0.00     0.020 A 
ATOM      3  C2  UNL d   1       1.570  -2.363   0.800  0.00  0.00     0.034 A 
ATOM      4  C3  UNL d   1       0.991  -1.178   0.332  0.00  0.00     0.017 A 
ATOM      5  C4  UNL d   1      -0.191  -0.705   0.914  0.00  0.00     0.017 A 
ATOM      6  C5  UNL d   1      -0.784  -1.419   1.960  0.00  0.00     0.034 A 
ATOM      7 Cl   UNL d   1      -0.965   0.749   0.390  0.00  0.00    -0.070 Cl
ATOM      8 Cl1  UNL d   1       1.783  -0.353  -0.963  0.00  0.00    -0.070 Cl
ENDROOT
TORSDOF 0
ENDMDL
