MODEL 1
REMARK minimizedAffinity -3.0521884
REMARK minimizedRMSD -1
REMARK  0 active torsions:
REMARK  status: ('A' for Active; 'I' for Inactive)
ROOT
ATOM      1  C   UNL d   1       2.088  -1.094  -0.383  0.00  0.00     0.020 A 
ATOM      2  C1  UNL d   1       1.795  -1.840   0.759  0.00  0.00     0.020 A 
ATOM      3  C2  UNL d   1       0.618  -1.596   1.469  0.00  0.00     0.034 A 
ATOM      4  C3  UNL d   1      -0.271  -0.604   1.038  0.00  0.00     0.017 A 
ATOM      5  C4  UNL d   1       0.023   0.143  -0.108  0.00  0.00     0.017 A 
ATOM      6  C5  UNL d   1       1.204  -0.105  -0.815  0.00  0.00     0.034 A 
ATOM      7 Cl   UNL d   1      -1.025   1.383  -0.700  0.00  0.00    -0.070 Cl
ATOM      8 Cl1  UNL d   1      -1.709  -0.357   1.965  0.00  0.00    -0.070 Cl
ENDROOT
TORSDOF 0
ENDMDL
