MODEL 1
REMARK minimizedAffinity -5.2773366
REMARK minimizedRMSD -1
REMARK  0 active torsions:
REMARK  status: ('A' for Active; 'I' for Inactive)
ROOT
ATOM      1  C   UNL d   1       2.528  -2.176  -0.284  0.00  0.00     0.020 A 
ATOM      2  C1  UNL d   1       1.945  -3.000   0.678  0.00  0.00     0.020 A 
ATOM      3  C2  UNL d   1       0.837  -2.553   1.402  0.00  0.00     0.034 A 
ATOM      4  C3  UNL d   1       0.309  -1.279   1.165  0.00  0.00     0.017 A 
ATOM      5  C4  UNL d   1       0.895  -0.452   0.200  0.00  0.00     0.017 A 
ATOM      6  C5  UNL d   1       2.004  -0.905  -0.522  0.00  0.00     0.034 A 
ATOM      7 Cl   UNL d   1       0.300   1.133  -0.148  0.00  0.00    -0.070 Cl
ATOM      8 Cl1  UNL d   1      -1.062  -0.791   2.097  0.00  0.00    -0.070 Cl
ENDROOT
TORSDOF 0
ENDMDL
