MODEL 1
REMARK minimizedAffinity -3.17039752
REMARK minimizedRMSD -1
REMARK  2 active torsions:
REMARK  status: ('A' for Active; 'I' for Inactive)
REMARK    1  A    between atoms: C2'_3  and  C1'_4 
REMARK    2  A    between atoms: C1'_4  and  C1_5 
ROOT
ATOM      1  C1  I4B d   1      -1.157  -0.992  -1.297  0.00  0.00    -0.075 A 
ATOM      2  C2  I4B d   1      -2.083  -2.004  -1.241  0.00  0.00     0.003 A 
ATOM      3  C3  I4B d   1      -2.883  -2.302  -2.370  0.00  0.00     0.002 A 
ATOM      4  C4  I4B d   1      -2.760  -1.536  -3.511  0.00  0.00    -0.004 A 
ATOM      5  C5  I4B d   1      -1.805  -0.526  -3.575  0.00  0.00     0.002 A 
ATOM      6  C6  I4B d   1      -0.989  -0.260  -2.465  0.00  0.00     0.003 A 
ENDROOT
BRANCH   1   7
ATOM      7  C1' I4B d   1      -0.352  -0.682  -0.075  0.00  0.00     0.060 C 
BRANCH   7   8
ATOM      8  C2' I4B d   1      -1.314  -0.339   1.043  0.00  0.00    -0.013 C 
ATOM      9  C4' I4B d   1      -1.041  -1.166   2.271  0.00  0.00     0.013 C 
ATOM     10  C3' I4B d   1      -1.180   1.126   1.336  0.00  0.00     0.013 C 
ENDBRANCH   7   8
ENDBRANCH   1   7
TORSDOF 2
ENDMDL
