MODEL 1
REMARK minimizedAffinity -4.54514503
REMARK minimizedRMSD -1
REMARK  2 active torsions:
REMARK  status: ('A' for Active; 'I' for Inactive)
REMARK    1  A    between atoms: C2'_3  and  C1'_4 
REMARK    2  A    between atoms: C1'_4  and  C1_5 
ROOT
ATOM      1  C1  I4B d   1       0.307  -0.331   0.130  0.00  0.00    -0.075 A 
ATOM      2  C2  I4B d   1       1.615   0.085   0.149  0.00  0.00     0.003 A 
ATOM      3  C3  I4B d   1       1.995   1.205   0.929  0.00  0.00     0.002 A 
ATOM      4  C4  I4B d   1       1.033   1.904   1.628  0.00  0.00    -0.004 A 
ATOM      5  C5  I4B d   1      -0.289   1.467   1.626  0.00  0.00     0.002 A 
ATOM      6  C6  I4B d   1      -0.652   0.335   0.881  0.00  0.00     0.003 A 
ENDROOT
BRANCH   1   7
ATOM      7  C1' I4B d   1      -0.065  -1.497  -0.731  0.00  0.00     0.060 C 
BRANCH   7   8
ATOM      8  C2' I4B d   1      -1.384  -1.176  -1.405  0.00  0.00    -0.013 C 
ATOM      9  C4' I4B d   1      -1.187  -0.867  -2.866  0.00  0.00     0.013 C 
ATOM     10  C3' I4B d   1      -2.297  -2.351  -1.219  0.00  0.00     0.013 C 
ENDBRANCH   7   8
ENDBRANCH   1   7
TORSDOF 2
ENDMDL
