MODEL 1
REMARK minimizedAffinity -5.30774975
REMARK minimizedRMSD -1
REMARK  2 active torsions:
REMARK  status: ('A' for Active; 'I' for Inactive)
REMARK    1  A    between atoms: C2'_3  and  C1'_4 
REMARK    2  A    between atoms: C1'_4  and  C1_5 
ROOT
ATOM      1  C1  I4B d   1       0.135  -0.287   0.030  0.00  0.00    -0.075 A 
ATOM      2  C2  I4B d   1      -0.722   0.090   1.033  0.00  0.00     0.003 A 
ATOM      3  C3  I4B d   1      -0.472   1.267   1.780  0.00  0.00     0.002 A 
ATOM      4  C4  I4B d   1       0.667   2.003   1.526  0.00  0.00    -0.004 A 
ATOM      5  C5  I4B d   1       1.524   1.631   0.494  0.00  0.00     0.002 A 
ATOM      6  C6  I4B d   1       1.250   0.486  -0.268  0.00  0.00     0.003 A 
ENDROOT
BRANCH   1   7
ATOM      7  C1' I4B d   1      -0.142  -1.553  -0.717  0.00  0.00     0.060 C 
BRANCH   7   8
ATOM      8  C2' I4B d   1      -1.416  -1.356  -1.513  0.00  0.00    -0.013 C 
ATOM      9  C4' I4B d   1      -1.139  -1.347  -2.993  0.00  0.00     0.013 C 
ATOM     10  C3' I4B d   1      -2.366  -2.458  -1.147  0.00  0.00     0.013 C 
ENDBRANCH   7   8
ENDBRANCH   1   7
TORSDOF 2
ENDMDL
