MODEL 1
REMARK minimizedAffinity -3.30416036
REMARK minimizedRMSD -1
REMARK  2 active torsions:
REMARK  status: ('A' for Active; 'I' for Inactive)
REMARK    1  A    between atoms: C2'_3  and  C1'_4 
REMARK    2  A    between atoms: C1'_4  and  C1_5 
ROOT
ATOM      1  C1  I4B d   1       0.218  -0.199  -0.200  0.00  0.00    -0.075 A 
ATOM      2  C2  I4B d   1      -0.959   0.482  -0.012  0.00  0.00     0.003 A 
ATOM      3  C3  I4B d   1      -0.987   1.648   0.791  0.00  0.00     0.002 A 
ATOM      4  C4  I4B d   1       0.165   2.066   1.424  0.00  0.00    -0.004 A 
ATOM      5  C5  I4B d   1       1.362   1.387   1.214  0.00  0.00     0.002 A 
ATOM      6  C6  I4B d   1       1.392   0.255   0.387  0.00  0.00     0.003 A 
ENDROOT
BRANCH   1   7
ATOM      7  C1' I4B d   1       0.206  -1.445  -1.027  0.00  0.00     0.060 C 
BRANCH   7   8
ATOM      8  C2' I4B d   1      -1.145  -1.541  -1.707  0.00  0.00    -0.013 C 
ATOM      9  C4' I4B d   1      -1.010  -1.437  -3.203  0.00  0.00     0.013 C 
ATOM     10  C3' I4B d   1      -1.772  -2.843  -1.309  0.00  0.00     0.013 C 
ENDBRANCH   7   8
ENDBRANCH   1   7
TORSDOF 2
ENDMDL
