MODEL 1
REMARK minimizedAffinity -3.3999455
REMARK minimizedRMSD -1
REMARK  2 active torsions:
REMARK  status: ('A' for Active; 'I' for Inactive)
REMARK    1  A    between atoms: C2'_3  and  C1'_4 
REMARK    2  A    between atoms: C1'_4  and  C1_5 
ROOT
ATOM      1  C1  I4B d   1       0.851   1.353   0.391  0.00  0.00    -0.075 A 
ATOM      2  C2  I4B d   1       2.141   0.929   0.190  0.00  0.00     0.003 A 
ATOM      3  C3  I4B d   1       3.180   1.381   1.038  0.00  0.00     0.002 A 
ATOM      4  C4  I4B d   1       2.896   2.291   2.036  0.00  0.00    -0.004 A 
ATOM      5  C5  I4B d   1       1.584   2.702   2.252  0.00  0.00     0.002 A 
ATOM      6  C6  I4B d   1       0.553   2.221   1.433  0.00  0.00     0.003 A 
ENDROOT
BRANCH   1   7
ATOM      7  C1' I4B d   1      -0.217   0.880  -0.544  0.00  0.00     0.060 C 
BRANCH   7   8
ATOM      8  C2' I4B d   1      -0.368  -0.616  -0.362  0.00  0.00    -0.013 C 
ATOM      9  C4' I4B d   1      -1.098  -0.939   0.915  0.00  0.00     0.013 C 
ATOM     10  C3' I4B d   1      -1.099  -1.156  -1.555  0.00  0.00     0.013 C 
ENDBRANCH   7   8
ENDBRANCH   1   7
TORSDOF 2
ENDMDL
