MODEL 1
REMARK minimizedAffinity -4.95080376
REMARK minimizedRMSD -1
REMARK  2 active torsions:
REMARK  status: ('A' for Active; 'I' for Inactive)
REMARK    1  A    between atoms: C2'_3  and  C1'_4 
REMARK    2  A    between atoms: C1'_4  and  C1_5 
ROOT
ATOM      1  C1  I4B d   1       0.571   1.152   0.545  0.00  0.00    -0.075 A 
ATOM      2  C2  I4B d   1       1.708   1.237  -0.220  0.00  0.00     0.003 A 
ATOM      3  C3  I4B d   1       2.866   1.871   0.292  0.00  0.00     0.002 A 
ATOM      4  C4  I4B d   1       2.827   2.447   1.546  0.00  0.00    -0.004 A 
ATOM      5  C5  I4B d   1       1.682   2.340   2.329  0.00  0.00     0.002 A 
ATOM      6  C6  I4B d   1       0.550   1.677   1.830  0.00  0.00     0.003 A 
ENDROOT
BRANCH   1   7
ATOM      7  C1' I4B d   1      -0.644   0.505  -0.040  0.00  0.00     0.060 C 
BRANCH   7   8
ATOM      8  C2' I4B d   1      -0.204  -0.761  -0.746  0.00  0.00    -0.013 C 
ATOM      9  C4' I4B d   1      -0.043  -1.900   0.226  0.00  0.00     0.013 C 
ATOM     10  C3' I4B d   1      -1.226  -1.085  -1.795  0.00  0.00     0.013 C 
ENDBRANCH   7   8
ENDBRANCH   1   7
TORSDOF 2
ENDMDL
