MODEL 1
REMARK minimizedAffinity -2.34799194
REMARK minimizedRMSD -1
REMARK  2 active torsions:
REMARK  status: ('A' for Active; 'I' for Inactive)
REMARK    1  A    between atoms: C2'_3  and  C1'_4 
REMARK    2  A    between atoms: C1'_4  and  C1_5 
ROOT
ATOM      1  C1  I4B d   1      -0.687  -0.938  -1.159  0.00  0.00    -0.075 A 
ATOM      2  C2  I4B d   1      -1.824  -1.624  -0.812  0.00  0.00     0.003 A 
ATOM      3  C3  I4B d   1      -2.710  -2.089  -1.814  0.00  0.00     0.002 A 
ATOM      4  C4  I4B d   1      -2.448  -1.804  -3.138  0.00  0.00    -0.004 A 
ATOM      5  C5  I4B d   1      -1.283  -1.128  -3.490  0.00  0.00     0.002 A 
ATOM      6  C6  I4B d   1      -0.391  -0.703  -2.495  0.00  0.00     0.003 A 
ENDROOT
BRANCH   1   7
ATOM      7  C1' I4B d   1       0.209  -0.433  -0.073  0.00  0.00     0.060 C 
BRANCH   7   8
ATOM      8  C2' I4B d   1      -0.593   0.518   0.791  0.00  0.00    -0.013 C 
ATOM      9  C4' I4B d   1       0.301   1.303   1.714  0.00  0.00     0.013 C 
ATOM     10  C3' I4B d   1      -1.366   1.428  -0.117  0.00  0.00     0.013 C 
ENDBRANCH   7   8
ENDBRANCH   1   7
TORSDOF 2
ENDMDL
