MODEL 1
REMARK minimizedAffinity -5.60255623
REMARK minimizedRMSD -1
REMARK  2 active torsions:
REMARK  status: ('A' for Active; 'I' for Inactive)
REMARK    1  A    between atoms: C2'_3  and  C1'_4 
REMARK    2  A    between atoms: C1'_4  and  C1_5 
ROOT
ATOM      1  C1  I4B d   1       0.519  -0.178  -0.116  0.00  0.00    -0.075 A 
ATOM      2  C2  I4B d   1      -0.308   0.312   0.864  0.00  0.00     0.003 A 
ATOM      3  C3  I4B d   1       0.012   1.522   1.527  0.00  0.00     0.002 A 
ATOM      4  C4  I4B d   1       1.186   2.177   1.216  0.00  0.00    -0.004 A 
ATOM      5  C5  I4B d   1       2.011   1.691   0.207  0.00  0.00     0.002 A 
ATOM      6  C6  I4B d   1       1.670   0.512  -0.473  0.00  0.00     0.003 A 
ENDROOT
BRANCH   1   7
ATOM      7  C1' I4B d   1       0.168  -1.476  -0.773  0.00  0.00     0.060 C 
BRANCH   7   8
ATOM      8  C2' I4B d   1      -1.245  -1.361  -1.307  0.00  0.00    -0.013 C 
ATOM      9  C4' I4B d   1      -1.251  -1.206  -2.805  0.00  0.00     0.013 C 
ATOM     10  C3' I4B d   1      -2.000  -2.586  -0.886  0.00  0.00     0.013 C 
ENDBRANCH   7   8
ENDBRANCH   1   7
TORSDOF 2
ENDMDL
