MODEL 1
REMARK minimizedAffinity -1.17601335
REMARK minimizedRMSD -1
REMARK  2 active torsions:
REMARK  status: ('A' for Active; 'I' for Inactive)
REMARK    1  A    between atoms: C2'_3  and  C1'_4 
REMARK    2  A    between atoms: C1'_4  and  C1_5 
ROOT
ATOM      1  C1  I4B d   1      -0.608   0.073  -0.797  0.00  0.00    -0.075 A 
ATOM      2  C2  I4B d   1       0.602  -0.483  -1.131  0.00  0.00     0.003 A 
ATOM      3  C3  I4B d   1       1.667  -0.484  -0.197  0.00  0.00     0.002 A 
ATOM      4  C4  I4B d   1       1.496   0.122   1.030  0.00  0.00    -0.004 A 
ATOM      5  C5  I4B d   1       0.261   0.664   1.375  0.00  0.00     0.002 A 
ATOM      6  C6  I4B d   1      -0.801   0.629   0.460  0.00  0.00     0.003 A 
ENDROOT
BRANCH   1   7
ATOM      7  C1' I4B d   1      -1.700   0.086  -1.819  0.00  0.00     0.060 C 
BRANCH   7   8
ATOM      8  C2' I4B d   1      -1.491  -1.097  -2.742  0.00  0.00    -0.013 C 
ATOM      9  C4' I4B d   1      -2.646  -2.061  -2.664  0.00  0.00     0.013 C 
ATOM     10  C3' I4B d   1      -1.317  -0.572  -4.136  0.00  0.00     0.013 C 
ENDBRANCH   7   8
ENDBRANCH   1   7
TORSDOF 2
ENDMDL
