MODEL 1
REMARK minimizedAffinity -3.16264892
REMARK minimizedRMSD -1
REMARK  2 active torsions:
REMARK  status: ('A' for Active; 'I' for Inactive)
REMARK    1  A    between atoms: C2'_3  and  C1'_4 
REMARK    2  A    between atoms: C1'_4  and  C1_5 
ROOT
ATOM      1  C1  I4B d   1      -0.646  -0.819  -1.063  0.00  0.00    -0.075 A 
ATOM      2  C2  I4B d   1      -1.325  -1.887  -0.531  0.00  0.00     0.003 A 
ATOM      3  C3  I4B d   1      -2.244  -2.615  -1.324  0.00  0.00     0.002 A 
ATOM      4  C4  I4B d   1      -2.490  -2.212  -2.621  0.00  0.00    -0.004 A 
ATOM      5  C5  I4B d   1      -1.785  -1.143  -3.166  0.00  0.00     0.002 A 
ATOM      6  C6  I4B d   1      -0.848  -0.449  -2.386  0.00  0.00     0.003 A 
ENDROOT
BRANCH   1   7
ATOM      7  C1' I4B d   1       0.293  -0.052  -0.186  0.00  0.00     0.060 C 
BRANCH   7   8
ATOM      8  C2' I4B d   1      -0.530   0.660   0.868  0.00  0.00    -0.013 C 
ATOM      9  C4' I4B d   1       0.345   1.478   1.782  0.00  0.00     0.013 C 
ATOM     10  C3' I4B d   1      -1.535   1.524   0.166  0.00  0.00     0.013 C 
ENDBRANCH   7   8
ENDBRANCH   1   7
TORSDOF 2
ENDMDL
