MODEL 1
REMARK minimizedAffinity -2.90214586
REMARK minimizedRMSD -1
REMARK  0 active torsions:
REMARK  status: ('A' for Active; 'I' for Inactive)
ROOT
ATOM      1  C   UNL d   1      -0.934  -2.733   0.515  0.00  0.00     0.078 C 
ATOM      2  C1  UNL d   1      -0.566  -1.316   0.192  0.00  0.00    -0.077 A 
ATOM      3  C2  UNL d   1      -0.858  -0.274   1.080  0.00  0.00    -0.001 A 
ATOM      4  C3  UNL d   1      -0.518   1.042   0.762  0.00  0.00     0.003 A 
ATOM      5  C4  UNL d   1       0.114   1.328  -0.446  0.00  0.00    -0.005 A 
ATOM      6  C5  UNL d   1       0.407   0.298  -1.338  0.00  0.00     0.003 A 
ATOM      7  C6  UNL d   1       0.068  -1.018  -1.021  0.00  0.00    -0.001 A 
ENDROOT
TORSDOF 0
ENDMDL
