MODEL 1
REMARK minimizedAffinity -3.59641671
REMARK minimizedRMSD -1
REMARK  0 active torsions:
REMARK  status: ('A' for Active; 'I' for Inactive)
ROOT
ATOM      1  C   UNL d   1      -0.035  -0.506   0.701  0.00  0.00     0.078 C 
ATOM      2  C1  UNL d   1       0.775   0.710   0.359  0.00  0.00    -0.077 A 
ATOM      3  C2  UNL d   1       1.904   1.058   1.110  0.00  0.00    -0.001 A 
ATOM      4  C3  UNL d   1       2.642   2.198   0.786  0.00  0.00     0.003 A 
ATOM      5  C4  UNL d   1       2.258   2.999  -0.287  0.00  0.00    -0.005 A 
ATOM      6  C5  UNL d   1       1.135   2.661  -1.039  0.00  0.00     0.003 A 
ATOM      7  C6  UNL d   1       0.395   1.522  -0.717  0.00  0.00    -0.001 A 
ENDROOT
TORSDOF 0
ENDMDL
