MODEL 1
REMARK minimizedAffinity -5.06633711
REMARK minimizedRMSD -1
REMARK  0 active torsions:
REMARK  status: ('A' for Active; 'I' for Inactive)
ROOT
ATOM      1  C   UNL d   1       0.112   1.677   0.071  0.00  0.00     0.078 C 
ATOM      2  C1  UNL d   1      -0.004   0.189   0.213  0.00  0.00    -0.077 A 
ATOM      3  C2  UNL d   1       0.977  -0.664  -0.309  0.00  0.00    -0.001 A 
ATOM      4  C3  UNL d   1       0.852  -2.048  -0.178  0.00  0.00     0.003 A 
ATOM      5  C4  UNL d   1      -0.253  -2.592   0.474  0.00  0.00    -0.005 A 
ATOM      6  C5  UNL d   1      -1.235  -1.751   0.995  0.00  0.00     0.003 A 
ATOM      7  C6  UNL d   1      -1.112  -0.367   0.865  0.00  0.00    -0.001 A 
ENDROOT
TORSDOF 0
ENDMDL
