MODEL 1
REMARK minimizedAffinity -4.41514206
REMARK minimizedRMSD -1
REMARK  0 active torsions:
REMARK  status: ('A' for Active; 'I' for Inactive)
ROOT
ATOM      1  C   UNL d   1       0.261  -2.952   0.696  0.00  0.00     0.078 C 
ATOM      2  C1  UNL d   1      -0.066  -1.518   0.407  0.00  0.00    -0.077 A 
ATOM      3  C2  UNL d   1       0.560  -0.831  -0.641  0.00  0.00    -0.001 A 
ATOM      4  C3  UNL d   1       0.253   0.507  -0.892  0.00  0.00     0.003 A 
ATOM      5  C4  UNL d   1      -0.682   1.171  -0.099  0.00  0.00    -0.005 A 
ATOM      6  C5  UNL d   1      -1.309   0.497   0.947  0.00  0.00     0.003 A 
ATOM      7  C6  UNL d   1      -1.002  -0.841   1.199  0.00  0.00    -0.001 A 
ENDROOT
TORSDOF 0
ENDMDL
