MODEL 1
REMARK minimizedAffinity -3.25970173
REMARK minimizedRMSD -1
REMARK  0 active torsions:
REMARK  status: ('A' for Active; 'I' for Inactive)
ROOT
ATOM      1  C   UNL d   1       1.850   4.099   0.518  0.00  0.00     0.078 C 
ATOM      2  C1  UNL d   1       1.119   2.843   0.150  0.00  0.00    -0.077 A 
ATOM      3  C2  UNL d   1       0.479   2.718  -1.090  0.00  0.00    -0.001 A 
ATOM      4  C3  UNL d   1      -0.206   1.546  -1.415  0.00  0.00     0.003 A 
ATOM      5  C4  UNL d   1      -0.260   0.491  -0.506  0.00  0.00    -0.005 A 
ATOM      6  C5  UNL d   1       0.372   0.608   0.730  0.00  0.00     0.003 A 
ATOM      7  C6  UNL d   1       1.057   1.778   1.058  0.00  0.00    -0.001 A 
ENDROOT
TORSDOF 0
ENDMDL
