MODEL 1
REMARK minimizedAffinity -4.63220835
REMARK minimizedRMSD -1
REMARK  0 active torsions:
REMARK  status: ('A' for Active; 'I' for Inactive)
ROOT
ATOM      1  C   UNL d   1       0.329  -3.400   0.039  0.00  0.00     0.078 C 
ATOM      2  C1  UNL d   1       0.024  -1.937   0.160  0.00  0.00    -0.077 A 
ATOM      3  C2  UNL d   1       0.700  -0.992  -0.622  0.00  0.00    -0.001 A 
ATOM      4  C3  UNL d   1       0.413   0.367  -0.491  0.00  0.00     0.003 A 
ATOM      5  C4  UNL d   1      -0.550   0.795   0.422  0.00  0.00    -0.005 A 
ATOM      6  C5  UNL d   1      -1.225  -0.138   1.206  0.00  0.00     0.003 A 
ATOM      7  C6  UNL d   1      -0.940  -1.498   1.077  0.00  0.00    -0.001 A 
ENDROOT
TORSDOF 0
ENDMDL
