MODEL 1
REMARK minimizedAffinity -5.12090778
REMARK minimizedRMSD -1
REMARK  0 active torsions:
REMARK  status: ('A' for Active; 'I' for Inactive)
ROOT
ATOM      1  C   UNL d   1       0.085  -3.023   0.555  0.00  0.00     0.078 C 
ATOM      2  C1  UNL d   1      -0.046  -1.567   0.221  0.00  0.00    -0.077 A 
ATOM      3  C2  UNL d   1      -0.852  -0.720   0.992  0.00  0.00    -0.001 A 
ATOM      4  C3  UNL d   1      -0.973   0.631   0.664  0.00  0.00     0.003 A 
ATOM      5  C4  UNL d   1      -0.291   1.147  -0.437  0.00  0.00    -0.005 A 
ATOM      6  C5  UNL d   1       0.511   0.311  -1.211  0.00  0.00     0.003 A 
ATOM      7  C6  UNL d   1       0.633  -1.040  -0.884  0.00  0.00    -0.001 A 
ENDROOT
TORSDOF 0
ENDMDL
