MODEL 1
REMARK minimizedAffinity -3.07145762
REMARK minimizedRMSD -1
REMARK  0 active torsions:
REMARK  status: ('A' for Active; 'I' for Inactive)
ROOT
ATOM      1  C   UNL d   1       0.037  -3.167   0.516  0.00  0.00     0.078 C 
ATOM      2  C1  UNL d   1       0.038  -1.680   0.319  0.00  0.00    -0.077 A 
ATOM      3  C2  UNL d   1      -0.597  -0.831   1.233  0.00  0.00    -0.001 A 
ATOM      4  C3  UNL d   1      -0.597   0.550   1.032  0.00  0.00     0.003 A 
ATOM      5  C4  UNL d   1       0.036   1.094  -0.084  0.00  0.00    -0.005 A 
ATOM      6  C5  UNL d   1       0.668   0.257  -1.001  0.00  0.00     0.003 A 
ATOM      7  C6  UNL d   1       0.668  -1.124  -0.801  0.00  0.00    -0.001 A 
ENDROOT
TORSDOF 0
ENDMDL
