MODEL 1
REMARK minimizedAffinity -3.85218215
REMARK minimizedRMSD -1
REMARK  0 active torsions:
REMARK  status: ('A' for Active; 'I' for Inactive)
ROOT
ATOM      1  C   UNL d   1      -0.174  -3.085   0.368  0.00  0.00     0.078 C 
ATOM      2  C1  UNL d   1      -0.116  -1.673  -0.136  0.00  0.00    -0.077 A 
ATOM      3  C2  UNL d   1       0.305  -1.389  -1.441  0.00  0.00    -0.001 A 
ATOM      4  C3  UNL d   1       0.362  -0.070  -1.892  0.00  0.00     0.003 A 
ATOM      5  C4  UNL d   1       0.002   0.976  -1.045  0.00  0.00    -0.005 A 
ATOM      6  C5  UNL d   1      -0.416   0.704   0.255  0.00  0.00     0.003 A 
ATOM      7  C6  UNL d   1      -0.475  -0.615   0.709  0.00  0.00    -0.001 A 
ENDROOT
TORSDOF 0
ENDMDL
