MODEL 1
REMARK minimizedAffinity -5.05639791
REMARK minimizedRMSD -1
REMARK  0 active torsions:
REMARK  status: ('A' for Active; 'I' for Inactive)
ROOT
ATOM      1  C   UNL d   1       0.014   4.872   3.606  0.00  0.00     0.078 C 
ATOM      2  C1  UNL d   1       0.484   4.180   2.362  0.00  0.00    -0.077 A 
ATOM      3  C2  UNL d   1       1.705   4.518   1.766  0.00  0.00    -0.001 A 
ATOM      4  C3  UNL d   1       2.126   3.873   0.602  0.00  0.00     0.003 A 
ATOM      5  C4  UNL d   1       1.331   2.887   0.023  0.00  0.00    -0.005 A 
ATOM      6  C5  UNL d   1       0.112   2.545   0.607  0.00  0.00     0.003 A 
ATOM      7  C6  UNL d   1      -0.310   3.189   1.771  0.00  0.00    -0.001 A 
ENDROOT
TORSDOF 0
ENDMDL
