MODEL 1
REMARK minimizedAffinity -4.44296789
REMARK minimizedRMSD -1
REMARK  0 active torsions:
REMARK  status: ('A' for Active; 'I' for Inactive)
ROOT
ATOM      1  C   UNL d   1      -0.032   1.445   0.265  0.00  0.00     0.078 C 
ATOM      2  C1  UNL d   1      -0.240  -0.039   0.320  0.00  0.00    -0.077 A 
ATOM      3  C2  UNL d   1      -1.289  -0.593   1.065  0.00  0.00    -0.001 A 
ATOM      4  C3  UNL d   1      -1.464  -1.977   1.116  0.00  0.00     0.003 A 
ATOM      5  C4  UNL d   1      -0.595  -2.818   0.425  0.00  0.00    -0.005 A 
ATOM      6  C5  UNL d   1       0.452  -2.276  -0.317  0.00  0.00     0.003 A 
ATOM      7  C6  UNL d   1       0.630  -0.893  -0.369  0.00  0.00    -0.001 A 
ENDROOT
TORSDOF 0
ENDMDL
