MODEL 1
REMARK minimizedAffinity -4.29073048
REMARK minimizedRMSD -1
REMARK  0 active torsions:
REMARK  status: ('A' for Active; 'I' for Inactive)
ROOT
ATOM      1  C   UNL d   1       0.594   0.981  -0.124  0.00  0.00     0.078 C 
ATOM      2  C1  UNL d   1       0.227  -0.473  -0.096  0.00  0.00    -0.077 A 
ATOM      3  C2  UNL d   1      -0.201  -1.086   1.087  0.00  0.00    -0.001 A 
ATOM      4  C3  UNL d   1      -0.530  -2.443   1.101  0.00  0.00     0.003 A 
ATOM      5  C4  UNL d   1      -0.432  -3.198  -0.067  0.00  0.00    -0.005 A 
ATOM      6  C5  UNL d   1      -0.005  -2.597  -1.249  0.00  0.00     0.003 A 
ATOM      7  C6  UNL d   1       0.324  -1.240  -1.264  0.00  0.00    -0.001 A 
ENDROOT
TORSDOF 0
ENDMDL
