MODEL 1
REMARK minimizedAffinity -4.36390495
REMARK minimizedRMSD -1
REMARK  0 active torsions:
REMARK  status: ('A' for Active; 'I' for Inactive)
ROOT
ATOM      1  C   UNL d   1      -0.696  -1.674   1.186  0.00  0.00     0.078 C 
ATOM      2  C1  UNL d   1      -0.063  -0.485   0.527  0.00  0.00    -0.077 A 
ATOM      3  C2  UNL d   1      -0.117  -0.318  -0.862  0.00  0.00    -0.001 A 
ATOM      4  C3  UNL d   1       0.485   0.789  -1.464  0.00  0.00     0.003 A 
ATOM      5  C4  UNL d   1       1.147   1.735  -0.684  0.00  0.00    -0.005 A 
ATOM      6  C5  UNL d   1       1.208   1.575   0.699  0.00  0.00     0.003 A 
ATOM      7  C6  UNL d   1       0.606   0.470   1.302  0.00  0.00    -0.001 A 
ENDROOT
TORSDOF 0
ENDMDL
