MODEL 1
REMARK minimizedAffinity -3.94814205
REMARK minimizedRMSD -1
REMARK  0 active torsions:
REMARK  status: ('A' for Active; 'I' for Inactive)
ROOT
ATOM      1  C   UNL d   1       0.128   1.414  -0.533  0.00  0.00     0.078 C 
ATOM      2  C1  UNL d   1      -0.021  -0.005  -0.071  0.00  0.00    -0.077 A 
ATOM      3  C2  UNL d   1       0.976  -0.955  -0.327  0.00  0.00    -0.001 A 
ATOM      4  C3  UNL d   1       0.819  -2.275   0.100  0.00  0.00     0.003 A 
ATOM      5  C4  UNL d   1      -0.333  -2.657   0.784  0.00  0.00    -0.005 A 
ATOM      6  C5  UNL d   1      -1.331  -1.719   1.041  0.00  0.00     0.003 A 
ATOM      7  C6  UNL d   1      -1.176  -0.399   0.615  0.00  0.00    -0.001 A 
ENDROOT
TORSDOF 0
ENDMDL
