MODEL 1
REMARK minimizedAffinity -3.20513439
REMARK minimizedRMSD -1
REMARK  0 active torsions:
REMARK  status: ('A' for Active; 'I' for Inactive)
ROOT
ATOM      1  C   UNL d   1      -1.285   6.000   2.182  0.00  0.00     0.078 C 
ATOM      2  C1  UNL d   1      -0.282   5.054   1.592  0.00  0.00    -0.077 A 
ATOM      3  C2  UNL d   1       1.021   5.475   1.300  0.00  0.00    -0.001 A 
ATOM      4  C3  UNL d   1       1.942   4.587   0.742  0.00  0.00     0.003 A 
ATOM      5  C4  UNL d   1       1.569   3.272   0.471  0.00  0.00    -0.005 A 
ATOM      6  C5  UNL d   1       0.274   2.844   0.756  0.00  0.00     0.003 A 
ATOM      7  C6  UNL d   1      -0.648   3.731   1.314  0.00  0.00    -0.001 A 
ENDROOT
TORSDOF 0
ENDMDL
