MODEL 1
REMARK minimizedAffinity -5.4991765
REMARK minimizedRMSD -1
REMARK  1 active torsions:
REMARK  status: ('A' for Active; 'I' for Inactive)
REMARK    1  A    between atoms: C1_2  and  C2_3 
ROOT
ATOM      1  C2  UNL d   1      -0.218  -0.550   0.089  0.00  0.00    -0.076 A 
ATOM      2  C3  UNL d   1      -0.513   0.251  -1.028  0.00  0.00     0.004 A 
ATOM      3  C4  UNL d   1      -1.773   0.214  -1.624  0.00  0.00    -0.003 A 
ATOM      4  C5  UNL d   1      -2.758  -0.624  -1.112  0.00  0.00     0.000 A 
ATOM      5  C6  UNL d   1      -2.488  -1.412   0.006  0.00  0.00     0.000 A 
ATOM      6  C7  UNL d   1      -1.228  -1.374   0.629  0.00  0.00    -0.073 A 
ATOM      7  C8  UNL d   1      -0.990  -2.250   1.828  0.00  0.00     0.078 C 
ENDROOT
BRANCH   1   8
ATOM      8  C1  UNL d   1       1.174  -0.488   0.677  0.00  0.00     0.053 C 
ATOM      9  C   UNL d   1       1.967   0.707   0.172  0.00  0.00     0.018 C 
ENDBRANCH   1   8
TORSDOF 1
ENDMDL
