MODEL 1
REMARK minimizedAffinity -2.38595724
REMARK minimizedRMSD -1
REMARK  1 active torsions:
REMARK  status: ('A' for Active; 'I' for Inactive)
REMARK    1  A    between atoms: C1_2  and  C2_3 
ROOT
ATOM      1  C2  UNL d   1      -0.153  -0.065  -0.162  0.00  0.00    -0.076 A 
ATOM      2  C3  UNL d   1      -0.951  -0.351   0.960  0.00  0.00     0.004 A 
ATOM      3  C4  UNL d   1      -2.314  -0.608   0.824  0.00  0.00    -0.003 A 
ATOM      4  C5  UNL d   1      -2.902  -0.584  -0.436  0.00  0.00     0.000 A 
ATOM      5  C6  UNL d   1      -2.122  -0.319  -1.561  0.00  0.00     0.000 A 
ATOM      6  C7  UNL d   1      -0.743  -0.074  -1.444  0.00  0.00    -0.073 A 
ATOM      7  C8  UNL d   1       0.048   0.212  -2.690  0.00  0.00     0.078 C 
ENDROOT
BRANCH   1   8
ATOM      8  C1  UNL d   1       1.314   0.232   0.050  0.00  0.00     0.053 C 
ATOM      9  C   UNL d   1       1.550   1.619   0.629  0.00  0.00     0.018 C 
ENDBRANCH   1   8
TORSDOF 1
ENDMDL
