MODEL 1
REMARK minimizedAffinity 0.580537558
REMARK minimizedRMSD -1
REMARK  1 active torsions:
REMARK  status: ('A' for Active; 'I' for Inactive)
REMARK    1  A    between atoms: C1_2  and  C2_3 
ROOT
ATOM      1  C2  UNL d   1      -2.103  -1.206  -1.325  0.00  0.00    -0.076 A 
ATOM      2  C3  UNL d   1      -2.944  -1.871  -0.415  0.00  0.00     0.004 A 
ATOM      3  C4  UNL d   1      -2.772  -1.725   0.960  0.00  0.00    -0.003 A 
ATOM      4  C5  UNL d   1      -1.756  -0.911   1.449  0.00  0.00     0.000 A 
ATOM      5  C6  UNL d   1      -0.924  -0.230   0.561  0.00  0.00     0.000 A 
ATOM      6  C7  UNL d   1      -1.094  -0.354  -0.828  0.00  0.00    -0.073 A 
ATOM      7  C8  UNL d   1      -0.164   0.399  -1.739  0.00  0.00     0.078 C 
ENDROOT
BRANCH   1   8
ATOM      8  C1  UNL d   1      -2.321  -1.424  -2.805  0.00  0.00     0.053 C 
ATOM      9  C   UNL d   1      -2.142  -2.879  -3.212  0.00  0.00     0.018 C 
ENDBRANCH   1   8
TORSDOF 1
ENDMDL
