MODEL 1
REMARK minimizedAffinity -3.69111776
REMARK minimizedRMSD -1
REMARK  1 active torsions:
REMARK  status: ('A' for Active; 'I' for Inactive)
REMARK    1  A    between atoms: C1_2  and  C2_3 
ROOT
ATOM      1  C2  UNL d   1       0.164  -0.257   0.140  0.00  0.00    -0.076 A 
ATOM      2  C3  UNL d   1      -0.097   0.475  -1.030  0.00  0.00     0.004 A 
ATOM      3  C4  UNL d   1      -1.314   0.351  -1.698  0.00  0.00    -0.003 A 
ATOM      4  C5  UNL d   1      -2.290  -0.508  -1.206  0.00  0.00     0.000 A 
ATOM      5  C6  UNL d   1      -2.055  -1.230  -0.036  0.00  0.00     0.000 A 
ATOM      6  C7  UNL d   1      -0.839  -1.103   0.659  0.00  0.00    -0.073 A 
ATOM      7  C8  UNL d   1      -0.637  -1.910   1.912  0.00  0.00     0.078 C 
ENDROOT
BRANCH   1   8
ATOM      8  C1  UNL d   1       1.513  -0.102   0.807  0.00  0.00     0.053 C 
ATOM      9  C   UNL d   1       2.143   1.256   0.536  0.00  0.00     0.018 C 
ENDBRANCH   1   8
TORSDOF 1
ENDMDL
