MODEL 1
REMARK minimizedAffinity -2.93436193
REMARK minimizedRMSD -1
REMARK  1 active torsions:
REMARK  status: ('A' for Active; 'I' for Inactive)
REMARK    1  A    between atoms: C1_2  and  C2_3 
ROOT
ATOM      1  C2  UNL d   1       0.266  -0.236  -0.162  0.00  0.00    -0.076 A 
ATOM      2  C3  UNL d   1      -0.431  -0.780   0.931  0.00  0.00     0.004 A 
ATOM      3  C4  UNL d   1      -1.782  -1.108   0.829  0.00  0.00    -0.003 A 
ATOM      4  C5  UNL d   1      -2.458  -0.898  -0.368  0.00  0.00     0.000 A 
ATOM      5  C6  UNL d   1      -1.778  -0.376  -1.468  0.00  0.00     0.000 A 
ATOM      6  C7  UNL d   1      -0.412  -0.055  -1.386  0.00  0.00    -0.073 A 
ATOM      7  C8  UNL d   1       0.270   0.512  -2.602  0.00  0.00     0.078 C 
ENDROOT
BRANCH   1   8
ATOM      8  C1  UNL d   1       1.723   0.126   0.016  0.00  0.00     0.053 C 
ATOM      9  C   UNL d   1       1.910   1.466   0.710  0.00  0.00     0.018 C 
ENDBRANCH   1   8
TORSDOF 1
ENDMDL
