MODEL 1
REMARK minimizedAffinity -1.37742651
REMARK minimizedRMSD -1
REMARK  1 active torsions:
REMARK  status: ('A' for Active; 'I' for Inactive)
REMARK    1  A    between atoms: C1_2  and  C2_3 
ROOT
ATOM      1  C2  UNL d   1       1.636   1.114   0.077  0.00  0.00    -0.076 A 
ATOM      2  C3  UNL d   1       1.070   0.896  -1.192  0.00  0.00     0.004 A 
ATOM      3  C4  UNL d   1      -0.075   0.116  -1.342  0.00  0.00    -0.003 A 
ATOM      4  C5  UNL d   1      -0.674  -0.459  -0.227  0.00  0.00     0.000 A 
ATOM      5  C6  UNL d   1      -0.136  -0.239   1.041  0.00  0.00     0.000 A 
ATOM      6  C7  UNL d   1       1.008   0.559   1.212  0.00  0.00    -0.073 A 
ATOM      7  C8  UNL d   1       1.548   0.758   2.602  0.00  0.00     0.078 C 
ENDROOT
BRANCH   1   8
ATOM      8  C1  UNL d   1       2.894   1.947   0.175  0.00  0.00     0.053 C 
ATOM      9  C   UNL d   1       2.637   3.322   0.771  0.00  0.00     0.018 C 
ENDBRANCH   1   8
TORSDOF 1
ENDMDL
