MODEL 1
REMARK minimizedAffinity -4.51554489
REMARK minimizedRMSD -1
REMARK  1 active torsions:
REMARK  status: ('A' for Active; 'I' for Inactive)
REMARK    1  A    between atoms: C1_2  and  C2_3 
ROOT
ATOM      1  C2  UNL d   1      -0.856  -0.186  -1.104  0.00  0.00    -0.076 A 
ATOM      2  C3  UNL d   1       0.407  -0.248  -0.491  0.00  0.00     0.004 A 
ATOM      3  C4  UNL d   1       0.659  -1.148   0.543  0.00  0.00    -0.003 A 
ATOM      4  C5  UNL d   1      -0.348  -2.001   0.981  0.00  0.00     0.000 A 
ATOM      5  C6  UNL d   1      -1.602  -1.965   0.372  0.00  0.00     0.000 A 
ATOM      6  C7  UNL d   1      -1.868  -1.075  -0.683  0.00  0.00    -0.073 A 
ATOM      7  C8  UNL d   1      -3.240  -1.074  -1.298  0.00  0.00     0.078 C 
ENDROOT
BRANCH   1   8
ATOM      8  C1  UNL d   1      -1.079   0.830  -2.202  0.00  0.00     0.053 C 
ATOM      9  C   UNL d   1      -0.050   0.718  -3.316  0.00  0.00     0.018 C 
ENDBRANCH   1   8
TORSDOF 1
ENDMDL
