MODEL 1
REMARK minimizedAffinity -5.18037558
REMARK minimizedRMSD -1
REMARK  1 active torsions:
REMARK  status: ('A' for Active; 'I' for Inactive)
REMARK    1  A    between atoms: C1_2  and  C2_3 
ROOT
ATOM      1  C2  UNL d   1      -0.483  -0.785   0.439  0.00  0.00    -0.076 A 
ATOM      2  C3  UNL d   1      -1.038   0.007  -0.581  0.00  0.00     0.004 A 
ATOM      3  C4  UNL d   1      -2.359  -0.172  -0.990  0.00  0.00    -0.003 A 
ATOM      4  C5  UNL d   1      -3.146  -1.146  -0.385  0.00  0.00     0.000 A 
ATOM      5  C6  UNL d   1      -2.617  -1.929   0.641  0.00  0.00     0.000 A 
ATOM      6  C7  UNL d   1      -1.293  -1.750   1.077  0.00  0.00    -0.073 A 
ATOM      7  C8  UNL d   1      -0.772  -2.626   2.183  0.00  0.00     0.078 C 
ENDROOT
BRANCH   1   8
ATOM      8  C1  UNL d   1       0.963  -0.564   0.822  0.00  0.00     0.053 C 
ATOM      9  C   UNL d   1       1.476   0.803   0.395  0.00  0.00     0.018 C 
ENDBRANCH   1   8
TORSDOF 1
ENDMDL
