MODEL 1
REMARK minimizedAffinity -6.18338108
REMARK minimizedRMSD -1
REMARK  1 active torsions:
REMARK  status: ('A' for Active; 'I' for Inactive)
REMARK    1  A    between atoms: C1_2  and  C2_3 
ROOT
ATOM      1  C2  UNL d   1      -0.340  -0.865   0.202  0.00  0.00    -0.076 A 
ATOM      2  C3  UNL d   1      -0.862  -1.769   1.143  0.00  0.00     0.004 A 
ATOM      3  C4  UNL d   1      -2.185  -2.202   1.064  0.00  0.00    -0.003 A 
ATOM      4  C5  UNL d   1      -3.007  -1.738   0.043  0.00  0.00     0.000 A 
ATOM      5  C6  UNL d   1      -2.500  -0.854  -0.910  0.00  0.00     0.000 A 
ATOM      6  C7  UNL d   1      -1.164  -0.421  -0.854  0.00  0.00    -0.073 A 
ATOM      7  C8  UNL d   1      -0.672   0.538  -1.904  0.00  0.00     0.078 C 
ENDROOT
BRANCH   1   8
ATOM      8  C1  UNL d   1       1.094  -0.410   0.354  0.00  0.00     0.053 C 
ATOM      9  C   UNL d   1       1.201   1.023   0.853  0.00  0.00     0.018 C 
ENDBRANCH   1   8
TORSDOF 1
ENDMDL
