MODEL 1
REMARK minimizedAffinity -2.77603889
REMARK minimizedRMSD -1
REMARK  1 active torsions:
REMARK  status: ('A' for Active; 'I' for Inactive)
REMARK    1  A    between atoms: C1_2  and  C2_3 
ROOT
ATOM      1  C2  UNL d   1      -0.204   0.101  -0.140  0.00  0.00    -0.076 A 
ATOM      2  C3  UNL d   1      -1.011  -0.245   0.958  0.00  0.00     0.004 A 
ATOM      3  C4  UNL d   1      -2.369  -0.510   0.795  0.00  0.00    -0.003 A 
ATOM      4  C5  UNL d   1      -2.943  -0.434  -0.469  0.00  0.00     0.000 A 
ATOM      5  C6  UNL d   1      -2.154  -0.110  -1.573  0.00  0.00     0.000 A 
ATOM      6  C7  UNL d   1      -0.780   0.145  -1.428  0.00  0.00    -0.073 A 
ATOM      7  C8  UNL d   1       0.022   0.496  -2.651  0.00  0.00     0.078 C 
ENDROOT
BRANCH   1   8
ATOM      8  C1  UNL d   1       1.257   0.404   0.102  0.00  0.00     0.053 C 
ATOM      9  C   UNL d   1       1.460   1.592   1.029  0.00  0.00     0.018 C 
ENDBRANCH   1   8
TORSDOF 1
ENDMDL
