MODEL 1
REMARK minimizedAffinity -5.11325741
REMARK minimizedRMSD -1
REMARK  1 active torsions:
REMARK  status: ('A' for Active; 'I' for Inactive)
REMARK    1  A    between atoms: C1_2  and  C2_3 
ROOT
ATOM      1  C2  UNL d   1      -1.393  -0.390  -0.367  0.00  0.00    -0.076 A 
ATOM      2  C3  UNL d   1      -2.606  -1.095  -0.457  0.00  0.00     0.004 A 
ATOM      3  C4  UNL d   1      -2.851  -2.205   0.349  0.00  0.00    -0.003 A 
ATOM      4  C5  UNL d   1      -1.888  -2.628   1.259  0.00  0.00     0.000 A 
ATOM      5  C6  UNL d   1      -0.687  -1.930   1.374  0.00  0.00     0.000 A 
ATOM      6  C7  UNL d   1      -0.430  -0.799   0.581  0.00  0.00    -0.073 A 
ATOM      7  C8  UNL d   1       0.886  -0.087   0.742  0.00  0.00     0.078 C 
ENDROOT
BRANCH   1   8
ATOM      8  C1  UNL d   1      -1.171   0.790  -1.286  0.00  0.00     0.053 C 
ATOM      9  C   UNL d   1      -0.496   0.395  -2.590  0.00  0.00     0.018 C 
ENDBRANCH   1   8
TORSDOF 1
ENDMDL
