MODEL 1
REMARK minimizedAffinity -3.80104923
REMARK minimizedRMSD -1
REMARK  1 active torsions:
REMARK  status: ('A' for Active; 'I' for Inactive)
REMARK    1  A    between atoms: C1_2  and  C2_3 
ROOT
ATOM      1  C2  UNL d   1      -1.030  -0.328  -0.728  0.00  0.00    -0.076 A 
ATOM      2  C3  UNL d   1      -0.668  -0.774   0.556  0.00  0.00     0.004 A 
ATOM      3  C4  UNL d   1       0.551  -0.412   1.124  0.00  0.00    -0.003 A 
ATOM      4  C5  UNL d   1       1.429   0.404   0.419  0.00  0.00     0.000 A 
ATOM      5  C6  UNL d   1       1.080   0.870  -0.848  0.00  0.00     0.000 A 
ATOM      6  C7  UNL d   1      -0.153   0.527  -1.429  0.00  0.00    -0.073 A 
ATOM      7  C8  UNL d   1      -0.477   1.053  -2.800  0.00  0.00     0.078 C 
ENDROOT
BRANCH   1   8
ATOM      8  C1  UNL d   1      -2.354  -0.776  -1.304  0.00  0.00     0.053 C 
ATOM      9  C   UNL d   1      -3.261  -1.407  -0.258  0.00  0.00     0.018 C 
ENDBRANCH   1   8
TORSDOF 1
ENDMDL
