MODEL 1
REMARK minimizedAffinity 1.60047174
REMARK minimizedRMSD -1
REMARK  0 active torsions:
REMARK  status: ('A' for Active; 'I' for Inactive)
ROOT
ATOM      1  O1  BZF d   1       3.534   2.792   4.086  0.00  0.00    -0.204 OA
ATOM      2  C2  BZF d   1       3.834   1.630   3.401  0.00  0.00     0.174 A 
ATOM      3  C3  BZF d   1       4.566   1.898   2.301  0.00  0.00    -0.012 A 
ATOM      4  C3A BZF d   1       4.813   3.307   2.347  0.00  0.00    -0.107 A 
ATOM      5  C4  BZF d   1       5.499   4.167   1.538  0.00  0.00     0.055 A 
ATOM      6  C5  BZF d   1       5.487   5.495   1.825  0.00  0.00    -0.016 A 
ATOM      7  C6  BZF d   1       4.796   5.997   2.909  0.00  0.00     0.022 A 
ATOM      8  C7  BZF d   1       4.106   5.183   3.743  0.00  0.00     0.029 A 
ATOM      9  C7A BZF d   1       4.143   3.836   3.474  0.00  0.00     0.058 A 
ENDROOT
TORSDOF 0
ENDMDL
