MODEL 1
REMARK minimizedAffinity 15.1343641
REMARK minimizedRMSD -1
REMARK  0 active torsions:
REMARK  status: ('A' for Active; 'I' for Inactive)
ROOT
ATOM      1  O1  BZF d   1      -1.661   0.922   2.519  0.00  0.00    -0.204 OA
ATOM      2  C2  BZF d   1      -1.268   2.244   2.446  0.00  0.00     0.174 A 
ATOM      3  C3  BZF d   1       0.046   2.369   2.721  0.00  0.00    -0.012 A 
ATOM      4  C3A BZF d   1       0.523   1.031   2.892  0.00  0.00    -0.107 A 
ATOM      5  C4  BZF d   1       1.751   0.499   3.168  0.00  0.00     0.055 A 
ATOM      6  C5  BZF d   1       1.865  -0.843   3.343  0.00  0.00    -0.016 A 
ATOM      7  C6  BZF d   1       0.774  -1.683   3.255  0.00  0.00     0.022 A 
ATOM      8  C7  BZF d   1      -0.463  -1.203   2.979  0.00  0.00     0.029 A 
ATOM      9  C7A BZF d   1      -0.576   0.150   2.769  0.00  0.00     0.058 A 
ENDROOT
TORSDOF 0
ENDMDL
