MODEL 1
REMARK minimizedAffinity 13.8173113
REMARK minimizedRMSD -1
REMARK  0 active torsions:
REMARK  status: ('A' for Active; 'I' for Inactive)
ROOT
ATOM      1  O1  BZF d   1       1.061  -1.917   2.950  0.00  0.00    -0.204 OA
ATOM      2  C2  BZF d   1       2.126  -1.421   3.677  0.00  0.00     0.174 A 
ATOM      3  C3  BZF d   1       1.985  -0.097   3.888  0.00  0.00    -0.012 A 
ATOM      4  C3A BZF d   1       0.711   0.240   3.333  0.00  0.00    -0.107 A 
ATOM      5  C4  BZF d   1       0.002   1.404   3.247  0.00  0.00     0.055 A 
ATOM      6  C5  BZF d   1      -1.181   1.410   2.577  0.00  0.00    -0.016 A 
ATOM      7  C6  BZF d   1      -1.680   0.272   1.976  0.00  0.00     0.022 A 
ATOM      8  C7  BZF d   1      -1.015  -0.907   2.039  0.00  0.00     0.029 A 
ATOM      9  C7A BZF d   1       0.163  -0.923   2.744  0.00  0.00     0.058 A 
ENDROOT
TORSDOF 0
ENDMDL
