MODEL 1
REMARK minimizedAffinity 17.7622375
REMARK minimizedRMSD -1
REMARK  0 active torsions:
REMARK  status: ('A' for Active; 'I' for Inactive)
ROOT
ATOM      1  O1  BZF d   1       0.525  -3.585   3.939  0.00  0.00    -0.204 OA
ATOM      2  C2  BZF d   1       1.690  -2.857   3.785  0.00  0.00     0.174 A 
ATOM      3  C3  BZF d   1       1.531  -1.888   2.861  0.00  0.00    -0.012 A 
ATOM      4  C3A BZF d   1       0.155  -1.959   2.475  0.00  0.00    -0.107 A 
ATOM      5  C4  BZF d   1      -0.613  -1.244   1.601  0.00  0.00     0.055 A 
ATOM      6  C5  BZF d   1      -1.905  -1.614   1.402  0.00  0.00    -0.016 A 
ATOM      7  C6  BZF d   1      -2.460  -2.695   2.055  0.00  0.00     0.022 A 
ATOM      8  C7  BZF d   1      -1.739  -3.432   2.935  0.00  0.00     0.029 A 
ATOM      9  C7A BZF d   1      -0.443  -3.040   3.163  0.00  0.00     0.058 A 
ENDROOT
TORSDOF 0
ENDMDL
