MODEL 1
REMARK minimizedAffinity 15.6045542
REMARK minimizedRMSD -1
REMARK  0 active torsions:
REMARK  status: ('A' for Active; 'I' for Inactive)
ROOT
ATOM      1  O1  BZF d   1       4.975  -1.544   5.241  0.00  0.00    -0.204 OA
ATOM      2  C2  BZF d   1       5.297  -2.653   5.999  0.00  0.00     0.174 A 
ATOM      3  C3  BZF d   1       4.318  -3.578   5.936  0.00  0.00    -0.012 A 
ATOM      4  C3A BZF d   1       3.362  -3.051   5.011  0.00  0.00    -0.107 A 
ATOM      5  C4  BZF d   1       2.175  -3.515   4.520  0.00  0.00     0.055 A 
ATOM      6  C5  BZF d   1       1.450  -2.724   3.687  0.00  0.00    -0.016 A 
ATOM      7  C6  BZF d   1       1.877  -1.462   3.330  0.00  0.00     0.022 A 
ATOM      8  C7  BZF d   1       3.049  -0.959   3.788  0.00  0.00     0.029 A 
ATOM      9  C7A BZF d   1       3.801  -1.770   4.603  0.00  0.00     0.058 A 
ENDROOT
TORSDOF 0
ENDMDL
