MODEL 1
REMARK minimizedAffinity 23.3874168
REMARK minimizedRMSD -1
REMARK  0 active torsions:
REMARK  status: ('A' for Active; 'I' for Inactive)
ROOT
ATOM      1  O1  BZF d   1      -3.048  -0.135   2.711  0.00  0.00    -0.204 OA
ATOM      2  C2  BZF d   1      -3.191  -1.458   2.338  0.00  0.00     0.174 A 
ATOM      3  C3  BZF d   1      -2.027  -1.952   1.870  0.00  0.00    -0.012 A 
ATOM      4  C3A BZF d   1      -1.075  -0.898   2.042  0.00  0.00    -0.107 A 
ATOM      5  C4  BZF d   1       0.261  -0.787   1.779  0.00  0.00     0.055 A 
ATOM      6  C5  BZF d   1       0.880   0.403   1.995  0.00  0.00    -0.016 A 
ATOM      7  C6  BZF d   1       0.195   1.502   2.469  0.00  0.00     0.022 A 
ATOM      8  C7  BZF d   1      -1.130   1.440   2.749  0.00  0.00     0.029 A 
ATOM      9  C7A BZF d   1      -1.752   0.229   2.562  0.00  0.00     0.058 A 
ENDROOT
TORSDOF 0
ENDMDL
