MODEL 1
REMARK minimizedAffinity 15.6918278
REMARK minimizedRMSD -1
REMARK  0 active torsions:
REMARK  status: ('A' for Active; 'I' for Inactive)
ROOT
ATOM      1  O1  BZF d   1      -1.120  -3.750  -1.792  0.00  0.00    -0.204 OA
ATOM      2  C2  BZF d   1      -1.162  -2.382  -1.981  0.00  0.00     0.174 A 
ATOM      3  C3  BZF d   1      -1.100  -2.079  -3.294  0.00  0.00    -0.012 A 
ATOM      4  C3A BZF d   1      -1.106  -3.339  -3.972  0.00  0.00    -0.107 A 
ATOM      5  C4  BZF d   1      -1.076  -3.696  -5.290  0.00  0.00     0.055 A 
ATOM      6  C5  BZF d   1      -1.019  -5.014  -5.616  0.00  0.00    -0.016 A 
ATOM      7  C6  BZF d   1      -0.985  -6.000  -4.651  0.00  0.00     0.022 A 
ATOM      8  C7  BZF d   1      -1.018  -5.695  -3.331  0.00  0.00     0.029 A 
ATOM      9  C7A BZF d   1      -1.109  -4.365  -2.999  0.00  0.00     0.058 A 
ENDROOT
TORSDOF 0
ENDMDL
