MODEL 1
REMARK minimizedAffinity 1.73843038
REMARK minimizedRMSD -1
REMARK  0 active torsions:
REMARK  status: ('A' for Active; 'I' for Inactive)
ROOT
ATOM      1  C   UNL d   1      -1.762   0.461   1.436  0.00  0.00    -0.002 A 
ATOM      2  C1  UNL d   1      -0.480   0.320   0.925  0.00  0.00     0.010 A 
ATOM      3  C2  UNL d   1       0.525  -0.281   1.685  0.00  0.00     0.041 A 
ATOM      4  C3  UNL d   1       0.217  -0.744   2.979  0.00  0.00    -0.075 A 
ATOM      5  S   UNL d   1       1.288  -1.513   4.090  0.00  0.00     0.015 SA
ATOM      6  C4  UNL d   1       0.068  -1.673   5.270  0.00  0.00     0.022 A 
ATOM      7  C5  UNL d   1      -1.133  -1.157   4.843  0.00  0.00     0.026 A 
ATOM      8  C6  UNL d   1      -1.067  -0.614   3.516  0.00  0.00    -0.082 A 
ATOM      9  C7  UNL d   1      -2.064   0.001   2.721  0.00  0.00     0.045 A 
ENDROOT
TORSDOF 0
ENDMDL
