MODEL 1
REMARK minimizedAffinity 12.6732082
REMARK minimizedRMSD -1
REMARK  0 active torsions:
REMARK  status: ('A' for Active; 'I' for Inactive)
ROOT
ATOM      1  C   UNL d   1      -2.240  -0.267   0.332  0.00  0.00    -0.002 A 
ATOM      2  C1  UNL d   1      -1.856  -0.944  -0.817  0.00  0.00     0.010 A 
ATOM      3  C2  UNL d   1      -0.505  -1.137  -1.109  0.00  0.00     0.041 A 
ATOM      4  C3  UNL d   1       0.464  -0.635  -0.218  0.00  0.00    -0.075 A 
ATOM      5  S   UNL d   1       2.177  -0.754  -0.369  0.00  0.00     0.015 SA
ATOM      6  C4  UNL d   1       2.440   0.090   1.088  0.00  0.00     0.022 A 
ATOM      7  C5  UNL d   1       1.260   0.462   1.688  0.00  0.00     0.026 A 
ATOM      8  C6  UNL d   1       0.102   0.049   0.946  0.00  0.00    -0.082 A 
ATOM      9  C7  UNL d   1      -1.276   0.230   1.214  0.00  0.00     0.045 A 
ENDROOT
TORSDOF 0
ENDMDL
