MODEL 1
REMARK minimizedAffinity 8.91405106
REMARK minimizedRMSD -1
REMARK  0 active torsions:
REMARK  status: ('A' for Active; 'I' for Inactive)
ROOT
ATOM      1  C   UNL d   1      -2.605   0.063  -0.242  0.00  0.00    -0.002 A 
ATOM      2  C1  UNL d   1      -2.517   0.664   1.005  0.00  0.00     0.010 A 
ATOM      3  C2  UNL d   1      -1.291   0.749   1.668  0.00  0.00     0.041 A 
ATOM      4  C3  UNL d   1      -0.144   0.215   1.049  0.00  0.00    -0.075 A 
ATOM      5  S   UNL d   1       1.464   0.206   1.672  0.00  0.00     0.015 SA
ATOM      6  C4  UNL d   1       2.072  -0.596   0.296  0.00  0.00     0.022 A 
ATOM      7  C5  UNL d   1       1.086  -0.858  -0.626  0.00  0.00     0.026 A 
ATOM      8  C6  UNL d   1      -0.207  -0.394  -0.208  0.00  0.00    -0.082 A 
ATOM      9  C7  UNL d   1      -1.465  -0.465  -0.853  0.00  0.00     0.045 A 
ENDROOT
TORSDOF 0
ENDMDL
