MODEL 1
REMARK minimizedAffinity 4.56415701
REMARK minimizedRMSD -1
REMARK  0 active torsions:
REMARK  status: ('A' for Active; 'I' for Inactive)
ROOT
ATOM      1  C   UNL d   1      -2.456  -1.768   5.282  0.00  0.00    -0.002 A 
ATOM      2  C1  UNL d   1      -3.317  -1.308   4.296  0.00  0.00     0.010 A 
ATOM      3  C2  UNL d   1      -2.818  -0.832   3.082  0.00  0.00     0.041 A 
ATOM      4  C3  UNL d   1      -1.425  -0.828   2.872  0.00  0.00    -0.075 A 
ATOM      5  S   UNL d   1      -0.587  -0.293   1.464  0.00  0.00     0.015 SA
ATOM      6  C4  UNL d   1       0.934  -0.663   2.137  0.00  0.00     0.022 A 
ATOM      7  C5  UNL d   1       0.824  -1.183   3.405  0.00  0.00     0.026 A 
ATOM      8  C6  UNL d   1      -0.537  -1.287   3.850  0.00  0.00    -0.082 A 
ATOM      9  C7  UNL d   1      -1.074  -1.762   5.070  0.00  0.00     0.045 A 
ENDROOT
TORSDOF 0
ENDMDL
