MODEL 1
REMARK minimizedAffinity -4.59887791
REMARK minimizedRMSD -1
REMARK  1 active torsions:
REMARK  status: ('A' for Active; 'I' for Inactive)
REMARK    1  A    between atoms: C1_2  and  C2_3 
ROOT
ATOM      1  C2  UNL d   1      -5.151   0.899   1.738  0.00  0.00    -0.073 A 
ATOM      2  C3  UNL d   1      -3.768   0.700   1.673  0.00  0.00    -0.002 A 
ATOM      3  C4  UNL d   1      -2.987   0.790   2.826  0.00  0.00     0.004 A 
ATOM      4  C5  UNL d   1      -3.582   1.073   4.056  0.00  0.00    -0.004 A 
ATOM      5  C6  UNL d   1      -4.965   1.264   4.144  0.00  0.00    -0.075 A 
ATOM      6  C7  UNL d   1      -5.619   1.571   5.458  0.00  0.00     0.076 C 
ATOM      7  C8  UNL d   1      -5.741   1.174   2.980  0.00  0.00     0.001 A 
ENDROOT
BRANCH   1   8
ATOM      8  C1  UNL d   1      -5.999   0.796   0.497  0.00  0.00     0.053 C 
ATOM      9  C   UNL d   1      -5.626   1.846  -0.537  0.00  0.00     0.018 C 
ENDBRANCH   1   8
TORSDOF 1
ENDMDL
