MODEL 1
REMARK minimizedAffinity 6.18868065
REMARK minimizedRMSD -1
REMARK  1 active torsions:
REMARK  status: ('A' for Active; 'I' for Inactive)
REMARK    1  A    between atoms: C1_2  and  C2_3 
ROOT
ATOM      1  C2  UNL d   1       3.266   4.182  -3.170  0.00  0.00    -0.073 A 
ATOM      2  C3  UNL d   1       3.979   3.733  -4.287  0.00  0.00    -0.002 A 
ATOM      3  C4  UNL d   1       5.338   4.022  -4.418  0.00  0.00     0.004 A 
ATOM      4  C5  UNL d   1       5.998   4.755  -3.432  0.00  0.00    -0.004 A 
ATOM      5  C6  UNL d   1       5.305   5.203  -2.303  0.00  0.00    -0.075 A 
ATOM      6  C7  UNL d   1       6.000   5.995  -1.234  0.00  0.00     0.076 C 
ATOM      7  C8  UNL d   1       3.940   4.911  -2.180  0.00  0.00     0.001 A 
ENDROOT
BRANCH   1   8
ATOM      8  C1  UNL d   1       1.800   3.867  -3.021  0.00  0.00     0.053 C 
ATOM      9  C   UNL d   1       0.993   5.088  -2.610  0.00  0.00     0.018 C 
ENDBRANCH   1   8
TORSDOF 1
ENDMDL
