MODEL 1
REMARK minimizedAffinity 4.87205505
REMARK minimizedRMSD -1
REMARK  1 active torsions:
REMARK  status: ('A' for Active; 'I' for Inactive)
REMARK    1  A    between atoms: C1_2  and  C2_3 
ROOT
ATOM      1  C2  UNL d   1      -2.299  -0.824   1.766  0.00  0.00    -0.073 A 
ATOM      2  C3  UNL d   1      -2.032  -0.195   2.988  0.00  0.00    -0.002 A 
ATOM      3  C4  UNL d   1      -2.787   0.906   3.393  0.00  0.00     0.004 A 
ATOM      4  C5  UNL d   1      -3.820   1.384   2.587  0.00  0.00    -0.004 A 
ATOM      5  C6  UNL d   1      -4.110   0.762   1.369  0.00  0.00    -0.075 A 
ATOM      6  C7  UNL d   1      -5.216   1.265   0.489  0.00  0.00     0.076 C 
ATOM      7  C8  UNL d   1      -3.345  -0.342   0.967  0.00  0.00     0.001 A 
ENDROOT
BRANCH   1   8
ATOM      8  C1  UNL d   1      -1.490  -2.017   1.327  0.00  0.00     0.053 C 
ATOM      9  C   UNL d   1      -0.008  -1.838   1.615  0.00  0.00     0.018 C 
ENDBRANCH   1   8
TORSDOF 1
ENDMDL
