MODEL 1
REMARK minimizedAffinity 8.13674355
REMARK minimizedRMSD -1
REMARK  1 active torsions:
REMARK  status: ('A' for Active; 'I' for Inactive)
REMARK    1  A    between atoms: C1_2  and  C2_3 
ROOT
ATOM      1  C2  UNL d   1       4.701   3.843  -0.526  0.00  0.00    -0.073 A 
ATOM      2  C3  UNL d   1       5.240   5.100  -0.231  0.00  0.00    -0.002 A 
ATOM      3  C4  UNL d   1       5.534   6.000  -1.256  0.00  0.00     0.004 A 
ATOM      4  C5  UNL d   1       5.285   5.655  -2.585  0.00  0.00    -0.004 A 
ATOM      5  C6  UNL d   1       4.735   4.408  -2.899  0.00  0.00    -0.075 A 
ATOM      6  C7  UNL d   1       4.464   4.022  -4.323  0.00  0.00     0.076 C 
ATOM      7  C8  UNL d   1       4.446   3.509  -1.864  0.00  0.00     0.001 A 
ENDROOT
BRANCH   1   8
ATOM      8  C1  UNL d   1       4.376   2.871   0.579  0.00  0.00     0.053 C 
ATOM      9  C   UNL d   1       5.320   3.016   1.762  0.00  0.00     0.018 C 
ENDBRANCH   1   8
TORSDOF 1
ENDMDL
