MODEL 1
REMARK minimizedAffinity 3.23640275
REMARK minimizedRMSD -1
REMARK  1 active torsions:
REMARK  status: ('A' for Active; 'I' for Inactive)
REMARK    1  A    between atoms: C1_2  and  C2_3 
ROOT
ATOM      1  C2  UNL d   1      -3.616   0.645   0.745  0.00  0.00    -0.073 A 
ATOM      2  C3  UNL d   1      -3.862   1.459   1.857  0.00  0.00    -0.002 A 
ATOM      3  C4  UNL d   1      -3.085   1.333   3.009  0.00  0.00     0.004 A 
ATOM      4  C5  UNL d   1      -2.051   0.399   3.060  0.00  0.00    -0.004 A 
ATOM      5  C6  UNL d   1      -1.781  -0.415   1.955  0.00  0.00    -0.075 A 
ATOM      6  C7  UNL d   1      -0.673  -1.427   1.993  0.00  0.00     0.076 C 
ATOM      7  C8  UNL d   1      -2.568  -0.285   0.802  0.00  0.00     0.001 A 
ENDROOT
BRANCH   1   8
ATOM      8  C1  UNL d   1      -4.448   0.782  -0.503  0.00  0.00     0.053 C 
ATOM      9  C   UNL d   1      -4.833   2.228  -0.776  0.00  0.00     0.018 C 
ENDBRANCH   1   8
TORSDOF 1
ENDMDL
