MODEL 1
REMARK minimizedAffinity 8.68838978
REMARK minimizedRMSD -1
REMARK  1 active torsions:
REMARK  status: ('A' for Active; 'I' for Inactive)
REMARK    1  A    between atoms: C1_2  and  C2_3 
ROOT
ATOM      1  C2  UNL d   1      -3.894   0.391   1.020  0.00  0.00    -0.073 A 
ATOM      2  C3  UNL d   1      -5.043   0.850   0.366  0.00  0.00    -0.002 A 
ATOM      3  C4  UNL d   1      -5.264   0.534  -0.975  0.00  0.00     0.004 A 
ATOM      4  C5  UNL d   1      -4.345  -0.250  -1.673  0.00  0.00    -0.004 A 
ATOM      5  C6  UNL d   1      -3.197  -0.728  -1.033  0.00  0.00    -0.075 A 
ATOM      6  C7  UNL d   1      -2.198  -1.570  -1.770  0.00  0.00     0.076 C 
ATOM      7  C8  UNL d   1      -2.980  -0.404   0.313  0.00  0.00     0.001 A 
ENDROOT
BRANCH   1   8
ATOM      8  C1  UNL d   1      -3.653   0.724   2.470  0.00  0.00     0.053 C 
ATOM      9  C   UNL d   1      -2.207   0.488   2.877  0.00  0.00     0.018 C 
ENDBRANCH   1   8
TORSDOF 1
ENDMDL
