MODEL 1
REMARK minimizedAffinity 4.16780853
REMARK minimizedRMSD -1
REMARK  1 active torsions:
REMARK  status: ('A' for Active; 'I' for Inactive)
REMARK    1  A    between atoms: C1_2  and  C2_3 
ROOT
ATOM      1  C2  UNL d   1      -1.180  -0.462   3.351  0.00  0.00    -0.073 A 
ATOM      2  C3  UNL d   1      -2.053   0.619   3.184  0.00  0.00    -0.002 A 
ATOM      3  C4  UNL d   1      -2.970   0.629   2.132  0.00  0.00     0.004 A 
ATOM      4  C5  UNL d   1      -3.028  -0.443   1.242  0.00  0.00    -0.004 A 
ATOM      5  C6  UNL d   1      -2.172  -1.538   1.399  0.00  0.00    -0.075 A 
ATOM      6  C7  UNL d   1      -2.220  -2.698   0.448  0.00  0.00     0.076 C 
ATOM      7  C8  UNL d   1      -1.252  -1.539   2.456  0.00  0.00     0.001 A 
ENDROOT
BRANCH   1   8
ATOM      8  C1  UNL d   1      -0.193  -0.480   4.489  0.00  0.00     0.053 C 
ATOM      9  C   UNL d   1       0.799  -1.625   4.365  0.00  0.00     0.018 C 
ENDBRANCH   1   8
TORSDOF 1
ENDMDL
