MODEL 1
REMARK minimizedAffinity 0.33856523
REMARK minimizedRMSD -1
REMARK  1 active torsions:
REMARK  status: ('A' for Active; 'I' for Inactive)
REMARK    1  A    between atoms: C1_2  and  C2_3 
ROOT
ATOM      1  C2  UNL d   1      -1.958  -5.567  -5.375  0.00  0.00    -0.073 A 
ATOM      2  C3  UNL d   1      -1.948  -4.758  -4.233  0.00  0.00    -0.002 A 
ATOM      3  C4  UNL d   1      -0.738  -4.359  -3.662  0.00  0.00     0.004 A 
ATOM      4  C5  UNL d   1       0.472  -4.760  -4.229  0.00  0.00    -0.004 A 
ATOM      5  C6  UNL d   1       0.482  -5.559  -5.377  0.00  0.00    -0.075 A 
ATOM      6  C7  UNL d   1       1.775  -6.000  -5.998  0.00  0.00     0.076 C 
ATOM      7  C8  UNL d   1      -0.736  -5.957  -5.943  0.00  0.00     0.001 A 
ENDROOT
BRANCH   1   8
ATOM      8  C1  UNL d   1      -3.261  -5.994  -5.999  0.00  0.00     0.053 C 
ATOM      9  C   UNL d   1      -4.376  -4.997  -5.728  0.00  0.00     0.018 C 
ENDBRANCH   1   8
TORSDOF 1
ENDMDL
