MODEL 1
REMARK minimizedAffinity 5.56270504
REMARK minimizedRMSD -1
REMARK  1 active torsions:
REMARK  status: ('A' for Active; 'I' for Inactive)
REMARK    1  A    between atoms: C1_2  and  C2_3 
ROOT
ATOM      1  C2  UNL d   1       3.057   3.441  -3.105  0.00  0.00    -0.073 A 
ATOM      2  C3  UNL d   1       3.645   3.172  -4.347  0.00  0.00    -0.002 A 
ATOM      3  C4  UNL d   1       4.820   3.821  -4.726  0.00  0.00     0.004 A 
ATOM      4  C5  UNL d   1       5.423   4.739  -3.866  0.00  0.00    -0.004 A 
ATOM      5  C6  UNL d   1       4.858   5.013  -2.617  0.00  0.00    -0.075 A 
ATOM      6  C7  UNL d   1       5.493   6.000  -1.682  0.00  0.00     0.076 C 
ATOM      7  C8  UNL d   1       3.676   4.359  -2.245  0.00  0.00     0.001 A 
ENDROOT
BRANCH   1   8
ATOM      8  C1  UNL d   1       1.791   2.738  -2.689  0.00  0.00     0.053 C 
ATOM      9  C   UNL d   1       2.075   1.498  -1.856  0.00  0.00     0.018 C 
ENDBRANCH   1   8
TORSDOF 1
ENDMDL
