MODEL 1
REMARK minimizedAffinity 8.14274406
REMARK minimizedRMSD -1
REMARK  1 active torsions:
REMARK  status: ('A' for Active; 'I' for Inactive)
REMARK    1  A    between atoms: C1_2  and  C2_3 
ROOT
ATOM      1  C2  UNL d   1      -0.232  -1.348   2.982  0.00  0.00    -0.073 A 
ATOM      2  C3  UNL d   1      -0.512  -2.097   1.834  0.00  0.00    -0.002 A 
ATOM      3  C4  UNL d   1      -1.548  -1.718   0.979  0.00  0.00     0.004 A 
ATOM      4  C5  UNL d   1      -2.309  -0.583   1.260  0.00  0.00    -0.004 A 
ATOM      5  C6  UNL d   1      -2.038   0.185   2.397  0.00  0.00    -0.075 A 
ATOM      6  C7  UNL d   1      -2.849   1.407   2.715  0.00  0.00     0.076 C 
ATOM      7  C8  UNL d   1      -0.997  -0.204   3.251  0.00  0.00     0.001 A 
ENDROOT
BRANCH   1   8
ATOM      8  C1  UNL d   1       0.890  -1.751   3.904  0.00  0.00     0.053 C 
ATOM      9  C   UNL d   1       2.240  -1.264   3.404  0.00  0.00     0.018 C 
ENDBRANCH   1   8
TORSDOF 1
ENDMDL
