MODEL 1
REMARK minimizedAffinity 16.2770844
REMARK minimizedRMSD -1
REMARK  1 active torsions:
REMARK  status: ('A' for Active; 'I' for Inactive)
REMARK    1  A    between atoms: C1_2  and  C2_3 
ROOT
ATOM      1  C2  UNL d   1       3.178   3.823  -2.970  0.00  0.00    -0.073 A 
ATOM      2  C3  UNL d   1       4.305   4.534  -2.541  0.00  0.00    -0.002 A 
ATOM      3  C4  UNL d   1       5.516   4.415  -3.223  0.00  0.00     0.004 A 
ATOM      4  C5  UNL d   1       5.612   3.590  -4.343  0.00  0.00    -0.004 A 
ATOM      5  C6  UNL d   1       4.495   2.880  -4.795  0.00  0.00    -0.075 A 
ATOM      6  C7  UNL d   1       4.582   1.986  -5.997  0.00  0.00     0.076 C 
ATOM      7  C8  UNL d   1       3.282   3.003  -4.102  0.00  0.00     0.001 A 
ENDROOT
BRANCH   1   8
ATOM      8  C1  UNL d   1       1.866   3.954  -2.240  0.00  0.00     0.053 C 
ATOM      9  C   UNL d   1       1.357   5.386  -2.235  0.00  0.00     0.018 C 
ENDBRANCH   1   8
TORSDOF 1
ENDMDL
