MODEL 1
REMARK minimizedAffinity 8.71795082
REMARK minimizedRMSD -1
REMARK  1 active torsions:
REMARK  status: ('A' for Active; 'I' for Inactive)
REMARK    1  A    between atoms: C1_2  and  C2_3 
ROOT
ATOM      1  C2  UNL d   1      -0.361  -0.248   1.988  0.00  0.00    -0.073 A 
ATOM      2  C3  UNL d   1      -1.241  -1.042   1.243  0.00  0.00    -0.002 A 
ATOM      3  C4  UNL d   1      -2.544  -1.259   1.690  0.00  0.00     0.004 A 
ATOM      4  C5  UNL d   1      -2.983  -0.681   2.881  0.00  0.00    -0.004 A 
ATOM      5  C6  UNL d   1      -2.123   0.124   3.634  0.00  0.00    -0.075 A 
ATOM      6  C7  UNL d   1      -2.579   0.752   4.918  0.00  0.00     0.076 C 
ATOM      7  C8  UNL d   1      -0.814   0.336   3.179  0.00  0.00     0.001 A 
ENDROOT
BRANCH   1   8
ATOM      8  C1  UNL d   1       1.046  -0.006   1.505  0.00  0.00     0.053 C 
ATOM      9  C   UNL d   1       1.193   1.353   0.839  0.00  0.00     0.018 C 
ENDBRANCH   1   8
TORSDOF 1
ENDMDL
