MODEL 1
REMARK minimizedAffinity 5.87412691
REMARK minimizedRMSD -1
REMARK  1 active torsions:
REMARK  status: ('A' for Active; 'I' for Inactive)
REMARK    1  A    between atoms: C1_2  and  C2_3 
ROOT
ATOM      1  C2  UNL d   1      -4.314   1.840   4.935  0.00  0.00    -0.073 A 
ATOM      2  C3  UNL d   1      -3.009   1.408   5.199  0.00  0.00    -0.002 A 
ATOM      3  C4  UNL d   1      -2.265   0.766   4.208  0.00  0.00     0.004 A 
ATOM      4  C5  UNL d   1      -2.814   0.555   2.944  0.00  0.00    -0.004 A 
ATOM      5  C6  UNL d   1      -4.112   0.990   2.657  0.00  0.00    -0.075 A 
ATOM      6  C7  UNL d   1      -4.718   0.769   1.302  0.00  0.00     0.076 C 
ATOM      7  C8  UNL d   1      -4.854   1.632   3.658  0.00  0.00     0.001 A 
ENDROOT
BRANCH   1   8
ATOM      8  C1  UNL d   1      -5.119   2.539   6.000  0.00  0.00     0.053 C 
ATOM      9  C   UNL d   1      -4.881   4.041   6.000  0.00  0.00     0.018 C 
ENDBRANCH   1   8
TORSDOF 1
ENDMDL
