MODEL 1
REMARK minimizedAffinity 5.20515394
REMARK minimizedRMSD -1
REMARK  1 active torsions:
REMARK  status: ('A' for Active; 'I' for Inactive)
REMARK    1  A    between atoms: C1_2  and  C2_3 
ROOT
ATOM      1  C2  UNL d   1      -4.293   5.248  -3.315  0.00  0.00    -0.073 A 
ATOM      2  C3  UNL d   1      -5.344   5.521  -4.198  0.00  0.00    -0.002 A 
ATOM      3  C4  UNL d   1      -5.081   5.832  -5.533  0.00  0.00     0.004 A 
ATOM      4  C5  UNL d   1      -3.767   5.866  -6.000  0.00  0.00    -0.004 A 
ATOM      5  C6  UNL d   1      -2.704   5.584  -5.136  0.00  0.00    -0.075 A 
ATOM      6  C7  UNL d   1      -1.285   5.618  -5.623  0.00  0.00     0.076 C 
ATOM      7  C8  UNL d   1      -2.976   5.275  -3.797  0.00  0.00     0.001 A 
ENDROOT
BRANCH   1   8
ATOM      8  C1  UNL d   1      -4.572   4.906  -1.875  0.00  0.00     0.053 C 
ATOM      9  C   UNL d   1      -5.867   4.125  -1.715  0.00  0.00     0.018 C 
ENDBRANCH   1   8
TORSDOF 1
ENDMDL
