MODEL 1
REMARK minimizedAffinity 5.12022257
REMARK minimizedRMSD -1
REMARK  1 active torsions:
REMARK  status: ('A' for Active; 'I' for Inactive)
REMARK    1  A    between atoms: C1_2  and  C2_3 
ROOT
ATOM      1  C2  UNL d   1      -1.052  -5.359  -5.210  0.00  0.00    -0.073 A 
ATOM      2  C3  UNL d   1      -1.271  -4.163  -4.516  0.00  0.00    -0.002 A 
ATOM      3  C4  UNL d   1      -0.236  -3.570  -3.791  0.00  0.00     0.004 A 
ATOM      4  C5  UNL d   1       1.027  -4.161  -3.758  0.00  0.00    -0.004 A 
ATOM      5  C6  UNL d   1       1.268  -5.350  -4.455  0.00  0.00    -0.075 A 
ATOM      6  C7  UNL d   1       2.620  -5.999  -4.427  0.00  0.00     0.076 C 
ATOM      7  C8  UNL d   1       0.223  -5.941  -5.178  0.00  0.00     0.001 A 
ENDROOT
BRANCH   1   8
ATOM      8  C1  UNL d   1      -2.164  -5.999  -6.000  0.00  0.00     0.053 C 
ATOM      9  C   UNL d   1      -3.483  -5.985  -5.243  0.00  0.00     0.018 C 
ENDBRANCH   1   8
TORSDOF 1
ENDMDL
