MODEL 1
REMARK minimizedAffinity 7.21340847
REMARK minimizedRMSD -1
REMARK  1 active torsions:
REMARK  status: ('A' for Active; 'I' for Inactive)
REMARK    1  A    between atoms: C1_2  and  C2_3 
ROOT
ATOM      1  C2  UNL d   1      -4.461  -1.499   3.795  0.00  0.00    -0.073 A 
ATOM      2  C3  UNL d   1      -5.183  -1.689   4.979  0.00  0.00    -0.002 A 
ATOM      3  C4  UNL d   1      -5.128  -0.737   5.998  0.00  0.00     0.004 A 
ATOM      4  C5  UNL d   1      -4.358   0.415   5.842  0.00  0.00    -0.004 A 
ATOM      5  C6  UNL d   1      -3.640   0.629   4.661  0.00  0.00    -0.075 A 
ATOM      6  C7  UNL d   1      -2.806   1.863   4.478  0.00  0.00     0.076 C 
ATOM      7  C8  UNL d   1      -3.698  -0.332   3.643  0.00  0.00     0.001 A 
ENDROOT
BRANCH   1   8
ATOM      8  C1  UNL d   1      -4.523  -2.520   2.689  0.00  0.00     0.053 C 
ATOM      9  C   UNL d   1      -5.181  -3.814   3.143  0.00  0.00     0.018 C 
ENDBRANCH   1   8
TORSDOF 1
ENDMDL
