MODEL 1
REMARK minimizedAffinity 4.64355373
REMARK minimizedRMSD -1
REMARK  1 active torsions:
REMARK  status: ('A' for Active; 'I' for Inactive)
REMARK    1  A    between atoms: C1_2  and  C2_3 
ROOT
ATOM      1  C2  UNL d   1      -3.622   1.132   4.804  0.00  0.00    -0.073 A 
ATOM      2  C3  UNL d   1      -2.249   0.872   4.881  0.00  0.00    -0.002 A 
ATOM      3  C4  UNL d   1      -1.565   0.364   3.776  0.00  0.00     0.004 A 
ATOM      4  C5  UNL d   1      -2.243   0.118   2.583  0.00  0.00    -0.004 A 
ATOM      5  C6  UNL d   1      -3.613   0.383   2.482  0.00  0.00    -0.075 A 
ATOM      6  C7  UNL d   1      -4.358   0.122   1.206  0.00  0.00     0.076 C 
ATOM      7  C8  UNL d   1      -4.294   0.890   3.597  0.00  0.00     0.001 A 
ENDROOT
BRANCH   1   8
ATOM      8  C1  UNL d   1      -4.364   1.687   5.992  0.00  0.00     0.053 C 
ATOM      9  C   UNL d   1      -4.374   3.208   6.000  0.00  0.00     0.018 C 
ENDBRANCH   1   8
TORSDOF 1
ENDMDL
