MODEL 1
REMARK minimizedAffinity -3.92504096
REMARK minimizedRMSD -1
REMARK  0 active torsions:
REMARK  status: ('A' for Active; 'I' for Inactive)
ROOT
ATOM      1  C   UNL d   1       0.175   0.266  -0.052  0.00  0.00     0.172 C 
ATOM      2  N   UNL d   1      -0.329   1.556   0.357  0.00  0.00    -0.070 N 
ATOM      3  C1  UNL d   1      -0.742   1.888   1.620  0.00  0.00    -0.004 A 
ATOM      4  C2  UNL d   1      -1.149   3.204   1.598  0.00  0.00    -0.047 A 
ATOM      5  C3  UNL d   1      -0.976   3.680   0.276  0.00  0.00    -0.047 A 
ATOM      6  C4  UNL d   1      -0.467   2.638  -0.471  0.00  0.00    -0.004 A 
ENDROOT
TORSDOF 0
ENDMDL
