MODEL 1
REMARK minimizedAffinity -2.29777098
REMARK minimizedRMSD -1
REMARK  0 active torsions:
REMARK  status: ('A' for Active; 'I' for Inactive)
ROOT
ATOM      1  C   UNL d   1      -0.103   2.439   1.532  0.00  0.00     0.172 C 
ATOM      2  N   UNL d   1      -0.060   1.540   0.403  0.00  0.00    -0.070 N 
ATOM      3  C1  UNL d   1      -0.048   0.172   0.471  0.00  0.00    -0.004 A 
ATOM      4  C2  UNL d   1      -0.004  -0.315  -0.817  0.00  0.00    -0.047 A 
ATOM      5  C3  UNL d   1       0.012   0.799  -1.690  0.00  0.00    -0.047 A 
ATOM      6  C4  UNL d   1      -0.023   1.934  -0.908  0.00  0.00    -0.004 A 
ENDROOT
TORSDOF 0
ENDMDL
