MODEL 1
REMARK minimizedAffinity -2.99428964
REMARK minimizedRMSD -1
REMARK  0 active torsions:
REMARK  status: ('A' for Active; 'I' for Inactive)
ROOT
ATOM      1  C   UNL d   1       0.959  -0.257   0.278  0.00  0.00     0.172 C 
ATOM      2  N   UNL d   1      -0.083   0.629   0.742  0.00  0.00    -0.070 N 
ATOM      3  C1  UNL d   1      -0.012   1.434   1.848  0.00  0.00    -0.004 A 
ATOM      4  C2  UNL d   1      -1.203   2.119   1.948  0.00  0.00    -0.047 A 
ATOM      5  C3  UNL d   1      -2.018   1.713   0.865  0.00  0.00    -0.047 A 
ATOM      6  C4  UNL d   1      -1.300   0.790   0.135  0.00  0.00    -0.004 A 
ENDROOT
TORSDOF 0
ENDMDL
