MODEL 1
REMARK minimizedAffinity -2.60857391
REMARK minimizedRMSD -1
REMARK  0 active torsions:
REMARK  status: ('A' for Active; 'I' for Inactive)
ROOT
ATOM      1  C   UNL d   1       0.201  -0.609  -0.646  0.00  0.00     0.172 C 
ATOM      2  N   UNL d   1      -0.181   0.493   0.205  0.00  0.00    -0.070 N 
ATOM      3  C1  UNL d   1      -1.034   1.508  -0.138  0.00  0.00    -0.004 A 
ATOM      4  C2  UNL d   1      -1.138   2.355   0.944  0.00  0.00    -0.047 A 
ATOM      5  C3  UNL d   1      -0.318   1.832   1.972  0.00  0.00    -0.047 A 
ATOM      6  C4  UNL d   1       0.262   0.679   1.488  0.00  0.00    -0.004 A 
ENDROOT
TORSDOF 0
ENDMDL
