MODEL 1
REMARK minimizedAffinity -3.56238317
REMARK minimizedRMSD -1
REMARK  0 active torsions:
REMARK  status: ('A' for Active; 'I' for Inactive)
ROOT
ATOM      1  C   UNL d   1      -0.026  -0.268  -0.452  0.00  0.00     0.172 C 
ATOM      2  N   UNL d   1      -0.578   0.847   0.281  0.00  0.00    -0.070 N 
ATOM      3  C1  UNL d   1      -1.736   1.511  -0.028  0.00  0.00    -0.004 A 
ATOM      4  C2  UNL d   1      -1.914   2.506   0.909  0.00  0.00    -0.047 A 
ATOM      5  C3  UNL d   1      -0.826   2.439   1.811  0.00  0.00    -0.047 A 
ATOM      6  C4  UNL d   1      -0.014   1.404   1.398  0.00  0.00    -0.004 A 
ENDROOT
TORSDOF 0
ENDMDL
