MODEL 1
REMARK minimizedAffinity -0.827449679
REMARK minimizedRMSD -1
REMARK  0 active torsions:
REMARK  status: ('A' for Active; 'I' for Inactive)
ROOT
ATOM      1  C   UNL d   1      -0.243   1.298  -1.496  0.00  0.00     0.172 C 
ATOM      2  N   UNL d   1       0.201   1.070  -0.141  0.00  0.00    -0.070 N 
ATOM      3  C1  UNL d   1      -0.201   1.777   0.961  0.00  0.00    -0.004 A 
ATOM      4  C2  UNL d   1       0.447   1.253   2.058  0.00  0.00    -0.047 A 
ATOM      5  C3  UNL d   1       1.267   0.194   1.601  0.00  0.00    -0.047 A 
ATOM      6  C4  UNL d   1       1.095   0.103   0.236  0.00  0.00    -0.004 A 
ENDROOT
TORSDOF 0
ENDMDL
