MODEL 1
REMARK minimizedAffinity -2.96425819
REMARK minimizedRMSD -1
REMARK  0 active torsions:
REMARK  status: ('A' for Active; 'I' for Inactive)
ROOT
ATOM      1  C   UNL d   1      -0.748   2.676   1.742  0.00  0.00     0.172 C 
ATOM      2  N   UNL d   1      -0.460   1.843   0.598  0.00  0.00    -0.070 N 
ATOM      3  C1  UNL d   1      -0.449   2.257  -0.707  0.00  0.00    -0.004 A 
ATOM      4  C2  UNL d   1      -0.131   1.170  -1.492  0.00  0.00    -0.047 A 
ATOM      5  C3  UNL d   1       0.055   0.064  -0.628  0.00  0.00    -0.047 A 
ATOM      6  C4  UNL d   1      -0.156   0.509   0.660  0.00  0.00    -0.004 A 
ENDROOT
TORSDOF 0
ENDMDL
