MODEL 1
REMARK minimizedAffinity -2.61695981
REMARK minimizedRMSD -1
REMARK  0 active torsions:
REMARK  status: ('A' for Active; 'I' for Inactive)
ROOT
ATOM      1  C   UNL d   1      -1.429  -3.521  -1.806  0.00  0.00     0.172 C 
ATOM      2  N   UNL d   1      -0.354  -4.262  -1.188  0.00  0.00    -0.070 N 
ATOM      3  C1  UNL d   1      -0.227  -5.625  -1.178  0.00  0.00    -0.004 A 
ATOM      4  C2  UNL d   1       0.926  -5.937  -0.492  0.00  0.00    -0.047 A 
ATOM      5  C3  UNL d   1       1.513  -4.719  -0.075  0.00  0.00    -0.047 A 
ATOM      6  C4  UNL d   1       0.700  -3.698  -0.519  0.00  0.00    -0.004 A 
ENDROOT
TORSDOF 0
ENDMDL
