MODEL 1
REMARK minimizedAffinity -3.90725708
REMARK minimizedRMSD -1
REMARK  0 active torsions:
REMARK  status: ('A' for Active; 'I' for Inactive)
ROOT
ATOM      1  C   UNL d   1       1.712   0.087   2.027  0.00  0.00     0.172 C 
ATOM      2  N   UNL d   1       0.670   0.941   1.507  0.00  0.00    -0.070 N 
ATOM      3  C1  UNL d   1      -0.068   1.834   2.237  0.00  0.00    -0.004 A 
ATOM      4  C2  UNL d   1      -0.953   2.450   1.379  0.00  0.00    -0.047 A 
ATOM      5  C3  UNL d   1      -0.740   1.908   0.089  0.00  0.00    -0.047 A 
ATOM      6  C4  UNL d   1       0.271   0.976   0.197  0.00  0.00    -0.004 A 
ENDROOT
TORSDOF 0
ENDMDL
