MODEL 1
REMARK minimizedAffinity -2.33126569
REMARK minimizedRMSD -1
REMARK  0 active torsions:
REMARK  status: ('A' for Active; 'I' for Inactive)
ROOT
ATOM      1  C   UNL d   1       1.800  -0.439   0.395  0.00  0.00     0.172 C 
ATOM      2  N   UNL d   1       0.679   0.449   0.196  0.00  0.00    -0.070 N 
ATOM      3  C1  UNL d   1       0.227   0.906  -1.013  0.00  0.00    -0.004 A 
ATOM      4  C2  UNL d   1      -0.856   1.725  -0.777  0.00  0.00    -0.047 A 
ATOM      5  C3  UNL d   1      -1.062   1.762   0.623  0.00  0.00    -0.047 A 
ATOM      6  C4  UNL d   1      -0.098   0.963   1.201  0.00  0.00    -0.004 A 
ENDROOT
TORSDOF 0
ENDMDL
