MODEL 1
REMARK minimizedAffinity -3.36431289
REMARK minimizedRMSD -1
REMARK  0 active torsions:
REMARK  status: ('A' for Active; 'I' for Inactive)
ROOT
ATOM      1  C   UNL d   1       0.777  -0.318   0.021  0.00  0.00     0.172 C 
ATOM      2  N   UNL d   1       0.001   0.574   0.850  0.00  0.00    -0.070 N 
ATOM      3  C1  UNL d   1      -0.911   1.491   0.400  0.00  0.00    -0.004 A 
ATOM      4  C2  UNL d   1      -1.433   2.141   1.498  0.00  0.00    -0.047 A 
ATOM      5  C3  UNL d   1      -0.812   1.596   2.647  0.00  0.00    -0.047 A 
ATOM      6  C4  UNL d   1       0.071   0.628   2.217  0.00  0.00    -0.004 A 
ENDROOT
TORSDOF 0
ENDMDL
