MODEL 1
REMARK minimizedAffinity -3.36417198
REMARK minimizedRMSD -1
REMARK  0 active torsions:
REMARK  status: ('A' for Active; 'I' for Inactive)
ROOT
ATOM      1  C   UNL d   1      -1.968   1.804   0.727  0.00  0.00     0.172 C 
ATOM      2  N   UNL d   1      -1.010   1.040  -0.036  0.00  0.00    -0.070 N 
ATOM      3  C1  UNL d   1      -0.525  -0.195   0.299  0.00  0.00    -0.004 A 
ATOM      4  C2  UNL d   1       0.363  -0.582  -0.682  0.00  0.00    -0.047 A 
ATOM      5  C3  UNL d   1       0.413   0.459  -1.640  0.00  0.00    -0.047 A 
ATOM      6  C4  UNL d   1      -0.446   1.450  -1.216  0.00  0.00    -0.004 A 
ENDROOT
TORSDOF 0
ENDMDL
