MODEL 1
REMARK minimizedAffinity 9.57320976
REMARK minimizedRMSD -1
REMARK  1 active torsions:
REMARK  status: ('A' for Active; 'I' for Inactive)
REMARK    1  A    between atoms: C1_2  and  C2_3 
ROOT
ATOM      1  C2  UNL d   1       3.267   1.885   0.166  0.00  0.00    -0.077 A 
ATOM      2  C3  UNL d   1       3.749   0.726   0.792  0.00  0.00     0.002 A 
ATOM      3  C4  UNL d   1       2.945   0.022   1.690  0.00  0.00     0.002 A 
ATOM      4  C5  UNL d   1       1.653   0.466   1.968  0.00  0.00    -0.004 A 
ATOM      5  C6  UNL d   1       1.166   1.618   1.353  0.00  0.00     0.002 A 
ATOM      6  C7  UNL d   1       1.968   2.324   0.455  0.00  0.00     0.002 A 
ENDROOT
BRANCH   1   7
ATOM      7  C1  UNL d   1       4.114   2.618  -0.840  0.00  0.00     0.055 C 
ATOM      8  C   UNL d   1       3.642   2.350  -2.262  0.00  0.00     0.019 C 
ENDBRANCH   1   7
TORSDOF 1
ENDMDL
