MODEL 1
REMARK minimizedAffinity -0.968958557
REMARK minimizedRMSD -1
REMARK  1 active torsions:
REMARK  status: ('A' for Active; 'I' for Inactive)
REMARK    1  A    between atoms: C1_2  and  C2_3 
ROOT
ATOM      1  C2  UNL d   1      -5.615   3.016   5.294  0.00  0.00    -0.077 A 
ATOM      2  C3  UNL d   1      -5.051   2.993   4.011  0.00  0.00     0.002 A 
ATOM      3  C4  UNL d   1      -4.872   1.781   3.340  0.00  0.00     0.002 A 
ATOM      4  C5  UNL d   1      -5.258   0.586   3.943  0.00  0.00    -0.004 A 
ATOM      5  C6  UNL d   1      -5.819   0.599   5.219  0.00  0.00     0.002 A 
ATOM      6  C7  UNL d   1      -5.997   1.808   5.892  0.00  0.00     0.002 A 
ENDROOT
BRANCH   1   7
ATOM      7  C1  UNL d   1      -5.854   4.326   6.000  0.00  0.00     0.055 C 
ATOM      8  C   UNL d   1      -5.555   5.508   5.089  0.00  0.00     0.019 C 
ENDBRANCH   1   7
TORSDOF 1
ENDMDL
