MODEL 1
REMARK minimizedAffinity 9.37052631
REMARK minimizedRMSD -1
REMARK  1 active torsions:
REMARK  status: ('A' for Active; 'I' for Inactive)
REMARK    1  A    between atoms: C1_2  and  C2_3 
ROOT
ATOM      1  C2  UNL d   1      -5.531   5.316   2.721  0.00  0.00    -0.077 A 
ATOM      2  C3  UNL d   1      -5.128   3.974   2.693  0.00  0.00     0.002 A 
ATOM      3  C4  UNL d   1      -4.737   3.329   3.868  0.00  0.00     0.002 A 
ATOM      4  C5  UNL d   1      -4.748   4.017   5.079  0.00  0.00    -0.004 A 
ATOM      5  C6  UNL d   1      -5.144   5.353   5.118  0.00  0.00     0.002 A 
ATOM      6  C7  UNL d   1      -5.535   5.999   3.944  0.00  0.00     0.002 A 
ENDROOT
BRANCH   1   7
ATOM      7  C1  UNL d   1      -6.000   5.999   1.464  0.00  0.00     0.055 C 
ATOM      8  C   UNL d   1      -5.127   5.629   0.274  0.00  0.00     0.019 C 
ENDBRANCH   1   7
TORSDOF 1
ENDMDL
