MODEL 1
REMARK minimizedAffinity 1.07023537
REMARK minimizedRMSD -1
REMARK  1 active torsions:
REMARK  status: ('A' for Active; 'I' for Inactive)
REMARK    1  A    between atoms: C1_2  and  C2_3 
ROOT
ATOM      1  C2  UNL d   1      -5.626   2.546   5.091  0.00  0.00    -0.077 A 
ATOM      2  C3  UNL d   1      -5.250   2.688   3.747  0.00  0.00     0.002 A 
ATOM      3  C4  UNL d   1      -5.248   1.582   2.894  0.00  0.00     0.002 A 
ATOM      4  C5  UNL d   1      -5.626   0.330   3.374  0.00  0.00    -0.004 A 
ATOM      5  C6  UNL d   1      -5.999   0.179   4.709  0.00  0.00     0.002 A 
ATOM      6  C7  UNL d   1      -6.000   1.282   5.563  0.00  0.00     0.002 A 
ENDROOT
BRANCH   1   7
ATOM      7  C1  UNL d   1      -5.675   3.747   6.000  0.00  0.00     0.055 C 
ATOM      8  C   UNL d   1      -4.552   4.725   5.687  0.00  0.00     0.019 C 
ENDBRANCH   1   7
TORSDOF 1
ENDMDL
