MODEL 1
REMARK minimizedAffinity 10.0218325
REMARK minimizedRMSD -1
REMARK  1 active torsions:
REMARK  status: ('A' for Active; 'I' for Inactive)
REMARK    1  A    between atoms: C1_2  and  C2_3 
ROOT
ATOM      1  C2  UNL d   1       1.637   0.312   2.234  0.00  0.00    -0.077 A 
ATOM      2  C3  UNL d   1       1.189   1.635   2.115  0.00  0.00     0.002 A 
ATOM      3  C4  UNL d   1       0.332   2.180   3.072  0.00  0.00     0.002 A 
ATOM      4  C5  UNL d   1      -0.082   1.411   4.158  0.00  0.00    -0.004 A 
ATOM      5  C6  UNL d   1       0.356   0.093   4.285  0.00  0.00     0.002 A 
ATOM      6  C7  UNL d   1       1.212  -0.454   3.328  0.00  0.00     0.002 A 
ENDROOT
BRANCH   1   7
ATOM      7  C1  UNL d   1       2.601  -0.261   1.229  0.00  0.00     0.055 C 
ATOM      8  C   UNL d   1       3.911  -0.668   1.887  0.00  0.00     0.019 C 
ENDBRANCH   1   7
TORSDOF 1
ENDMDL
