MODEL 1
REMARK minimizedAffinity 12.8153305
REMARK minimizedRMSD -1
REMARK  1 active torsions:
REMARK  status: ('A' for Active; 'I' for Inactive)
REMARK    1  A    between atoms: C1_2  and  C2_3 
ROOT
ATOM      1  C2  UNL d   1      -3.361  -3.849  -2.592  0.00  0.00    -0.077 A 
ATOM      2  C3  UNL d   1      -3.028  -5.015  -1.888  0.00  0.00     0.002 A 
ATOM      3  C4  UNL d   1      -3.992  -5.997  -1.654  0.00  0.00     0.002 A 
ATOM      4  C5  UNL d   1      -5.293  -5.825  -2.123  0.00  0.00    -0.004 A 
ATOM      5  C6  UNL d   1      -5.634  -4.668  -2.822  0.00  0.00     0.002 A 
ATOM      6  C7  UNL d   1      -4.672  -3.685  -3.057  0.00  0.00     0.002 A 
ENDROOT
BRANCH   1   7
ATOM      7  C1  UNL d   1      -2.310  -2.811  -2.889  0.00  0.00     0.055 C 
ATOM      8  C   UNL d   1      -1.879  -2.082  -1.625  0.00  0.00     0.019 C 
ENDBRANCH   1   7
TORSDOF 1
ENDMDL
