MODEL 1
REMARK minimizedAffinity 15.0825396
REMARK minimizedRMSD -1
REMARK  1 active torsions:
REMARK  status: ('A' for Active; 'I' for Inactive)
REMARK    1  A    between atoms: C1_2  and  C2_3 
ROOT
ATOM      1  C2  UNL d   1      -3.454  -5.148  -2.518  0.00  0.00    -0.077 A 
ATOM      2  C3  UNL d   1      -2.267  -5.731  -2.982  0.00  0.00     0.002 A 
ATOM      3  C4  UNL d   1      -1.272  -4.941  -3.561  0.00  0.00     0.002 A 
ATOM      4  C5  UNL d   1      -1.453  -3.564  -3.678  0.00  0.00    -0.004 A 
ATOM      5  C6  UNL d   1      -2.631  -2.975  -3.221  0.00  0.00     0.002 A 
ATOM      6  C7  UNL d   1      -3.627  -3.764  -2.643  0.00  0.00     0.002 A 
ENDROOT
BRANCH   1   7
ATOM      7  C1  UNL d   1      -4.507  -5.992  -1.848  0.00  0.00     0.055 C 
ATOM      8  C   UNL d   1      -5.803  -5.996  -2.646  0.00  0.00     0.019 C 
ENDBRANCH   1   7
TORSDOF 1
ENDMDL
