MODEL 1
REMARK minimizedAffinity 10.026185
REMARK minimizedRMSD -1
REMARK  1 active torsions:
REMARK  status: ('A' for Active; 'I' for Inactive)
REMARK    1  A    between atoms: C1_2  and  C2_3 
ROOT
ATOM      1  C2  UNL d   1       4.220   4.864   3.017  0.00  0.00    -0.077 A 
ATOM      2  C3  UNL d   1       4.082   5.926   3.923  0.00  0.00     0.002 A 
ATOM      3  C4  UNL d   1       4.897   6.000   5.054  0.00  0.00     0.002 A 
ATOM      4  C5  UNL d   1       5.857   5.018   5.289  0.00  0.00    -0.004 A 
ATOM      5  C6  UNL d   1       6.000   3.957   4.396  0.00  0.00     0.002 A 
ATOM      6  C7  UNL d   1       5.186   3.881   3.265  0.00  0.00     0.002 A 
ENDROOT
BRANCH   1   7
ATOM      7  C1  UNL d   1       3.376   4.810   1.771  0.00  0.00     0.055 C 
ATOM      8  C   UNL d   1       2.968   3.381   1.441  0.00  0.00     0.019 C 
ENDBRANCH   1   7
TORSDOF 1
ENDMDL
