MODEL 1
REMARK minimizedAffinity 15.4854717
REMARK minimizedRMSD -1
REMARK  1 active torsions:
REMARK  status: ('A' for Active; 'I' for Inactive)
REMARK    1  A    between atoms: C1_2  and  C2_3 
ROOT
ATOM      1  C2  UNL d   1      -3.014  -3.664  -2.290  0.00  0.00    -0.077 A 
ATOM      2  C3  UNL d   1      -2.813  -2.674  -1.319  0.00  0.00     0.002 A 
ATOM      3  C4  UNL d   1      -1.815  -1.712  -1.487  0.00  0.00     0.002 A 
ATOM      4  C5  UNL d   1      -1.013  -1.729  -2.626  0.00  0.00    -0.004 A 
ATOM      5  C6  UNL d   1      -1.204  -2.712  -3.597  0.00  0.00     0.002 A 
ATOM      6  C7  UNL d   1      -2.201  -3.674  -3.430  0.00  0.00     0.002 A 
ENDROOT
BRANCH   1   7
ATOM      7  C1  UNL d   1      -4.123  -4.673  -2.135  0.00  0.00     0.055 C 
ATOM      8  C   UNL d   1      -3.624  -5.944  -1.463  0.00  0.00     0.019 C 
ENDBRANCH   1   7
TORSDOF 1
ENDMDL
