MODEL 1
REMARK minimizedAffinity 11.9020739
REMARK minimizedRMSD -1
REMARK  1 active torsions:
REMARK  status: ('A' for Active; 'I' for Inactive)
REMARK    1  A    between atoms: C1_2  and  C2_3 
ROOT
ATOM      1  C2  UNL d   1      -4.435   2.865   4.904  0.00  0.00    -0.077 A 
ATOM      2  C3  UNL d   1      -5.196   1.698   4.748  0.00  0.00     0.002 A 
ATOM      3  C4  UNL d   1      -4.781   0.696   3.867  0.00  0.00     0.002 A 
ATOM      4  C5  UNL d   1      -3.603   0.850   3.140  0.00  0.00    -0.004 A 
ATOM      5  C6  UNL d   1      -2.840   2.008   3.286  0.00  0.00     0.002 A 
ATOM      6  C7  UNL d   1      -3.254   3.011   4.165  0.00  0.00     0.002 A 
ENDROOT
BRANCH   1   7
ATOM      7  C1  UNL d   1      -4.855   3.924   5.889  0.00  0.00     0.055 C 
ATOM      8  C   UNL d   1      -5.435   5.140   5.181  0.00  0.00     0.019 C 
ENDBRANCH   1   7
TORSDOF 1
ENDMDL
