MODEL 1
REMARK minimizedAffinity 5.10198498
REMARK minimizedRMSD -1
REMARK  1 active torsions:
REMARK  status: ('A' for Active; 'I' for Inactive)
REMARK    1  A    between atoms: C1_2  and  C2_3 
ROOT
ATOM      1  C2  UNL d   1      -1.361  -3.672   0.171  0.00  0.00    -0.077 A 
ATOM      2  C3  UNL d   1      -0.367  -4.661   0.199  0.00  0.00     0.002 A 
ATOM      3  C4  UNL d   1      -0.541  -5.817   0.962  0.00  0.00     0.002 A 
ATOM      4  C5  UNL d   1      -1.710  -5.997   1.699  0.00  0.00    -0.004 A 
ATOM      5  C6  UNL d   1      -2.703  -5.019   1.680  0.00  0.00     0.002 A 
ATOM      6  C7  UNL d   1      -2.530  -3.862   0.918  0.00  0.00     0.002 A 
ENDROOT
BRANCH   1   7
ATOM      7  C1  UNL d   1      -1.195  -2.448  -0.690  0.00  0.00     0.055 C 
ATOM      8  C   UNL d   1      -2.289  -2.361  -1.745  0.00  0.00     0.019 C 
ENDBRANCH   1   7
TORSDOF 1
ENDMDL
