MODEL 1
REMARK minimizedAffinity 13.1237736
REMARK minimizedRMSD -1
REMARK  1 active torsions:
REMARK  status: ('A' for Active; 'I' for Inactive)
REMARK    1  A    between atoms: C1_2  and  C2_3 
ROOT
ATOM      1  C2  UNL d   1      -3.383  -3.703  -2.714  0.00  0.00    -0.077 A 
ATOM      2  C3  UNL d   1      -3.274  -4.990  -2.169  0.00  0.00     0.002 A 
ATOM      3  C4  UNL d   1      -4.356  -5.872  -2.218  0.00  0.00     0.002 A 
ATOM      4  C5  UNL d   1      -5.551  -5.478  -2.815  0.00  0.00    -0.004 A 
ATOM      5  C6  UNL d   1      -5.670  -4.199  -3.358  0.00  0.00     0.002 A 
ATOM      6  C7  UNL d   1      -4.591  -3.316  -3.309  0.00  0.00     0.002 A 
ENDROOT
BRANCH   1   7
ATOM      7  C1  UNL d   1      -2.202  -2.768  -2.706  0.00  0.00     0.055 C 
ATOM      8  C   UNL d   1      -2.056  -2.073  -1.361  0.00  0.00     0.019 C 
ENDBRANCH   1   7
TORSDOF 1
ENDMDL
