MODEL 1
REMARK minimizedAffinity 11.2776585
REMARK minimizedRMSD -1
REMARK  1 active torsions:
REMARK  status: ('A' for Active; 'I' for Inactive)
REMARK    1  A    between atoms: C1_2  and  C2_3 
ROOT
ATOM      1  C2  UNL d   1       4.685   5.181   3.227  0.00  0.00    -0.077 A 
ATOM      2  C3  UNL d   1       5.837   4.958   3.993  0.00  0.00     0.002 A 
ATOM      3  C4  UNL d   1       5.846   5.254   5.358  0.00  0.00     0.002 A 
ATOM      4  C5  UNL d   1       4.705   5.771   5.968  0.00  0.00    -0.004 A 
ATOM      5  C6  UNL d   1       3.555   5.999   5.214  0.00  0.00     0.002 A 
ATOM      6  C7  UNL d   1       3.544   5.705   3.849  0.00  0.00     0.002 A 
ENDROOT
BRANCH   1   7
ATOM      7  C1  UNL d   1       4.657   4.816   1.766  0.00  0.00     0.055 C 
ATOM      8  C   UNL d   1       4.283   3.355   1.567  0.00  0.00     0.019 C 
ENDBRANCH   1   7
TORSDOF 1
ENDMDL
