MODEL 1
REMARK minimizedAffinity -0.731597722
REMARK minimizedRMSD -1
REMARK  2 active torsions:
REMARK  status: ('A' for Active; 'I' for Inactive)
REMARK    1  A    between atoms: C2'_3  and  C1'_4 
REMARK    2  A    between atoms: C1'_4  and  C1_5 
ROOT
ATOM      1  C1  I4B d   1       0.942   0.832   0.076  0.00  0.00    -0.075 A 
ATOM      2  C2  I4B d   1       0.309  -0.342   0.401  0.00  0.00     0.003 A 
ATOM      3  C3  I4B d   1      -0.836  -0.758  -0.321  0.00  0.00     0.002 A 
ATOM      4  C4  I4B d   1      -1.340   0.050  -1.320  0.00  0.00    -0.004 A 
ATOM      5  C5  I4B d   1      -0.683   1.228  -1.663  0.00  0.00     0.002 A 
ATOM      6  C6  I4B d   1       0.472   1.616  -0.969  0.00  0.00     0.003 A 
ENDROOT
BRANCH   1   7
ATOM      7  C1' I4B d   1       2.129   1.257   0.881  0.00  0.00     0.060 C 
BRANCH   7   8
ATOM      8  C2' I4B d   1       2.754   2.455   0.195  0.00  0.00    -0.013 C 
ATOM      9  C4' I4B d   1       2.708   3.674   1.078  0.00  0.00     0.013 C 
ATOM     10  C3' I4B d   1       4.166   2.099  -0.163  0.00  0.00     0.013 C 
ENDBRANCH   7   8
ENDBRANCH   1   7
TORSDOF 2
ENDMDL
