MODEL 1
REMARK minimizedAffinity -3.92394876
REMARK minimizedRMSD -1
REMARK  2 active torsions:
REMARK  status: ('A' for Active; 'I' for Inactive)
REMARK    1  A    between atoms: C2'_3  and  C1'_4 
REMARK    2  A    between atoms: C1'_4  and  C1_5 
ROOT
ATOM      1  C1  I4B d   1       0.401   0.482  -0.055  0.00  0.00    -0.075 A 
ATOM      2  C2  I4B d   1      -0.308   1.652  -0.167  0.00  0.00     0.003 A 
ATOM      3  C3  I4B d   1      -1.605   1.648  -0.737  0.00  0.00     0.002 A 
ATOM      4  C4  I4B d   1      -2.130   0.468  -1.223  0.00  0.00    -0.004 A 
ATOM      5  C5  I4B d   1      -1.419  -0.721  -1.087  0.00  0.00     0.002 A 
ATOM      6  C6  I4B d   1      -0.150  -0.717  -0.488  0.00  0.00     0.003 A 
ENDROOT
BRANCH   1   7
ATOM      7  C1' I4B d   1       1.780   0.528   0.521  0.00  0.00     0.060 C 
BRANCH   7   8
ATOM      8  C2' I4B d   1       2.187   1.983   0.644  0.00  0.00    -0.013 C 
ATOM      9  C4' I4B d   1       2.619   2.311   2.049  0.00  0.00     0.013 C 
ATOM     10  C3' I4B d   1       3.292   2.239  -0.336  0.00  0.00     0.013 C 
ENDBRANCH   7   8
ENDBRANCH   1   7
TORSDOF 2
ENDMDL
