MODEL 1
REMARK minimizedAffinity -4.11572981
REMARK minimizedRMSD -1
REMARK  2 active torsions:
REMARK  status: ('A' for Active; 'I' for Inactive)
REMARK    1  A    between atoms: C2'_3  and  C1'_4 
REMARK    2  A    between atoms: C1'_4  and  C1_5 
ROOT
ATOM      1  C1  I4B d   1       0.990   0.452   0.293  0.00  0.00    -0.075 A 
ATOM      2  C2  I4B d   1       0.460   1.394   1.139  0.00  0.00     0.003 A 
ATOM      3  C3  I4B d   1       1.282   2.416   1.673  0.00  0.00     0.002 A 
ATOM      4  C4  I4B d   1       2.630   2.428   1.378  0.00  0.00    -0.004 A 
ATOM      5  C5  I4B d   1       3.161   1.485   0.502  0.00  0.00     0.002 A 
ATOM      6  C6  I4B d   1       2.334   0.498  -0.054  0.00  0.00     0.003 A 
ENDROOT
BRANCH   1   7
ATOM      7  C1' I4B d   1       0.100  -0.632  -0.227  0.00  0.00     0.060 C 
BRANCH   7   8
ATOM      8  C2' I4B d   1      -0.988   0.016  -1.058  0.00  0.00    -0.013 C 
ATOM      9  C4' I4B d   1      -0.455   0.483  -2.387  0.00  0.00     0.013 C 
ATOM     10  C3' I4B d   1      -2.090  -0.984  -1.239  0.00  0.00     0.013 C 
ENDBRANCH   7   8
ENDBRANCH   1   7
TORSDOF 2
ENDMDL
