MODEL 1
REMARK minimizedAffinity -2.71307993
REMARK minimizedRMSD -1
REMARK  2 active torsions:
REMARK  status: ('A' for Active; 'I' for Inactive)
REMARK    1  A    between atoms: C2'_3  and  C1'_4 
REMARK    2  A    between atoms: C1'_4  and  C1_5 
ROOT
ATOM      1  C1  I4B d   1       0.952   1.211   0.168  0.00  0.00    -0.075 A 
ATOM      2  C2  I4B d   1       0.687  -0.135   0.217  0.00  0.00     0.003 A 
ATOM      3  C3  I4B d   1      -0.221  -0.717  -0.702  0.00  0.00     0.002 A 
ATOM      4  C4  I4B d   1      -0.874   0.088  -1.613  0.00  0.00    -0.004 A 
ATOM      5  C5  I4B d   1      -0.587   1.448  -1.675  0.00  0.00     0.002 A 
ATOM      6  C6  I4B d   1       0.341   2.012  -0.788  0.00  0.00     0.003 A 
ENDROOT
BRANCH   1   7
ATOM      7  C1' I4B d   1       1.891   1.797   1.174  0.00  0.00     0.060 C 
BRANCH   7   8
ATOM      8  C2' I4B d   1       2.709   2.868   0.481  0.00  0.00    -0.013 C 
ATOM      9  C4' I4B d   1       3.394   3.762   1.480  0.00  0.00     0.013 C 
ATOM     10  C3' I4B d   1       3.705   2.186  -0.409  0.00  0.00     0.013 C 
ENDBRANCH   7   8
ENDBRANCH   1   7
TORSDOF 2
ENDMDL
