MODEL 1
REMARK minimizedAffinity -0.441746324
REMARK minimizedRMSD -1
REMARK  2 active torsions:
REMARK  status: ('A' for Active; 'I' for Inactive)
REMARK    1  A    between atoms: C2'_3  and  C1'_4 
REMARK    2  A    between atoms: C1'_4  and  C1_5 
ROOT
ATOM      1  C1  I4B d   1      -0.482  -1.613  -0.077  0.00  0.00    -0.075 A 
ATOM      2  C2  I4B d   1       0.123  -2.165   1.025  0.00  0.00     0.003 A 
ATOM      3  C3  I4B d   1      -0.536  -3.173   1.769  0.00  0.00     0.002 A 
ATOM      4  C4  I4B d   1      -1.810  -3.561   1.409  0.00  0.00    -0.004 A 
ATOM      5  C5  I4B d   1      -2.412  -3.017   0.278  0.00  0.00     0.002 A 
ATOM      6  C6  I4B d   1      -1.739  -2.045  -0.477  0.00  0.00     0.003 A 
ENDROOT
BRANCH   1   7
ATOM      7  C1' I4B d   1       0.229  -0.526  -0.820  0.00  0.00     0.060 C 
BRANCH   7   8
ATOM      8  C2' I4B d   1       0.188   0.726   0.031  0.00  0.00    -0.013 C 
ATOM      9  C4' I4B d   1       1.522   1.426   0.035  0.00  0.00     0.013 C 
ATOM     10  C3' I4B d   1      -0.890   1.618  -0.508  0.00  0.00     0.013 C 
ENDBRANCH   7   8
ENDBRANCH   1   7
TORSDOF 2
ENDMDL
