MODEL 1
REMARK minimizedAffinity 0.312150359
REMARK minimizedRMSD -1
REMARK  2 active torsions:
REMARK  status: ('A' for Active; 'I' for Inactive)
REMARK    1  A    between atoms: C2'_3  and  C1'_4 
REMARK    2  A    between atoms: C1'_4  and  C1_5 
ROOT
ATOM      1  C1  I4B d   1       0.763   0.362   0.013  0.00  0.00    -0.075 A 
ATOM      2  C2  I4B d   1       0.163   0.919  -1.089  0.00  0.00     0.003 A 
ATOM      3  C3  I4B d   1      -1.130   0.501  -1.484  0.00  0.00     0.002 A 
ATOM      4  C4  I4B d   1      -1.763  -0.506  -0.783  0.00  0.00    -0.004 A 
ATOM      5  C5  I4B d   1      -1.163  -1.053   0.347  0.00  0.00     0.002 A 
ATOM      6  C6  I4B d   1       0.102  -0.609   0.756  0.00  0.00     0.003 A 
ENDROOT
BRANCH   1   7
ATOM      7  C1' I4B d   1       2.144   0.803   0.383  0.00  0.00     0.060 C 
BRANCH   7   8
ATOM      8  C2' I4B d   1       2.200   2.312   0.257  0.00  0.00    -0.013 C 
ATOM      9  C4' I4B d   1       2.260   2.970   1.611  0.00  0.00     0.013 C 
ATOM     10  C3' I4B d   1       3.402   2.663  -0.569  0.00  0.00     0.013 C 
ENDBRANCH   7   8
ENDBRANCH   1   7
TORSDOF 2
ENDMDL
