MODEL 1
REMARK minimizedAffinity -1.77461755
REMARK minimizedRMSD -1
REMARK  2 active torsions:
REMARK  status: ('A' for Active; 'I' for Inactive)
REMARK    1  A    between atoms: C2'_3  and  C1'_4 
REMARK    2  A    between atoms: C1'_4  and  C1_5 
ROOT
ATOM      1  C1  I4B d   1       0.841   0.087   0.069  0.00  0.00    -0.075 A 
ATOM      2  C2  I4B d   1       0.220   1.112  -0.599  0.00  0.00     0.003 A 
ATOM      3  C3  I4B d   1      -1.120   0.970  -1.036  0.00  0.00     0.002 A 
ATOM      4  C4  I4B d   1      -1.778  -0.225  -0.830  0.00  0.00    -0.004 A 
ATOM      5  C5  I4B d   1      -1.154  -1.255  -0.132  0.00  0.00     0.002 A 
ATOM      6  C6  I4B d   1       0.160  -1.094   0.331  0.00  0.00     0.003 A 
ENDROOT
BRANCH   1   7
ATOM      7  C1' I4B d   1       2.267   0.259   0.487  0.00  0.00     0.060 C 
BRANCH   7   8
ATOM      8  C2' I4B d   1       2.553   1.745   0.569  0.00  0.00    -0.013 C 
ATOM      9  C4' I4B d   1       3.012   2.136   1.949  0.00  0.00     0.013 C 
ATOM     10  C3' I4B d   1       3.593   2.074  -0.460  0.00  0.00     0.013 C 
ENDBRANCH   7   8
ENDBRANCH   1   7
TORSDOF 2
ENDMDL
