MODEL 1
REMARK minimizedAffinity -2.15615368
REMARK minimizedRMSD -1
REMARK  2 active torsions:
REMARK  status: ('A' for Active; 'I' for Inactive)
REMARK    1  A    between atoms: C2'_3  and  C1'_4 
REMARK    2  A    between atoms: C1'_4  and  C1_5 
ROOT
ATOM      1  C1  I4B d   1       0.560   0.426  -0.249  0.00  0.00    -0.075 A 
ATOM      2  C2  I4B d   1      -0.072   1.440  -0.925  0.00  0.00     0.003 A 
ATOM      3  C3  I4B d   1      -1.408   1.280  -1.364  0.00  0.00     0.002 A 
ATOM      4  C4  I4B d   1      -2.054   0.079  -1.153  0.00  0.00    -0.004 A 
ATOM      5  C5  I4B d   1      -1.420  -0.940  -0.448  0.00  0.00     0.002 A 
ATOM      6  C6  I4B d   1      -0.109  -0.761   0.018  0.00  0.00     0.003 A 
ENDROOT
BRANCH   1   7
ATOM      7  C1' I4B d   1       1.983   0.617   0.171  0.00  0.00     0.060 C 
BRANCH   7   8
ATOM      8  C2' I4B d   1       2.149   2.056   0.614  0.00  0.00    -0.013 C 
ATOM      9  C4' I4B d   1       2.566   2.138   2.059  0.00  0.00     0.013 C 
ATOM     10  C3' I4B d   1       3.166   2.701  -0.280  0.00  0.00     0.013 C 
ENDBRANCH   7   8
ENDBRANCH   1   7
TORSDOF 2
ENDMDL
