MODEL 1
REMARK minimizedAffinity -2.85159445
REMARK minimizedRMSD -1
REMARK  2 active torsions:
REMARK  status: ('A' for Active; 'I' for Inactive)
REMARK    1  A    between atoms: C2'_3  and  C1'_4 
REMARK    2  A    between atoms: C1'_4  and  C1_5 
ROOT
ATOM      1  C1  I4B d   1      -0.180  -0.535   0.010  0.00  0.00    -0.075 A 
ATOM      2  C2  I4B d   1      -0.964  -0.273  -1.086  0.00  0.00     0.003 A 
ATOM      3  C3  I4B d   1      -2.148  -1.018  -1.309  0.00  0.00     0.002 A 
ATOM      4  C4  I4B d   1      -2.480  -2.041  -0.445  0.00  0.00    -0.004 A 
ATOM      5  C5  I4B d   1      -1.695  -2.290   0.678  0.00  0.00     0.002 A 
ATOM      6  C6  I4B d   1      -0.544  -1.524   0.914  0.00  0.00     0.003 A 
ENDROOT
BRANCH   1   7
ATOM      7  C1' I4B d   1       1.081   0.249   0.197  0.00  0.00     0.060 C 
BRANCH   7   8
ATOM      8  C2' I4B d   1       0.768   1.430   1.092  0.00  0.00    -0.013 C 
ATOM      9  C4' I4B d   1       2.029   2.096   1.577  0.00  0.00     0.013 C 
ATOM     10  C3' I4B d   1      -0.085   2.387   0.315  0.00  0.00     0.013 C 
ENDBRANCH   7   8
ENDBRANCH   1   7
TORSDOF 2
ENDMDL
