MODEL 1
REMARK minimizedAffinity -3.25581908
REMARK minimizedRMSD -1
REMARK  2 active torsions:
REMARK  status: ('A' for Active; 'I' for Inactive)
REMARK    1  A    between atoms: C2'_3  and  C1'_4 
REMARK    2  A    between atoms: C1'_4  and  C1_5 
ROOT
ATOM      1  C1  I4B d   1       0.370   1.812   0.165  0.00  0.00    -0.075 A 
ATOM      2  C2  I4B d   1       0.727   3.131   0.031  0.00  0.00     0.003 A 
ATOM      3  C3  I4B d   1       1.987   3.578   0.497  0.00  0.00     0.002 A 
ATOM      4  C4  I4B d   1       2.831   2.691   1.133  0.00  0.00    -0.004 A 
ATOM      5  C5  I4B d   1       2.476   1.350   1.247  0.00  0.00     0.002 A 
ATOM      6  C6  I4B d   1       1.243   0.905   0.749  0.00  0.00     0.003 A 
ENDROOT
BRANCH   1   7
ATOM      7  C1' I4B d   1      -0.982   1.380  -0.309  0.00  0.00     0.060 C 
BRANCH   7   8
ATOM      8  C2' I4B d   1      -0.819   0.071  -1.055  0.00  0.00    -0.013 C 
ATOM      9  C4' I4B d   1      -2.148  -0.602  -1.272  0.00  0.00     0.013 C 
ATOM     10  C3' I4B d   1      -0.140   0.363  -2.360  0.00  0.00     0.013 C 
ENDBRANCH   7   8
ENDBRANCH   1   7
TORSDOF 2
ENDMDL
