MODEL 1
REMARK minimizedAffinity -0.55734092
REMARK minimizedRMSD -1
REMARK  2 active torsions:
REMARK  status: ('A' for Active; 'I' for Inactive)
REMARK    1  A    between atoms: C2'_3  and  C1'_4 
REMARK    2  A    between atoms: C1'_4  and  C1_5 
ROOT
ATOM      1  C1  I4B d   1      -0.298   0.555  -0.098  0.00  0.00    -0.075 A 
ATOM      2  C2  I4B d   1      -0.023  -0.508   0.724  0.00  0.00     0.003 A 
ATOM      3  C3  I4B d   1      -0.756  -1.713   0.601  0.00  0.00     0.002 A 
ATOM      4  C4  I4B d   1      -1.783  -1.793  -0.317  0.00  0.00    -0.004 A 
ATOM      5  C5  I4B d   1      -2.045  -0.722  -1.166  0.00  0.00     0.002 A 
ATOM      6  C6  I4B d   1      -1.291   0.456  -1.065  0.00  0.00     0.003 A 
ENDROOT
BRANCH   1   7
ATOM      7  C1' I4B d   1       0.473   1.824   0.081  0.00  0.00     0.060 C 
BRANCH   7   8
ATOM      8  C2' I4B d   1       1.834   1.468   0.644  0.00  0.00    -0.013 C 
ATOM      9  C4' I4B d   1       2.836   1.237  -0.457  0.00  0.00     0.013 C 
ATOM     10  C3' I4B d   1       2.269   2.583   1.546  0.00  0.00     0.013 C 
ENDBRANCH   7   8
ENDBRANCH   1   7
TORSDOF 2
ENDMDL
