MODEL 1
REMARK minimizedAffinity 11.7161169
REMARK minimizedRMSD -1
REMARK  3 active torsions:
REMARK  status: ('A' for Active; 'I' for Inactive)
REMARK    1  A    between atoms: C3'_2  and  C2'_3 
REMARK    2  A    between atoms: C2'_3  and  C1'_4 
REMARK    3  A    between atoms: C1'_4  and  C1_5 
ROOT
ATOM      1  C1  N4B d   1       0.912  -2.150   1.834  0.00  0.00    -0.075 A 
ATOM      2  C2  N4B d   1       1.453  -3.444   2.000  0.00  0.00     0.002 A 
ATOM      3  C3  N4B d   1       2.315  -3.954   1.061  0.00  0.00     0.002 A 
ATOM      4  C4  N4B d   1       2.635  -3.199  -0.058  0.00  0.00    -0.004 A 
ATOM      5  C5  N4B d   1       2.129  -1.940  -0.198  0.00  0.00     0.002 A 
ATOM      6  C6  N4B d   1       1.264  -1.413   0.741  0.00  0.00     0.002 A 
ENDROOT
BRANCH   1   7
ATOM      7  C1' N4B d   1      -0.101  -1.584   2.791  0.00  0.00     0.057 C 
BRANCH   7   8
ATOM      8  C2' N4B d   1      -1.301  -2.523   2.863  0.00  0.00     0.009 C 
BRANCH   8   9
ATOM      9  C3' N4B d   1      -2.283  -2.278   1.730  0.00  0.00     0.004 C 
ATOM     10  C4' N4B d   1      -3.108  -1.042   1.933  0.00  0.00     0.003 C 
ENDBRANCH   8   9
ENDBRANCH   7   8
ENDBRANCH   1   7
TORSDOF 3
ENDMDL
