MODEL 1
REMARK minimizedAffinity 4.5667882
REMARK minimizedRMSD -1
REMARK  3 active torsions:
REMARK  status: ('A' for Active; 'I' for Inactive)
REMARK    1  A    between atoms: C3'_2  and  C2'_3 
REMARK    2  A    between atoms: C2'_3  and  C1'_4 
REMARK    3  A    between atoms: C1'_4  and  C1_5 
ROOT
ATOM      1  C1  N4B d   1       0.641  -1.690   2.066  0.00  0.00    -0.075 A 
ATOM      2  C2  N4B d   1       1.365  -2.896   2.188  0.00  0.00     0.002 A 
ATOM      3  C3  N4B d   1       2.011  -3.422   1.096  0.00  0.00     0.002 A 
ATOM      4  C4  N4B d   1       1.930  -2.774  -0.127  0.00  0.00    -0.004 A 
ATOM      5  C5  N4B d   1       1.250  -1.596  -0.230  0.00  0.00     0.002 A 
ATOM      6  C6  N4B d   1       0.600  -1.053   0.860  0.00  0.00     0.002 A 
ENDROOT
BRANCH   1   7
ATOM      7  C1' N4B d   1      -0.152  -1.120   3.211  0.00  0.00     0.057 C 
BRANCH   7   8
ATOM      8  C2' N4B d   1      -1.632  -1.112   2.840  0.00  0.00     0.009 C 
BRANCH   8   9
ATOM      9  C3' N4B d   1      -2.168  -2.515   2.612  0.00  0.00     0.004 C 
ATOM     10  C4' N4B d   1      -1.840  -3.452   3.736  0.00  0.00     0.003 C 
ENDBRANCH   8   9
ENDBRANCH   7   8
ENDBRANCH   1   7
TORSDOF 3
ENDMDL
