MODEL 1
REMARK minimizedAffinity 6.6152544
REMARK minimizedRMSD -1
REMARK  3 active torsions:
REMARK  status: ('A' for Active; 'I' for Inactive)
REMARK    1  A    between atoms: C3'_2  and  C2'_3 
REMARK    2  A    between atoms: C2'_3  and  C1'_4 
REMARK    3  A    between atoms: C1'_4  and  C1_5 
ROOT
ATOM      1  C1  N4B d   1       0.396  -1.962   2.000  0.00  0.00    -0.075 A 
ATOM      2  C2  N4B d   1       0.577  -1.494   3.321  0.00  0.00     0.002 A 
ATOM      3  C3  N4B d   1      -0.381  -0.702   3.906  0.00  0.00     0.002 A 
ATOM      4  C4  N4B d   1      -1.512  -0.350   3.186  0.00  0.00    -0.004 A 
ATOM      5  C5  N4B d   1      -1.691  -0.826   1.920  0.00  0.00     0.002 A 
ATOM      6  C6  N4B d   1      -0.739  -1.626   1.321  0.00  0.00     0.002 A 
ENDROOT
BRANCH   1   7
ATOM      7  C1' N4B d   1       1.455  -2.759   1.289  0.00  0.00     0.057 C 
BRANCH   7   8
ATOM      8  C2' N4B d   1       2.071  -3.757   2.265  0.00  0.00     0.009 C 
BRANCH   8   9
ATOM      9  C3' N4B d   1       3.530  -3.445   2.550  0.00  0.00     0.004 C 
ATOM     10  C4' N4B d   1       3.818  -3.299   4.015  0.00  0.00     0.003 C 
ENDBRANCH   8   9
ENDBRANCH   7   8
ENDBRANCH   1   7
TORSDOF 3
ENDMDL
