MODEL 1
REMARK minimizedAffinity 5.17136002
REMARK minimizedRMSD -1
REMARK  3 active torsions:
REMARK  status: ('A' for Active; 'I' for Inactive)
REMARK    1  A    between atoms: C3'_2  and  C2'_3 
REMARK    2  A    between atoms: C2'_3  and  C1'_4 
REMARK    3  A    between atoms: C1'_4  and  C1_5 
ROOT
ATOM      1  C1  N4B d   1       0.072   2.141  -3.778  0.00  0.00    -0.075 A 
ATOM      2  C2  N4B d   1       0.688   3.316  -3.295  0.00  0.00     0.002 A 
ATOM      3  C3  N4B d   1       1.500   4.054  -4.121  0.00  0.00     0.002 A 
ATOM      4  C4  N4B d   1       1.726   3.627  -5.421  0.00  0.00    -0.004 A 
ATOM      5  C5  N4B d   1       1.107   2.504  -5.887  0.00  0.00     0.002 A 
ATOM      6  C6  N4B d   1       0.285   1.755  -5.070  0.00  0.00     0.002 A 
ENDROOT
BRANCH   1   7
ATOM      7  C1' N4B d   1      -0.756   1.255  -2.887  0.00  0.00     0.057 C 
BRANCH   7   8
ATOM      8  C2' N4B d   1       0.156   0.576  -1.869  0.00  0.00     0.009 C 
BRANCH   8   9
ATOM      9  C3' N4B d   1      -0.025  -0.932  -1.861  0.00  0.00     0.004 C 
ATOM     10  C4' N4B d   1       0.821  -1.613  -0.827  0.00  0.00     0.003 C 
ENDBRANCH   8   9
ENDBRANCH   7   8
ENDBRANCH   1   7
TORSDOF 3
ENDMDL
