MODEL 1
REMARK minimizedAffinity -0.712055027
REMARK minimizedRMSD -1
REMARK  0 active torsions:
REMARK  status: ('A' for Active; 'I' for Inactive)
ROOT
ATOM      1  C   UNL d   1      -2.597   2.865   4.945  0.00  0.00     0.020 A 
ATOM      2  C1  UNL d   1      -3.581   3.683   4.392  0.00  0.00     0.020 A 
ATOM      3  C2  UNL d   1      -4.290   3.259   3.266  0.00  0.00     0.034 A 
ATOM      4  C3  UNL d   1      -4.015   2.014   2.689  0.00  0.00     0.017 A 
ATOM      5  C4  UNL d   1      -3.027   1.193   3.245  0.00  0.00     0.017 A 
ATOM      6  C5  UNL d   1      -2.321   1.622   4.373  0.00  0.00     0.034 A 
ATOM      7 Cl   UNL d   1      -2.632  -0.356   2.589  0.00  0.00    -0.070 Cl
ATOM      8 Cl1  UNL d   1      -4.930   1.554   1.297  0.00  0.00    -0.070 Cl
ENDROOT
TORSDOF 0
ENDMDL
