MODEL 1
REMARK minimizedAffinity -3.68702006
REMARK minimizedRMSD -1
REMARK  0 active torsions:
REMARK  status: ('A' for Active; 'I' for Inactive)
ROOT
ATOM      1  C   UNL d   1       2.228  -0.021  -2.348  0.00  0.00     0.020 A 
ATOM      2  C1  UNL d   1       1.177  -0.936  -2.398  0.00  0.00     0.020 A 
ATOM      3  C2  UNL d   1       0.120  -0.834  -1.491  0.00  0.00     0.034 A 
ATOM      4  C3  UNL d   1       0.112   0.184  -0.530  0.00  0.00     0.017 A 
ATOM      5  C4  UNL d   1       1.167   1.101  -0.481  0.00  0.00     0.017 A 
ATOM      6  C5  UNL d   1       2.223   0.995  -1.392  0.00  0.00     0.034 A 
ATOM      7 Cl   UNL d   1       1.227   2.384   0.675  0.00  0.00    -0.070 Cl
ATOM      8 Cl1  UNL d   1      -1.228   0.250   0.559  0.00  0.00    -0.070 Cl
ENDROOT
TORSDOF 0
ENDMDL
