MODEL 1
REMARK minimizedAffinity -3.61752319
REMARK minimizedRMSD -1
REMARK  0 active torsions:
REMARK  status: ('A' for Active; 'I' for Inactive)
ROOT
ATOM      1  C   UNL d   1       1.080   0.108  -3.155  0.00  0.00     0.020 A 
ATOM      2  C1  UNL d   1       2.287   0.726  -2.831  0.00  0.00     0.020 A 
ATOM      3  C2  UNL d   1       2.423   1.397  -1.613  0.00  0.00     0.034 A 
ATOM      4  C3  UNL d   1       1.350   1.450  -0.716  0.00  0.00     0.017 A 
ATOM      5  C4  UNL d   1       0.139   0.829  -1.042  0.00  0.00     0.017 A 
ATOM      6  C5  UNL d   1       0.009   0.159  -2.263  0.00  0.00     0.034 A 
ATOM      7 Cl   UNL d   1      -1.229   0.853   0.014  0.00  0.00    -0.070 Cl
ATOM      8 Cl1  UNL d   1       1.589   2.296   0.772  0.00  0.00    -0.070 Cl
ENDROOT
TORSDOF 0
ENDMDL
