MODEL 1
REMARK minimizedAffinity -1.304654
REMARK minimizedRMSD -1
REMARK  0 active torsions:
REMARK  status: ('A' for Active; 'I' for Inactive)
ROOT
ATOM      1  C   UNL d   1      -0.646   0.486   0.672  0.00  0.00     0.020 A 
ATOM      2  C1  UNL d   1       0.298   1.504   0.806  0.00  0.00     0.020 A 
ATOM      3  C2  UNL d   1       1.465   1.480   0.039  0.00  0.00     0.034 A 
ATOM      4  C3  UNL d   1       1.691   0.435  -0.864  0.00  0.00     0.017 A 
ATOM      5  C4  UNL d   1       0.744  -0.586  -0.998  0.00  0.00     0.017 A 
ATOM      6  C5  UNL d   1      -0.423  -0.557  -0.228  0.00  0.00     0.034 A 
ATOM      7 Cl   UNL d   1       0.953  -1.908  -2.091  0.00  0.00    -0.070 Cl
ATOM      8 Cl1  UNL d   1       3.156   0.468  -1.780  0.00  0.00    -0.070 Cl
ENDROOT
TORSDOF 0
ENDMDL
