MODEL 1
REMARK minimizedAffinity -1.06713796
REMARK minimizedRMSD -1
REMARK  0 active torsions:
REMARK  status: ('A' for Active; 'I' for Inactive)
ROOT
ATOM      1  C   UNL d   1      -1.074  -0.865  -0.003  0.00  0.00     0.020 A 
ATOM      2  C1  UNL d   1      -1.143  -0.095   1.157  0.00  0.00     0.020 A 
ATOM      3  C2  UNL d   1      -0.205   0.914   1.382  0.00  0.00     0.034 A 
ATOM      4  C3  UNL d   1       0.807   1.156   0.446  0.00  0.00     0.017 A 
ATOM      5  C4  UNL d   1       0.876   0.383  -0.719  0.00  0.00     0.017 A 
ATOM      6  C5  UNL d   1      -0.067  -0.626  -0.939  0.00  0.00     0.034 A 
ATOM      7 Cl   UNL d   1       2.095   0.622  -1.920  0.00  0.00    -0.070 Cl
ATOM      8 Cl1  UNL d   1       1.934   2.421   0.789  0.00  0.00    -0.070 Cl
ENDROOT
TORSDOF 0
ENDMDL
