MODEL 1
REMARK minimizedAffinity -3.58662868
REMARK minimizedRMSD -1
REMARK  0 active torsions:
REMARK  status: ('A' for Active; 'I' for Inactive)
ROOT
ATOM      1  C   UNL d   1      -0.022  -2.353   0.554  0.00  0.00     0.020 A 
ATOM      2  C1  UNL d   1      -0.131  -1.375   1.542  0.00  0.00     0.020 A 
ATOM      3  C2  UNL d   1      -0.030  -0.025   1.201  0.00  0.00     0.034 A 
ATOM      4  C3  UNL d   1       0.180   0.352  -0.130  0.00  0.00     0.017 A 
ATOM      5  C4  UNL d   1       0.289  -0.631  -1.121  0.00  0.00     0.017 A 
ATOM      6  C5  UNL d   1       0.187  -1.981  -0.775  0.00  0.00     0.034 A 
ATOM      7 Cl   UNL d   1       0.548  -0.243  -2.786  0.00  0.00    -0.070 Cl
ATOM      8 Cl1  UNL d   1       0.294   2.040  -0.479  0.00  0.00    -0.070 Cl
ENDROOT
TORSDOF 0
ENDMDL
