MODEL 1
REMARK minimizedAffinity -6.24333858
REMARK minimizedRMSD -1
REMARK  0 active torsions:
REMARK  status: ('A' for Active; 'I' for Inactive)
ROOT
ATOM      1  C   UNL d   1       1.864  -0.732  -2.852  0.00  0.00     0.020 A 
ATOM      2  C1  UNL d   1       1.607  -1.961  -2.245  0.00  0.00     0.020 A 
ATOM      3  C2  UNL d   1       1.040  -2.005  -0.969  0.00  0.00     0.034 A 
ATOM      4  C3  UNL d   1       0.729  -0.818  -0.296  0.00  0.00     0.017 A 
ATOM      5  C4  UNL d   1       0.987   0.415  -0.906  0.00  0.00     0.017 A 
ATOM      6  C5  UNL d   1       1.555   0.453  -2.184  0.00  0.00     0.034 A 
ATOM      7 Cl   UNL d   1       0.630   1.922  -0.139  0.00  0.00    -0.070 Cl
ATOM      8 Cl1  UNL d   1       0.030  -0.947   1.278  0.00  0.00    -0.070 Cl
ENDROOT
TORSDOF 0
ENDMDL
