MODEL 1
REMARK minimizedAffinity -3.61528063
REMARK minimizedRMSD -1
REMARK  0 active torsions:
REMARK  status: ('A' for Active; 'I' for Inactive)
ROOT
ATOM      1  C   UNL d   1       2.004   1.012  -1.556  0.00  0.00     0.020 A 
ATOM      2  C1  UNL d   1       1.211   1.962  -0.914  0.00  0.00     0.020 A 
ATOM      3  C2  UNL d   1       0.160   1.554  -0.091  0.00  0.00     0.034 A 
ATOM      4  C3  UNL d   1      -0.101   0.191   0.093  0.00  0.00     0.017 A 
ATOM      5  C4  UNL d   1       0.695  -0.762  -0.551  0.00  0.00     0.017 A 
ATOM      6  C5  UNL d   1       1.746  -0.348  -1.375  0.00  0.00     0.034 A 
ATOM      7 Cl   UNL d   1       0.434  -2.462  -0.373  0.00  0.00    -0.070 Cl
ATOM      8 Cl1  UNL d   1      -1.417  -0.243   1.126  0.00  0.00    -0.070 Cl
ENDROOT
TORSDOF 0
ENDMDL
