MODEL 1
REMARK minimizedAffinity -3.61896586
REMARK minimizedRMSD -1
REMARK  0 active torsions:
REMARK  status: ('A' for Active; 'I' for Inactive)
ROOT
ATOM      1  C   UNL d   1       1.492   1.652  -1.167  0.00  0.00     0.020 A 
ATOM      2  C1  UNL d   1       2.185   0.673  -1.878  0.00  0.00     0.020 A 
ATOM      3  C2  UNL d   1       2.011  -0.676  -1.560  0.00  0.00     0.034 A 
ATOM      4  C3  UNL d   1       1.142  -1.049  -0.528  0.00  0.00     0.017 A 
ATOM      5  C4  UNL d   1       0.447  -0.065   0.185  0.00  0.00     0.017 A 
ATOM      6  C5  UNL d   1       0.625   1.284  -0.138  0.00  0.00     0.034 A 
ATOM      7 Cl   UNL d   1      -0.642  -0.448   1.472  0.00  0.00    -0.070 Cl
ATOM      8 Cl1  UNL d   1       0.975  -2.735  -0.188  0.00  0.00    -0.070 Cl
ENDROOT
TORSDOF 0
ENDMDL
