MODEL 1
REMARK minimizedAffinity -3.30402756
REMARK minimizedRMSD -1
REMARK  0 active torsions:
REMARK  status: ('A' for Active; 'I' for Inactive)
ROOT
ATOM      1  C   UNL d   1       0.205  -0.157   0.439  0.00  0.00     0.020 A 
ATOM      2  C1  UNL d   1      -0.669   0.186  -0.592  0.00  0.00     0.020 A 
ATOM      3  C2  UNL d   1      -1.996   0.512  -0.303  0.00  0.00     0.034 A 
ATOM      4  C3  UNL d   1      -2.453   0.496   1.020  0.00  0.00     0.017 A 
ATOM      5  C4  UNL d   1      -1.575   0.152   2.054  0.00  0.00     0.017 A 
ATOM      6  C5  UNL d   1      -0.247  -0.174   1.759  0.00  0.00     0.034 A 
ATOM      7 Cl   UNL d   1      -2.065   0.110   3.711  0.00  0.00    -0.070 Cl
ATOM      8 Cl1  UNL d   1      -4.106   0.910   1.305  0.00  0.00    -0.070 Cl
ENDROOT
TORSDOF 0
ENDMDL
