MODEL 1
REMARK minimizedAffinity -2.09765029
REMARK minimizedRMSD -1
REMARK  0 active torsions:
REMARK  status: ('A' for Active; 'I' for Inactive)
ROOT
ATOM      1  C   UNL d   1       1.541   1.742  -1.433  0.00  0.00     0.020 A 
ATOM      2  C1  UNL d   1       2.232   0.676  -2.008  0.00  0.00     0.020 A 
ATOM      3  C2  UNL d   1       1.884  -0.637  -1.686  0.00  0.00     0.034 A 
ATOM      4  C3  UNL d   1       0.842  -0.889  -0.786  0.00  0.00     0.017 A 
ATOM      5  C4  UNL d   1       0.149   0.181  -0.209  0.00  0.00     0.017 A 
ATOM      6  C5  UNL d   1       0.501   1.495  -0.536  0.00  0.00     0.034 A 
ATOM      7 Cl   UNL d   1      -1.148  -0.050   0.910  0.00  0.00    -0.070 Cl
ATOM      8 Cl1  UNL d   1       0.466  -2.538  -0.433  0.00  0.00    -0.070 Cl
ENDROOT
TORSDOF 0
ENDMDL
