MODEL 1
REMARK minimizedAffinity -1.83984292
REMARK minimizedRMSD -1
REMARK  0 active torsions:
REMARK  status: ('A' for Active; 'I' for Inactive)
ROOT
ATOM      1  C   UNL d   1       2.661  -1.699  -1.298  0.00  0.00     0.020 A 
ATOM      2  C1  UNL d   1       1.587  -2.385  -0.735  0.00  0.00     0.020 A 
ATOM      3  C2  UNL d   1       0.465  -1.682  -0.289  0.00  0.00     0.034 A 
ATOM      4  C3  UNL d   1       0.416  -0.288  -0.406  0.00  0.00     0.017 A 
ATOM      5  C4  UNL d   1       1.496   0.400  -0.972  0.00  0.00     0.017 A 
ATOM      6  C5  UNL d   1       2.616  -0.309  -1.417  0.00  0.00     0.034 A 
ATOM      7 Cl   UNL d   1       1.508   2.119  -1.150  0.00  0.00    -0.070 Cl
ATOM      8 Cl1  UNL d   1      -1.002   0.517   0.165  0.00  0.00    -0.070 Cl
ENDROOT
TORSDOF 0
ENDMDL
