MODEL 1
REMARK minimizedAffinity -0.961463094
REMARK minimizedRMSD -1
REMARK  0 active torsions:
REMARK  status: ('A' for Active; 'I' for Inactive)
ROOT
ATOM      1  C   UNL d   1      -3.998  -0.164   0.748  0.00  0.00     0.020 A 
ATOM      2  C1  UNL d   1      -4.414   1.055   1.280  0.00  0.00     0.020 A 
ATOM      3  C2  UNL d   1      -3.585   1.752   2.162  0.00  0.00     0.034 A 
ATOM      4  C3  UNL d   1      -2.335   1.230   2.514  0.00  0.00     0.017 A 
ATOM      5  C4  UNL d   1      -1.918   0.005   1.979  0.00  0.00     0.017 A 
ATOM      6  C5  UNL d   1      -2.752  -0.688   1.096  0.00  0.00     0.034 A 
ATOM      7 Cl   UNL d   1      -0.390  -0.703   2.366  0.00  0.00    -0.070 Cl
ATOM      8 Cl1  UNL d   1      -1.361   2.145   3.609  0.00  0.00    -0.070 Cl
ENDROOT
TORSDOF 0
ENDMDL
