MODEL 1
REMARK minimizedAffinity -3.07537675
REMARK minimizedRMSD -1
REMARK  0 active torsions:
REMARK  status: ('A' for Active; 'I' for Inactive)
ROOT
ATOM      1  C   UNL d   1      -3.604   0.197   1.923  0.00  0.00     0.020 A 
ATOM      2  C1  UNL d   1      -2.440   0.601   2.577  0.00  0.00     0.020 A 
ATOM      3  C2  UNL d   1      -1.215   0.564   1.908  0.00  0.00     0.034 A 
ATOM      4  C3  UNL d   1      -1.150   0.123   0.581  0.00  0.00     0.017 A 
ATOM      5  C4  UNL d   1      -2.319  -0.282  -0.074  0.00  0.00     0.017 A 
ATOM      6  C5  UNL d   1      -3.543  -0.243   0.601  0.00  0.00     0.034 A 
ATOM      7 Cl   UNL d   1      -2.319  -0.839  -1.710  0.00  0.00    -0.070 Cl
ATOM      8 Cl1  UNL d   1       0.398   0.103  -0.185  0.00  0.00    -0.070 Cl
ENDROOT
TORSDOF 0
ENDMDL
