MODEL 1
REMARK minimizedAffinity 21.6685085
REMARK minimizedRMSD -1
REMARK  0 active torsions:
REMARK  status: ('A' for Active; 'I' for Inactive)
ROOT
ATOM      1  C   UNL d   1       1.815   2.270   1.497  0.00  0.00    -0.002 A 
ATOM      2  C1  UNL d   1       2.983   1.524   1.564  0.00  0.00     0.010 A 
ATOM      3  C2  UNL d   1       4.226   2.156   1.627  0.00  0.00     0.041 A 
ATOM      4  C3  UNL d   1       4.276   3.564   1.623  0.00  0.00    -0.075 A 
ATOM      5  S   UNL d   1       5.686   4.554   1.694  0.00  0.00     0.015 SA
ATOM      6  C4  UNL d   1       4.770   5.991   1.638  0.00  0.00     0.022 A 
ATOM      7  C5  UNL d   1       3.420   5.739   1.566  0.00  0.00     0.026 A 
ATOM      8  C6  UNL d   1       3.113   4.336   1.557  0.00  0.00    -0.082 A 
ATOM      9  C7  UNL d   1       1.868   3.666   1.493  0.00  0.00     0.045 A 
ENDROOT
TORSDOF 0
ENDMDL
