MODEL 1
REMARK minimizedAffinity 20.0181408
REMARK minimizedRMSD -1
REMARK  0 active torsions:
REMARK  status: ('A' for Active; 'I' for Inactive)
ROOT
ATOM      1  C   UNL d   1       1.465   0.378  -4.461  0.00  0.00    -0.002 A 
ATOM      2  C1  UNL d   1       1.660   1.300  -3.442  0.00  0.00     0.010 A 
ATOM      3  C2  UNL d   1       0.793   2.385  -3.291  0.00  0.00     0.041 A 
ATOM      4  C3  UNL d   1      -0.283   2.527  -4.189  0.00  0.00    -0.075 A 
ATOM      5  S   UNL d   1      -1.472   3.776  -4.196  0.00  0.00     0.015 SA
ATOM      6  C4  UNL d   1      -2.267   3.114  -5.551  0.00  0.00     0.022 A 
ATOM      7  C5  UNL d   1      -1.653   1.968  -6.000  0.00  0.00     0.026 A 
ATOM      8  C6  UNL d   1      -0.500   1.611  -5.222  0.00  0.00    -0.082 A 
ATOM      9  C7  UNL d   1       0.396   0.523  -5.349  0.00  0.00     0.045 A 
ENDROOT
TORSDOF 0
ENDMDL
