MODEL 1
REMARK minimizedAffinity 10.2983618
REMARK minimizedRMSD -1
REMARK  0 active torsions:
REMARK  status: ('A' for Active; 'I' for Inactive)
ROOT
ATOM      1  C   UNL d   1       5.937   4.830   6.000  0.00  0.00    -0.002 A 
ATOM      2  C1  UNL d   1       5.200   5.953   5.650  0.00  0.00     0.010 A 
ATOM      3  C2  UNL d   1       4.509   5.999   4.438  0.00  0.00     0.041 A 
ATOM      4  C3  UNL d   1       4.568   4.887   3.576  0.00  0.00    -0.075 A 
ATOM      5  S   UNL d   1       3.801   4.718   2.041  0.00  0.00     0.015 SA
ATOM      6  C4  UNL d   1       4.431   3.151   1.815  0.00  0.00     0.022 A 
ATOM      7  C5  UNL d   1       5.211   2.750   2.874  0.00  0.00     0.026 A 
ATOM      8  C6  UNL d   1       5.302   3.744   3.907  0.00  0.00    -0.082 A 
ATOM      9  C7  UNL d   1       5.993   3.728   5.142  0.00  0.00     0.045 A 
ENDROOT
TORSDOF 0
ENDMDL
