MODEL 1
REMARK minimizedAffinity 13.7056217
REMARK minimizedRMSD -1
REMARK  0 active torsions:
REMARK  status: ('A' for Active; 'I' for Inactive)
ROOT
ATOM      1  C   UNL d   1       1.962  -3.069   0.416  0.00  0.00    -0.002 A 
ATOM      2  C1  UNL d   1       0.983  -3.451   1.322  0.00  0.00     0.010 A 
ATOM      3  C2  UNL d   1      -0.013  -4.356   0.951  0.00  0.00     0.041 A 
ATOM      4  C3  UNL d   1      -0.008  -4.877  -0.357  0.00  0.00    -0.075 A 
ATOM      5  S   UNL d   1      -1.128  -6.000  -1.034  0.00  0.00     0.015 SA
ATOM      6  C4  UNL d   1      -0.333  -5.999  -2.541  0.00  0.00     0.022 A 
ATOM      7  C5  UNL d   1       0.762  -5.168  -2.546  0.00  0.00     0.026 A 
ATOM      8  C6  UNL d   1       0.968  -4.508  -1.288  0.00  0.00    -0.082 A 
ATOM      9  C7  UNL d   1       1.964  -3.587  -0.882  0.00  0.00     0.045 A 
ENDROOT
TORSDOF 0
ENDMDL
