MODEL 1
REMARK minimizedAffinity 0.766724288
REMARK minimizedRMSD -1
REMARK  0 active torsions:
REMARK  status: ('A' for Active; 'I' for Inactive)
ROOT
ATOM      1  C   UNL d   1       3.393   6.000   2.388  0.00  0.00    -0.002 A 
ATOM      2  C1  UNL d   1       2.588   5.759   3.493  0.00  0.00     0.010 A 
ATOM      3  C2  UNL d   1       2.035   4.496   3.706  0.00  0.00     0.041 A 
ATOM      4  C3  UNL d   1       2.308   3.467   2.784  0.00  0.00    -0.075 A 
ATOM      5  S   UNL d   1       1.740   1.840   2.842  0.00  0.00     0.015 SA
ATOM      6  C4  UNL d   1       2.553   1.426   1.402  0.00  0.00     0.022 A 
ATOM      7  C5  UNL d   1       3.246   2.491   0.877  0.00  0.00     0.026 A 
ATOM      8  C6  UNL d   1       3.117   3.684   1.664  0.00  0.00    -0.082 A 
ATOM      9  C7  UNL d   1       3.662   4.977   1.475  0.00  0.00     0.045 A 
ENDROOT
TORSDOF 0
ENDMDL
