MODEL 1
REMARK minimizedAffinity 3.37090969
REMARK minimizedRMSD -1
REMARK  0 active torsions:
REMARK  status: ('A' for Active; 'I' for Inactive)
ROOT
ATOM      1  C   UNL d   1      -3.667   5.985  -5.998  0.00  0.00    -0.002 A 
ATOM      2  C1  UNL d   1      -5.054   5.926  -5.999  0.00  0.00     0.010 A 
ATOM      3  C2  UNL d   1      -5.712   4.695  -6.000  0.00  0.00     0.041 A 
ATOM      4  C3  UNL d   1      -4.946   3.512  -5.999  0.00  0.00    -0.075 A 
ATOM      5  S   UNL d   1      -5.535   1.892  -6.000  0.00  0.00     0.015 SA
ATOM      6  C4  UNL d   1      -3.960   1.241  -5.999  0.00  0.00     0.022 A 
ATOM      7  C5  UNL d   1      -2.997   2.221  -5.999  0.00  0.00     0.026 A 
ATOM      8  C6  UNL d   1      -3.549   3.547  -5.998  0.00  0.00    -0.082 A 
ATOM      9  C7  UNL d   1      -2.911   4.810  -5.998  0.00  0.00     0.045 A 
ENDROOT
TORSDOF 0
ENDMDL
