MODEL 1
REMARK minimizedAffinity 21.0046978
REMARK minimizedRMSD -1
REMARK  0 active torsions:
REMARK  status: ('A' for Active; 'I' for Inactive)
ROOT
ATOM      1  C   UNL d   1       1.118   1.061  -1.350  0.00  0.00    -0.002 A 
ATOM      2  C1  UNL d   1       2.167   0.261  -1.778  0.00  0.00     0.010 A 
ATOM      3  C2  UNL d   1       2.420   0.091  -3.141  0.00  0.00     0.041 A 
ATOM      4  C3  UNL d   1       1.594   0.747  -4.075  0.00  0.00    -0.075 A 
ATOM      5  S   UNL d   1       1.715   0.687  -5.793  0.00  0.00     0.015 SA
ATOM      6  C4  UNL d   1       0.377   1.722  -5.999  0.00  0.00     0.022 A 
ATOM      7  C5  UNL d   1      -0.161   2.114  -4.796  0.00  0.00     0.026 A 
ATOM      8  C6  UNL d   1       0.531   1.559  -3.667  0.00  0.00    -0.082 A 
ATOM      9  C7  UNL d   1       0.300   1.710  -2.279  0.00  0.00     0.045 A 
ENDROOT
TORSDOF 0
ENDMDL
