MODEL 1
REMARK minimizedAffinity -0.23649472
REMARK minimizedRMSD -1
REMARK  0 active torsions:
REMARK  status: ('A' for Active; 'I' for Inactive)
ROOT
ATOM      1  C   UNL d   1      -0.334   3.100  -5.970  0.00  0.00    -0.002 A 
ATOM      2  C1  UNL d   1      -0.020   4.452  -5.974  0.00  0.00     0.010 A 
ATOM      3  C2  UNL d   1      -1.031   5.416  -5.985  0.00  0.00     0.041 A 
ATOM      4  C3  UNL d   1      -2.375   4.994  -5.989  0.00  0.00    -0.075 A 
ATOM      5  S   UNL d   1      -3.779   5.994  -6.000  0.00  0.00     0.015 SA
ATOM      6  C4  UNL d   1      -4.828   4.651  -5.998  0.00  0.00     0.022 A 
ATOM      7  C5  UNL d   1      -4.141   3.460  -5.989  0.00  0.00     0.026 A 
ATOM      8  C6  UNL d   1      -2.716   3.638  -5.983  0.00  0.00    -0.082 A 
ATOM      9  C7  UNL d   1      -1.668   2.686  -5.974  0.00  0.00     0.045 A 
ENDROOT
TORSDOF 0
ENDMDL
