MODEL 1
REMARK minimizedAffinity 6.01508617
REMARK minimizedRMSD -1
REMARK  0 active torsions:
REMARK  status: ('A' for Active; 'I' for Inactive)
ROOT
ATOM      1  C   UNL d   1      -3.224   2.843  -5.969  0.00  0.00    -0.002 A 
ATOM      2  C1  UNL d   1      -3.387   4.220  -5.990  0.00  0.00     0.010 A 
ATOM      3  C2  UNL d   1      -2.277   5.067  -5.999  0.00  0.00     0.041 A 
ATOM      4  C3  UNL d   1      -0.987   4.500  -5.990  0.00  0.00    -0.075 A 
ATOM      5  S   UNL d   1       0.518   5.341  -6.000  0.00  0.00     0.015 SA
ATOM      6  C4  UNL d   1       1.413   3.891  -5.978  0.00  0.00     0.022 A 
ATOM      7  C5  UNL d   1       0.600   2.783  -5.963  0.00  0.00     0.026 A 
ATOM      8  C6  UNL d   1      -0.797   3.116  -5.970  0.00  0.00    -0.082 A 
ATOM      9  C7  UNL d   1      -1.943   2.284  -5.960  0.00  0.00     0.045 A 
ENDROOT
TORSDOF 0
ENDMDL
