MODEL 1
REMARK minimizedAffinity -1.7173835
REMARK minimizedRMSD -1
REMARK  0 active torsions:
REMARK  status: ('A' for Active; 'I' for Inactive)
ROOT
ATOM      1  C   UNL d   1       0.336   3.332  -5.774  0.00  0.00    -0.002 A 
ATOM      2  C1  UNL d   1       0.091   4.696  -5.847  0.00  0.00     0.010 A 
ATOM      3  C2  UNL d   1      -1.218   5.179  -5.916  0.00  0.00     0.041 A 
ATOM      4  C3  UNL d   1      -2.285   4.260  -5.909  0.00  0.00    -0.075 A 
ATOM      5  S   UNL d   1      -3.969   4.622  -5.985  0.00  0.00     0.015 SA
ATOM      6  C4  UNL d   1      -4.402   2.974  -5.922  0.00  0.00     0.022 A 
ATOM      7  C5  UNL d   1      -3.301   2.155  -5.844  0.00  0.00     0.026 A 
ATOM      8  C6  UNL d   1      -2.063   2.882  -5.835  0.00  0.00    -0.082 A 
ATOM      9  C7  UNL d   1      -0.725   2.423  -5.767  0.00  0.00     0.045 A 
ENDROOT
TORSDOF 0
ENDMDL
