MODEL 1
REMARK minimizedAffinity -5.97222614
REMARK minimizedRMSD -1
REMARK  0 active torsions:
REMARK  status: ('A' for Active; 'I' for Inactive)
ROOT
ATOM      1  C   UNL d   1       3.662  -0.790   0.935  0.00  0.00     0.077 C 
ATOM      2  C1  UNL d   1       2.310  -0.983   0.314  0.00  0.00    -0.074 A 
ATOM      3  C2  UNL d   1       2.030  -2.112  -0.462  0.00  0.00    -0.005 A 
ATOM      4  C3  UNL d   1       0.766  -2.283  -1.025  0.00  0.00     0.006 A 
ATOM      5  C4  UNL d   1      -0.230  -1.328  -0.819  0.00  0.00    -0.005 A 
ATOM      6  C5  UNL d   1       0.031  -0.192  -0.045  0.00  0.00    -0.074 A 
ATOM      7  C6  UNL d   1      -1.031   0.839   0.196  0.00  0.00     0.077 C 
ATOM      8  C7  UNL d   1       1.302  -0.032   0.524  0.00  0.00    -0.001 A 
ENDROOT
TORSDOF 0
ENDMDL
