MODEL 1
REMARK minimizedAffinity -5.53237009
REMARK minimizedRMSD -1
REMARK  0 active torsions:
REMARK  status: ('A' for Active; 'I' for Inactive)
ROOT
ATOM      1  C   UNL d   1      -0.605  -3.085  -1.474  0.00  0.00     0.077 C 
ATOM      2  C1  UNL d   1       0.035  -1.954  -0.725  0.00  0.00    -0.074 A 
ATOM      3  C2  UNL d   1      -0.572  -0.696  -0.667  0.00  0.00    -0.005 A 
ATOM      4  C3  UNL d   1       0.031   0.344   0.041  0.00  0.00     0.006 A 
ATOM      5  C4  UNL d   1       1.246   0.136   0.697  0.00  0.00    -0.005 A 
ATOM      6  C5  UNL d   1       1.867  -1.116   0.650  0.00  0.00    -0.074 A 
ATOM      7  C6  UNL d   1       3.167  -1.359   1.357  0.00  0.00     0.077 C 
ATOM      8  C7  UNL d   1       1.251  -2.158  -0.057  0.00  0.00    -0.001 A 
ENDROOT
TORSDOF 0
ENDMDL
