MODEL 1
REMARK minimizedAffinity -3.20473003
REMARK minimizedRMSD -1
REMARK  0 active torsions:
REMARK  status: ('A' for Active; 'I' for Inactive)
ROOT
ATOM      1  C   UNL d   1      -0.246   1.930  -0.348  0.00  0.00     0.077 C 
ATOM      2  C1  UNL d   1       0.378   0.603  -0.033  0.00  0.00    -0.074 A 
ATOM      3  C2  UNL d   1       1.475   0.511   0.830  0.00  0.00    -0.005 A 
ATOM      4  C3  UNL d   1       2.038  -0.731   1.121  0.00  0.00     0.006 A 
ATOM      5  C4  UNL d   1       1.512  -1.892   0.554  0.00  0.00    -0.005 A 
ATOM      6  C5  UNL d   1       0.415  -1.820  -0.311  0.00  0.00    -0.074 A 
ATOM      7  C6  UNL d   1      -0.170  -3.059  -0.921  0.00  0.00     0.077 C 
ATOM      8  C7  UNL d   1      -0.150  -0.569  -0.593  0.00  0.00    -0.001 A 
ENDROOT
TORSDOF 0
ENDMDL
