MODEL 1
REMARK minimizedAffinity -5.47678614
REMARK minimizedRMSD -1
REMARK  0 active torsions:
REMARK  status: ('A' for Active; 'I' for Inactive)
ROOT
ATOM      1  C   UNL d   1       3.106  -2.422  -2.450  0.00  0.00     0.077 C 
ATOM      2  C1  UNL d   1       2.540  -1.635  -1.306  0.00  0.00    -0.074 A 
ATOM      3  C2  UNL d   1       3.338  -1.281  -0.213  0.00  0.00    -0.005 A 
ATOM      4  C3  UNL d   1       2.800  -0.540   0.840  0.00  0.00     0.006 A 
ATOM      5  C4  UNL d   1       1.461  -0.147   0.810  0.00  0.00    -0.005 A 
ATOM      6  C5  UNL d   1       0.649  -0.491  -0.275  0.00  0.00    -0.074 A 
ATOM      7  C6  UNL d   1      -0.789  -0.068  -0.327  0.00  0.00     0.077 C 
ATOM      8  C7  UNL d   1       1.198  -1.230  -1.332  0.00  0.00    -0.001 A 
ENDROOT
TORSDOF 0
ENDMDL
