MODEL 1
REMARK minimizedAffinity -4.90346432
REMARK minimizedRMSD -1
REMARK  0 active torsions:
REMARK  status: ('A' for Active; 'I' for Inactive)
ROOT
ATOM      1  C   UNL d   1      -1.082  -2.526  -2.215  0.00  0.00     0.077 C 
ATOM      2  C1  UNL d   1      -0.425  -1.669  -1.174  0.00  0.00    -0.074 A 
ATOM      3  C2  UNL d   1      -1.010  -0.470  -0.756  0.00  0.00    -0.005 A 
ATOM      4  C3  UNL d   1      -0.392   0.312   0.220  0.00  0.00     0.006 A 
ATOM      5  C4  UNL d   1       0.817  -0.097   0.786  0.00  0.00    -0.005 A 
ATOM      6  C5  UNL d   1       1.417  -1.293   0.380  0.00  0.00    -0.074 A 
ATOM      7  C6  UNL d   1       2.710  -1.752   0.985  0.00  0.00     0.077 C 
ATOM      8  C7  UNL d   1       0.785  -2.076  -0.595  0.00  0.00    -0.001 A 
ENDROOT
TORSDOF 0
ENDMDL
