MODEL 1
REMARK minimizedAffinity -0.716705382
REMARK minimizedRMSD -1
REMARK  1 active torsions:
REMARK  status: ('A' for Active; 'I' for Inactive)
REMARK    1  A    between atoms: C1_2  and  C2_3 
ROOT
ATOM      1  C2  UNL d   1      -0.080  -1.306  -1.522  0.00  0.00    -0.081 A 
ATOM      2  C3  UNL d   1      -0.215  -0.747  -2.799  0.00  0.00     0.006 A 
ATOM      3  C4  UNL d   1      -1.426  -0.844  -3.489  0.00  0.00     0.002 A 
ATOM      4  C5  UNL d   1      -2.522  -1.494  -2.912  0.00  0.00    -0.080 A 
ATOM      5  C6  UNL d   1      -3.836  -1.578  -3.630  0.00  0.00     0.076 C 
ATOM      6  C7  UNL d   1      -2.382  -2.067  -1.644  0.00  0.00     0.002 A 
ATOM      7  C8  UNL d   1      -1.172  -1.971  -0.953  0.00  0.00     0.006 A 
ENDROOT
BRANCH   1   8
ATOM      8  C1  UNL d   1       1.204  -1.147  -0.748  0.00  0.00     0.054 C 
ATOM      9  C   UNL d   1       1.216   0.154   0.042  0.00  0.00     0.018 C 
ENDBRANCH   1   8
TORSDOF 1
ENDMDL
