MODEL 1
REMARK minimizedAffinity 2.10382414
REMARK minimizedRMSD -1
REMARK  1 active torsions:
REMARK  status: ('A' for Active; 'I' for Inactive)
REMARK    1  A    between atoms: C1_2  and  C2_3 
ROOT
ATOM      1  C2  UNL d   1       0.379   1.067   2.990  0.00  0.00    -0.081 A 
ATOM      2  C3  UNL d   1       1.327   1.609   2.113  0.00  0.00     0.006 A 
ATOM      3  C4  UNL d   1       0.932   2.473   1.089  0.00  0.00     0.002 A 
ATOM      4  C5  UNL d   1      -0.415   2.816   0.930  0.00  0.00    -0.080 A 
ATOM      5  C6  UNL d   1      -0.848   3.767  -0.146  0.00  0.00     0.076 C 
ATOM      6  C7  UNL d   1      -1.364   2.261   1.796  0.00  0.00     0.002 A 
ATOM      7  C8  UNL d   1      -0.970   1.397   2.819  0.00  0.00     0.006 A 
ENDROOT
BRANCH   1   8
ATOM      8  C1  UNL d   1       0.810   0.186   4.135  0.00  0.00     0.054 C 
ATOM      9  C   UNL d   1       1.138   1.009   5.373  0.00  0.00     0.018 C 
ENDBRANCH   1   8
TORSDOF 1
ENDMDL
