MODEL 1
REMARK minimizedAffinity 6.42447948
REMARK minimizedRMSD -1
REMARK  1 active torsions:
REMARK  status: ('A' for Active; 'I' for Inactive)
REMARK    1  A    between atoms: C1_2  and  C2_3 
ROOT
ATOM      1  C2  UNL d   1      -1.963  -0.798  -0.123  0.00  0.00    -0.081 A 
ATOM      2  C3  UNL d   1      -2.623   0.299   0.444  0.00  0.00     0.006 A 
ATOM      3  C4  UNL d   1      -1.930   1.202   1.253  0.00  0.00     0.002 A 
ATOM      4  C5  UNL d   1      -0.565   1.028   1.503  0.00  0.00    -0.080 A 
ATOM      5  C6  UNL d   1       0.198   2.007   2.346  0.00  0.00     0.076 C 
ATOM      6  C7  UNL d   1       0.091  -0.078   0.952  0.00  0.00     0.002 A 
ATOM      7  C8  UNL d   1      -0.602  -0.981   0.143  0.00  0.00     0.006 A 
ENDROOT
BRANCH   1   8
ATOM      8  C1  UNL d   1      -2.693  -1.737  -1.048  0.00  0.00     0.054 C 
ATOM      9  C   UNL d   1      -2.643  -1.245  -2.488  0.00  0.00     0.018 C 
ENDBRANCH   1   8
TORSDOF 1
ENDMDL
