MODEL 1
REMARK minimizedAffinity 13.4719152
REMARK minimizedRMSD -1
REMARK  1 active torsions:
REMARK  status: ('A' for Active; 'I' for Inactive)
REMARK    1  A    between atoms: C1_2  and  C2_3 
ROOT
ATOM      1  C2  UNL d   1      -1.695   2.874   0.895  0.00  0.00    -0.081 A 
ATOM      2  C3  UNL d   1      -0.492   3.509   1.226  0.00  0.00     0.006 A 
ATOM      3  C4  UNL d   1       0.368   2.949   2.174  0.00  0.00     0.002 A 
ATOM      4  C5  UNL d   1       0.042   1.741   2.800  0.00  0.00    -0.080 A 
ATOM      5  C6  UNL d   1       0.970   1.113   3.797  0.00  0.00     0.076 C 
ATOM      6  C7  UNL d   1      -1.168   1.115   2.483  0.00  0.00     0.002 A 
ATOM      7  C8  UNL d   1      -2.028   1.676   1.535  0.00  0.00     0.006 A 
ENDROOT
BRANCH   1   8
ATOM      8  C1  UNL d   1      -2.593   3.443  -0.174  0.00  0.00     0.054 C 
ATOM      9  C   UNL d   1      -1.806   4.287  -1.166  0.00  0.00     0.018 C 
ENDBRANCH   1   8
TORSDOF 1
ENDMDL
