MODEL 1
REMARK minimizedAffinity 5.18280602
REMARK minimizedRMSD -1
REMARK  1 active torsions:
REMARK  status: ('A' for Active; 'I' for Inactive)
REMARK    1  A    between atoms: C1_2  and  C2_3 
ROOT
ATOM      1  C2  UNL d   1       1.766   0.094  -0.588  0.00  0.00    -0.081 A 
ATOM      2  C3  UNL d   1       0.941  -0.760   0.153  0.00  0.00     0.006 A 
ATOM      3  C4  UNL d   1       0.368  -0.326   1.352  0.00  0.00     0.002 A 
ATOM      4  C5  UNL d   1       0.605   0.969   1.824  0.00  0.00    -0.080 A 
ATOM      5  C6  UNL d   1      -0.028   1.457   3.093  0.00  0.00     0.076 C 
ATOM      6  C7  UNL d   1       1.444   1.816   1.092  0.00  0.00     0.002 A 
ATOM      7  C8  UNL d   1       2.017   1.383  -0.106  0.00  0.00     0.006 A 
ENDROOT
BRANCH   1   8
ATOM      8  C1  UNL d   1       2.333  -0.348  -1.913  0.00  0.00     0.054 C 
ATOM      9  C   UNL d   1       1.409   0.026  -3.063  0.00  0.00     0.018 C 
ENDBRANCH   1   8
TORSDOF 1
ENDMDL
