MODEL 1
REMARK minimizedAffinity -3.65091395
REMARK minimizedRMSD -1
REMARK  1 active torsions:
REMARK  status: ('A' for Active; 'I' for Inactive)
REMARK    1  A    between atoms: C1_2  and  C2_3 
ROOT
ATOM      1  C2  UNL d   1       0.837   1.570   1.147  0.00  0.00    -0.081 A 
ATOM      2  C3  UNL d   1       0.140   2.688   1.619  0.00  0.00     0.006 A 
ATOM      3  C4  UNL d   1      -1.169   2.560   2.089  0.00  0.00     0.002 A 
ATOM      4  C5  UNL d   1      -1.799   1.311   2.103  0.00  0.00    -0.080 A 
ATOM      5  C6  UNL d   1      -3.193   1.154   2.634  0.00  0.00     0.076 C 
ATOM      6  C7  UNL d   1      -1.109   0.196   1.615  0.00  0.00     0.002 A 
ATOM      7  C8  UNL d   1       0.200   0.324   1.144  0.00  0.00     0.006 A 
ENDROOT
BRANCH   1   8
ATOM      8  C1  UNL d   1       2.271   1.694   0.699  0.00  0.00     0.054 C 
ATOM      9  C   UNL d   1       2.614   0.650  -0.355  0.00  0.00     0.018 C 
ENDBRANCH   1   8
TORSDOF 1
ENDMDL
