MODEL 1
REMARK minimizedAffinity 3.02473974
REMARK minimizedRMSD -1
REMARK  1 active torsions:
REMARK  status: ('A' for Active; 'I' for Inactive)
REMARK    1  A    between atoms: C1_2  and  C2_3 
ROOT
ATOM      1  C2  UNL d   1      -4.154   4.141   0.893  0.00  0.00    -0.081 A 
ATOM      2  C3  UNL d   1      -4.122   3.508   2.142  0.00  0.00     0.006 A 
ATOM      3  C4  UNL d   1      -4.708   4.111   3.257  0.00  0.00     0.002 A 
ATOM      4  C5  UNL d   1      -5.341   5.354   3.141  0.00  0.00    -0.080 A 
ATOM      5  C6  UNL d   1      -5.999   5.999   4.324  0.00  0.00     0.076 C 
ATOM      6  C7  UNL d   1      -5.356   5.995   1.898  0.00  0.00     0.002 A 
ATOM      7  C8  UNL d   1      -4.771   5.392   0.783  0.00  0.00     0.006 A 
ENDROOT
BRANCH   1   8
ATOM      8  C1  UNL d   1      -3.580   3.463  -0.325  0.00  0.00     0.054 C 
ATOM      9  C   UNL d   1      -2.065   3.354  -0.235  0.00  0.00     0.018 C 
ENDBRANCH   1   8
TORSDOF 1
ENDMDL
