MODEL 1
REMARK minimizedAffinity 5.19069624
REMARK minimizedRMSD -1
REMARK  1 active torsions:
REMARK  status: ('A' for Active; 'I' for Inactive)
REMARK    1  A    between atoms: C1_2  and  C2_3 
ROOT
ATOM      1  C2  UNL d   1       0.852   1.167   1.414  0.00  0.00    -0.081 A 
ATOM      2  C3  UNL d   1       0.118   0.062   1.864  0.00  0.00     0.006 A 
ATOM      3  C4  UNL d   1      -1.170   0.230   2.379  0.00  0.00     0.002 A 
ATOM      4  C5  UNL d   1      -1.748   1.502   2.446  0.00  0.00    -0.080 A 
ATOM      5  C6  UNL d   1      -3.141   1.692   2.969  0.00  0.00     0.076 C 
ATOM      6  C7  UNL d   1      -1.008   2.608   2.013  0.00  0.00     0.002 A 
ATOM      7  C8  UNL d   1       0.280   2.441   1.499  0.00  0.00     0.006 A 
ENDROOT
BRANCH   1   8
ATOM      8  C1  UNL d   1       2.215   0.982   0.798  0.00  0.00     0.054 C 
ATOM      9  C   UNL d   1       2.132   0.200  -0.505  0.00  0.00     0.018 C 
ENDBRANCH   1   8
TORSDOF 1
ENDMDL
