MODEL 1
REMARK minimizedAffinity 9.83721066
REMARK minimizedRMSD -1
REMARK  1 active torsions:
REMARK  status: ('A' for Active; 'I' for Inactive)
REMARK    1  A    between atoms: C1_2  and  C2_3 
ROOT
ATOM      1  C2  UNL d   1       1.111   1.435   1.006  0.00  0.00    -0.081 A 
ATOM      2  C3  UNL d   1       2.451   1.348   0.610  0.00  0.00     0.006 A 
ATOM      3  C4  UNL d   1       2.893   0.271  -0.163  0.00  0.00     0.002 A 
ATOM      4  C5  UNL d   1       2.001  -0.730  -0.560  0.00  0.00    -0.080 A 
ATOM      5  C6  UNL d   1       2.455  -1.876  -1.415  0.00  0.00     0.076 C 
ATOM      6  C7  UNL d   1       0.665  -0.652  -0.150  0.00  0.00     0.002 A 
ATOM      7  C8  UNL d   1       0.224   0.423   0.623  0.00  0.00     0.006 A 
ENDROOT
BRANCH   1   8
ATOM      8  C1  UNL d   1       0.618   2.628   1.785  0.00  0.00     0.054 C 
ATOM      9  C   UNL d   1      -0.902   2.645   1.867  0.00  0.00     0.018 C 
ENDBRANCH   1   8
TORSDOF 1
ENDMDL
