MODEL 1
REMARK minimizedAffinity -4.07179451
REMARK minimizedRMSD -1
REMARK  1 active torsions:
REMARK  status: ('A' for Active; 'I' for Inactive)
REMARK    1  A    between atoms: C1_2  and  C2_3 
ROOT
ATOM      1  C2  UNL d   1       1.137  -5.028  -4.472  0.00  0.00    -0.073 A 
ATOM      2  C3  UNL d   1       0.756  -5.395  -3.177  0.00  0.00    -0.002 A 
ATOM      3  C4  UNL d   1       1.703  -5.881  -2.275  0.00  0.00     0.004 A 
ATOM      4  C5  UNL d   1       3.040  -5.999  -2.655  0.00  0.00    -0.004 A 
ATOM      5  C6  UNL d   1       3.442  -5.627  -3.942  0.00  0.00    -0.075 A 
ATOM      6  C7  UNL d   1       4.876  -5.750  -4.368  0.00  0.00     0.076 C 
ATOM      7  C8  UNL d   1       2.485  -5.142  -4.843  0.00  0.00     0.001 A 
ENDROOT
BRANCH   1   8
ATOM      8  C1  UNL d   1       0.119  -4.496  -5.448  0.00  0.00     0.053 C 
ATOM      9  C   UNL d   1      -1.072  -5.430  -5.595  0.00  0.00     0.018 C 
ENDBRANCH   1   8
TORSDOF 1
ENDMDL
