MODEL 1
REMARK minimizedAffinity 15.5889635
REMARK minimizedRMSD -1
REMARK  1 active torsions:
REMARK  status: ('A' for Active; 'I' for Inactive)
REMARK    1  A    between atoms: C1_2  and  C2_3 
ROOT
ATOM      1  C2  UNL d   1      -1.285   1.760   0.880  0.00  0.00    -0.073 A 
ATOM      2  C3  UNL d   1       0.025   1.536   1.321  0.00  0.00    -0.002 A 
ATOM      3  C4  UNL d   1       1.109   1.995   0.571  0.00  0.00     0.004 A 
ATOM      4  C5  UNL d   1       0.896   2.687  -0.620  0.00  0.00    -0.004 A 
ATOM      5  C6  UNL d   1      -0.406   2.932  -1.071  0.00  0.00    -0.075 A 
ATOM      6  C7  UNL d   1      -0.652   3.673  -2.352  0.00  0.00     0.076 C 
ATOM      7  C8  UNL d   1      -1.489   2.465  -0.315  0.00  0.00     0.001 A 
ENDROOT
BRANCH   1   8
ATOM      8  C1  UNL d   1      -2.459   1.271   1.689  0.00  0.00     0.053 C 
ATOM      9  C   UNL d   1      -3.261   0.214   0.947  0.00  0.00     0.018 C 
ENDBRANCH   1   8
TORSDOF 1
ENDMDL
