MODEL 1
REMARK minimizedAffinity 8.52422142
REMARK minimizedRMSD -1
REMARK  1 active torsions:
REMARK  status: ('A' for Active; 'I' for Inactive)
REMARK    1  A    between atoms: C1_2  and  C2_3 
ROOT
ATOM      1  C2  UNL d   1      -2.623  -4.625  -5.807  0.00  0.00    -0.073 A 
ATOM      2  C3  UNL d   1      -3.373  -3.446  -5.863  0.00  0.00    -0.002 A 
ATOM      3  C4  UNL d   1      -2.735  -2.208  -5.955  0.00  0.00     0.004 A 
ATOM      4  C5  UNL d   1      -1.343  -2.137  -5.998  0.00  0.00    -0.004 A 
ATOM      5  C6  UNL d   1      -0.576  -3.306  -5.955  0.00  0.00    -0.075 A 
ATOM      6  C7  UNL d   1       0.923  -3.247  -5.999  0.00  0.00     0.076 C 
ATOM      7  C8  UNL d   1      -1.224  -4.545  -5.861  0.00  0.00     0.001 A 
ENDROOT
BRANCH   1   8
ATOM      8  C1  UNL d   1      -3.308  -5.964  -5.715  0.00  0.00     0.053 C 
ATOM      9  C   UNL d   1      -4.822  -5.831  -5.705  0.00  0.00     0.018 C 
ENDBRANCH   1   8
TORSDOF 1
ENDMDL
