MODEL 1
REMARK minimizedAffinity 6.50067186
REMARK minimizedRMSD -1
REMARK  1 active torsions:
REMARK  status: ('A' for Active; 'I' for Inactive)
REMARK    1  A    between atoms: C1_2  and  C2_3 
ROOT
ATOM      1  C2  UNL d   1      -1.145  -1.872  -5.244  0.00  0.00    -0.073 A 
ATOM      2  C3  UNL d   1      -0.125  -2.572  -5.898  0.00  0.00    -0.002 A 
ATOM      3  C4  UNL d   1       0.549  -3.608  -5.249  0.00  0.00     0.004 A 
ATOM      4  C5  UNL d   1       0.205  -3.959  -3.943  0.00  0.00    -0.004 A 
ATOM      5  C6  UNL d   1      -0.820  -3.280  -3.277  0.00  0.00    -0.075 A 
ATOM      6  C7  UNL d   1      -1.201  -3.644  -1.872  0.00  0.00     0.076 C 
ATOM      7  C8  UNL d   1      -1.490  -2.239  -3.935  0.00  0.00     0.001 A 
ENDROOT
BRANCH   1   8
ATOM      8  C1  UNL d   1      -1.879  -0.758  -5.943  0.00  0.00     0.053 C 
ATOM      9  C   UNL d   1      -3.377  -1.009  -5.999  0.00  0.00     0.018 C 
ENDBRANCH   1   8
TORSDOF 1
ENDMDL
