MODEL 1
REMARK minimizedAffinity -0.707451284
REMARK minimizedRMSD -1
REMARK  1 active torsions:
REMARK  status: ('A' for Active; 'I' for Inactive)
REMARK    1  A    between atoms: C1_2  and  C2_3 
ROOT
ATOM      1  C2  UNL d   1      -4.389   1.187  -0.039  0.00  0.00    -0.076 A 
ATOM      2  C3  UNL d   1      -5.715   1.499  -0.386  0.00  0.00     0.004 A 
ATOM      3  C4  UNL d   1      -5.997   2.503  -1.311  0.00  0.00    -0.003 A 
ATOM      4  C5  UNL d   1      -4.958   3.210  -1.905  0.00  0.00     0.000 A 
ATOM      5  C6  UNL d   1      -3.636   2.902  -1.586  0.00  0.00     0.000 A 
ATOM      6  C7  UNL d   1      -3.333   1.881  -0.668  0.00  0.00    -0.073 A 
ATOM      7  C8  UNL d   1      -1.890   1.595  -0.356  0.00  0.00     0.078 C 
ENDROOT
BRANCH   1   8
ATOM      8  C1  UNL d   1      -4.144   0.107   0.990  0.00  0.00     0.053 C 
ATOM      9  C   UNL d   1      -4.170   0.642   2.414  0.00  0.00     0.018 C 
ENDBRANCH   1   8
TORSDOF 1
ENDMDL
