MODEL 1
REMARK minimizedAffinity -0.43667829
REMARK minimizedRMSD -1
REMARK  1 active torsions:
REMARK  status: ('A' for Active; 'I' for Inactive)
REMARK    1  A    between atoms: C1_2  and  C2_3 
ROOT
ATOM      1  C2  UNL d   1      -4.860   3.572  -3.606  0.00  0.00    -0.076 A 
ATOM      2  C3  UNL d   1      -5.806   4.609  -3.683  0.00  0.00     0.004 A 
ATOM      3  C4  UNL d   1      -5.996   5.319  -4.867  0.00  0.00    -0.003 A 
ATOM      4  C5  UNL d   1      -5.243   5.005  -5.993  0.00  0.00     0.000 A 
ATOM      5  C6  UNL d   1      -4.312   3.968  -5.939  0.00  0.00     0.000 A 
ATOM      6  C7  UNL d   1      -4.120   3.231  -4.758  0.00  0.00    -0.073 A 
ATOM      7  C8  UNL d   1      -3.098   2.127  -4.754  0.00  0.00     0.078 C 
ENDROOT
BRANCH   1   8
ATOM      8  C1  UNL d   1      -4.679   2.854  -2.287  0.00  0.00     0.053 C 
ATOM      9  C   UNL d   1      -5.994   2.357  -1.709  0.00  0.00     0.018 C 
ENDBRANCH   1   8
TORSDOF 1
ENDMDL
