MODEL 1
REMARK minimizedAffinity 6.50645065
REMARK minimizedRMSD -1
REMARK  1 active torsions:
REMARK  status: ('A' for Active; 'I' for Inactive)
REMARK    1  A    between atoms: C1_2  and  C2_3 
ROOT
ATOM      1  C2  UNL d   1      -5.143   3.756  -3.118  0.00  0.00    -0.076 A 
ATOM      2  C3  UNL d   1      -5.999   4.009  -4.204  0.00  0.00     0.004 A 
ATOM      3  C4  UNL d   1      -5.490   4.217  -5.485  0.00  0.00    -0.003 A 
ATOM      4  C5  UNL d   1      -4.117   4.176  -5.700  0.00  0.00     0.000 A 
ATOM      5  C6  UNL d   1      -3.254   3.910  -4.638  0.00  0.00     0.000 A 
ATOM      6  C7  UNL d   1      -3.752   3.681  -3.343  0.00  0.00    -0.073 A 
ATOM      7  C8  UNL d   1      -2.776   3.404  -2.233  0.00  0.00     0.078 C 
ENDROOT
BRANCH   1   8
ATOM      8  C1  UNL d   1      -5.751   3.564  -1.747  0.00  0.00     0.053 C 
ATOM      9  C   UNL d   1      -5.966   2.098  -1.405  0.00  0.00     0.018 C 
ENDBRANCH   1   8
TORSDOF 1
ENDMDL
