MODEL 1
REMARK minimizedAffinity -1.59993613
REMARK minimizedRMSD -1
REMARK  1 active torsions:
REMARK  status: ('A' for Active; 'I' for Inactive)
REMARK    1  A    between atoms: C1_2  and  C2_3 
ROOT
ATOM      1  C2  UNL d   1      -5.711   3.900  -2.886  0.00  0.00    -0.076 A 
ATOM      2  C3  UNL d   1      -5.986   3.347  -4.149  0.00  0.00     0.004 A 
ATOM      3  C4  UNL d   1      -5.763   4.077  -5.316  0.00  0.00    -0.003 A 
ATOM      4  C5  UNL d   1      -5.260   5.371  -5.238  0.00  0.00     0.000 A 
ATOM      5  C6  UNL d   1      -4.964   5.928  -3.995  0.00  0.00     0.000 A 
ATOM      6  C7  UNL d   1      -5.168   5.200  -2.810  0.00  0.00    -0.073 A 
ATOM      7  C8  UNL d   1      -4.837   5.853  -1.496  0.00  0.00     0.078 C 
ENDROOT
BRANCH   1   8
ATOM      8  C1  UNL d   1      -5.999   3.071  -1.655  0.00  0.00     0.053 C 
ATOM      9  C   UNL d   1      -5.473   1.649  -1.774  0.00  0.00     0.018 C 
ENDBRANCH   1   8
TORSDOF 1
ENDMDL
