MODEL 1
REMARK minimizedAffinity 4.22452116
REMARK minimizedRMSD -1
REMARK  1 active torsions:
REMARK  status: ('A' for Active; 'I' for Inactive)
REMARK    1  A    between atoms: C1_2  and  C2_3 
ROOT
ATOM      1  C2  UNL d   1      -4.961   4.224  -3.679  0.00  0.00    -0.076 A 
ATOM      2  C3  UNL d   1      -3.969   4.845  -2.902  0.00  0.00     0.004 A 
ATOM      3  C4  UNL d   1      -2.973   5.620  -3.495  0.00  0.00    -0.003 A 
ATOM      4  C5  UNL d   1      -2.955   5.786  -4.875  0.00  0.00     0.000 A 
ATOM      5  C6  UNL d   1      -3.942   5.191  -5.660  0.00  0.00     0.000 A 
ATOM      6  C7  UNL d   1      -4.962   4.421  -5.077  0.00  0.00    -0.073 A 
ATOM      7  C8  UNL d   1      -5.998   3.797  -5.972  0.00  0.00     0.078 C 
ENDROOT
BRANCH   1   8
ATOM      8  C1  UNL d   1      -6.000   3.373  -2.983  0.00  0.00     0.053 C 
ATOM      9  C   UNL d   1      -5.379   2.273  -2.136  0.00  0.00     0.018 C 
ENDBRANCH   1   8
TORSDOF 1
ENDMDL
