MODEL 1
REMARK minimizedAffinity -3.97430706
REMARK minimizedRMSD -1
REMARK  1 active torsions:
REMARK  status: ('A' for Active; 'I' for Inactive)
REMARK    1  A    between atoms: C1_2  and  C2_3 
ROOT
ATOM      1  C2  UNL d   1      -4.550   2.688  -4.537  0.00  0.00    -0.076 A 
ATOM      2  C3  UNL d   1      -4.125   3.718  -3.679  0.00  0.00     0.004 A 
ATOM      3  C4  UNL d   1      -4.637   3.833  -2.388  0.00  0.00    -0.003 A 
ATOM      4  C5  UNL d   1      -5.581   2.919  -1.932  0.00  0.00     0.000 A 
ATOM      5  C6  UNL d   1      -6.000   1.881  -2.763  0.00  0.00     0.000 A 
ATOM      6  C7  UNL d   1      -5.482   1.741  -4.062  0.00  0.00    -0.073 A 
ATOM      7  C8  UNL d   1      -5.975   0.606  -4.917  0.00  0.00     0.078 C 
ENDROOT
BRANCH   1   8
ATOM      8  C1  UNL d   1      -3.980   2.630  -5.936  0.00  0.00     0.053 C 
ATOM      9  C   UNL d   1      -2.665   1.869  -5.999  0.00  0.00     0.018 C 
ENDBRANCH   1   8
TORSDOF 1
ENDMDL
