MODEL 1
REMARK minimizedAffinity -2.07982945
REMARK minimizedRMSD -1
REMARK  1 active torsions:
REMARK  status: ('A' for Active; 'I' for Inactive)
REMARK    1  A    between atoms: C1_2  and  C2_3 
ROOT
ATOM      1  C2  UNL d   1       1.701   0.622   0.036  0.00  0.00    -0.081 A 
ATOM      2  C3  UNL d   1       1.909  -0.580  -0.650  0.00  0.00     0.006 A 
ATOM      3  C4  UNL d   1       0.839  -1.438  -0.918  0.00  0.00     0.002 A 
ATOM      4  C5  UNL d   1      -0.457  -1.103  -0.511  0.00  0.00    -0.080 A 
ATOM      5  C6  UNL d   1      -1.619  -2.000  -0.819  0.00  0.00     0.076 C 
ATOM      6  C7  UNL d   1      -0.663   0.090   0.190  0.00  0.00     0.002 A 
ATOM      7  C8  UNL d   1       0.407   0.947   0.458  0.00  0.00     0.006 A 
ENDROOT
BRANCH   1   8
ATOM      8  C1  UNL d   1       2.842   1.579   0.270  0.00  0.00     0.054 C 
ATOM      9  C   UNL d   1       2.536   2.536   1.413  0.00  0.00     0.018 C 
ENDBRANCH   1   8
TORSDOF 1
ENDMDL
