MODEL 1
REMARK minimizedAffinity -4.8035202
REMARK minimizedRMSD -1
REMARK  1 active torsions:
REMARK  status: ('A' for Active; 'I' for Inactive)
REMARK    1  A    between atoms: C1_2  and  C2_3 
ROOT
ATOM      1  C2  UNL d   1      -0.998  -0.691  -1.019  0.00  0.00    -0.081 A 
ATOM      2  C3  UNL d   1      -1.227  -1.172   0.277  0.00  0.00     0.006 A 
ATOM      3  C4  UNL d   1      -0.727  -0.485   1.385  0.00  0.00     0.002 A 
ATOM      4  C5  UNL d   1       0.002   0.697   1.218  0.00  0.00    -0.080 A 
ATOM      5  C6  UNL d   1       0.518   1.461   2.402  0.00  0.00     0.076 C 
ATOM      6  C7  UNL d   1       0.246   1.168  -0.076  0.00  0.00     0.002 A 
ATOM      7  C8  UNL d   1      -0.253   0.481  -1.185  0.00  0.00     0.006 A 
ENDROOT
BRANCH   1   8
ATOM      8  C1  UNL d   1      -1.591  -1.395  -2.213  0.00  0.00     0.054 C 
ATOM      9  C   UNL d   1      -2.857  -0.700  -2.693  0.00  0.00     0.018 C 
ENDBRANCH   1   8
TORSDOF 1
ENDMDL
