MODEL 1
REMARK minimizedAffinity -5.79740572
REMARK minimizedRMSD -1
REMARK  1 active torsions:
REMARK  status: ('A' for Active; 'I' for Inactive)
REMARK    1  A    between atoms: C1_2  and  C2_3 
ROOT
ATOM      1  C2  UNL d   1      -0.278  -1.001  -0.300  0.00  0.00    -0.081 A 
ATOM      2  C3  UNL d   1      -0.904  -0.078   0.546  0.00  0.00     0.006 A 
ATOM      3  C4  UNL d   1      -0.219   1.058   0.986  0.00  0.00     0.002 A 
ATOM      4  C5  UNL d   1       1.099   1.293   0.581  0.00  0.00    -0.080 A 
ATOM      5  C6  UNL d   1       1.835   2.523   1.022  0.00  0.00     0.076 C 
ATOM      6  C7  UNL d   1       1.731   0.362  -0.250  0.00  0.00     0.002 A 
ATOM      7  C8  UNL d   1       1.047  -0.774  -0.690  0.00  0.00     0.006 A 
ENDROOT
BRANCH   1   8
ATOM      8  C1  UNL d   1      -1.034  -2.193  -0.829  0.00  0.00     0.054 C 
ATOM      9  C   UNL d   1      -2.002  -1.789  -1.932  0.00  0.00     0.018 C 
ENDBRANCH   1   8
TORSDOF 1
ENDMDL
