MODEL 1
REMARK minimizedAffinity -3.87774825
REMARK minimizedRMSD -1
REMARK  1 active torsions:
REMARK  status: ('A' for Active; 'I' for Inactive)
REMARK    1  A    between atoms: C1_2  and  C2_3 
ROOT
ATOM      1  C2  UNL d   1       0.864   0.079   0.152  0.00  0.00    -0.081 A 
ATOM      2  C3  UNL d   1       0.616   1.009   1.169  0.00  0.00     0.006 A 
ATOM      3  C4  UNL d   1      -0.502   0.874   1.996  0.00  0.00     0.002 A 
ATOM      4  C5  UNL d   1      -1.386  -0.197   1.824  0.00  0.00    -0.080 A 
ATOM      5  C6  UNL d   1      -2.574  -0.370   2.724  0.00  0.00     0.076 C 
ATOM      6  C7  UNL d   1      -1.148  -1.116   0.797  0.00  0.00     0.002 A 
ATOM      7  C8  UNL d   1      -0.031  -0.981  -0.030  0.00  0.00     0.006 A 
ENDROOT
BRANCH   1   8
ATOM      8  C1  UNL d   1       2.104   0.186  -0.699  0.00  0.00     0.054 C 
ATOM      9  C   UNL d   1       2.734  -1.180  -0.931  0.00  0.00     0.018 C 
ENDBRANCH   1   8
TORSDOF 1
ENDMDL
