MODEL 1
REMARK minimizedAffinity -3.53055525
REMARK minimizedRMSD -1
REMARK  1 active torsions:
REMARK  status: ('A' for Active; 'I' for Inactive)
REMARK    1  A    between atoms: C1_2  and  C2_3 
ROOT
ATOM      1  C2  UNL d   1      -0.552  -0.771  -0.643  0.00  0.00    -0.081 A 
ATOM      2  C3  UNL d   1      -1.222  -0.215   0.454  0.00  0.00     0.006 A 
ATOM      3  C4  UNL d   1      -0.680   0.877   1.135  0.00  0.00     0.002 A 
ATOM      4  C5  UNL d   1       0.535   1.437   0.727  0.00  0.00    -0.080 A 
ATOM      5  C6  UNL d   1       1.113   2.628   1.431  0.00  0.00     0.076 C 
ATOM      6  C7  UNL d   1       1.213   0.870  -0.358  0.00  0.00     0.002 A 
ATOM      7  C8  UNL d   1       0.672  -0.222  -1.039  0.00  0.00     0.006 A 
ENDROOT
BRANCH   1   8
ATOM      8  C1  UNL d   1      -1.165  -1.908  -1.420  0.00  0.00     0.054 C 
ATOM      9  C   UNL d   1      -1.343  -1.544  -2.887  0.00  0.00     0.018 C 
ENDBRANCH   1   8
TORSDOF 1
ENDMDL
