MODEL 1
REMARK minimizedAffinity -2.46837807
REMARK minimizedRMSD -1
REMARK  1 active torsions:
REMARK  status: ('A' for Active; 'I' for Inactive)
REMARK    1  A    between atoms: C1_2  and  C2_3 
ROOT
ATOM      1  C2  UNL d   1      -0.314  -0.577   0.011  0.00  0.00    -0.081 A 
ATOM      2  C3  UNL d   1      -0.836   0.005   1.172  0.00  0.00     0.006 A 
ATOM      3  C4  UNL d   1      -0.323   1.213   1.651  0.00  0.00     0.002 A 
ATOM      4  C5  UNL d   1       0.714   1.862   0.972  0.00  0.00    -0.080 A 
ATOM      5  C6  UNL d   1       1.254   3.174   1.459  0.00  0.00     0.076 C 
ATOM      6  C7  UNL d   1       1.248   1.271  -0.178  0.00  0.00     0.002 A 
ATOM      7  C8  UNL d   1       0.735   0.063  -0.657  0.00  0.00     0.006 A 
ENDROOT
BRANCH   1   8
ATOM      8  C1  UNL d   1      -0.909  -1.847  -0.544  0.00  0.00     0.054 C 
ATOM      9  C   UNL d   1      -2.006  -1.548  -1.556  0.00  0.00     0.018 C 
ENDBRANCH   1   8
TORSDOF 1
ENDMDL
