MODEL 1
REMARK minimizedAffinity -4.31231785
REMARK minimizedRMSD -1
REMARK  1 active torsions:
REMARK  status: ('A' for Active; 'I' for Inactive)
REMARK    1  A    between atoms: C1_2  and  C2_3 
ROOT
ATOM      1  C2  UNL d   1      -0.388  -0.376  -0.294  0.00  0.00    -0.081 A 
ATOM      2  C3  UNL d   1      -0.609   0.006   1.035  0.00  0.00     0.006 A 
ATOM      3  C4  UNL d   1       0.031   1.128   1.565  0.00  0.00     0.002 A 
ATOM      4  C5  UNL d   1       0.895   1.893   0.774  0.00  0.00    -0.080 A 
ATOM      5  C6  UNL d   1       1.565   3.118   1.322  0.00  0.00     0.076 C 
ATOM      6  C7  UNL d   1       1.129   1.502  -0.549  0.00  0.00     0.002 A 
ATOM      7  C8  UNL d   1       0.490   0.379  -1.079  0.00  0.00     0.006 A 
ENDROOT
BRANCH   1   8
ATOM      8  C1  UNL d   1      -1.126  -1.548  -0.888  0.00  0.00     0.054 C 
ATOM      9  C   UNL d   1      -2.162  -1.092  -1.906  0.00  0.00     0.018 C 
ENDBRANCH   1   8
TORSDOF 1
ENDMDL
