MODEL 1
REMARK minimizedAffinity -4.54777765
REMARK minimizedRMSD -1
REMARK  1 active torsions:
REMARK  status: ('A' for Active; 'I' for Inactive)
REMARK    1  A    between atoms: C1_2  and  C2_3 
ROOT
ATOM      1  C2  UNL d   1      -0.145  -0.504  -0.372  0.00  0.00    -0.081 A 
ATOM      2  C3  UNL d   1       0.961   0.133  -0.948  0.00  0.00     0.006 A 
ATOM      3  C4  UNL d   1       1.569   1.214  -0.306  0.00  0.00     0.002 A 
ATOM      4  C5  UNL d   1       1.087   1.672   0.924  0.00  0.00    -0.080 A 
ATOM      5  C6  UNL d   1       1.749   2.813   1.638  0.00  0.00     0.076 C 
ATOM      6  C7  UNL d   1      -0.029   1.047   1.492  0.00  0.00     0.002 A 
ATOM      7  C8  UNL d   1      -0.637  -0.034   0.851  0.00  0.00     0.006 A 
ENDROOT
BRANCH   1   8
ATOM      8  C1  UNL d   1      -0.762  -1.712  -1.029  0.00  0.00     0.054 C 
ATOM      9  C   UNL d   1      -1.653  -1.311  -2.196  0.00  0.00     0.018 C 
ENDBRANCH   1   8
TORSDOF 1
ENDMDL
