MODEL 1
REMARK minimizedAffinity -6.03100872
REMARK minimizedRMSD -1
REMARK  1 active torsions:
REMARK  status: ('A' for Active; 'I' for Inactive)
REMARK    1  A    between atoms: C1_2  and  C2_3 
ROOT
ATOM      1  C2  UNL d   1      -0.543  -0.661  -0.416  0.00  0.00    -0.081 A 
ATOM      2  C3  UNL d   1      -1.038  -0.118   0.776  0.00  0.00     0.006 A 
ATOM      3  C4  UNL d   1      -0.432   1.002   1.350  0.00  0.00     0.002 A 
ATOM      4  C5  UNL d   1       0.673   1.603   0.738  0.00  0.00    -0.080 A 
ATOM      5  C6  UNL d   1       1.313   2.824   1.327  0.00  0.00     0.076 C 
ATOM      6  C7  UNL d   1       1.179   1.051  -0.444  0.00  0.00     0.002 A 
ATOM      7  C8  UNL d   1       0.574  -0.070  -1.018  0.00  0.00     0.006 A 
ENDROOT
BRANCH   1   8
ATOM      8  C1  UNL d   1      -1.233  -1.830  -1.071  0.00  0.00     0.054 C 
ATOM      9  C   UNL d   1      -1.835  -1.436  -2.413  0.00  0.00     0.018 C 
ENDBRANCH   1   8
TORSDOF 1
ENDMDL
