MODEL 1
REMARK minimizedAffinity -5.36372662
REMARK minimizedRMSD -1
REMARK  1 active torsions:
REMARK  status: ('A' for Active; 'I' for Inactive)
REMARK    1  A    between atoms: C1_2  and  C2_3 
ROOT
ATOM      1  C2  UNL d   1      -0.148  -0.477  -0.300  0.00  0.00    -0.081 A 
ATOM      2  C3  UNL d   1       1.117  -0.061  -0.733  0.00  0.00     0.006 A 
ATOM      3  C4  UNL d   1       1.714   1.078  -0.187  0.00  0.00     0.002 A 
ATOM      4  C5  UNL d   1       1.060   1.815   0.806  0.00  0.00    -0.080 A 
ATOM      5  C6  UNL d   1       1.702   3.022   1.422  0.00  0.00     0.076 C 
ATOM      6  C7  UNL d   1      -0.212   1.410   1.226  0.00  0.00     0.002 A 
ATOM      7  C8  UNL d   1      -0.809   0.271   0.680  0.00  0.00     0.006 A 
ENDROOT
BRANCH   1   8
ATOM      8  C1  UNL d   1      -0.766  -1.741  -0.841  0.00  0.00     0.054 C 
ATOM      9  C   UNL d   1      -1.434  -1.498  -2.186  0.00  0.00     0.018 C 
ENDBRANCH   1   8
TORSDOF 1
ENDMDL
