MODEL 1
REMARK minimizedAffinity -3.66952682
REMARK minimizedRMSD -1
REMARK  1 active torsions:
REMARK  status: ('A' for Active; 'I' for Inactive)
REMARK    1  A    between atoms: C1_2  and  C2_3 
ROOT
ATOM      1  C2  UNL d   1      -0.430   0.707   0.700  0.00  0.00    -0.081 A 
ATOM      2  C3  UNL d   1      -1.235   1.258  -0.304  0.00  0.00     0.006 A 
ATOM      3  C4  UNL d   1      -1.594   0.499  -1.420  0.00  0.00     0.002 A 
ATOM      4  C5  UNL d   1      -1.161  -0.825  -1.547  0.00  0.00    -0.080 A 
ATOM      5  C6  UNL d   1      -1.565  -1.661  -2.725  0.00  0.00     0.076 C 
ATOM      6  C7  UNL d   1      -0.343  -1.371  -0.552  0.00  0.00     0.002 A 
ATOM      7  C8  UNL d   1       0.018  -0.612   0.563  0.00  0.00     0.006 A 
ENDROOT
BRANCH   1   8
ATOM      8  C1  UNL d   1      -0.094   1.502   1.936  0.00  0.00     0.054 C 
ATOM      9  C   UNL d   1       1.352   1.977   1.912  0.00  0.00     0.018 C 
ENDBRANCH   1   8
TORSDOF 1
ENDMDL
