MODEL 1
REMARK minimizedAffinity 0.167553127
REMARK minimizedRMSD -1
REMARK  1 active torsions:
REMARK  status: ('A' for Active; 'I' for Inactive)
REMARK    1  A    between atoms: C1_2  and  C2_3 
ROOT
ATOM      1  C2  UNL d   1       1.007  -0.135  -0.224  0.00  0.00    -0.081 A 
ATOM      2  C3  UNL d   1       1.267   1.057   0.463  0.00  0.00     0.006 A 
ATOM      3  C4  UNL d   1       0.311   1.603   1.323  0.00  0.00     0.002 A 
ATOM      4  C5  UNL d   1      -0.918   0.962   1.516  0.00  0.00    -0.080 A 
ATOM      5  C6  UNL d   1      -1.941   1.520   2.459  0.00  0.00     0.076 C 
ATOM      6  C7  UNL d   1      -1.185  -0.220   0.816  0.00  0.00     0.002 A 
ATOM      7  C8  UNL d   1      -0.229  -0.765  -0.044  0.00  0.00     0.006 A 
ENDROOT
BRANCH   1   8
ATOM      8  C1  UNL d   1       2.061  -0.759  -1.102  0.00  0.00     0.054 C 
ATOM      9  C   UNL d   1       3.310   0.109  -1.170  0.00  0.00     0.018 C 
ENDBRANCH   1   8
TORSDOF 1
ENDMDL
