MODEL 1
REMARK minimizedAffinity -5.80310726
REMARK minimizedRMSD -1
REMARK  1 active torsions:
REMARK  status: ('A' for Active; 'I' for Inactive)
REMARK    1  A    between atoms: C1_2  and  C2_3 
ROOT
ATOM      1  C2  UNL d   1      -0.568  -0.797  -0.284  0.00  0.00    -0.081 A 
ATOM      2  C3  UNL d   1      -1.152  -0.232   0.857  0.00  0.00     0.006 A 
ATOM      3  C4  UNL d   1      -0.564   0.871   1.480  0.00  0.00     0.002 A 
ATOM      4  C5  UNL d   1       0.612   1.432   0.970  0.00  0.00    -0.080 A 
ATOM      5  C6  UNL d   1       1.237   2.635   1.612  0.00  0.00     0.076 C 
ATOM      6  C7  UNL d   1       1.204   0.856  -0.160  0.00  0.00     0.002 A 
ATOM      7  C8  UNL d   1       0.617  -0.247  -0.783  0.00  0.00     0.006 A 
ENDROOT
BRANCH   1   8
ATOM      8  C1  UNL d   1      -1.235  -1.947  -0.996  0.00  0.00     0.054 C 
ATOM      9  C   UNL d   1      -1.726  -1.532  -2.376  0.00  0.00     0.018 C 
ENDBRANCH   1   8
TORSDOF 1
ENDMDL
