MODEL 1
REMARK minimizedAffinity 1.97210991
REMARK minimizedRMSD -1
REMARK  2 active torsions:
REMARK  status: ('A' for Active; 'I' for Inactive)
REMARK    1  A    between atoms: C1_2  and  C2_3 
REMARK    2  A    between atoms: C2_3  and  C3_4 
ROOT
ATOM      1  C3  UNL d   1       4.261   4.383   2.297  0.00  0.00    -0.075 A 
ATOM      2  C4  UNL d   1       3.991   5.380   1.348  0.00  0.00     0.002 A 
ATOM      3  C5  UNL d   1       4.293   5.175   0.001  0.00  0.00     0.002 A 
ATOM      4  C6  UNL d   1       4.876   3.979  -0.411  0.00  0.00    -0.004 A 
ATOM      5  C7  UNL d   1       5.163   2.989   0.526  0.00  0.00     0.002 A 
ATOM      6  C8  UNL d   1       4.858   3.189   1.873  0.00  0.00     0.002 A 
ENDROOT
BRANCH   1   7
ATOM      7  C2  UNL d   1       3.909   4.586   3.752  0.00  0.00     0.056 C 
BRANCH   7   8
ATOM      8  C1  UNL d   1       3.390   5.991   4.078  0.00  0.00     0.007 C 
ATOM      9  C   UNL d   1       2.268   5.992   5.107  0.00  0.00     0.009 C 
ENDBRANCH   7   8
ENDBRANCH   1   7
TORSDOF 2
ENDMDL
