MODEL 1
REMARK minimizedAffinity -0.909438133
REMARK minimizedRMSD -1
REMARK  2 active torsions:
REMARK  status: ('A' for Active; 'I' for Inactive)
REMARK    1  A    between atoms: C1_2  and  C2_3 
REMARK    2  A    between atoms: C2_3  and  C3_4 
ROOT
ATOM      1  C3  UNL d   1      -1.932  -2.205  -0.267  0.00  0.00    -0.075 A 
ATOM      2  C4  UNL d   1      -2.482  -2.962  -1.312  0.00  0.00     0.002 A 
ATOM      3  C5  UNL d   1      -1.768  -4.024  -1.869  0.00  0.00     0.002 A 
ATOM      4  C6  UNL d   1      -0.495  -4.335  -1.397  0.00  0.00    -0.004 A 
ATOM      5  C7  UNL d   1       0.067  -3.580  -0.370  0.00  0.00     0.002 A 
ATOM      6  C8  UNL d   1      -0.646  -2.520   0.192  0.00  0.00     0.002 A 
ENDROOT
BRANCH   1   7
ATOM      7  C2  UNL d   1      -2.711  -1.073   0.359  0.00  0.00     0.056 C 
BRANCH   7   8
ATOM      8  C1  UNL d   1      -2.785  -1.139   1.888  0.00  0.00     0.007 C 
ATOM      9  C   UNL d   1      -3.925  -2.012   2.397  0.00  0.00     0.009 C 
ENDBRANCH   7   8
ENDBRANCH   1   7
TORSDOF 2
ENDMDL
