MODEL 1
REMARK minimizedAffinity -2.38443279
REMARK minimizedRMSD -1
REMARK  2 active torsions:
REMARK  status: ('A' for Active; 'I' for Inactive)
REMARK    1  A    between atoms: C1_2  and  C2_3 
REMARK    2  A    between atoms: C2_3  and  C3_4 
ROOT
ATOM      1  C3  UNL d   1       1.543  -1.369   0.040  0.00  0.00    -0.075 A 
ATOM      2  C4  UNL d   1       2.722  -2.079  -0.230  0.00  0.00     0.002 A 
ATOM      3  C5  UNL d   1       2.696  -3.466  -0.379  0.00  0.00     0.002 A 
ATOM      4  C6  UNL d   1       1.495  -4.161  -0.250  0.00  0.00    -0.004 A 
ATOM      5  C7  UNL d   1       0.321  -3.468   0.034  0.00  0.00     0.002 A 
ATOM      6  C8  UNL d   1       0.343  -2.079   0.179  0.00  0.00     0.002 A 
ENDROOT
BRANCH   1   7
ATOM      7  C2  UNL d   1       1.560   0.135   0.173  0.00  0.00     0.056 C 
BRANCH   7   8
ATOM      8  C1  UNL d   1       2.760   0.678   0.956  0.00  0.00     0.007 C 
ATOM      9  C   UNL d   1       2.402   1.841   1.873  0.00  0.00     0.009 C 
ENDBRANCH   7   8
ENDBRANCH   1   7
TORSDOF 2
ENDMDL
