MODEL 1
REMARK minimizedAffinity 8.7909317
REMARK minimizedRMSD -1
REMARK  2 active torsions:
REMARK  status: ('A' for Active; 'I' for Inactive)
REMARK    1  A    between atoms: C1_2  and  C2_3 
REMARK    2  A    between atoms: C2_3  and  C3_4 
ROOT
ATOM      1  C3  UNL d   1       2.207   1.952   1.709  0.00  0.00    -0.075 A 
ATOM      2  C4  UNL d   1       1.594   2.937   2.496  0.00  0.00     0.002 A 
ATOM      3  C5  UNL d   1       2.364   3.825   3.248  0.00  0.00     0.002 A 
ATOM      4  C6  UNL d   1       3.754   3.732   3.231  0.00  0.00    -0.004 A 
ATOM      5  C7  UNL d   1       4.374   2.747   2.466  0.00  0.00     0.002 A 
ATOM      6  C8  UNL d   1       3.606   1.860   1.709  0.00  0.00     0.002 A 
ENDROOT
BRANCH   1   7
ATOM      7  C2  UNL d   1       1.380   1.007   0.870  0.00  0.00     0.056 C 
BRANCH   7   8
ATOM      8  C1  UNL d   1       2.166  -0.186   0.316  0.00  0.00     0.007 C 
ATOM      9  C   UNL d   1       2.641   0.021  -1.116  0.00  0.00     0.009 C 
ENDBRANCH   7   8
ENDBRANCH   1   7
TORSDOF 2
ENDMDL
