MODEL 1
REMARK minimizedAffinity 6.52480459
REMARK minimizedRMSD -1
REMARK  2 active torsions:
REMARK  status: ('A' for Active; 'I' for Inactive)
REMARK    1  A    between atoms: C1_2  and  C2_3 
REMARK    2  A    between atoms: C2_3  and  C3_4 
ROOT
ATOM      1  C3  UNL d   1       3.903   3.880   2.572  0.00  0.00    -0.075 A 
ATOM      2  C4  UNL d   1       2.512   3.810   2.408  0.00  0.00     0.002 A 
ATOM      3  C5  UNL d   1       1.903   2.613   2.026  0.00  0.00     0.002 A 
ATOM      4  C6  UNL d   1       2.677   1.478   1.795  0.00  0.00    -0.004 A 
ATOM      5  C7  UNL d   1       4.061   1.541   1.938  0.00  0.00     0.002 A 
ATOM      6  C8  UNL d   1       4.672   2.735   2.324  0.00  0.00     0.002 A 
ENDROOT
BRANCH   1   7
ATOM      7  C2  UNL d   1       4.564   5.164   3.013  0.00  0.00     0.056 C 
BRANCH   7   8
ATOM      8  C1  UNL d   1       4.358   5.495   4.495  0.00  0.00     0.007 C 
ATOM      9  C   UNL d   1       5.645   5.887   5.207  0.00  0.00     0.009 C 
ENDBRANCH   7   8
ENDBRANCH   1   7
TORSDOF 2
ENDMDL
