MODEL 1
REMARK minimizedAffinity 3.68534565
REMARK minimizedRMSD -1
REMARK  2 active torsions:
REMARK  status: ('A' for Active; 'I' for Inactive)
REMARK    1  A    between atoms: C1_2  and  C2_3 
REMARK    2  A    between atoms: C2_3  and  C3_4 
ROOT
ATOM      1  C3  UNL d   1       1.727  -0.483   0.725  0.00  0.00    -0.075 A 
ATOM      2  C4  UNL d   1       0.580  -1.270   0.900  0.00  0.00     0.002 A 
ATOM      3  C5  UNL d   1       0.599  -2.630   0.588  0.00  0.00     0.002 A 
ATOM      4  C6  UNL d   1       1.760  -3.216   0.088  0.00  0.00    -0.004 A 
ATOM      5  C7  UNL d   1       2.901  -2.440  -0.105  0.00  0.00     0.002 A 
ATOM      6  C8  UNL d   1       2.886  -1.081   0.211  0.00  0.00     0.002 A 
ENDROOT
BRANCH   1   7
ATOM      7  C2  UNL d   1       1.722   0.982   1.089  0.00  0.00     0.056 C 
BRANCH   7   8
ATOM      8  C1  UNL d   1       2.986   1.449   1.818  0.00  0.00     0.007 C 
ATOM      9  C   UNL d   1       2.809   2.781   2.536  0.00  0.00     0.009 C 
ENDBRANCH   7   8
ENDBRANCH   1   7
TORSDOF 2
ENDMDL
