MODEL 1
REMARK minimizedAffinity 6.6844964
REMARK minimizedRMSD -1
REMARK  2 active torsions:
REMARK  status: ('A' for Active; 'I' for Inactive)
REMARK    1  A    between atoms: C1_2  and  C2_3 
REMARK    2  A    between atoms: C2_3  and  C3_4 
ROOT
ATOM      1  C3  UNL d   1       2.103   3.775   2.403  0.00  0.00    -0.075 A 
ATOM      2  C4  UNL d   1       1.723   2.519   1.907  0.00  0.00     0.002 A 
ATOM      3  C5  UNL d   1       2.686   1.607   1.476  0.00  0.00     0.002 A 
ATOM      4  C6  UNL d   1       4.038   1.941   1.526  0.00  0.00    -0.004 A 
ATOM      5  C7  UNL d   1       4.426   3.192   2.001  0.00  0.00     0.002 A 
ATOM      6  C8  UNL d   1       3.464   4.105   2.437  0.00  0.00     0.002 A 
ENDROOT
BRANCH   1   7
ATOM      7  C2  UNL d   1       1.067   4.756   2.898  0.00  0.00     0.056 C 
BRANCH   7   8
ATOM      8  C1  UNL d   1       0.322   4.294   4.155  0.00  0.00     0.007 C 
ATOM      9  C   UNL d   1       0.627   5.145   5.381  0.00  0.00     0.009 C 
ENDBRANCH   7   8
ENDBRANCH   1   7
TORSDOF 2
ENDMDL
