MODEL 1
REMARK minimizedAffinity 0.30099678
REMARK minimizedRMSD -1
REMARK  2 active torsions:
REMARK  status: ('A' for Active; 'I' for Inactive)
REMARK    1  A    between atoms: C1_2  and  C2_3 
REMARK    2  A    between atoms: C2_3  and  C3_4 
ROOT
ATOM      1  C3  UNL d   1       3.029   2.509   2.355  0.00  0.00    -0.075 A 
ATOM      2  C4  UNL d   1       1.979   2.289   3.257  0.00  0.00     0.002 A 
ATOM      3  C5  UNL d   1       1.512   3.325   4.067  0.00  0.00     0.002 A 
ATOM      4  C6  UNL d   1       2.094   4.588   3.993  0.00  0.00    -0.004 A 
ATOM      5  C7  UNL d   1       3.149   4.814   3.111  0.00  0.00     0.002 A 
ATOM      6  C8  UNL d   1       3.615   3.781   2.297  0.00  0.00     0.002 A 
ENDROOT
BRANCH   1   7
ATOM      7  C2  UNL d   1       3.520   1.401   1.454  0.00  0.00     0.056 C 
BRANCH   7   8
ATOM      8  C1  UNL d   1       2.417   0.741   0.619  0.00  0.00     0.007 C 
ATOM      9  C   UNL d   1       2.922  -0.408  -0.243  0.00  0.00     0.009 C 
ENDBRANCH   7   8
ENDBRANCH   1   7
TORSDOF 2
ENDMDL
