MODEL 1
REMARK minimizedAffinity 9.08501148
REMARK minimizedRMSD -1
REMARK  2 active torsions:
REMARK  status: ('A' for Active; 'I' for Inactive)
REMARK    1  A    between atoms: C1_2  and  C2_3 
REMARK    2  A    between atoms: C2_3  and  C3_4 
ROOT
ATOM      1  C3  UNL d   1       3.024   1.864  -3.805  0.00  0.00    -0.075 A 
ATOM      2  C4  UNL d   1       3.823   1.607  -2.681  0.00  0.00     0.002 A 
ATOM      3  C5  UNL d   1       4.941   2.397  -2.412  0.00  0.00     0.002 A 
ATOM      4  C6  UNL d   1       5.281   3.443  -3.267  0.00  0.00    -0.004 A 
ATOM      5  C7  UNL d   1       4.504   3.696  -4.395  0.00  0.00     0.002 A 
ATOM      6  C8  UNL d   1       3.382   2.911  -4.664  0.00  0.00     0.002 A 
ENDROOT
BRANCH   1   7
ATOM      7  C2  UNL d   1       1.795   1.032  -4.085  0.00  0.00     0.056 C 
BRANCH   7   8
ATOM      8  C1  UNL d   1       1.523   0.803  -5.576  0.00  0.00     0.007 C 
ATOM      9  C   UNL d   1       0.045   0.622  -5.896  0.00  0.00     0.009 C 
ENDBRANCH   7   8
ENDBRANCH   1   7
TORSDOF 2
ENDMDL
