MODEL 1
REMARK minimizedAffinity 8.17251205
REMARK minimizedRMSD -1
REMARK  2 active torsions:
REMARK  status: ('A' for Active; 'I' for Inactive)
REMARK    1  A    between atoms: C1_2  and  C2_3 
REMARK    2  A    between atoms: C2_3  and  C3_4 
ROOT
ATOM      1  C3  UNL d   1      -4.069   1.068   0.095  0.00  0.00    -0.075 A 
ATOM      2  C4  UNL d   1      -5.019   0.774  -0.895  0.00  0.00     0.002 A 
ATOM      3  C5  UNL d   1      -5.973   1.722  -1.265  0.00  0.00     0.002 A 
ATOM      4  C6  UNL d   1      -5.996   2.970  -0.645  0.00  0.00    -0.004 A 
ATOM      5  C7  UNL d   1      -5.068   3.266   0.351  0.00  0.00     0.002 A 
ATOM      6  C8  UNL d   1      -4.109   2.321   0.720  0.00  0.00     0.002 A 
ENDROOT
BRANCH   1   7
ATOM      7  C2  UNL d   1      -3.015   0.056   0.479  0.00  0.00     0.056 C 
BRANCH   7   8
ATOM      8  C1  UNL d   1      -2.851  -0.129   1.991  0.00  0.00     0.007 C 
ATOM      9  C   UNL d   1      -3.556  -1.370   2.523  0.00  0.00     0.009 C 
ENDBRANCH   7   8
ENDBRANCH   1   7
TORSDOF 2
ENDMDL
