MODEL 1
REMARK minimizedAffinity 2.25622201
REMARK minimizedRMSD -1
REMARK  2 active torsions:
REMARK  status: ('A' for Active; 'I' for Inactive)
REMARK    1  A    between atoms: C1_2  and  C2_3 
REMARK    2  A    between atoms: C2_3  and  C3_4 
ROOT
ATOM      1  C3  UNL d   1       3.088   4.285   2.646  0.00  0.00    -0.075 A 
ATOM      2  C4  UNL d   1       4.259   3.600   2.292  0.00  0.00     0.002 A 
ATOM      3  C5  UNL d   1       4.208   2.259   1.912  0.00  0.00     0.002 A 
ATOM      4  C6  UNL d   1       2.990   1.583   1.890  0.00  0.00    -0.004 A 
ATOM      5  C7  UNL d   1       1.822   2.249   2.255  0.00  0.00     0.002 A 
ATOM      6  C8  UNL d   1       1.869   3.593   2.632  0.00  0.00     0.002 A 
ENDROOT
BRANCH   1   7
ATOM      7  C2  UNL d   1       3.132   5.744   3.030  0.00  0.00     0.056 C 
BRANCH   7   8
ATOM      8  C1  UNL d   1       2.953   6.000   4.530  0.00  0.00     0.007 C 
ATOM      9  C   UNL d   1       4.266   5.998   5.301  0.00  0.00     0.009 C 
ENDBRANCH   7   8
ENDBRANCH   1   7
TORSDOF 2
ENDMDL
