MODEL 1
REMARK minimizedAffinity 1.96469986
REMARK minimizedRMSD -1
REMARK  2 active torsions:
REMARK  status: ('A' for Active; 'I' for Inactive)
REMARK    1  A    between atoms: C1_2  and  C2_3 
REMARK    2  A    between atoms: C2_3  and  C3_4 
ROOT
ATOM      1  C3  UNL d   1       3.434   4.140   2.685  0.00  0.00    -0.075 A 
ATOM      2  C4  UNL d   1       3.735   4.727   1.448  0.00  0.00     0.002 A 
ATOM      3  C5  UNL d   1       3.278   4.153   0.261  0.00  0.00     0.002 A 
ATOM      4  C6  UNL d   1       2.525   2.981   0.296  0.00  0.00    -0.004 A 
ATOM      5  C7  UNL d   1       2.235   2.380   1.519  0.00  0.00     0.002 A 
ATOM      6  C8  UNL d   1       2.687   2.955   2.708  0.00  0.00     0.002 A 
ENDROOT
BRANCH   1   7
ATOM      7  C2  UNL d   1       3.901   4.773   3.974  0.00  0.00     0.056 C 
BRANCH   7   8
ATOM      8  C1  UNL d   1       2.993   5.899   4.481  0.00  0.00     0.007 C 
ATOM      9  C   UNL d   1       2.953   6.000   6.000  0.00  0.00     0.009 C 
ENDBRANCH   7   8
ENDBRANCH   1   7
TORSDOF 2
ENDMDL
