MODEL 1
REMARK minimizedAffinity 14.6616964
REMARK minimizedRMSD -1
REMARK  0 active torsions:
REMARK  status: ('A' for Active; 'I' for Inactive)
ROOT
ATOM      1  C   UNL d   1       2.334  -1.916   3.161  0.00  0.00     0.023 A 
ATOM      2  C1  UNL d   1       1.922  -1.029   4.156  0.00  0.00     0.003 A 
ATOM      3  C2  UNL d   1       1.818   0.336   3.878  0.00  0.00     0.048 A 
ATOM      4  C3  UNL d   1       2.127   0.806   2.602  0.00  0.00     0.023 A 
ATOM      5  C4  UNL d   1       2.539  -0.077   1.603  0.00  0.00     0.048 A 
ATOM      6  C5  UNL d   1       2.642  -1.441   1.886  0.00  0.00     0.003 A 
ATOM      7  I   UNL d   1       1.974   2.837   2.186  0.00  0.00    -0.146 I 
ENDROOT
TORSDOF 0
ENDMDL
