MODEL 1
REMARK minimizedAffinity 8.54912567
REMARK minimizedRMSD -1
REMARK  0 active torsions:
REMARK  status: ('A' for Active; 'I' for Inactive)
ROOT
ATOM      1  C   UNL d   1       5.792   0.307  -6.000  0.00  0.00     0.023 A 
ATOM      2  C1  UNL d   1       6.000  -1.009  -5.585  0.00  0.00     0.003 A 
ATOM      3  C2  UNL d   1       5.277  -1.525  -4.508  0.00  0.00     0.048 A 
ATOM      4  C3  UNL d   1       4.346  -0.721  -3.851  0.00  0.00     0.023 A 
ATOM      5  C4  UNL d   1       4.134   0.596  -4.263  0.00  0.00     0.048 A 
ATOM      6  C5  UNL d   1       4.860   1.108  -5.340  0.00  0.00     0.003 A 
ATOM      7  I   UNL d   1       3.268  -1.488  -2.248  0.00  0.00    -0.146 I 
ENDROOT
TORSDOF 0
ENDMDL
