MODEL 1
REMARK minimizedAffinity 5.98476505
REMARK minimizedRMSD -1
REMARK  0 active torsions:
REMARK  status: ('A' for Active; 'I' for Inactive)
ROOT
ATOM      1  C   UNL d   1       5.940  -5.845  -3.418  0.00  0.00     0.023 A 
ATOM      2  C1  UNL d   1       5.955  -5.790  -4.812  0.00  0.00     0.003 A 
ATOM      3  C2  UNL d   1       4.756  -5.835  -5.526  0.00  0.00     0.048 A 
ATOM      4  C3  UNL d   1       3.546  -5.933  -4.840  0.00  0.00     0.023 A 
ATOM      5  C4  UNL d   1       3.526  -5.988  -3.445  0.00  0.00     0.048 A 
ATOM      6  C5  UNL d   1       4.728  -5.943  -2.735  0.00  0.00     0.003 A 
ATOM      7  I   UNL d   1       1.760  -6.000  -5.901  0.00  0.00    -0.146 I 
ENDROOT
TORSDOF 0
ENDMDL
