MODEL 1
REMARK minimizedAffinity 5.1825161
REMARK minimizedRMSD -1
REMARK  0 active torsions:
REMARK  status: ('A' for Active; 'I' for Inactive)
ROOT
ATOM      1  C   UNL d   1       3.138  -5.959  -1.622  0.00  0.00     0.023 A 
ATOM      2  C1  UNL d   1       4.533  -5.946  -1.629  0.00  0.00     0.003 A 
ATOM      3  C2  UNL d   1       5.227  -5.957  -2.841  0.00  0.00     0.048 A 
ATOM      4  C3  UNL d   1       4.519  -5.980  -4.042  0.00  0.00     0.023 A 
ATOM      5  C4  UNL d   1       3.123  -5.992  -4.040  0.00  0.00     0.048 A 
ATOM      6  C5  UNL d   1       2.434  -5.982  -2.826  0.00  0.00     0.003 A 
ATOM      7  I   UNL d   1       5.549  -5.996  -5.848  0.00  0.00    -0.146 I 
ENDROOT
TORSDOF 0
ENDMDL
