MODEL 1
REMARK minimizedAffinity 7.01851988
REMARK minimizedRMSD -1
REMARK  0 active torsions:
REMARK  status: ('A' for Active; 'I' for Inactive)
ROOT
ATOM      1  C   UNL d   1      -3.866   2.954   2.639  0.00  0.00     0.023 A 
ATOM      2  C1  UNL d   1      -3.094   2.727   1.499  0.00  0.00     0.003 A 
ATOM      3  C2  UNL d   1      -3.704   2.632   0.247  0.00  0.00     0.048 A 
ATOM      4  C3  UNL d   1      -5.088   2.766   0.141  0.00  0.00     0.023 A 
ATOM      5  C4  UNL d   1      -5.866   2.993   1.278  0.00  0.00     0.048 A 
ATOM      6  C5  UNL d   1      -5.250   3.087   2.528  0.00  0.00     0.003 A 
ATOM      7  I   UNL d   1      -6.000   2.625  -1.721  0.00  0.00    -0.146 I 
ENDROOT
TORSDOF 0
ENDMDL
