MODEL 1
REMARK minimizedAffinity 0.981241882
REMARK minimizedRMSD -1
REMARK  0 active torsions:
REMARK  status: ('A' for Active; 'I' for Inactive)
ROOT
ATOM      1  C   UNL d   1       3.671  -2.721   4.000  0.00  0.00     0.023 A 
ATOM      2  C1  UNL d   1       2.343  -2.712   3.572  0.00  0.00     0.003 A 
ATOM      3  C2  UNL d   1       1.422  -3.600   4.133  0.00  0.00     0.048 A 
ATOM      4  C3  UNL d   1       1.835  -4.492   5.121  0.00  0.00     0.023 A 
ATOM      5  C4  UNL d   1       3.162  -4.503   5.553  0.00  0.00     0.048 A 
ATOM      6  C5  UNL d   1       4.080  -3.615   4.989  0.00  0.00     0.003 A 
ATOM      7  I   UNL d   1       0.465  -5.813   5.957  0.00  0.00    -0.146 I 
ENDROOT
TORSDOF 0
ENDMDL
