MODEL 1
REMARK minimizedAffinity 4.09422874
REMARK minimizedRMSD -1
REMARK  0 active torsions:
REMARK  status: ('A' for Active; 'I' for Inactive)
ROOT
ATOM      1  C   UNL d   1       1.526   3.774   0.395  0.00  0.00     0.023 A 
ATOM      2  C1  UNL d   1       2.655   3.107  -0.080  0.00  0.00     0.003 A 
ATOM      3  C2  UNL d   1       3.490   3.723  -1.014  0.00  0.00     0.048 A 
ATOM      4  C3  UNL d   1       3.191   5.007  -1.468  0.00  0.00     0.023 A 
ATOM      5  C4  UNL d   1       2.063   5.679  -0.995  0.00  0.00     0.048 A 
ATOM      6  C5  UNL d   1       1.230   5.059  -0.062  0.00  0.00     0.003 A 
ATOM      7  I   UNL d   1       4.433   5.927  -2.858  0.00  0.00    -0.146 I 
ENDROOT
TORSDOF 0
ENDMDL
