MODEL 1
REMARK minimizedAffinity 9.57309246
REMARK minimizedRMSD -1
REMARK  0 active torsions:
REMARK  status: ('A' for Active; 'I' for Inactive)
ROOT
ATOM      1  C   UNL d   1       2.622  -2.119   2.797  0.00  0.00     0.023 A 
ATOM      2  C1  UNL d   1       2.240  -0.842   2.386  0.00  0.00     0.003 A 
ATOM      3  C2  UNL d   1       2.219   0.211   3.304  0.00  0.00     0.048 A 
ATOM      4  C3  UNL d   1       2.583  -0.021   4.630  0.00  0.00     0.023 A 
ATOM      5  C4  UNL d   1       2.967  -1.297   5.045  0.00  0.00     0.048 A 
ATOM      6  C5  UNL d   1       2.985  -2.346   4.125  0.00  0.00     0.003 A 
ATOM      7  I   UNL d   1       2.553   1.545   5.997  0.00  0.00    -0.146 I 
ENDROOT
TORSDOF 0
ENDMDL
