MODEL 1
REMARK minimizedAffinity 2.55570436
REMARK minimizedRMSD -1
REMARK  1 active torsions:
REMARK  status: ('A' for Active; 'I' for Inactive)
REMARK    1  A    between atoms: N_2  and  C1_3 
ROOT
ATOM      1  C1  UNL d   1       4.627  -3.840   0.420  0.00  0.00     0.143 A 
ATOM      2  C2  UNL d   1       4.651  -3.388   1.743  0.00  0.00    -0.057 A 
ATOM      3  C3  UNL d   1       3.518  -2.817   2.336  0.00  0.00     0.033 A 
ATOM      4  C4  UNL d   1       2.346  -2.662   1.604  0.00  0.00    -0.042 A 
ATOM      5  C5  UNL d   1       2.307  -3.081   0.279  0.00  0.00     0.033 A 
ATOM      6  C6  UNL d   1       3.439  -3.657  -0.306  0.00  0.00    -0.057 A 
ENDROOT
BRANCH   1   7
ATOM      7  N   UNL d   1       5.749  -4.326  -0.257  0.00  0.00    -0.732 N 
ATOM      8  C   UNL d   1       5.713  -5.616  -0.912  0.00  0.00     0.284 C 
ATOM      9  H3  UNL d   1       6.224  -3.602  -0.790  0.00  0.00     0.395 HD
ENDBRANCH   1   7
TORSDOF 1
ENDMDL
