MODEL 1
REMARK minimizedAffinity 8.12750912
REMARK minimizedRMSD -1
REMARK  1 active torsions:
REMARK  status: ('A' for Active; 'I' for Inactive)
REMARK    1  A    between atoms: N_2  and  C1_3 
ROOT
ATOM      1  C1  UNL d   1       2.455   4.906  -5.385  0.00  0.00     0.143 A 
ATOM      2  C2  UNL d   1       3.281   5.986  -5.714  0.00  0.00    -0.057 A 
ATOM      3  C3  UNL d   1       4.652   5.809  -5.939  0.00  0.00     0.033 A 
ATOM      4  C4  UNL d   1       5.227   4.549  -5.808  0.00  0.00    -0.042 A 
ATOM      5  C5  UNL d   1       4.429   3.466  -5.457  0.00  0.00     0.033 A 
ATOM      6  C6  UNL d   1       3.060   3.648  -5.241  0.00  0.00    -0.057 A 
ENDROOT
BRANCH   1   7
ATOM      7  N   UNL d   1       1.104   5.034  -5.054  0.00  0.00    -0.732 N 
ATOM      8  C   UNL d   1       0.216   5.832  -5.872  0.00  0.00     0.284 C 
ATOM      9  H3  UNL d   1       0.698   4.157  -4.733  0.00  0.00     0.395 HD
ENDBRANCH   1   7
TORSDOF 1
ENDMDL
