MODEL 1
REMARK minimizedAffinity 9.43519783
REMARK minimizedRMSD -1
REMARK  1 active torsions:
REMARK  status: ('A' for Active; 'I' for Inactive)
REMARK    1  A    between atoms: N_2  and  C1_3 
ROOT
ATOM      1  C1  UNL d   1       3.385  -3.949   0.779  0.00  0.00     0.143 A 
ATOM      2  C2  UNL d   1       3.749  -4.303   2.082  0.00  0.00    -0.057 A 
ATOM      3  C3  UNL d   1       4.847  -5.137   2.329  0.00  0.00     0.033 A 
ATOM      4  C4  UNL d   1       5.585  -5.656   1.270  0.00  0.00    -0.042 A 
ATOM      5  C5  UNL d   1       5.227  -5.337  -0.035  0.00  0.00     0.033 A 
ATOM      6  C6  UNL d   1       4.133  -4.499  -0.274  0.00  0.00    -0.057 A 
ENDROOT
BRANCH   1   7
ATOM      7  N   UNL d   1       2.246  -3.204   0.465  0.00  0.00    -0.732 N 
ATOM      8  C   UNL d   1       2.258  -1.761   0.566  0.00  0.00     0.284 C 
ATOM      9  H3  UNL d   1       1.765  -3.560  -0.358  0.00  0.00     0.395 HD
ENDBRANCH   1   7
TORSDOF 1
ENDMDL
