MODEL 1
REMARK minimizedAffinity 4.93143559
REMARK minimizedRMSD -1
REMARK  1 active torsions:
REMARK  status: ('A' for Active; 'I' for Inactive)
REMARK    1  A    between atoms: N_2  and  C1_3 
ROOT
ATOM      1  C1  UNL d   1       4.010   3.350  -5.238  0.00  0.00     0.143 A 
ATOM      2  C2  UNL d   1       2.695   3.760  -4.995  0.00  0.00    -0.057 A 
ATOM      3  C3  UNL d   1       2.279   5.068  -5.273  0.00  0.00     0.033 A 
ATOM      4  C4  UNL d   1       3.183   6.000  -5.773  0.00  0.00    -0.042 A 
ATOM      5  C5  UNL d   1       4.501   5.621  -5.999  0.00  0.00     0.033 A 
ATOM      6  C6  UNL d   1       4.908   4.312  -5.726  0.00  0.00    -0.057 A 
ENDROOT
BRANCH   1   7
ATOM      7  N   UNL d   1       4.509   2.092  -4.890  0.00  0.00    -0.732 N 
ATOM      8  C   UNL d   1       5.606   1.505  -5.628  0.00  0.00     0.284 C 
ATOM      9  H3  UNL d   1       4.569   1.963  -3.883  0.00  0.00     0.395 HD
ENDBRANCH   1   7
TORSDOF 1
ENDMDL
