MODEL 1
REMARK minimizedAffinity 5.36931658
REMARK minimizedRMSD -1
REMARK  1 active torsions:
REMARK  status: ('A' for Active; 'I' for Inactive)
REMARK    1  A    between atoms: N_2  and  C1_3 
ROOT
ATOM      1  C1  UNL d   1       3.777   3.880  -4.926  0.00  0.00     0.143 A 
ATOM      2  C2  UNL d   1       2.440   3.766  -4.529  0.00  0.00    -0.057 A 
ATOM      3  C3  UNL d   1       1.493   4.735  -4.882  0.00  0.00     0.033 A 
ATOM      4  C4  UNL d   1       1.873   5.854  -5.616  0.00  0.00    -0.042 A 
ATOM      5  C5  UNL d   1       3.202   6.000  -6.000  0.00  0.00     0.033 A 
ATOM      6  C6  UNL d   1       4.142   5.026  -5.650  0.00  0.00    -0.057 A 
ENDROOT
BRANCH   1   7
ATOM      7  N   UNL d   1       4.785   3.001  -4.523  0.00  0.00    -0.732 N 
ATOM      8  C   UNL d   1       4.524   1.582  -4.409  0.00  0.00     0.284 C 
ATOM      9  H3  UNL d   1       5.686   3.226  -4.940  0.00  0.00     0.395 HD
ENDBRANCH   1   7
TORSDOF 1
ENDMDL
