MODEL 1
REMARK minimizedAffinity 7.38943863
REMARK minimizedRMSD -1
REMARK  1 active torsions:
REMARK  status: ('A' for Active; 'I' for Inactive)
REMARK    1  A    between atoms: N_2  and  C1_3 
ROOT
ATOM      1  C1  UNL d   1       4.727   3.566  -5.477  0.00  0.00     0.143 A 
ATOM      2  C2  UNL d   1       3.462   3.637  -4.885  0.00  0.00    -0.057 A 
ATOM      3  C3  UNL d   1       2.739   4.836  -4.857  0.00  0.00     0.033 A 
ATOM      4  C4  UNL d   1       3.284   5.996  -5.397  0.00  0.00    -0.042 A 
ATOM      5  C5  UNL d   1       4.551   5.954  -5.969  0.00  0.00     0.033 A 
ATOM      6  C6  UNL d   1       5.264   4.752  -6.000  0.00  0.00    -0.057 A 
ENDROOT
BRANCH   1   7
ATOM      7  N   UNL d   1       5.536   2.427  -5.449  0.00  0.00    -0.732 N 
ATOM      8  C   UNL d   1       5.423   1.469  -4.371  0.00  0.00     0.284 C 
ATOM      9  H3  UNL d   1       5.646   2.007  -6.369  0.00  0.00     0.395 HD
ENDBRANCH   1   7
TORSDOF 1
ENDMDL
