MODEL 1
REMARK minimizedAffinity 0.272825927
REMARK minimizedRMSD -1
REMARK  1 active torsions:
REMARK  status: ('A' for Active; 'I' for Inactive)
REMARK    1  A    between atoms: C3_4  and  O_7 
ROOT
ATOM      1  C   UNL d   1      -1.516  -1.345   1.436  0.00  0.00    -0.033 A 
ATOM      2  C1  UNL d   1      -1.224   0.010   1.273  0.00  0.00     0.039 A 
ATOM      3  C2  UNL d   1      -0.709   0.474   0.061  0.00  0.00    -0.080 A 
ATOM      4  C3  UNL d   1      -0.492  -0.426  -0.979  0.00  0.00     0.150 A 
ATOM      5  C4  UNL d   1      -0.785  -1.777  -0.825  0.00  0.00    -0.007 A 
ATOM      6  C5  UNL d   1      -1.298  -2.238   0.386  0.00  0.00     0.039 A 
ENDROOT
BRANCH   4   7
ATOM      7  O   UNL d   1       0.014  -0.020  -2.178  0.00  0.00    -0.526 OA
ATOM      8  H5  UNL d   1       0.195   0.933  -2.129  0.00  0.00     0.418 HD
ENDBRANCH   4   7
TORSDOF 1
ENDMDL
