MODEL 1
REMARK minimizedAffinity -2.34105206
REMARK minimizedRMSD -1
REMARK  1 active torsions:
REMARK  status: ('A' for Active; 'I' for Inactive)
REMARK    1  A    between atoms: C3_4  and  O_7 
ROOT
ATOM      1  C   UNL d   1       2.431   3.711   1.244  0.00  0.00    -0.033 A 
ATOM      2  C1  UNL d   1       2.810   2.604   0.481  0.00  0.00     0.039 A 
ATOM      3  C2  UNL d   1       1.854   1.666   0.086  0.00  0.00    -0.080 A 
ATOM      4  C3  UNL d   1       0.525   1.847   0.459  0.00  0.00     0.150 A 
ATOM      5  C4  UNL d   1       0.140   2.949   1.215  0.00  0.00    -0.007 A 
ATOM      6  C5  UNL d   1       1.096   3.884   1.609  0.00  0.00     0.039 A 
ENDROOT
BRANCH   4   7
ATOM      7  O   UNL d   1      -0.443   0.955   0.101  0.00  0.00    -0.526 OA
ATOM      8  H5  UNL d   1      -0.026   0.231  -0.394  0.00  0.00     0.418 HD
ENDBRANCH   4   7
TORSDOF 1
ENDMDL
