MODEL 1
REMARK minimizedAffinity 3.48811054
REMARK minimizedRMSD -1
REMARK  1 active torsions:
REMARK  status: ('A' for Active; 'I' for Inactive)
REMARK    1  A    between atoms: C3_4  and  O_7 
ROOT
ATOM      1  C   UNL d   1      -1.985  -0.061   1.457  0.00  0.00    -0.033 A 
ATOM      2  C1  UNL d   1      -1.095  -1.134   1.375  0.00  0.00     0.039 A 
ATOM      3  C2  UNL d   1      -0.033  -1.096   0.469  0.00  0.00    -0.080 A 
ATOM      4  C3  UNL d   1       0.128   0.021  -0.347  0.00  0.00     0.150 A 
ATOM      5  C4  UNL d   1      -0.752   1.095  -0.268  0.00  0.00    -0.007 A 
ATOM      6  C5  UNL d   1      -1.812   1.054   0.637  0.00  0.00     0.039 A 
ENDROOT
BRANCH   4   7
ATOM      7  O   UNL d   1       1.147   0.102  -1.249  0.00  0.00    -0.526 OA
ATOM      8  H5  UNL d   1       1.657  -0.724  -1.213  0.00  0.00     0.418 HD
ENDBRANCH   4   7
TORSDOF 1
ENDMDL
