MODEL 1
REMARK minimizedAffinity -2.48404408
REMARK minimizedRMSD -1
REMARK  1 active torsions:
REMARK  status: ('A' for Active; 'I' for Inactive)
REMARK    1  A    between atoms: C3_4  and  O_7 
ROOT
ATOM      1  C   UNL d   1       0.231  -0.254   1.477  0.00  0.00    -0.033 A 
ATOM      2  C1  UNL d   1       1.394  -0.699   0.844  0.00  0.00     0.039 A 
ATOM      3  C2  UNL d   1       1.467  -0.720  -0.550  0.00  0.00    -0.080 A 
ATOM      4  C3  UNL d   1       0.373  -0.294  -1.298  0.00  0.00     0.150 A 
ATOM      5  C4  UNL d   1      -0.787   0.154  -0.674  0.00  0.00    -0.007 A 
ATOM      6  C5  UNL d   1      -0.858   0.174   0.718  0.00  0.00     0.039 A 
ENDROOT
BRANCH   4   7
ATOM      7  O   UNL d   1       0.396  -0.301  -2.661  0.00  0.00    -0.526 OA
ATOM      8  H5  UNL d   1       1.250  -0.662  -2.953  0.00  0.00     0.418 HD
ENDBRANCH   4   7
TORSDOF 1
ENDMDL
