MODEL 1
REMARK minimizedAffinity -1.17636168
REMARK minimizedRMSD -1
REMARK  1 active torsions:
REMARK  status: ('A' for Active; 'I' for Inactive)
REMARK    1  A    between atoms: C3_4  and  O_7 
ROOT
ATOM      1  C   UNL d   1      -1.201  -0.314   1.672  0.00  0.00    -0.033 A 
ATOM      2  C1  UNL d   1      -0.512   0.803   1.195  0.00  0.00     0.039 A 
ATOM      3  C2  UNL d   1      -0.142   0.875  -0.149  0.00  0.00    -0.080 A 
ATOM      4  C3  UNL d   1      -0.466  -0.175  -1.005  0.00  0.00     0.150 A 
ATOM      5  C4  UNL d   1      -1.155  -1.289  -0.537  0.00  0.00    -0.007 A 
ATOM      6  C5  UNL d   1      -1.523  -1.359   0.806  0.00  0.00     0.039 A 
ENDROOT
BRANCH   4   7
ATOM      7  O   UNL d   1      -0.121  -0.152  -2.323  0.00  0.00    -0.526 OA
ATOM      8  H5  UNL d   1       0.376   0.665  -2.497  0.00  0.00     0.418 HD
ENDBRANCH   4   7
TORSDOF 1
ENDMDL
