MODEL 1
REMARK minimizedAffinity 3.10392547
REMARK minimizedRMSD -1
REMARK  1 active torsions:
REMARK  status: ('A' for Active; 'I' for Inactive)
REMARK    1  A    between atoms: C3_4  and  O_7 
ROOT
ATOM      1  C   UNL d   1      -1.572  -0.402   2.887  0.00  0.00    -0.033 A 
ATOM      2  C1  UNL d   1      -2.436   0.237   1.996  0.00  0.00     0.039 A 
ATOM      3  C2  UNL d   1      -2.058   0.423   0.665  0.00  0.00    -0.080 A 
ATOM      4  C3  UNL d   1      -0.815  -0.035   0.238  0.00  0.00     0.150 A 
ATOM      5  C4  UNL d   1       0.050  -0.677   1.119  0.00  0.00    -0.007 A 
ATOM      6  C5  UNL d   1      -0.330  -0.861   2.448  0.00  0.00     0.039 A 
ENDROOT
BRANCH   4   7
ATOM      7  O   UNL d   1      -0.400   0.127  -1.050  0.00  0.00    -0.526 OA
ATOM      8  H5  UNL d   1      -1.087   0.612  -1.536  0.00  0.00     0.418 HD
ENDBRANCH   4   7
TORSDOF 1
ENDMDL
