MODEL 1
REMARK minimizedAffinity -1.90643466
REMARK minimizedRMSD -1
REMARK  1 active torsions:
REMARK  status: ('A' for Active; 'I' for Inactive)
REMARK    1  A    between atoms: C3_4  and  O_7 
ROOT
ATOM      1  C   UNL d   1      -1.150  -1.796   0.708  0.00  0.00    -0.033 A 
ATOM      2  C1  UNL d   1      -0.833  -1.087   1.868  0.00  0.00     0.039 A 
ATOM      3  C2  UNL d   1      -0.262   0.184   1.777  0.00  0.00    -0.080 A 
ATOM      4  C3  UNL d   1      -0.014   0.734   0.523  0.00  0.00     0.150 A 
ATOM      5  C4  UNL d   1      -0.331   0.035  -0.637  0.00  0.00    -0.007 A 
ATOM      6  C5  UNL d   1      -0.901  -1.235  -0.544  0.00  0.00     0.039 A 
ENDROOT
BRANCH   4   7
ATOM      7  O   UNL d   1       0.546   1.969   0.384  0.00  0.00    -0.526 OA
ATOM      8  H5  UNL d   1       0.738   2.321   1.269  0.00  0.00     0.418 HD
ENDBRANCH   4   7
TORSDOF 1
ENDMDL
