MODEL 1
REMARK minimizedAffinity -4.48421288
REMARK minimizedRMSD -1
REMARK  1 active torsions:
REMARK  status: ('A' for Active; 'I' for Inactive)
REMARK    1  A    between atoms: C3_4  and  O_7 
ROOT
ATOM      1  C   UNL d   1       0.012   0.788  -1.398  0.00  0.00    -0.033 A 
ATOM      2  C1  UNL d   1      -0.474   1.017  -0.110  0.00  0.00     0.039 A 
ATOM      3  C2  UNL d   1      -0.844  -0.059   0.700  0.00  0.00    -0.080 A 
ATOM      4  C3  UNL d   1      -0.721  -1.357   0.210  0.00  0.00     0.150 A 
ATOM      5  C4  UNL d   1      -0.233  -1.592  -1.071  0.00  0.00    -0.007 A 
ATOM      6  C5  UNL d   1       0.134  -0.516  -1.879  0.00  0.00     0.039 A 
ENDROOT
BRANCH   4   7
ATOM      7  O   UNL d   1      -1.073  -2.438   0.962  0.00  0.00    -0.526 OA
ATOM      8  H5  UNL d   1      -1.419  -2.122   1.813  0.00  0.00     0.418 HD
ENDBRANCH   4   7
TORSDOF 1
ENDMDL
