MODEL 1
REMARK minimizedAffinity -1.59870303
REMARK minimizedRMSD -1
REMARK  1 active torsions:
REMARK  status: ('A' for Active; 'I' for Inactive)
REMARK    1  A    between atoms: C3_4  and  O_7 
ROOT
ATOM      1  C   UNL d   1      -1.237  -0.428   1.260  0.00  0.00    -0.033 A 
ATOM      2  C1  UNL d   1      -1.613   0.567   0.356  0.00  0.00     0.039 A 
ATOM      3  C2  UNL d   1      -0.672   1.493  -0.097  0.00  0.00    -0.080 A 
ATOM      4  C3  UNL d   1       0.641   1.412   0.359  0.00  0.00     0.150 A 
ATOM      5  C4  UNL d   1       1.023   0.421   1.257  0.00  0.00    -0.007 A 
ATOM      6  C5  UNL d   1       0.082  -0.502   1.709  0.00  0.00     0.039 A 
ENDROOT
BRANCH   4   7
ATOM      7  O   UNL d   1       1.594   2.296  -0.051  0.00  0.00    -0.526 OA
ATOM      8  H5  UNL d   1       1.178   2.942  -0.647  0.00  0.00     0.418 HD
ENDBRANCH   4   7
TORSDOF 1
ENDMDL
