MODEL 1
REMARK minimizedAffinity -4.07286263
REMARK minimizedRMSD -1
REMARK  1 active torsions:
REMARK  status: ('A' for Active; 'I' for Inactive)
REMARK    1  A    between atoms: C3_4  and  O_7 
ROOT
ATOM      1  C   UNL d   1      -0.750   1.695   0.107  0.00  0.00    -0.033 A 
ATOM      2  C1  UNL d   1       0.112   0.731  -0.419  0.00  0.00     0.039 A 
ATOM      3  C2  UNL d   1       0.087  -0.574   0.077  0.00  0.00    -0.080 A 
ATOM      4  C3  UNL d   1      -0.803  -0.902   1.095  0.00  0.00     0.150 A 
ATOM      5  C4  UNL d   1      -1.668   0.053   1.621  0.00  0.00    -0.007 A 
ATOM      6  C5  UNL d   1      -1.641   1.356   1.126  0.00  0.00     0.039 A 
ENDROOT
BRANCH   4   7
ATOM      7  O   UNL d   1      -0.861  -2.161   1.614  0.00  0.00    -0.526 OA
ATOM      8  H5  UNL d   1      -0.187  -2.706   1.174  0.00  0.00     0.418 HD
ENDBRANCH   4   7
TORSDOF 1
ENDMDL
