MODEL 1
REMARK minimizedAffinity -0.155014902
REMARK minimizedRMSD -1
REMARK  1 active torsions:
REMARK  status: ('A' for Active; 'I' for Inactive)
REMARK    1  A    between atoms: C3_4  and  O_7 
ROOT
ATOM      1  C   UNL d   1       0.905   1.610   0.390  0.00  0.00    -0.033 A 
ATOM      2  C1  UNL d   1      -0.373   1.215  -0.010  0.00  0.00     0.039 A 
ATOM      3  C2  UNL d   1      -0.541   0.465  -1.176  0.00  0.00    -0.080 A 
ATOM      4  C3  UNL d   1       0.575   0.118  -1.931  0.00  0.00     0.150 A 
ATOM      5  C4  UNL d   1       1.852   0.505  -1.536  0.00  0.00    -0.007 A 
ATOM      6  C5  UNL d   1       2.017   1.254  -0.372  0.00  0.00     0.039 A 
ENDROOT
BRANCH   4   7
ATOM      7  O   UNL d   1       0.461  -0.609  -3.079  0.00  0.00    -0.526 OA
ATOM      8  H5  UNL d   1      -0.482  -0.780  -3.242  0.00  0.00     0.418 HD
ENDBRANCH   4   7
TORSDOF 1
ENDMDL
