MODEL 1
REMARK minimizedAffinity -4.29243469
REMARK minimizedRMSD -1
REMARK  1 active torsions:
REMARK  status: ('A' for Active; 'I' for Inactive)
REMARK    1  A    between atoms: C3_4  and  O_7 
ROOT
ATOM      1  C   UNL d   1       0.099   1.437   0.192  0.00  0.00    -0.033 A 
ATOM      2  C1  UNL d   1      -1.202   1.160   0.616  0.00  0.00     0.039 A 
ATOM      3  C2  UNL d   1      -1.558  -0.141   0.977  0.00  0.00    -0.080 A 
ATOM      4  C3  UNL d   1      -0.605  -1.154   0.910  0.00  0.00     0.150 A 
ATOM      5  C4  UNL d   1       0.694  -0.884   0.492  0.00  0.00    -0.007 A 
ATOM      6  C5  UNL d   1       1.047   0.415   0.131  0.00  0.00     0.039 A 
ENDROOT
BRANCH   4   7
ATOM      7  O   UNL d   1      -0.908  -2.440   1.248  0.00  0.00    -0.526 OA
ATOM      8  H5  UNL d   1      -1.848  -2.482   1.489  0.00  0.00     0.418 HD
ENDBRANCH   4   7
TORSDOF 1
ENDMDL
