MODEL 1
REMARK minimizedAffinity -5.30824041
REMARK minimizedRMSD -1
REMARK  1 active torsions:
REMARK  status: ('A' for Active; 'I' for Inactive)
REMARK    1  A    between atoms: C3_4  and  O_7 
ROOT
ATOM      1  C   UNL d   1      -0.130  -3.367  -0.663  0.00  0.00    -0.033 A 
ATOM      2  C1  UNL d   1       0.229  -2.516  -1.710  0.00  0.00     0.039 A 
ATOM      3  C2  UNL d   1       0.410  -1.152  -1.471  0.00  0.00    -0.080 A 
ATOM      4  C3  UNL d   1       0.231  -0.653  -0.184  0.00  0.00     0.150 A 
ATOM      5  C4  UNL d   1      -0.123  -1.497   0.864  0.00  0.00    -0.007 A 
ATOM      6  C5  UNL d   1      -0.305  -2.858   0.624  0.00  0.00     0.039 A 
ENDROOT
BRANCH   4   7
ATOM      7  O   UNL d   1       0.392   0.671   0.096  0.00  0.00    -0.526 OA
ATOM      8  H5  UNL d   1       0.607   1.136  -0.729  0.00  0.00     0.418 HD
ENDBRANCH   4   7
TORSDOF 1
ENDMDL
