MODEL 1
REMARK minimizedAffinity 11.2522879
REMARK minimizedRMSD -1
REMARK  1 active torsions:
REMARK  status: ('A' for Active; 'I' for Inactive)
REMARK    1  A    between atoms: C1_2  and  C2_3 
ROOT
ATOM      1  C2  UNL d   1       1.461   0.470   0.028  0.00  0.00    -0.077 A 
ATOM      2  C3  UNL d   1       0.372   0.980  -0.693  0.00  0.00     0.002 A 
ATOM      3  C4  UNL d   1      -0.703   1.568  -0.024  0.00  0.00     0.002 A 
ATOM      4  C5  UNL d   1      -0.698   1.656   1.366  0.00  0.00    -0.004 A 
ATOM      5  C6  UNL d   1       0.380   1.151   2.092  0.00  0.00     0.002 A 
ATOM      6  C7  UNL d   1       1.455   0.561   1.425  0.00  0.00     0.002 A 
ENDROOT
BRANCH   1   7
ATOM      7  C1  UNL d   1       2.645  -0.121  -0.694  0.00  0.00     0.055 C 
ATOM      8  C   UNL d   1       3.849   0.808  -0.635  0.00  0.00     0.019 C 
ENDBRANCH   1   7
TORSDOF 1
ENDMDL
