MODEL 1
REMARK minimizedAffinity 6.04247808
REMARK minimizedRMSD -1
REMARK  1 active torsions:
REMARK  status: ('A' for Active; 'I' for Inactive)
REMARK    1  A    between atoms: C1_2  and  C2_3 
ROOT
ATOM      1  C2  UNL d   1       0.102  -4.514   5.409  0.00  0.00    -0.077 A 
ATOM      2  C3  UNL d   1       1.364  -4.349   5.997  0.00  0.00     0.002 A 
ATOM      3  C4  UNL d   1       2.270  -3.424   5.476  0.00  0.00     0.002 A 
ATOM      4  C5  UNL d   1       1.923  -2.654   4.368  0.00  0.00    -0.004 A 
ATOM      5  C6  UNL d   1       0.671  -2.811   3.775  0.00  0.00     0.002 A 
ATOM      6  C7  UNL d   1      -0.236  -3.736   4.294  0.00  0.00     0.002 A 
ENDROOT
BRANCH   1   7
ATOM      7  C1  UNL d   1      -0.896  -5.476   6.000  0.00  0.00     0.055 C 
ATOM      8  C   UNL d   1      -2.299  -4.887   5.999  0.00  0.00     0.019 C 
ENDBRANCH   1   7
TORSDOF 1
ENDMDL
