MODEL 1
REMARK minimizedAffinity 10.9915848
REMARK minimizedRMSD -1
REMARK  1 active torsions:
REMARK  status: ('A' for Active; 'I' for Inactive)
REMARK    1  A    between atoms: C1_2  and  C2_3 
ROOT
ATOM      1  C2  UNL d   1      -5.954   5.084   3.530  0.00  0.00    -0.077 A 
ATOM      2  C3  UNL d   1      -5.974   3.683   3.584  0.00  0.00     0.002 A 
ATOM      3  C4  UNL d   1      -5.986   3.024   4.815  0.00  0.00     0.002 A 
ATOM      4  C5  UNL d   1      -5.981   3.757   6.000  0.00  0.00    -0.004 A 
ATOM      5  C6  UNL d   1      -5.958   5.150   5.956  0.00  0.00     0.002 A 
ATOM      6  C7  UNL d   1      -5.946   5.811   4.727  0.00  0.00     0.002 A 
ENDROOT
BRANCH   1   7
ATOM      7  C1  UNL d   1      -5.991   5.797   2.204  0.00  0.00     0.055 C 
ATOM      8  C   UNL d   1      -5.374   4.949   1.101  0.00  0.00     0.019 C 
ENDBRANCH   1   7
TORSDOF 1
ENDMDL
