MODEL 1
REMARK minimizedAffinity 15.9453087
REMARK minimizedRMSD -1
REMARK  1 active torsions:
REMARK  status: ('A' for Active; 'I' for Inactive)
REMARK    1  A    between atoms: C1_2  and  C2_3 
ROOT
ATOM      1  C2  UNL d   1       3.483  -0.002  -0.876  0.00  0.00    -0.077 A 
ATOM      2  C3  UNL d   1       4.467   0.014  -1.874  0.00  0.00     0.002 A 
ATOM      3  C4  UNL d   1       5.720   0.578  -1.622  0.00  0.00     0.002 A 
ATOM      4  C5  UNL d   1       6.000   1.126  -0.372  0.00  0.00    -0.004 A 
ATOM      5  C6  UNL d   1       5.027   1.117   0.626  0.00  0.00     0.002 A 
ATOM      6  C7  UNL d   1       3.774   0.555   0.376  0.00  0.00     0.002 A 
ENDROOT
BRANCH   1   7
ATOM      7  C1  UNL d   1       2.149  -0.654  -1.129  0.00  0.00     0.055 C 
ATOM      8  C   UNL d   1       2.308  -1.961  -1.892  0.00  0.00     0.019 C 
ENDBRANCH   1   7
TORSDOF 1
ENDMDL
