MODEL 1
REMARK minimizedAffinity -5.0343647
REMARK minimizedRMSD -1
REMARK  1 active torsions:
REMARK  status: ('A' for Active; 'I' for Inactive)
REMARK    1  A    between atoms: C1_2  and  C2_3 
ROOT
ATOM      1  C2  UNL d   1       1.508   3.153  -1.233  0.00  0.00    -0.073 A 
ATOM      2  C3  UNL d   1       1.628   2.697   0.085  0.00  0.00    -0.002 A 
ATOM      3  C4  UNL d   1       1.429   1.349   0.386  0.00  0.00     0.004 A 
ATOM      4  C5  UNL d   1       1.117   0.443  -0.627  0.00  0.00    -0.004 A 
ATOM      5  C6  UNL d   1       1.004   0.876  -1.952  0.00  0.00    -0.075 A 
ATOM      6  C7  UNL d   1       0.666  -0.086  -3.052  0.00  0.00     0.076 C 
ATOM      7  C8  UNL d   1       1.202   2.232  -2.246  0.00  0.00     0.001 A 
ENDROOT
BRANCH   1   8
ATOM      8  C1  UNL d   1       1.727   4.606  -1.564  0.00  0.00     0.053 C 
ATOM      9  C   UNL d   1       2.301   5.378  -0.387  0.00  0.00     0.018 C 
ENDBRANCH   1   8
TORSDOF 1
ENDMDL
