MODEL 1
REMARK minimizedAffinity -2.79132795
REMARK minimizedRMSD -1
REMARK  1 active torsions:
REMARK  status: ('A' for Active; 'I' for Inactive)
REMARK    1  A    between atoms: C1_2  and  C2_3 
ROOT
ATOM      1  C2  UNL d   1       1.893   2.630  -1.412  0.00  0.00    -0.073 A 
ATOM      2  C3  UNL d   1       1.542   1.528  -2.199  0.00  0.00    -0.002 A 
ATOM      3  C4  UNL d   1       1.117   0.341  -1.600  0.00  0.00     0.004 A 
ATOM      4  C5  UNL d   1       1.031   0.247  -0.212  0.00  0.00    -0.004 A 
ATOM      5  C6  UNL d   1       1.365   1.342   0.592  0.00  0.00    -0.075 A 
ATOM      6  C7  UNL d   1       1.280   1.256   2.087  0.00  0.00     0.076 C 
ATOM      7  C8  UNL d   1       1.794   2.529  -0.017  0.00  0.00     0.001 A 
ENDROOT
BRANCH   1   8
ATOM      8  C1  UNL d   1       2.347   3.916  -2.054  0.00  0.00     0.053 C 
ATOM      9  C   UNL d   1       2.375   5.069  -1.063  0.00  0.00     0.018 C 
ENDBRANCH   1   8
TORSDOF 1
ENDMDL
