MODEL 1
REMARK minimizedAffinity 2.61459684
REMARK minimizedRMSD -1
REMARK  1 active torsions:
REMARK  status: ('A' for Active; 'I' for Inactive)
REMARK    1  A    between atoms: C1_2  and  C2_3 
ROOT
ATOM      1  C2  UNL d   1       1.802   2.695  -1.198  0.00  0.00    -0.073 A 
ATOM      2  C3  UNL d   1       1.899   2.521   0.188  0.00  0.00    -0.002 A 
ATOM      3  C4  UNL d   1       1.552   1.301   0.770  0.00  0.00     0.004 A 
ATOM      4  C5  UNL d   1       1.113   0.243  -0.025  0.00  0.00    -0.004 A 
ATOM      5  C6  UNL d   1       1.021   0.394  -1.413  0.00  0.00    -0.075 A 
ATOM      6  C7  UNL d   1       0.548  -0.734  -2.282  0.00  0.00     0.076 C 
ATOM      7  C8  UNL d   1       1.369   1.623  -1.990  0.00  0.00     0.001 A 
ENDROOT
BRANCH   1   8
ATOM      8  C1  UNL d   1       2.182   4.009  -1.832  0.00  0.00     0.053 C 
ATOM      9  C   UNL d   1       2.260   5.133  -0.811  0.00  0.00     0.018 C 
ENDBRANCH   1   8
TORSDOF 1
ENDMDL
