MODEL 1
REMARK minimizedAffinity -1.1206466
REMARK minimizedRMSD -1
REMARK  1 active torsions:
REMARK  status: ('A' for Active; 'I' for Inactive)
REMARK    1  A    between atoms: C1_2  and  C2_3 
ROOT
ATOM      1  C2  UNL d   1       2.026   3.094  -1.030  0.00  0.00    -0.073 A 
ATOM      2  C3  UNL d   1       1.826   2.920   0.344  0.00  0.00    -0.002 A 
ATOM      3  C4  UNL d   1       1.333   1.711   0.838  0.00  0.00     0.004 A 
ATOM      4  C5  UNL d   1       1.043   0.663  -0.035  0.00  0.00    -0.004 A 
ATOM      5  C6  UNL d   1       1.248   0.813  -1.411  0.00  0.00    -0.075 A 
ATOM      6  C7  UNL d   1       0.938  -0.304  -2.363  0.00  0.00     0.076 C 
ATOM      7  C8  UNL d   1       1.740   2.031  -1.899  0.00  0.00     0.001 A 
ENDROOT
BRANCH   1   8
ATOM      8  C1  UNL d   1       2.564   4.395  -1.567  0.00  0.00     0.053 C 
ATOM      9  C   UNL d   1       2.589   5.483  -0.504  0.00  0.00     0.018 C 
ENDBRANCH   1   8
TORSDOF 1
ENDMDL
