MODEL 1
REMARK minimizedAffinity 7.71430731
REMARK minimizedRMSD -1
REMARK  1 active torsions:
REMARK  status: ('A' for Active; 'I' for Inactive)
REMARK    1  A    between atoms: C1_2  and  C2_3 
ROOT
ATOM      1  C2  UNL d   1      -0.337   1.529  -1.918  0.00  0.00    -0.073 A 
ATOM      2  C3  UNL d   1       0.593   2.455  -2.404  0.00  0.00    -0.002 A 
ATOM      3  C4  UNL d   1       1.928   2.390  -2.002  0.00  0.00     0.004 A 
ATOM      4  C5  UNL d   1       2.347   1.396  -1.117  0.00  0.00    -0.004 A 
ATOM      5  C6  UNL d   1       1.435   0.455  -0.630  0.00  0.00    -0.075 A 
ATOM      6  C7  UNL d   1       1.869  -0.618   0.325  0.00  0.00     0.076 C 
ATOM      7  C8  UNL d   1       0.095   0.529  -1.036  0.00  0.00     0.001 A 
ENDROOT
BRANCH   1   8
ATOM      8  C1  UNL d   1      -1.779   1.592  -2.354  0.00  0.00     0.053 C 
ATOM      9  C   UNL d   1      -2.464   2.862  -1.877  0.00  0.00     0.018 C 
ENDBRANCH   1   8
TORSDOF 1
ENDMDL
