MODEL 1
REMARK minimizedAffinity -5.2731967
REMARK minimizedRMSD -1
REMARK  1 active torsions:
REMARK  status: ('A' for Active; 'I' for Inactive)
REMARK    1  A    between atoms: C1_2  and  C2_3 
ROOT
ATOM      1  C2  UNL d   1      -0.233   0.600   0.550  0.00  0.00    -0.073 A 
ATOM      2  C3  UNL d   1       0.779   1.391   1.107  0.00  0.00    -0.002 A 
ATOM      3  C4  UNL d   1       1.945   1.653   0.388  0.00  0.00     0.004 A 
ATOM      4  C5  UNL d   1       2.109   1.135  -0.897  0.00  0.00    -0.004 A 
ATOM      5  C6  UNL d   1       1.105   0.353  -1.475  0.00  0.00    -0.075 A 
ATOM      6  C7  UNL d   1       1.267  -0.214  -2.855  0.00  0.00     0.076 C 
ATOM      7  C8  UNL d   1      -0.062   0.091  -0.745  0.00  0.00     0.001 A 
ENDROOT
BRANCH   1   8
ATOM      8  C1  UNL d   1      -1.497   0.319   1.321  0.00  0.00     0.053 C 
ATOM      9  C   UNL d   1      -2.071   1.578   1.952  0.00  0.00     0.018 C 
ENDBRANCH   1   8
TORSDOF 1
ENDMDL
