MODEL 1
REMARK minimizedAffinity 10.8521776
REMARK minimizedRMSD -1
REMARK  1 active torsions:
REMARK  status: ('A' for Active; 'I' for Inactive)
REMARK    1  A    between atoms: C1_2  and  C2_3 
ROOT
ATOM      1  C2  UNL d   1       1.852   3.718  -1.844  0.00  0.00    -0.073 A 
ATOM      2  C3  UNL d   1       0.877   3.239  -2.726  0.00  0.00    -0.002 A 
ATOM      3  C4  UNL d   1       0.180   2.065  -2.435  0.00  0.00     0.004 A 
ATOM      4  C5  UNL d   1       0.445   1.365  -1.258  0.00  0.00    -0.004 A 
ATOM      5  C6  UNL d   1       1.407   1.835  -0.359  0.00  0.00    -0.075 A 
ATOM      6  C7  UNL d   1       1.706   1.091   0.910  0.00  0.00     0.076 C 
ATOM      7  C8  UNL d   1       2.105   3.012  -0.659  0.00  0.00     0.001 A 
ENDROOT
BRANCH   1   8
ATOM      8  C1  UNL d   1       2.603   4.988  -2.151  0.00  0.00     0.053 C 
ATOM      9  C   UNL d   1       2.498   6.000  -1.021  0.00  0.00     0.018 C 
ENDBRANCH   1   8
TORSDOF 1
ENDMDL
