MODEL 1
REMARK minimizedAffinity -2.28753209
REMARK minimizedRMSD -1
REMARK  1 active torsions:
REMARK  status: ('A' for Active; 'I' for Inactive)
REMARK    1  A    between atoms: C1_2  and  C2_3 
ROOT
ATOM      1  C2  UNL d   1       1.842   3.163  -1.373  0.00  0.00    -0.073 A 
ATOM      2  C3  UNL d   1       1.877   2.174  -2.363  0.00  0.00    -0.002 A 
ATOM      3  C4  UNL d   1       1.758   0.827  -2.018  0.00  0.00     0.004 A 
ATOM      4  C5  UNL d   1       1.595   0.456  -0.683  0.00  0.00    -0.004 A 
ATOM      5  C6  UNL d   1       1.546   1.430   0.319  0.00  0.00    -0.075 A 
ATOM      6  C7  UNL d   1       1.374   1.048   1.760  0.00  0.00     0.076 C 
ATOM      7  C8  UNL d   1       1.669   2.781  -0.035  0.00  0.00     0.001 A 
ENDROOT
BRANCH   1   8
ATOM      8  C1  UNL d   1       1.964   4.619  -1.742  0.00  0.00     0.053 C 
ATOM      9  C   UNL d   1       2.071   5.510  -0.515  0.00  0.00     0.018 C 
ENDBRANCH   1   8
TORSDOF 1
ENDMDL
