MODEL 1
REMARK minimizedAffinity 3.351017
REMARK minimizedRMSD -1
REMARK  1 active torsions:
REMARK  status: ('A' for Active; 'I' for Inactive)
REMARK    1  A    between atoms: C1_2  and  C2_3 
ROOT
ATOM      1  C2  UNL d   1      -2.895   2.244   2.080  0.00  0.00    -0.073 A 
ATOM      2  C3  UNL d   1      -3.904   1.278   1.995  0.00  0.00    -0.002 A 
ATOM      3  C4  UNL d   1      -4.072   0.342   3.016  0.00  0.00     0.004 A 
ATOM      4  C5  UNL d   1      -3.239   0.366   4.134  0.00  0.00    -0.004 A 
ATOM      5  C6  UNL d   1      -2.233   1.331   4.244  0.00  0.00    -0.075 A 
ATOM      6  C7  UNL d   1      -1.327   1.369   5.439  0.00  0.00     0.076 C 
ATOM      7  C8  UNL d   1      -2.068   2.266   3.213  0.00  0.00     0.001 A 
ENDROOT
BRANCH   1   8
ATOM      8  C1  UNL d   1      -2.714   3.261   0.983  0.00  0.00     0.053 C 
ATOM      9  C   UNL d   1      -2.963   2.665  -0.393  0.00  0.00     0.018 C 
ENDBRANCH   1   8
TORSDOF 1
ENDMDL
