MODEL 1
REMARK minimizedAffinity 0.757548571
REMARK minimizedRMSD -1
REMARK  1 active torsions:
REMARK  status: ('A' for Active; 'I' for Inactive)
REMARK    1  A    between atoms: C1_2  and  C2_3 
ROOT
ATOM      1  C2  UNL d   1       0.637  -1.664  -0.634  0.00  0.00    -0.073 A 
ATOM      2  C3  UNL d   1       0.207  -1.066  -1.824  0.00  0.00    -0.002 A 
ATOM      3  C4  UNL d   1       0.256   0.321  -1.974  0.00  0.00     0.004 A 
ATOM      4  C5  UNL d   1       0.740   1.122  -0.941  0.00  0.00    -0.004 A 
ATOM      5  C6  UNL d   1       1.185   0.543   0.252  0.00  0.00    -0.075 A 
ATOM      6  C7  UNL d   1       1.706   1.391   1.375  0.00  0.00     0.076 C 
ATOM      7  C8  UNL d   1       1.130  -0.850   0.396  0.00  0.00     0.001 A 
ENDROOT
BRANCH   1   8
ATOM      8  C1  UNL d   1       0.592  -3.161  -0.470  0.00  0.00     0.053 C 
ATOM      9  C   UNL d   1      -0.604  -3.777  -1.178  0.00  0.00     0.018 C 
ENDBRANCH   1   8
TORSDOF 1
ENDMDL
