MODEL 1
REMARK minimizedAffinity 5.57418013
REMARK minimizedRMSD -1
REMARK  1 active torsions:
REMARK  status: ('A' for Active; 'I' for Inactive)
REMARK    1  A    between atoms: C1_2  and  C2_3 
ROOT
ATOM      1  C2  UNL d   1       1.559   2.166  -1.230  0.00  0.00    -0.073 A 
ATOM      2  C3  UNL d   1       1.083   1.029  -1.891  0.00  0.00    -0.002 A 
ATOM      3  C4  UNL d   1       0.890  -0.164  -1.193  0.00  0.00     0.004 A 
ATOM      4  C5  UNL d   1       1.164  -0.229   0.173  0.00  0.00    -0.004 A 
ATOM      5  C6  UNL d   1       1.629   0.900   0.855  0.00  0.00    -0.075 A 
ATOM      6  C7  UNL d   1       1.931   0.846   2.323  0.00  0.00     0.076 C 
ATOM      7  C8  UNL d   1       1.823   2.093   0.145  0.00  0.00     0.001 A 
ENDROOT
BRANCH   1   8
ATOM      8  C1  UNL d   1       1.763   3.458  -1.979  0.00  0.00     0.053 C 
ATOM      9  C   UNL d   1       2.402   4.527  -1.107  0.00  0.00     0.018 C 
ENDBRANCH   1   8
TORSDOF 1
ENDMDL
