MODEL 1
REMARK minimizedAffinity 2.86489725
REMARK minimizedRMSD -1
REMARK  0 active torsions:
REMARK  status: ('A' for Active; 'I' for Inactive)
ROOT
ATOM      1  C   UNL d   1       0.981  -3.684   2.412  0.00  0.00    -0.002 A 
ATOM      2  C1  UNL d   1      -0.110  -3.127   3.064  0.00  0.00     0.010 A 
ATOM      3  C2  UNL d   1      -0.652  -1.914   2.634  0.00  0.00     0.041 A 
ATOM      4  C3  UNL d   1      -0.075  -1.265   1.524  0.00  0.00    -0.075 A 
ATOM      5  S   UNL d   1      -0.571   0.228   0.820  0.00  0.00     0.015 SA
ATOM      6  C4  UNL d   1       0.653   0.162  -0.365  0.00  0.00     0.022 A 
ATOM      7  C5  UNL d   1       1.431  -0.965  -0.240  0.00  0.00     0.026 A 
ATOM      8  C6  UNL d   1       1.024  -1.806   0.851  0.00  0.00    -0.082 A 
ATOM      9  C7  UNL d   1       1.551  -3.037   1.312  0.00  0.00     0.045 A 
ENDROOT
TORSDOF 0
ENDMDL
