MODEL 1
REMARK minimizedAffinity 11.7973137
REMARK minimizedRMSD -1
REMARK  0 active torsions:
REMARK  status: ('A' for Active; 'I' for Inactive)
ROOT
ATOM      1  C   UNL d   1       2.501   1.043  -0.864  0.00  0.00    -0.002 A 
ATOM      2  C1  UNL d   1       1.761  -0.127  -0.774  0.00  0.00     0.010 A 
ATOM      3  C2  UNL d   1       2.338  -1.297  -0.277  0.00  0.00     0.041 A 
ATOM      4  C3  UNL d   1       3.686  -1.271   0.133  0.00  0.00    -0.075 A 
ATOM      5  S   UNL d   1       4.603  -2.582   0.774  0.00  0.00     0.015 SA
ATOM      6  C4  UNL d   1       6.000  -1.620   0.944  0.00  0.00     0.022 A 
ATOM      7  C5  UNL d   1       5.789  -0.328   0.527  0.00  0.00     0.026 A 
ATOM      8  C6  UNL d   1       4.452  -0.105   0.053  0.00  0.00    -0.082 A 
ATOM      9  C7  UNL d   1       3.838   1.065  -0.456  0.00  0.00     0.045 A 
ENDROOT
TORSDOF 0
ENDMDL
