MODEL 1
REMARK minimizedAffinity 5.89508295
REMARK minimizedRMSD -1
REMARK  0 active torsions:
REMARK  status: ('A' for Active; 'I' for Inactive)
ROOT
ATOM      1  C   UNL d   1       1.174  -3.255   2.240  0.00  0.00    -0.002 A 
ATOM      2  C1  UNL d   1       0.276  -2.963   3.256  0.00  0.00     0.010 A 
ATOM      3  C2  UNL d   1      -0.566  -1.853   3.162  0.00  0.00     0.041 A 
ATOM      4  C3  UNL d   1      -0.490  -1.034   2.018  0.00  0.00    -0.075 A 
ATOM      5  S   UNL d   1      -1.422   0.377   1.685  0.00  0.00     0.015 SA
ATOM      6  C4  UNL d   1      -0.650   0.624   0.186  0.00  0.00     0.022 A 
ATOM      7  C5  UNL d   1       0.299  -0.337  -0.070  0.00  0.00     0.026 A 
ATOM      8  C6  UNL d   1       0.407  -1.309   0.981  0.00  0.00    -0.082 A 
ATOM      9  C7  UNL d   1       1.247  -2.441   1.106  0.00  0.00     0.045 A 
ENDROOT
TORSDOF 0
ENDMDL
