MODEL 1
REMARK minimizedAffinity 6.42185926
REMARK minimizedRMSD -1
REMARK  0 active torsions:
REMARK  status: ('A' for Active; 'I' for Inactive)
ROOT
ATOM      1  C   UNL d   1      -4.823  -2.055  -2.518  0.00  0.00    -0.002 A 
ATOM      2  C1  UNL d   1      -3.888  -1.406  -1.725  0.00  0.00     0.010 A 
ATOM      3  C2  UNL d   1      -3.352  -0.179  -2.119  0.00  0.00     0.041 A 
ATOM      4  C3  UNL d   1      -3.777   0.392  -3.335  0.00  0.00    -0.075 A 
ATOM      5  S   UNL d   1      -3.258   1.887  -4.019  0.00  0.00     0.015 SA
ATOM      6  C4  UNL d   1      -4.267   1.700  -5.380  0.00  0.00     0.022 A 
ATOM      7  C5  UNL d   1      -4.989   0.531  -5.330  0.00  0.00     0.026 A 
ATOM      8  C6  UNL d   1      -4.719  -0.242  -4.150  0.00  0.00    -0.082 A 
ATOM      9  C7  UNL d   1      -5.243  -1.486  -3.723  0.00  0.00     0.045 A 
ENDROOT
TORSDOF 0
ENDMDL
