MODEL 1
REMARK minimizedAffinity 1.99588192
REMARK minimizedRMSD -1
REMARK  0 active torsions:
REMARK  status: ('A' for Active; 'I' for Inactive)
ROOT
ATOM      1  C   UNL d   1      -1.121  -3.559   3.669  0.00  0.00    -0.002 A 
ATOM      2  C1  UNL d   1       0.022  -4.026   3.035  0.00  0.00     0.010 A 
ATOM      3  C2  UNL d   1       0.644  -3.267   2.042  0.00  0.00     0.041 A 
ATOM      4  C3  UNL d   1       0.095  -2.017   1.695  0.00  0.00    -0.075 A 
ATOM      5  S   UNL d   1       0.687  -0.915   0.509  0.00  0.00     0.015 SA
ATOM      6  C4  UNL d   1      -0.562   0.203   0.817  0.00  0.00     0.022 A 
ATOM      7  C5  UNL d   1      -1.419  -0.238   1.797  0.00  0.00     0.026 A 
ATOM      8  C6  UNL d   1      -1.055  -1.525   2.320  0.00  0.00    -0.082 A 
ATOM      9  C7  UNL d   1      -1.663  -2.319   3.322  0.00  0.00     0.045 A 
ENDROOT
TORSDOF 0
ENDMDL
