MODEL 1
REMARK minimizedAffinity -1.21170413
REMARK minimizedRMSD -1
REMARK  0 active torsions:
REMARK  status: ('A' for Active; 'I' for Inactive)
ROOT
ATOM      1  C   UNL d   1       4.946   4.639   1.863  0.00  0.00    -0.002 A 
ATOM      2  C1  UNL d   1       5.714   4.812   3.006  0.00  0.00     0.010 A 
ATOM      3  C2  UNL d   1       5.125   5.232   4.200  0.00  0.00     0.041 A 
ATOM      4  C3  UNL d   1       3.737   5.476   4.227  0.00  0.00    -0.075 A 
ATOM      5  S   UNL d   1       2.799   5.996   5.576  0.00  0.00     0.015 SA
ATOM      6  C4  UNL d   1       1.357   6.000   4.668  0.00  0.00     0.022 A 
ATOM      7  C5  UNL d   1       1.568   5.616   3.364  0.00  0.00     0.026 A 
ATOM      8  C6  UNL d   1       2.943   5.308   3.089  0.00  0.00    -0.082 A 
ATOM      9  C7  UNL d   1       3.570   4.882   1.893  0.00  0.00     0.045 A 
ENDROOT
TORSDOF 0
ENDMDL
