MODEL 1
REMARK minimizedAffinity 11.3961058
REMARK minimizedRMSD -1
REMARK  0 active torsions:
REMARK  status: ('A' for Active; 'I' for Inactive)
ROOT
ATOM      1  C   UNL d   1      -4.907  -0.162  -5.218  0.00  0.00    -0.002 A 
ATOM      2  C1  UNL d   1      -6.000   0.692  -5.262  0.00  0.00     0.010 A 
ATOM      3  C2  UNL d   1      -6.000   1.883  -4.533  0.00  0.00     0.041 A 
ATOM      4  C3  UNL d   1      -4.871   2.206  -3.755  0.00  0.00    -0.075 A 
ATOM      5  S   UNL d   1      -4.647   3.611  -2.781  0.00  0.00     0.015 SA
ATOM      6  C4  UNL d   1      -3.095   3.112  -2.286  0.00  0.00     0.022 A 
ATOM      7  C5  UNL d   1      -2.740   1.904  -2.840  0.00  0.00     0.026 A 
ATOM      8  C6  UNL d   1      -3.758   1.363  -3.696  0.00  0.00    -0.082 A 
ATOM      9  C7  UNL d   1      -3.789   0.162  -4.445  0.00  0.00     0.045 A 
ENDROOT
TORSDOF 0
ENDMDL
