MODEL 1
REMARK minimizedAffinity 2.58007979
REMARK minimizedRMSD -1
REMARK  0 active torsions:
REMARK  status: ('A' for Active; 'I' for Inactive)
ROOT
ATOM      1  C   UNL d   1       1.105  -2.593   2.987  0.00  0.00    -0.002 A 
ATOM      2  C1  UNL d   1       1.838  -2.982   1.875  0.00  0.00     0.010 A 
ATOM      3  C2  UNL d   1       1.553  -2.452   0.616  0.00  0.00     0.041 A 
ATOM      4  C3  UNL d   1       0.508  -1.515   0.491  0.00  0.00    -0.075 A 
ATOM      5  S   UNL d   1      -0.019  -0.732  -0.951  0.00  0.00     0.015 SA
ATOM      6  C4  UNL d   1      -1.230   0.138  -0.125  0.00  0.00     0.022 A 
ATOM      7  C5  UNL d   1      -1.246  -0.151   1.219  0.00  0.00     0.026 A 
ATOM      8  C6  UNL d   1      -0.244  -1.107   1.596  0.00  0.00    -0.082 A 
ATOM      9  C7  UNL d   1       0.070  -1.663   2.860  0.00  0.00     0.045 A 
ENDROOT
TORSDOF 0
ENDMDL
