MODEL 1
REMARK minimizedAffinity -4.08807087
REMARK minimizedRMSD -1
REMARK  0 active torsions:
REMARK  status: ('A' for Active; 'I' for Inactive)
ROOT
ATOM      1  C1  DEN d   1      -1.470  -0.917   1.991  0.00  0.00     0.130 A 
ATOM      2  C2  DEN d   1      -0.901  -0.298   3.185  0.00  0.00    -0.031 A 
ATOM      3  C3  DEN d   1       0.317   0.434   2.784  0.00  0.00     0.027 A 
ATOM      4  C4  DEN d   1       1.370   0.672   0.441  0.00  0.00     0.027 A 
ATOM      5  C5  DEN d   1       1.252   0.314  -0.884  0.00  0.00    -0.003 A 
ATOM      6  C6  DEN d   1       0.247  -0.500  -1.334  0.00  0.00     0.001 A 
ATOM      7  C7  DEN d   1      -0.708  -0.948  -0.459  0.00  0.00     0.017 A 
ATOM      8  C8  DEN d   1      -0.592  -0.597   0.880  0.00  0.00    -0.094 A 
ATOM      9  C9  DEN d   1       0.425   0.237   1.313  0.00  0.00    -0.072 A 
ENDROOT
TORSDOF 0
ENDMDL
