MODEL 1
REMARK minimizedAffinity -4.197999
REMARK minimizedRMSD -1
REMARK  0 active torsions:
REMARK  status: ('A' for Active; 'I' for Inactive)
ROOT
ATOM      1  C1  DEN d   1      -1.598  -1.132   2.172  0.00  0.00     0.130 A 
ATOM      2  C2  DEN d   1      -0.932  -0.707   3.400  0.00  0.00    -0.031 A 
ATOM      3  C3  DEN d   1       0.316  -0.011   3.024  0.00  0.00     0.027 A 
ATOM      4  C4  DEN d   1       1.272   0.450   0.674  0.00  0.00     0.027 A 
ATOM      5  C5  DEN d   1       1.068   0.270  -0.676  0.00  0.00    -0.003 A 
ATOM      6  C6  DEN d   1      -0.013  -0.414  -1.167  0.00  0.00     0.001 A 
ATOM      7  C7  DEN d   1      -0.955  -0.904  -0.301  0.00  0.00     0.017 A 
ATOM      8  C8  DEN d   1      -0.752  -0.733   1.062  0.00  0.00    -0.094 A 
ATOM      9  C9  DEN d   1       0.340  -0.028   1.537  0.00  0.00    -0.072 A 
ENDROOT
TORSDOF 0
ENDMDL
