MODEL 1
REMARK minimizedAffinity -2.19069099
REMARK minimizedRMSD -1
REMARK  0 active torsions:
REMARK  status: ('A' for Active; 'I' for Inactive)
ROOT
ATOM      1  C1  DEN d   1      -1.265  -0.630  -0.769  0.00  0.00     0.130 A 
ATOM      2  C2  DEN d   1      -0.194  -0.433  -1.742  0.00  0.00    -0.031 A 
ATOM      3  C3  DEN d   1       1.038  -0.094  -1.003  0.00  0.00     0.027 A 
ATOM      4  C4  DEN d   1       1.391   0.138   1.542  0.00  0.00     0.027 A 
ATOM      5  C5  DEN d   1       0.773   0.076   2.771  0.00  0.00    -0.003 A 
ATOM      6  C6  DEN d   1      -0.564  -0.190   2.904  0.00  0.00     0.001 A 
ATOM      7  C7  DEN d   1      -1.318  -0.449   1.790  0.00  0.00     0.017 A 
ATOM      8  C8  DEN d   1      -0.704  -0.381   0.546  0.00  0.00    -0.094 A 
ATOM      9  C9  DEN d   1       0.652  -0.122   0.434  0.00  0.00    -0.072 A 
ENDROOT
TORSDOF 0
ENDMDL
