MODEL 1
REMARK minimizedAffinity -5.22529507
REMARK minimizedRMSD -1
REMARK  0 active torsions:
REMARK  status: ('A' for Active; 'I' for Inactive)
ROOT
ATOM      1  C1  DEN d   1      -0.172  -1.260  -0.205  0.00  0.00     0.130 A 
ATOM      2  C2  DEN d   1      -0.025   0.033   0.458  0.00  0.00    -0.031 A 
ATOM      3  C3  DEN d   1       0.647   0.953  -0.481  0.00  0.00     0.027 A 
ATOM      4  C4  DEN d   1       1.465   0.506  -2.886  0.00  0.00     0.027 A 
ATOM      5  C5  DEN d   1       1.571  -0.445  -3.877  0.00  0.00    -0.003 A 
ATOM      6  C6  DEN d   1       1.139  -1.733  -3.702  0.00  0.00     0.001 A 
ATOM      7  C7  DEN d   1       0.538  -2.093  -2.525  0.00  0.00     0.017 A 
ATOM      8  C8  DEN d   1       0.433  -1.142  -1.519  0.00  0.00    -0.094 A 
ATOM      9  C9  DEN d   1       0.866   0.158  -1.719  0.00  0.00    -0.072 A 
ENDROOT
TORSDOF 0
ENDMDL
