MODEL 1
REMARK minimizedAffinity -3.40078545
REMARK minimizedRMSD -1
REMARK  0 active torsions:
REMARK  status: ('A' for Active; 'I' for Inactive)
ROOT
ATOM      1  C1  DEN d   1       0.778  -0.377  -3.300  0.00  0.00     0.130 A 
ATOM      2  C2  DEN d   1       1.290  -1.701  -3.642  0.00  0.00    -0.031 A 
ATOM      3  C3  DEN d   1       1.371  -2.494  -2.398  0.00  0.00     0.027 A 
ATOM      4  C4  DEN d   1       0.752  -1.804   0.009  0.00  0.00     0.027 A 
ATOM      5  C5  DEN d   1       0.285  -0.776   0.797  0.00  0.00    -0.003 A 
ATOM      6  C6  DEN d   1      -0.016   0.458   0.284  0.00  0.00     0.001 A 
ATOM      7  C7  DEN d   1       0.104   0.681  -1.062  0.00  0.00     0.017 A 
ATOM      8  C8  DEN d   1       0.582  -0.348  -1.862  0.00  0.00    -0.094 A 
ATOM      9  C9  DEN d   1       0.869  -1.592  -1.326  0.00  0.00    -0.072 A 
ENDROOT
TORSDOF 0
ENDMDL
