MODEL 1
REMARK minimizedAffinity -1.85063422
REMARK minimizedRMSD -1
REMARK  0 active torsions:
REMARK  status: ('A' for Active; 'I' for Inactive)
ROOT
ATOM      1  C1  DEN d   1       1.568  -1.021  -2.464  0.00  0.00     0.130 A 
ATOM      2  C2  DEN d   1       0.659  -0.595  -3.525  0.00  0.00    -0.031 A 
ATOM      3  C3  DEN d   1      -0.513   0.045  -2.893  0.00  0.00     0.027 A 
ATOM      4  C4  DEN d   1      -1.002   0.418  -0.388  0.00  0.00     0.027 A 
ATOM      5  C5  DEN d   1      -0.530   0.217   0.890  0.00  0.00    -0.003 A 
ATOM      6  C6  DEN d   1       0.648  -0.435   1.139  0.00  0.00     0.001 A 
ATOM      7  C7  DEN d   1       1.417  -0.870   0.093  0.00  0.00     0.017 A 
ATOM      8  C8  DEN d   1       0.944  -0.678  -1.199  0.00  0.00    -0.094 A 
ATOM      9  C9  DEN d   1      -0.244  -0.005  -1.430  0.00  0.00    -0.072 A 
ENDROOT
TORSDOF 0
ENDMDL
