MODEL 1
REMARK minimizedAffinity -3.68876028
REMARK minimizedRMSD -1
REMARK  0 active torsions:
REMARK  status: ('A' for Active; 'I' for Inactive)
ROOT
ATOM      1  C1  DEN d   1      -2.621   0.234   0.808  0.00  0.00     0.130 A 
ATOM      2  C2  DEN d   1      -3.201   0.419   2.136  0.00  0.00    -0.031 A 
ATOM      3  C3  DEN d   1      -2.118   0.285   3.130  0.00  0.00     0.027 A 
ATOM      4  C4  DEN d   1       0.389  -0.183   2.745  0.00  0.00     0.027 A 
ATOM      5  C5  DEN d   1       1.352  -0.424   1.791  0.00  0.00    -0.003 A 
ATOM      6  C6  DEN d   1       1.056  -0.496   0.456  0.00  0.00     0.001 A 
ATOM      7  C7  DEN d   1      -0.230  -0.280   0.034  0.00  0.00     0.017 A 
ATOM      8  C8  DEN d   1      -1.208  -0.044   0.991  0.00  0.00    -0.094 A 
ATOM      9  C9  DEN d   1      -0.885   0.038   2.335  0.00  0.00    -0.072 A 
ENDROOT
TORSDOF 0
ENDMDL
