MODEL 1
REMARK minimizedAffinity -4.08642292
REMARK minimizedRMSD -1
REMARK  0 active torsions:
REMARK  status: ('A' for Active; 'I' for Inactive)
ROOT
ATOM      1  C1  DEN d   1      -1.999   0.268   1.983  0.00  0.00     0.130 A 
ATOM      2  C2  DEN d   1      -1.361   0.237   3.297  0.00  0.00    -0.031 A 
ATOM      3  C3  DEN d   1       0.085   0.011   3.097  0.00  0.00     0.027 A 
ATOM      4  C4  DEN d   1       1.391  -0.287   0.893  0.00  0.00     0.027 A 
ATOM      5  C5  DEN d   1       1.279  -0.349  -0.479  0.00  0.00    -0.003 A 
ATOM      6  C6  DEN d   1       0.072  -0.244  -1.119  0.00  0.00     0.001 A 
ATOM      7  C7  DEN d   1      -1.066  -0.027  -0.389  0.00  0.00     0.017 A 
ATOM      8  C8  DEN d   1      -0.963   0.029   0.995  0.00  0.00    -0.094 A 
ATOM      9  C9  DEN d   1       0.268  -0.067   1.622  0.00  0.00    -0.072 A 
ENDROOT
TORSDOF 0
ENDMDL
