MODEL 1
REMARK minimizedAffinity -4.39043427
REMARK minimizedRMSD -1
REMARK  0 active torsions:
REMARK  status: ('A' for Active; 'I' for Inactive)
ROOT
ATOM      1  C1  DEN d   1       1.470   0.854   1.097  0.00  0.00     0.130 A 
ATOM      2  C2  DEN d   1       1.203   0.516   2.492  0.00  0.00    -0.031 A 
ATOM      3  C3  DEN d   1      -0.229   0.178   2.614  0.00  0.00     0.027 A 
ATOM      4  C4  DEN d   1      -2.048   0.139   0.786  0.00  0.00     0.027 A 
ATOM      5  C5  DEN d   1      -2.302   0.361  -0.550  0.00  0.00    -0.003 A 
ATOM      6  C6  DEN d   1      -1.333   0.792  -1.416  0.00  0.00     0.001 A 
ATOM      7  C7  DEN d   1      -0.052   0.972  -0.965  0.00  0.00     0.017 A 
ATOM      8  C8  DEN d   1       0.211   0.757   0.381  0.00  0.00    -0.094 A 
ATOM      9  C9  DEN d   1      -0.780   0.309   1.238  0.00  0.00    -0.072 A 
ENDROOT
TORSDOF 0
ENDMDL
