MODEL 1
REMARK minimizedAffinity -5.48362541
REMARK minimizedRMSD -1
REMARK  0 active torsions:
REMARK  status: ('A' for Active; 'I' for Inactive)
ROOT
ATOM      1  C1  DEN d   1       0.355  -1.891   0.622  0.00  0.00     0.130 A 
ATOM      2  C2  DEN d   1       0.016  -0.850   1.589  0.00  0.00    -0.031 A 
ATOM      3  C3  DEN d   1       0.061   0.451   0.893  0.00  0.00     0.027 A 
ATOM      4  C4  DEN d   1       0.613   0.954  -1.576  0.00  0.00     0.027 A 
ATOM      5  C5  DEN d   1       0.975   0.394  -2.781  0.00  0.00    -0.003 A 
ATOM      6  C6  DEN d   1       1.187  -0.951  -2.928  0.00  0.00     0.001 A 
ATOM      7  C7  DEN d   1       0.995  -1.789  -1.861  0.00  0.00     0.017 A 
ATOM      8  C8  DEN d   1       0.637  -1.231  -0.640  0.00  0.00    -0.094 A 
ATOM      9  C9  DEN d   1       0.416   0.130  -0.515  0.00  0.00    -0.072 A 
ENDROOT
TORSDOF 0
ENDMDL
