MODEL 1
REMARK minimizedAffinity -3.65365744
REMARK minimizedRMSD -1
REMARK  0 active torsions:
REMARK  status: ('A' for Active; 'I' for Inactive)
ROOT
ATOM      1  C1  DEN d   1       1.587   0.323   0.897  0.00  0.00     0.130 A 
ATOM      2  C2  DEN d   1       1.138   0.070   2.263  0.00  0.00    -0.031 A 
ATOM      3  C3  DEN d   1      -0.336  -0.013   2.252  0.00  0.00     0.027 A 
ATOM      4  C4  DEN d   1      -1.959   0.218   0.261  0.00  0.00     0.027 A 
ATOM      5  C5  DEN d   1      -2.048   0.449  -1.094  0.00  0.00    -0.003 A 
ATOM      6  C6  DEN d   1      -0.943   0.686  -1.868  0.00  0.00     0.001 A 
ATOM      7  C7  DEN d   1       0.303   0.652  -1.301  0.00  0.00     0.017 A 
ATOM      8  C8  DEN d   1       0.400   0.428   0.066  0.00  0.00    -0.094 A 
ATOM      9  C9  DEN d   1      -0.728   0.178   0.830  0.00  0.00    -0.072 A 
ENDROOT
TORSDOF 0
ENDMDL
