MODEL 1
REMARK minimizedAffinity -2.65770149
REMARK minimizedRMSD -1
REMARK  0 active torsions:
REMARK  status: ('A' for Active; 'I' for Inactive)
ROOT
ATOM      1  C1  DEN d   1      -0.609  -1.474  -0.475  0.00  0.00     0.130 A 
ATOM      2  C2  DEN d   1       0.003  -1.116  -1.752  0.00  0.00    -0.031 A 
ATOM      3  C3  DEN d   1       0.996  -0.053  -1.500  0.00  0.00     0.027 A 
ATOM      4  C4  DEN d   1       1.644   1.066   0.732  0.00  0.00     0.027 A 
ATOM      5  C5  DEN d   1       1.389   1.104   2.085  0.00  0.00    -0.003 A 
ATOM      6  C6  DEN d   1       0.433   0.315   2.669  0.00  0.00     0.001 A 
ATOM      7  C7  DEN d   1      -0.271  -0.577   1.905  0.00  0.00     0.017 A 
ATOM      8  C8  DEN d   1      -0.024  -0.616   0.539  0.00  0.00    -0.094 A 
ATOM      9  C9  DEN d   1       0.955   0.181  -0.031  0.00  0.00    -0.072 A 
ENDROOT
TORSDOF 0
ENDMDL
