MODEL 1
REMARK minimizedAffinity -3.83986735
REMARK minimizedRMSD -1
REMARK  0 active torsions:
REMARK  status: ('A' for Active; 'I' for Inactive)
ROOT
ATOM      1  C1  DEN d   1       0.090  -1.422   0.932  0.00  0.00     0.130 A 
ATOM      2  C2  DEN d   1       0.044  -0.079   1.505  0.00  0.00    -0.031 A 
ATOM      3  C3  DEN d   1       0.220   0.892   0.407  0.00  0.00     0.027 A 
ATOM      4  C4  DEN d   1       0.553   0.450  -2.113  0.00  0.00     0.027 A 
ATOM      5  C5  DEN d   1       0.673  -0.529  -3.074  0.00  0.00    -0.003 A 
ATOM      6  C6  DEN d   1       0.641  -1.864  -2.766  0.00  0.00     0.001 A 
ATOM      7  C7  DEN d   1       0.440  -2.256  -1.469  0.00  0.00     0.017 A 
ATOM      8  C8  DEN d   1       0.326  -1.275  -0.493  0.00  0.00    -0.094 A 
ATOM      9  C9  DEN d   1       0.349   0.069  -0.826  0.00  0.00    -0.072 A 
ENDROOT
TORSDOF 0
ENDMDL
