MODEL 1
REMARK minimizedAffinity -5.78417921
REMARK minimizedRMSD -1
REMARK  0 active torsions:
REMARK  status: ('A' for Active; 'I' for Inactive)
ROOT
ATOM      1  C1  DEN d   1      -2.135   0.304   2.933  0.00  0.00     0.130 A 
ATOM      2  C2  DEN d   1      -3.227   0.712   2.053  0.00  0.00    -0.031 A 
ATOM      3  C3  DEN d   1      -2.683   0.858   0.688  0.00  0.00     0.027 A 
ATOM      4  C4  DEN d   1      -0.270   0.488  -0.145  0.00  0.00     0.027 A 
ATOM      5  C5  DEN d   1       1.009   0.147   0.235  0.00  0.00    -0.003 A 
ATOM      6  C6  DEN d   1       1.334  -0.130   1.536  0.00  0.00     0.001 A 
ATOM      7  C7  DEN d   1       0.358  -0.116   2.498  0.00  0.00     0.017 A 
ATOM      8  C8  DEN d   1      -0.932   0.235   2.123  0.00  0.00    -0.094 A 
ATOM      9  C9  DEN d   1      -1.243   0.500   0.800  0.00  0.00    -0.072 A 
ENDROOT
TORSDOF 0
ENDMDL
