MODEL 1
REMARK minimizedAffinity -1.4937216
REMARK minimizedRMSD -1
REMARK  0 active torsions:
REMARK  status: ('A' for Active; 'I' for Inactive)
ROOT
ATOM      1  C1  DEN d   1       0.327  -0.982  -1.184  0.00  0.00     0.130 A 
ATOM      2  C2  DEN d   1       0.337   0.276  -1.927  0.00  0.00    -0.031 A 
ATOM      3  C3  DEN d   1       0.326   1.383  -0.950  0.00  0.00     0.027 A 
ATOM      4  C4  DEN d   1       0.301   1.273   1.627  0.00  0.00     0.027 A 
ATOM      5  C5  DEN d   1       0.277   0.428   2.714  0.00  0.00    -0.003 A 
ATOM      6  C6  DEN d   1       0.233  -0.934   2.579  0.00  0.00     0.001 A 
ATOM      7  C7  DEN d   1       0.259  -1.493   1.329  0.00  0.00     0.017 A 
ATOM      8  C8  DEN d   1       0.276  -0.648   0.228  0.00  0.00    -0.094 A 
ATOM      9  C9  DEN d   1       0.332   0.727   0.385  0.00  0.00    -0.072 A 
ENDROOT
TORSDOF 0
ENDMDL
