MODEL 1
REMARK minimizedAffinity -3.02763772
REMARK minimizedRMSD -1
REMARK  0 active torsions:
REMARK  status: ('A' for Active; 'I' for Inactive)
ROOT
ATOM      1  C1  DEN d   1       1.106  -2.099  -3.250  0.00  0.00     0.130 A 
ATOM      2  C2  DEN d   1       1.459  -1.127  -4.282  0.00  0.00    -0.031 A 
ATOM      3  C3  DEN d   1       1.381   0.221  -3.685  0.00  0.00     0.027 A 
ATOM      4  C4  DEN d   1       0.756   0.895  -1.275  0.00  0.00     0.027 A 
ATOM      5  C5  DEN d   1       0.368   0.421  -0.042  0.00  0.00    -0.003 A 
ATOM      6  C6  DEN d   1       0.167  -0.912   0.197  0.00  0.00     0.001 A 
ATOM      7  C7  DEN d   1       0.398  -1.823  -0.800  0.00  0.00     0.017 A 
ATOM      8  C8  DEN d   1       0.782  -1.352  -2.048  0.00  0.00    -0.094 A 
ATOM      9  C9  DEN d   1       0.992  -0.001  -2.266  0.00  0.00    -0.072 A 
ENDROOT
TORSDOF 0
ENDMDL
