MODEL 1
REMARK minimizedAffinity -4.02049398
REMARK minimizedRMSD -1
REMARK  0 active torsions:
REMARK  status: ('A' for Active; 'I' for Inactive)
ROOT
ATOM      1  C   UNL d   1      -0.747   1.668   0.386  0.00  0.00     0.077 C 
ATOM      2  C1  UNL d   1      -0.632   0.173   0.386  0.00  0.00    -0.074 A 
ATOM      3  C2  UNL d   1      -1.761  -0.635   0.552  0.00  0.00    -0.005 A 
ATOM      4  C3  UNL d   1      -1.640  -2.025   0.541  0.00  0.00     0.006 A 
ATOM      5  C4  UNL d   1      -0.390  -2.619   0.363  0.00  0.00    -0.005 A 
ATOM      6  C5  UNL d   1       0.750  -1.827   0.195  0.00  0.00    -0.074 A 
ATOM      7  C6  UNL d   1       2.100  -2.450  -0.007  0.00  0.00     0.077 C 
ATOM      8  C7  UNL d   1       0.619  -0.432   0.200  0.00  0.00    -0.001 A 
ENDROOT
TORSDOF 0
ENDMDL
