MODEL 1
REMARK minimizedAffinity -2.67414308
REMARK minimizedRMSD -1
REMARK  0 active torsions:
REMARK  status: ('A' for Active; 'I' for Inactive)
ROOT
ATOM      1  C   UNL d   1      -5.770  -5.974  -6.000  0.00  0.00     0.077 C 
ATOM      2  C1  UNL d   1      -5.278  -4.946  -5.025  0.00  0.00    -0.074 A 
ATOM      3  C2  UNL d   1      -4.252  -5.245  -4.122  0.00  0.00    -0.005 A 
ATOM      4  C3  UNL d   1      -3.798  -4.276  -3.227  0.00  0.00     0.006 A 
ATOM      5  C4  UNL d   1      -4.363  -3.000  -3.227  0.00  0.00    -0.005 A 
ATOM      6  C5  UNL d   1      -5.388  -2.683  -4.123  0.00  0.00    -0.074 A 
ATOM      7  C6  UNL d   1      -6.000  -1.313  -4.142  0.00  0.00     0.077 C 
ATOM      8  C7  UNL d   1      -5.835  -3.660  -5.023  0.00  0.00    -0.001 A 
ENDROOT
TORSDOF 0
ENDMDL
