MODEL 1
REMARK minimizedAffinity -3.55140662
REMARK minimizedRMSD -1
REMARK  0 active torsions:
REMARK  status: ('A' for Active; 'I' for Inactive)
ROOT
ATOM      1  C   UNL d   1      -5.642  -1.869  -4.877  0.00  0.00     0.077 C 
ATOM      2  C1  UNL d   1      -5.078  -3.252  -5.009  0.00  0.00    -0.074 A 
ATOM      3  C2  UNL d   1      -5.864  -4.378  -4.742  0.00  0.00    -0.005 A 
ATOM      4  C3  UNL d   1      -5.328  -5.658  -4.879  0.00  0.00     0.006 A 
ATOM      5  C4  UNL d   1      -4.003  -5.826  -5.283  0.00  0.00    -0.005 A 
ATOM      6  C5  UNL d   1      -3.202  -4.712  -5.555  0.00  0.00    -0.074 A 
ATOM      7  C6  UNL d   1      -1.779  -4.875  -6.000  0.00  0.00     0.077 C 
ATOM      8  C7  UNL d   1      -3.750  -3.429  -5.422  0.00  0.00    -0.001 A 
ENDROOT
TORSDOF 0
ENDMDL
