MODEL 1
REMARK minimizedAffinity -3.66374636
REMARK minimizedRMSD -1
REMARK  0 active torsions:
REMARK  status: ('A' for Active; 'I' for Inactive)
ROOT
ATOM      1  C   UNL d   1      -5.999  -4.560  -3.485  0.00  0.00     0.077 C 
ATOM      2  C1  UNL d   1      -4.816  -4.166  -4.318  0.00  0.00    -0.074 A 
ATOM      3  C2  UNL d   1      -4.605  -2.831  -4.681  0.00  0.00    -0.005 A 
ATOM      4  C3  UNL d   1      -3.495  -2.479  -5.448  0.00  0.00     0.006 A 
ATOM      5  C4  UNL d   1      -2.587  -3.455  -5.861  0.00  0.00    -0.005 A 
ATOM      6  C5  UNL d   1      -2.781  -4.794  -5.507  0.00  0.00    -0.074 A 
ATOM      7  C6  UNL d   1      -1.810  -5.854  -5.934  0.00  0.00     0.077 C 
ATOM      8  C7  UNL d   1      -3.895  -5.139  -4.730  0.00  0.00    -0.001 A 
ENDROOT
TORSDOF 0
ENDMDL
