MODEL 1
REMARK minimizedAffinity -4.33862925
REMARK minimizedRMSD -1
REMARK  0 active torsions:
REMARK  status: ('A' for Active; 'I' for Inactive)
ROOT
ATOM      1  C   UNL d   1      -2.249  -4.751  -5.283  0.00  0.00     0.077 C 
ATOM      2  C1  UNL d   1      -3.558  -4.225  -4.775  0.00  0.00    -0.074 A 
ATOM      3  C2  UNL d   1      -4.390  -5.016  -3.976  0.00  0.00    -0.005 A 
ATOM      4  C3  UNL d   1      -5.600  -4.509  -3.503  0.00  0.00     0.006 A 
ATOM      5  C4  UNL d   1      -5.991  -3.209  -3.824  0.00  0.00    -0.005 A 
ATOM      6  C5  UNL d   1      -5.172  -2.403  -4.621  0.00  0.00    -0.074 A 
ATOM      7  C6  UNL d   1      -5.572  -0.999  -4.967  0.00  0.00     0.077 C 
ATOM      8  C7  UNL d   1      -3.954  -2.917  -5.087  0.00  0.00    -0.001 A 
ENDROOT
TORSDOF 0
ENDMDL
