MODEL 1
REMARK minimizedAffinity -3.52825689
REMARK minimizedRMSD -1
REMARK  0 active torsions:
REMARK  status: ('A' for Active; 'I' for Inactive)
ROOT
ATOM      1  C   UNL d   1      -5.709  -1.551  -5.988  0.00  0.00     0.077 C 
ATOM      2  C1  UNL d   1      -5.050  -2.750  -5.374  0.00  0.00    -0.074 A 
ATOM      3  C2  UNL d   1      -5.602  -3.379  -4.253  0.00  0.00    -0.005 A 
ATOM      4  C3  UNL d   1      -4.983  -4.500  -3.699  0.00  0.00     0.006 A 
ATOM      5  C4  UNL d   1      -3.807  -5.001  -4.259  0.00  0.00    -0.005 A 
ATOM      6  C5  UNL d   1      -3.241  -4.386  -5.380  0.00  0.00    -0.074 A 
ATOM      7  C6  UNL d   1      -1.983  -4.919  -5.999  0.00  0.00     0.077 C 
ATOM      8  C7  UNL d   1      -3.873  -3.265  -5.935  0.00  0.00    -0.001 A 
ENDROOT
TORSDOF 0
ENDMDL
