MODEL 1
REMARK minimizedAffinity -1.46348929
REMARK minimizedRMSD -1
REMARK  0 active torsions:
REMARK  status: ('A' for Active; 'I' for Inactive)
ROOT
ATOM      1  C   UNL d   1      -1.499  -4.880  -3.376  0.00  0.00     0.077 C 
ATOM      2  C1  UNL d   1      -2.682  -4.883  -4.297  0.00  0.00    -0.074 A 
ATOM      3  C2  UNL d   1      -2.923  -5.961  -5.155  0.00  0.00    -0.005 A 
ATOM      4  C3  UNL d   1      -4.034  -5.953  -5.999  0.00  0.00     0.006 A 
ATOM      5  C4  UNL d   1      -4.913  -4.870  -5.994  0.00  0.00    -0.005 A 
ATOM      6  C5  UNL d   1      -4.689  -3.784  -5.142  0.00  0.00    -0.074 A 
ATOM      7  C6  UNL d   1      -5.629  -2.616  -5.117  0.00  0.00     0.077 C 
ATOM      8  C7  UNL d   1      -3.575  -3.801  -4.292  0.00  0.00    -0.001 A 
ENDROOT
TORSDOF 0
ENDMDL
