MODEL 1
REMARK minimizedAffinity -1.44356048
REMARK minimizedRMSD -1
REMARK  0 active torsions:
REMARK  status: ('A' for Active; 'I' for Inactive)
ROOT
ATOM      1  C   UNL d   1      -4.786  -2.708  -3.706  0.00  0.00     0.077 C 
ATOM      2  C1  UNL d   1      -4.185  -3.862  -4.452  0.00  0.00    -0.074 A 
ATOM      3  C2  UNL d   1      -4.971  -4.671  -5.279  0.00  0.00    -0.005 A 
ATOM      4  C3  UNL d   1      -4.396  -5.734  -5.974  0.00  0.00     0.006 A 
ATOM      5  C4  UNL d   1      -3.032  -6.000  -5.849  0.00  0.00    -0.005 A 
ATOM      6  C5  UNL d   1      -2.230  -5.201  -5.028  0.00  0.00    -0.074 A 
ATOM      7  C6  UNL d   1      -0.760  -5.467  -4.891  0.00  0.00     0.077 C 
ATOM      8  C7  UNL d   1      -2.813  -4.130  -4.338  0.00  0.00    -0.001 A 
ENDROOT
TORSDOF 0
ENDMDL
