MODEL 1
REMARK minimizedAffinity -2.44068813
REMARK minimizedRMSD -1
REMARK  0 active torsions:
REMARK  status: ('A' for Active; 'I' for Inactive)
ROOT
ATOM      1  C   UNL d   1      -5.903  -1.828  -3.546  0.00  0.00     0.077 C 
ATOM      2  C1  UNL d   1      -4.832  -2.516  -4.339  0.00  0.00    -0.074 A 
ATOM      3  C2  UNL d   1      -4.068  -1.813  -5.276  0.00  0.00    -0.005 A 
ATOM      4  C3  UNL d   1      -3.069  -2.465  -6.000  0.00  0.00     0.006 A 
ATOM      5  C4  UNL d   1      -2.825  -3.823  -5.794  0.00  0.00    -0.005 A 
ATOM      6  C5  UNL d   1      -3.577  -4.542  -4.860  0.00  0.00    -0.074 A 
ATOM      7  C6  UNL d   1      -3.321  -6.000  -4.618  0.00  0.00     0.077 C 
ATOM      8  C7  UNL d   1      -4.575  -3.878  -4.131  0.00  0.00    -0.001 A 
ENDROOT
TORSDOF 0
ENDMDL
