MODEL 1
REMARK minimizedAffinity -3.51528716
REMARK minimizedRMSD -1
REMARK  0 active torsions:
REMARK  status: ('A' for Active; 'I' for Inactive)
ROOT
ATOM      1  C   UNL d   1      -6.000  -2.445  -5.040  0.00  0.00     0.077 C 
ATOM      2  C1  UNL d   1      -5.182  -3.677  -4.792  0.00  0.00    -0.074 A 
ATOM      3  C2  UNL d   1      -5.672  -4.718  -3.996  0.00  0.00    -0.005 A 
ATOM      4  C3  UNL d   1      -4.903  -5.862  -3.783  0.00  0.00     0.006 A 
ATOM      5  C4  UNL d   1      -3.639  -5.977  -4.361  0.00  0.00    -0.005 A 
ATOM      6  C5  UNL d   1      -3.132  -4.947  -5.160  0.00  0.00    -0.074 A 
ATOM      7  C6  UNL d   1      -1.779  -5.059  -5.796  0.00  0.00     0.077 C 
ATOM      8  C7  UNL d   1      -3.913  -3.804  -5.375  0.00  0.00    -0.001 A 
ENDROOT
TORSDOF 0
ENDMDL
