MODEL 1
REMARK minimizedAffinity -3.95597076
REMARK minimizedRMSD -1
REMARK  0 active torsions:
REMARK  status: ('A' for Active; 'I' for Inactive)
ROOT
ATOM      1  C   UNL d   1      -5.998  -2.909  -5.880  0.00  0.00     0.077 C 
ATOM      2  C1  UNL d   1      -5.169  -3.969  -5.218  0.00  0.00    -0.074 A 
ATOM      3  C2  UNL d   1      -5.733  -4.840  -4.280  0.00  0.00    -0.005 A 
ATOM      4  C3  UNL d   1      -4.952  -5.828  -3.680  0.00  0.00     0.006 A 
ATOM      5  C4  UNL d   1      -3.602  -5.954  -4.010  0.00  0.00    -0.005 A 
ATOM      6  C5  UNL d   1      -3.022  -5.093  -4.947  0.00  0.00    -0.074 A 
ATOM      7  C6  UNL d   1      -1.575  -5.221  -5.320  0.00  0.00     0.077 C 
ATOM      8  C7  UNL d   1      -3.815  -4.108  -5.551  0.00  0.00    -0.001 A 
ENDROOT
TORSDOF 0
ENDMDL
