MODEL 1
REMARK minimizedAffinity -2.86343408
REMARK minimizedRMSD -1
REMARK  0 active torsions:
REMARK  status: ('A' for Active; 'I' for Inactive)
ROOT
ATOM      1  C   UNL d   1      -0.748  -5.987  -5.994  0.00  0.00     0.077 C 
ATOM      2  C1  UNL d   1      -1.983  -5.584  -5.245  0.00  0.00    -0.074 A 
ATOM      3  C2  UNL d   1      -1.939  -5.327  -3.871  0.00  0.00    -0.005 A 
ATOM      4  C3  UNL d   1      -3.094  -4.944  -3.189  0.00  0.00     0.006 A 
ATOM      5  C4  UNL d   1      -4.303  -4.815  -3.873  0.00  0.00    -0.005 A 
ATOM      6  C5  UNL d   1      -4.367  -5.067  -5.248  0.00  0.00    -0.074 A 
ATOM      7  C6  UNL d   1      -5.657  -4.924  -6.000  0.00  0.00     0.077 C 
ATOM      8  C7  UNL d   1      -3.200  -5.445  -5.927  0.00  0.00    -0.001 A 
ENDROOT
TORSDOF 0
ENDMDL
