MODEL 1
REMARK minimizedAffinity -2.58561444
REMARK minimizedRMSD -1
REMARK  0 active torsions:
REMARK  status: ('A' for Active; 'I' for Inactive)
ROOT
ATOM      1  C   UNL d   1      -5.817  -3.181  -3.187  0.00  0.00     0.077 C 
ATOM      2  C1  UNL d   1      -5.215  -4.169  -4.141  0.00  0.00    -0.074 A 
ATOM      3  C2  UNL d   1      -6.000  -4.803  -5.110  0.00  0.00    -0.005 A 
ATOM      4  C3  UNL d   1      -5.424  -5.712  -5.997  0.00  0.00     0.006 A 
ATOM      5  C4  UNL d   1      -4.059  -5.996  -5.925  0.00  0.00    -0.005 A 
ATOM      6  C5  UNL d   1      -3.258  -5.371  -4.964  0.00  0.00    -0.074 A 
ATOM      7  C6  UNL d   1      -1.788  -5.657  -4.880  0.00  0.00     0.077 C 
ATOM      8  C7  UNL d   1      -3.843  -4.453  -4.081  0.00  0.00    -0.001 A 
ENDROOT
TORSDOF 0
ENDMDL
