MODEL 1
REMARK minimizedAffinity -3.6849196
REMARK minimizedRMSD -1
REMARK  0 active torsions:
REMARK  status: ('A' for Active; 'I' for Inactive)
ROOT
ATOM      1  C   UNL d   1      -1.124  -5.893  -5.999  0.00  0.00     0.077 C 
ATOM      2  C1  UNL d   1      -2.332  -5.418  -5.249  0.00  0.00    -0.074 A 
ATOM      3  C2  UNL d   1      -2.271  -5.163  -3.875  0.00  0.00    -0.005 A 
ATOM      4  C3  UNL d   1      -3.401  -4.712  -3.193  0.00  0.00     0.006 A 
ATOM      5  C4  UNL d   1      -4.601  -4.513  -3.875  0.00  0.00    -0.005 A 
ATOM      6  C5  UNL d   1      -4.681  -4.762  -5.249  0.00  0.00    -0.074 A 
ATOM      7  C6  UNL d   1      -5.961  -4.543  -6.000  0.00  0.00     0.077 C 
ATOM      8  C7  UNL d   1      -3.540  -5.208  -5.929  0.00  0.00    -0.001 A 
ENDROOT
TORSDOF 0
ENDMDL
