MODEL 1
REMARK minimizedAffinity -4.10148382
REMARK minimizedRMSD -1
REMARK  0 active torsions:
REMARK  status: ('A' for Active; 'I' for Inactive)
ROOT
ATOM      1  C   UNL d   1      -1.862  -5.247  -5.250  0.00  0.00     0.077 C 
ATOM      2  C1  UNL d   1      -3.278  -4.752  -5.266  0.00  0.00    -0.074 A 
ATOM      3  C2  UNL d   1      -4.264  -5.420  -5.999  0.00  0.00    -0.005 A 
ATOM      4  C3  UNL d   1      -5.579  -4.954  -5.997  0.00  0.00     0.006 A 
ATOM      5  C4  UNL d   1      -5.919  -3.816  -5.264  0.00  0.00    -0.005 A 
ATOM      6  C5  UNL d   1      -4.947  -3.136  -4.525  0.00  0.00    -0.074 A 
ATOM      7  C6  UNL d   1      -5.298  -1.917  -3.724  0.00  0.00     0.077 C 
ATOM      8  C7  UNL d   1      -3.630  -3.615  -4.526  0.00  0.00    -0.001 A 
ENDROOT
TORSDOF 0
ENDMDL
