MODEL 1
REMARK minimizedAffinity -3.38783073
REMARK minimizedRMSD -1
REMARK  0 active torsions:
REMARK  status: ('A' for Active; 'I' for Inactive)
ROOT
ATOM      1  C   UNL d   1      -5.641  -2.569  -3.760  0.00  0.00     0.077 C 
ATOM      2  C1  UNL d   1      -5.128  -3.744  -4.538  0.00  0.00    -0.074 A 
ATOM      3  C2  UNL d   1      -6.000  -4.562  -5.264  0.00  0.00    -0.005 A 
ATOM      4  C3  UNL d   1      -5.507  -5.646  -5.991  0.00  0.00     0.006 A 
ATOM      5  C4  UNL d   1      -4.139  -5.922  -6.000  0.00  0.00    -0.005 A 
ATOM      6  C5  UNL d   1      -3.252  -5.114  -5.281  0.00  0.00    -0.074 A 
ATOM      7  C6  UNL d   1      -1.778  -5.391  -5.288  0.00  0.00     0.077 C 
ATOM      8  C7  UNL d   1      -3.754  -4.023  -4.559  0.00  0.00    -0.001 A 
ENDROOT
TORSDOF 0
ENDMDL
