MODEL 1
REMARK minimizedAffinity -4.15299129
REMARK minimizedRMSD -1
REMARK  0 active torsions:
REMARK  status: ('A' for Active; 'I' for Inactive)
ROOT
ATOM      1  C   UNL d   1      -5.507  -1.827  -4.468  0.00  0.00     0.077 C 
ATOM      2  C1  UNL d   1      -4.919  -3.199  -4.326  0.00  0.00    -0.074 A 
ATOM      3  C2  UNL d   1      -5.720  -4.292  -3.980  0.00  0.00    -0.005 A 
ATOM      4  C3  UNL d   1      -5.160  -5.565  -3.862  0.00  0.00     0.006 A 
ATOM      5  C4  UNL d   1      -3.797  -5.757  -4.087  0.00  0.00    -0.005 A 
ATOM      6  C5  UNL d   1      -2.980  -4.676  -4.434  0.00  0.00    -0.074 A 
ATOM      7  C6  UNL d   1      -1.515  -4.866  -4.690  0.00  0.00     0.077 C 
ATOM      8  C7  UNL d   1      -3.551  -3.402  -4.559  0.00  0.00    -0.001 A 
ENDROOT
TORSDOF 0
ENDMDL
