MODEL 1
REMARK minimizedAffinity 16.6278896
REMARK minimizedRMSD -1
REMARK  2 active torsions:
REMARK  status: ('A' for Active; 'I' for Inactive)
REMARK    1  A    between atoms: C2'_3  and  C1'_4 
REMARK    2  A    between atoms: C1'_4  and  C1_5 
ROOT
ATOM      1  C1  I4B d   1      -4.084   3.694  -5.166  0.00  0.00    -0.075 A 
ATOM      2  C2  I4B d   1      -3.763   4.721  -4.314  0.00  0.00     0.003 A 
ATOM      3  C3  I4B d   1      -4.569   5.884  -4.263  0.00  0.00     0.002 A 
ATOM      4  C4  I4B d   1      -5.652   5.998  -5.111  0.00  0.00    -0.004 A 
ATOM      5  C5  I4B d   1      -5.990   4.946  -5.958  0.00  0.00     0.002 A 
ATOM      6  C6  I4B d   1      -5.208   3.782  -5.977  0.00  0.00     0.003 A 
ENDROOT
BRANCH   1   7
ATOM      7  C1' I4B d   1      -3.192   2.495  -5.218  0.00  0.00     0.060 C 
BRANCH   7   8
ATOM      8  C2' I4B d   1      -2.492   2.375  -3.879  0.00  0.00    -0.013 C 
ATOM      9  C4' I4B d   1      -2.931   1.137  -3.143  0.00  0.00     0.013 C 
ATOM     10  C3' I4B d   1      -1.014   2.362  -4.130  0.00  0.00     0.013 C 
ENDBRANCH   7   8
ENDBRANCH   1   7
TORSDOF 2
ENDMDL
