MODEL 1
REMARK minimizedAffinity 14.2176151
REMARK minimizedRMSD -1
REMARK  2 active torsions:
REMARK  status: ('A' for Active; 'I' for Inactive)
REMARK    1  A    between atoms: C2'_3  and  C1'_4 
REMARK    2  A    between atoms: C1'_4  and  C1_5 
ROOT
ATOM      1  C1  I4B d   1      -2.040   0.887  -3.289  0.00  0.00    -0.075 A 
ATOM      2  C2  I4B d   1      -0.674   0.932  -3.420  0.00  0.00     0.003 A 
ATOM      3  C3  I4B d   1      -0.056   2.023  -4.077  0.00  0.00     0.002 A 
ATOM      4  C4  I4B d   1      -0.839   3.016  -4.629  0.00  0.00    -0.004 A 
ATOM      5  C5  I4B d   1      -2.222   2.981  -4.475  0.00  0.00     0.002 A 
ATOM      6  C6  I4B d   1      -2.826   1.917  -3.791  0.00  0.00     0.003 A 
ENDROOT
BRANCH   1   7
ATOM      7  C1' I4B d   1      -2.661  -0.296  -2.619  0.00  0.00     0.060 C 
BRANCH   7   8
ATOM      8  C2' I4B d   1      -1.573  -1.322  -2.379  0.00  0.00    -0.013 C 
ATOM      9  C4' I4B d   1      -1.657  -1.893  -0.988  0.00  0.00     0.013 C 
ATOM     10  C3' I4B d   1      -1.714  -2.398  -3.415  0.00  0.00     0.013 C 
ENDBRANCH   7   8
ENDBRANCH   1   7
TORSDOF 2
ENDMDL
