MODEL 1
REMARK minimizedAffinity 10.9979887
REMARK minimizedRMSD -1
REMARK  2 active torsions:
REMARK  status: ('A' for Active; 'I' for Inactive)
REMARK    1  A    between atoms: C2'_3  and  C1'_4 
REMARK    2  A    between atoms: C1'_4  and  C1_5 
ROOT
ATOM      1  C1  I4B d   1      -2.250  -2.363   3.321  0.00  0.00    -0.075 A 
ATOM      2  C2  I4B d   1      -1.760  -3.402   4.073  0.00  0.00     0.003 A 
ATOM      3  C3  I4B d   1      -1.444  -3.206   5.439  0.00  0.00     0.002 A 
ATOM      4  C4  I4B d   1      -1.584  -1.952   5.996  0.00  0.00    -0.004 A 
ATOM      5  C5  I4B d   1      -2.102  -0.905   5.239  0.00  0.00     0.002 A 
ATOM      6  C6  I4B d   1      -2.449  -1.115   3.896  0.00  0.00     0.003 A 
ENDROOT
BRANCH   1   7
ATOM      7  C1' I4B d   1      -2.543  -2.596   1.873  0.00  0.00     0.060 C 
BRANCH   7   8
ATOM      8  C2' I4B d   1      -1.231  -2.543   1.117  0.00  0.00    -0.013 C 
ATOM      9  C4' I4B d   1      -0.757  -3.925   0.749  0.00  0.00     0.013 C 
ATOM     10  C3' I4B d   1      -1.434  -1.697  -0.104  0.00  0.00     0.013 C 
ENDBRANCH   7   8
ENDBRANCH   1   7
TORSDOF 2
ENDMDL
