MODEL 1
REMARK minimizedAffinity 22.4613857
REMARK minimizedRMSD -1
REMARK  2 active torsions:
REMARK  status: ('A' for Active; 'I' for Inactive)
REMARK    1  A    between atoms: C2'_3  and  C1'_4 
REMARK    2  A    between atoms: C1'_4  and  C1_5 
ROOT
ATOM      1  C1  I4B d   1      -1.871  -2.790   0.807  0.00  0.00    -0.075 A 
ATOM      2  C2  I4B d   1      -1.860  -1.605   0.114  0.00  0.00     0.003 A 
ATOM      3  C3  I4B d   1      -2.991  -0.754   0.138  0.00  0.00     0.002 A 
ATOM      4  C4  I4B d   1      -4.123  -1.148   0.823  0.00  0.00    -0.004 A 
ATOM      5  C5  I4B d   1      -4.125  -2.338   1.544  0.00  0.00     0.002 A 
ATOM      6  C6  I4B d   1      -2.987  -3.159   1.547  0.00  0.00     0.003 A 
ENDROOT
BRANCH   1   7
ATOM      7  C1' I4B d   1      -0.671  -3.680   0.733  0.00  0.00     0.060 C 
BRANCH   7   8
ATOM      8  C2' I4B d   1      -1.152  -5.090   0.459  0.00  0.00    -0.013 C 
ATOM      9  C4' I4B d   1      -0.813  -5.519  -0.945  0.00  0.00     0.013 C 
ATOM     10  C3' I4B d   1      -0.521  -6.000   1.470  0.00  0.00     0.013 C 
ENDBRANCH   7   8
ENDBRANCH   1   7
TORSDOF 2
ENDMDL
