MODEL 1
REMARK minimizedAffinity 6.7398262
REMARK minimizedRMSD -1
REMARK  2 active torsions:
REMARK  status: ('A' for Active; 'I' for Inactive)
REMARK    1  A    between atoms: C2'_3  and  C1'_4 
REMARK    2  A    between atoms: C1'_4  and  C1_5 
ROOT
ATOM      1  C1  I4B d   1       3.849   2.190   5.096  0.00  0.00    -0.075 A 
ATOM      2  C2  I4B d   1       3.318   1.424   4.089  0.00  0.00     0.003 A 
ATOM      3  C3  I4B d   1       4.128   0.487   3.403  0.00  0.00     0.002 A 
ATOM      4  C4  I4B d   1       5.467   0.385   3.720  0.00  0.00    -0.004 A 
ATOM      5  C5  I4B d   1       5.999   1.146   4.757  0.00  0.00     0.002 A 
ATOM      6  C6  I4B d   1       5.182   2.045   5.458  0.00  0.00     0.003 A 
ENDROOT
BRANCH   1   7
ATOM      7  C1' I4B d   1       2.974   3.193   5.778  0.00  0.00     0.060 C 
BRANCH   7   8
ATOM      8  C2' I4B d   1       3.789   4.451   5.998  0.00  0.00    -0.013 C 
ATOM      9  C4' I4B d   1       4.847   4.608   4.938  0.00  0.00     0.013 C 
ATOM     10  C3' I4B d   1       2.847   5.618   6.000  0.00  0.00     0.013 C 
ENDBRANCH   7   8
ENDBRANCH   1   7
TORSDOF 2
ENDMDL
