MODEL 1
REMARK minimizedAffinity 9.39505672
REMARK minimizedRMSD -1
REMARK  2 active torsions:
REMARK  status: ('A' for Active; 'I' for Inactive)
REMARK    1  A    between atoms: C2'_3  and  C1'_4 
REMARK    2  A    between atoms: C1'_4  and  C1_5 
ROOT
ATOM      1  C1  I4B d   1      -1.192  -2.155  -0.405  0.00  0.00    -0.075 A 
ATOM      2  C2  I4B d   1      -0.567  -3.327  -0.060  0.00  0.00     0.003 A 
ATOM      3  C3  I4B d   1      -0.982  -4.046   1.087  0.00  0.00     0.002 A 
ATOM      4  C4  I4B d   1      -1.986  -3.533   1.884  0.00  0.00    -0.004 A 
ATOM      5  C5  I4B d   1      -2.634  -2.356   1.519  0.00  0.00     0.002 A 
ATOM      6  C6  I4B d   1      -2.243  -1.669   0.361  0.00  0.00     0.003 A 
ENDROOT
BRANCH   1   7
ATOM      7  C1' I4B d   1      -0.706  -1.406  -1.605  0.00  0.00     0.060 C 
BRANCH   7   8
ATOM      8  C2' I4B d   1      -1.808  -1.424  -2.645  0.00  0.00    -0.013 C 
ATOM      9  C4' I4B d   1      -2.497  -0.088  -2.734  0.00  0.00     0.013 C 
ATOM     10  C3' I4B d   1      -1.198  -1.807  -3.960  0.00  0.00     0.013 C 
ENDBRANCH   7   8
ENDBRANCH   1   7
TORSDOF 2
ENDMDL
