MODEL 1
REMARK minimizedAffinity 11.5870161
REMARK minimizedRMSD -1
REMARK  2 active torsions:
REMARK  status: ('A' for Active; 'I' for Inactive)
REMARK    1  A    between atoms: C2'_3  and  C1'_4 
REMARK    2  A    between atoms: C1'_4  and  C1_5 
ROOT
ATOM      1  C1  I4B d   1      -1.155  -4.138   2.809  0.00  0.00    -0.075 A 
ATOM      2  C2  I4B d   1      -1.298  -3.197   1.820  0.00  0.00     0.003 A 
ATOM      3  C3  I4B d   1      -0.859  -3.476   0.503  0.00  0.00     0.002 A 
ATOM      4  C4  I4B d   1      -0.241  -4.680   0.233  0.00  0.00    -0.004 A 
ATOM      5  C5  I4B d   1      -0.117  -5.641   1.232  0.00  0.00     0.002 A 
ATOM      6  C6  I4B d   1      -0.588  -5.373   2.526  0.00  0.00     0.003 A 
ENDROOT
BRANCH   1   7
ATOM      7  C1' I4B d   1      -1.600  -3.797   4.196  0.00  0.00     0.060 C 
BRANCH   7   8
ATOM      8  C2' I4B d   1      -1.224  -2.355   4.466  0.00  0.00    -0.013 C 
ATOM      9  C4' I4B d   1      -2.323  -1.634   5.202  0.00  0.00     0.013 C 
ATOM     10  C3' I4B d   1       0.051  -2.348   5.256  0.00  0.00     0.013 C 
ENDBRANCH   7   8
ENDBRANCH   1   7
TORSDOF 2
ENDMDL
