MODEL 1
REMARK minimizedAffinity 10.166111
REMARK minimizedRMSD -1
REMARK  2 active torsions:
REMARK  status: ('A' for Active; 'I' for Inactive)
REMARK    1  A    between atoms: C2'_3  and  C1'_4 
REMARK    2  A    between atoms: C1'_4  and  C1_5 
ROOT
ATOM      1  C1  I4B d   1      -4.550   5.356  -2.187  0.00  0.00    -0.075 A 
ATOM      2  C2  I4B d   1      -5.509   5.998  -1.445  0.00  0.00     0.003 A 
ATOM      3  C3  I4B d   1      -5.741   5.621  -0.100  0.00  0.00     0.002 A 
ATOM      4  C4  I4B d   1      -5.030   4.571   0.444  0.00  0.00    -0.004 A 
ATOM      5  C5  I4B d   1      -4.041   3.936  -0.303  0.00  0.00     0.002 A 
ATOM      6  C6  I4B d   1      -3.790   4.339  -1.623  0.00  0.00     0.003 A 
ENDROOT
BRANCH   1   7
ATOM      7  C1' I4B d   1      -4.354   5.757  -3.615  0.00  0.00     0.060 C 
BRANCH   7   8
ATOM      8  C2' I4B d   1      -5.422   5.072  -4.442  0.00  0.00    -0.013 C 
ATOM      9  C4' I4B d   1      -5.969   5.995  -5.500  0.00  0.00     0.013 C 
ATOM     10  C3' I4B d   1      -4.816   3.845  -5.056  0.00  0.00     0.013 C 
ENDBRANCH   7   8
ENDBRANCH   1   7
TORSDOF 2
ENDMDL
