MODEL 1
REMARK minimizedAffinity 9.58897305
REMARK minimizedRMSD -1
REMARK  2 active torsions:
REMARK  status: ('A' for Active; 'I' for Inactive)
REMARK    1  A    between atoms: C2'_3  and  C1'_4 
REMARK    2  A    between atoms: C1'_4  and  C1_5 
ROOT
ATOM      1  C1  I4B d   1      -1.146  -2.474  -0.575  0.00  0.00    -0.075 A 
ATOM      2  C2  I4B d   1      -2.191  -1.844   0.054  0.00  0.00     0.003 A 
ATOM      3  C3  I4B d   1      -3.010  -0.936  -0.659  0.00  0.00     0.002 A 
ATOM      4  C4  I4B d   1      -2.720  -0.650  -1.978  0.00  0.00    -0.004 A 
ATOM      5  C5  I4B d   1      -1.674  -1.307  -2.621  0.00  0.00     0.002 A 
ATOM      6  C6  I4B d   1      -0.889  -2.233  -1.919  0.00  0.00     0.003 A 
ENDROOT
BRANCH   1   7
ATOM      7  C1' I4B d   1      -0.281  -3.402   0.217  0.00  0.00     0.060 C 
BRANCH   7   8
ATOM      8  C2' I4B d   1      -0.782  -4.814  -0.008  0.00  0.00    -0.013 C 
ATOM      9  C4' I4B d   1      -0.535  -5.260  -1.426  0.00  0.00     0.013 C 
ATOM     10  C3' I4B d   1      -0.088  -5.713   0.971  0.00  0.00     0.013 C 
ENDBRANCH   7   8
ENDBRANCH   1   7
TORSDOF 2
ENDMDL
