MODEL 1
REMARK minimizedAffinity 15.637702
REMARK minimizedRMSD -1
REMARK  2 active torsions:
REMARK  status: ('A' for Active; 'I' for Inactive)
REMARK    1  A    between atoms: C2'_3  and  C1'_4 
REMARK    2  A    between atoms: C1'_4  and  C1_5 
ROOT
ATOM      1  C1  I4B d   1      -0.616   2.609  -4.500  0.00  0.00    -0.075 A 
ATOM      2  C2  I4B d   1      -0.901   3.370  -5.607  0.00  0.00     0.003 A 
ATOM      3  C3  I4B d   1      -2.244   3.583  -5.999  0.00  0.00     0.002 A 
ATOM      4  C4  I4B d   1      -3.263   2.979  -5.291  0.00  0.00    -0.004 A 
ATOM      5  C5  I4B d   1      -2.974   2.226  -4.157  0.00  0.00     0.002 A 
ATOM      6  C6  I4B d   1      -1.643   2.050  -3.751  0.00  0.00     0.003 A 
ENDROOT
BRANCH   1   7
ATOM      7  C1' I4B d   1       0.815   2.377  -4.134  0.00  0.00     0.060 C 
BRANCH   7   8
ATOM      8  C2' I4B d   1       0.851   1.358  -3.013  0.00  0.00    -0.013 C 
ATOM      9  C4' I4B d   1       0.685  -0.041  -3.543  0.00  0.00     0.013 C 
ATOM     10  C3' I4B d   1       2.155   1.512  -2.288  0.00  0.00     0.013 C 
ENDBRANCH   7   8
ENDBRANCH   1   7
TORSDOF 2
ENDMDL
