MODEL 1
REMARK minimizedAffinity 17.8902912
REMARK minimizedRMSD -1
REMARK  2 active torsions:
REMARK  status: ('A' for Active; 'I' for Inactive)
REMARK    1  A    between atoms: C2'_3  and  C1'_4 
REMARK    2  A    between atoms: C1'_4  and  C1_5 
ROOT
ATOM      1  C1  I4B d   1       2.983   2.274  -0.350  0.00  0.00    -0.075 A 
ATOM      2  C2  I4B d   1       2.362   2.680  -1.505  0.00  0.00     0.003 A 
ATOM      3  C3  I4B d   1       1.654   1.745  -2.300  0.00  0.00     0.002 A 
ATOM      4  C4  I4B d   1       1.636   0.416  -1.931  0.00  0.00    -0.004 A 
ATOM      5  C5  I4B d   1       2.247   0.010  -0.748  0.00  0.00     0.002 A 
ATOM      6  C6  I4B d   1       2.915   0.947   0.054  0.00  0.00     0.003 A 
ENDROOT
BRANCH   1   7
ATOM      7  C1' I4B d   1       3.749   3.281   0.447  0.00  0.00     0.060 C 
BRANCH   7   8
ATOM      8  C2' I4B d   1       4.283   4.327  -0.510  0.00  0.00    -0.013 C 
ATOM      9  C4' I4B d   1       4.562   5.625   0.201  0.00  0.00     0.013 C 
ATOM     10  C3' I4B d   1       5.526   3.781  -1.147  0.00  0.00     0.013 C 
ENDBRANCH   7   8
ENDBRANCH   1   7
TORSDOF 2
ENDMDL
