MODEL 1
REMARK minimizedAffinity 15.1115513
REMARK minimizedRMSD -1
REMARK  2 active torsions:
REMARK  status: ('A' for Active; 'I' for Inactive)
REMARK    1  A    between atoms: C2'_3  and  C1'_4 
REMARK    2  A    between atoms: C1'_4  and  C1_5 
ROOT
ATOM      1  C1  I4B d   1      -2.902  -1.373   5.303  0.00  0.00    -0.075 A 
ATOM      2  C2  I4B d   1      -2.251  -0.209   5.628  0.00  0.00     0.003 A 
ATOM      3  C3  I4B d   1      -2.990   0.941   5.998  0.00  0.00     0.002 A 
ATOM      4  C4  I4B d   1      -4.369   0.898   5.982  0.00  0.00    -0.004 A 
ATOM      5  C5  I4B d   1      -5.027  -0.290   5.674  0.00  0.00     0.002 A 
ATOM      6  C6  I4B d   1      -4.289  -1.436   5.345  0.00  0.00     0.003 A 
ENDROOT
BRANCH   1   7
ATOM      7  C1' I4B d   1      -2.092  -2.559   4.885  0.00  0.00     0.060 C 
BRANCH   7   8
ATOM      8  C2' I4B d   1      -2.976  -3.452   4.038  0.00  0.00    -0.013 C 
ATOM      9  C4' I4B d   1      -2.753  -3.204   2.569  0.00  0.00     0.013 C 
ATOM     10  C3' I4B d   1      -2.675  -4.876   4.398  0.00  0.00     0.013 C 
ENDBRANCH   7   8
ENDBRANCH   1   7
TORSDOF 2
ENDMDL
