MODEL 1
REMARK minimizedAffinity 11.498847
REMARK minimizedRMSD -1
REMARK  2 active torsions:
REMARK  status: ('A' for Active; 'I' for Inactive)
REMARK    1  A    between atoms: C2'_3  and  C1'_4 
REMARK    2  A    between atoms: C1'_4  and  C1_5 
ROOT
ATOM      1  C1  I4B d   1      -3.493  -0.317   5.956  0.00  0.00    -0.075 A 
ATOM      2  C2  I4B d   1      -4.859  -0.440   5.992  0.00  0.00     0.003 A 
ATOM      3  C3  I4B d   1      -5.679   0.714   5.985  0.00  0.00     0.002 A 
ATOM      4  C4  I4B d   1      -5.094   1.964   5.992  0.00  0.00    -0.004 A 
ATOM      5  C5  I4B d   1      -3.708   2.086   5.932  0.00  0.00     0.002 A 
ATOM      6  C6  I4B d   1      -2.903   0.939   5.901  0.00  0.00     0.003 A 
ENDROOT
BRANCH   1   7
ATOM      7  C1' I4B d   1      -2.656  -1.557   5.997  0.00  0.00     0.060 C 
BRANCH   7   8
ATOM      8  C2' I4B d   1      -1.889  -1.646   4.694  0.00  0.00    -0.013 C 
ATOM      9  C4' I4B d   1      -0.403  -1.685   4.937  0.00  0.00     0.013 C 
ATOM     10  C3' I4B d   1      -2.351  -2.874   3.968  0.00  0.00     0.013 C 
ENDBRANCH   7   8
ENDBRANCH   1   7
TORSDOF 2
ENDMDL
