MODEL 1
REMARK minimizedAffinity 7.38310766
REMARK minimizedRMSD -1
REMARK  0 active torsions:
REMARK  status: ('A' for Active; 'I' for Inactive)
ROOT
ATOM      1  C   UNL d   1      -1.844  -3.144   0.836  0.00  0.00     0.124 A 
ATOM      2  C1  UNL d   1      -0.749  -3.771   0.257  0.00  0.00     0.062 A 
ATOM      3  C2  UNL d   1       0.539  -3.476   0.696  0.00  0.00     0.162 A 
ATOM      4  C3  UNL d   1       0.739  -2.551   1.720  0.00  0.00    -0.034 A 
ATOM      5  C4  UNL d   1      -0.367  -1.924   2.297  0.00  0.00     0.162 A 
ATOM      6  C5  UNL d   1      -1.652  -2.222   1.855  0.00  0.00     0.062 A 
ATOM      7  F   UNL d   1      -2.709  -1.615   2.415  0.00  0.00    -0.097 F 
ATOM      8  F1  UNL d   1      -0.211  -1.029   3.283  0.00  0.00    -0.096 F 
ATOM      9  I   UNL d   1       2.663  -2.107   2.378  0.00  0.00    -0.060 I 
ATOM     10  F2  UNL d   1       1.578  -4.097   0.118  0.00  0.00    -0.096 F 
ATOM     11  F3  UNL d   1      -0.932  -4.662  -0.728  0.00  0.00    -0.097 F 
ATOM     12  F4  UNL d   1      -3.082  -3.429   0.412  0.00  0.00    -0.092 F 
ENDROOT
TORSDOF 0
ENDMDL
