MODEL 1
REMARK minimizedAffinity -0.245746061
REMARK minimizedRMSD -1
REMARK  0 active torsions:
REMARK  status: ('A' for Active; 'I' for Inactive)
ROOT
ATOM      1  C   UNL d   1       0.294  -3.095  -2.132  0.00  0.00     0.124 A 
ATOM      2  C1  UNL d   1       0.046  -3.972  -1.085  0.00  0.00     0.062 A 
ATOM      3  C2  UNL d   1      -0.087  -3.493   0.214  0.00  0.00     0.162 A 
ATOM      4  C3  UNL d   1       0.027  -2.127   0.476  0.00  0.00    -0.034 A 
ATOM      5  C4  UNL d   1       0.278  -1.251  -0.582  0.00  0.00     0.162 A 
ATOM      6  C5  UNL d   1       0.410  -1.735  -1.879  0.00  0.00     0.062 A 
ATOM      7  F   UNL d   1       0.650  -0.886  -2.888  0.00  0.00    -0.097 F 
ATOM      8  F1  UNL d   1       0.394   0.068  -0.366  0.00  0.00    -0.096 F 
ATOM      9  I   UNL d   1      -0.171  -1.406   2.418  0.00  0.00    -0.060 I 
ATOM     10  F2  UNL d   1      -0.327  -4.364   1.206  0.00  0.00    -0.096 F 
ATOM     11  F3  UNL d   1      -0.066  -5.287  -1.327  0.00  0.00    -0.097 F 
ATOM     12  F4  UNL d   1       0.423  -3.559  -3.381  0.00  0.00    -0.092 F 
ENDROOT
TORSDOF 0
ENDMDL
