MODEL 1
REMARK minimizedAffinity 6.61857748
REMARK minimizedRMSD -1
REMARK  0 active torsions:
REMARK  status: ('A' for Active; 'I' for Inactive)
ROOT
ATOM      1  C   UNL d   1       0.391  -0.813  -2.370  0.00  0.00     0.124 A 
ATOM      2  C1  UNL d   1       0.700  -2.092  -1.929  0.00  0.00     0.062 A 
ATOM      3  C2  UNL d   1       0.236  -2.538  -0.695  0.00  0.00     0.162 A 
ATOM      4  C3  UNL d   1      -0.545  -1.705   0.107  0.00  0.00    -0.034 A 
ATOM      5  C4  UNL d   1      -0.851  -0.420  -0.344  0.00  0.00     0.162 A 
ATOM      6  C5  UNL d   1      -0.384   0.022  -1.577  0.00  0.00     0.062 A 
ATOM      7  F   UNL d   1      -0.685   1.258  -2.002  0.00  0.00    -0.097 F 
ATOM      8  F1  UNL d   1      -1.599   0.407   0.402  0.00  0.00    -0.096 F 
ATOM      9  I   UNL d   1      -1.241  -2.369   1.952  0.00  0.00    -0.060 I 
ATOM     10  F2  UNL d   1       0.550  -3.779  -0.294  0.00  0.00    -0.096 F 
ATOM     11  F3  UNL d   1       1.450  -2.900  -2.693  0.00  0.00    -0.097 F 
ATOM     12  F4  UNL d   1       0.840  -0.385  -3.557  0.00  0.00    -0.092 F 
ENDROOT
TORSDOF 0
ENDMDL
