MODEL 1
REMARK minimizedAffinity 17.2936954
REMARK minimizedRMSD -1
REMARK  0 active torsions:
REMARK  status: ('A' for Active; 'I' for Inactive)
ROOT
ATOM      1  C   UNL d   1       0.732  -0.107  -2.234  0.00  0.00     0.124 A 
ATOM      2  C1  UNL d   1      -0.269   0.354  -1.390  0.00  0.00     0.062 A 
ATOM      3  C2  UNL d   1      -0.795  -0.478  -0.406  0.00  0.00     0.162 A 
ATOM      4  C3  UNL d   1      -0.319  -1.782  -0.260  0.00  0.00    -0.034 A 
ATOM      5  C4  UNL d   1       0.687  -2.239  -1.112  0.00  0.00     0.162 A 
ATOM      6  C5  UNL d   1       1.209  -1.403  -2.094  0.00  0.00     0.062 A 
ATOM      7  F   UNL d   1       2.176  -1.850  -2.908  0.00  0.00    -0.097 F 
ATOM      8  F1  UNL d   1       1.168  -3.486  -0.999  0.00  0.00    -0.096 F 
ATOM      9  I   UNL d   1      -1.102  -3.030   1.210  0.00  0.00    -0.060 I 
ATOM     10  F2  UNL d   1      -1.761  -0.006   0.395  0.00  0.00    -0.096 F 
ATOM     11  F3  UNL d   1      -0.733   1.605  -1.523  0.00  0.00    -0.097 F 
ATOM     12  F4  UNL d   1       1.235   0.696  -3.180  0.00  0.00    -0.092 F 
ENDROOT
TORSDOF 0
ENDMDL
