MODEL 1
REMARK minimizedAffinity 13.2407169
REMARK minimizedRMSD -1
REMARK  0 active torsions:
REMARK  status: ('A' for Active; 'I' for Inactive)
ROOT
ATOM      1  C   UNL d   1      -1.141  -2.632   1.021  0.00  0.00     0.124 A 
ATOM      2  C1  UNL d   1      -0.082  -3.173   0.307  0.00  0.00     0.062 A 
ATOM      3  C2  UNL d   1       0.540  -2.431  -0.693  0.00  0.00     0.162 A 
ATOM      4  C3  UNL d   1       0.104  -1.138  -0.984  0.00  0.00    -0.034 A 
ATOM      5  C4  UNL d   1      -0.963  -0.601  -0.261  0.00  0.00     0.162 A 
ATOM      6  C5  UNL d   1      -1.581  -1.347   0.737  0.00  0.00     0.062 A 
ATOM      7  F   UNL d   1      -2.604  -0.823   1.427  0.00  0.00    -0.097 F 
ATOM      8  F1  UNL d   1      -1.407   0.639  -0.514  0.00  0.00    -0.096 F 
ATOM      9  I   UNL d   1       1.031  -0.024  -2.478  0.00  0.00    -0.060 I 
ATOM     10  F2  UNL d   1       1.562  -2.979  -1.368  0.00  0.00    -0.096 F 
ATOM     11  F3  UNL d   1       0.344  -4.415   0.579  0.00  0.00    -0.097 F 
ATOM     12  F4  UNL d   1      -1.738  -3.349   1.982  0.00  0.00    -0.092 F 
ENDROOT
TORSDOF 0
ENDMDL
