MODEL 1
REMARK minimizedAffinity 18.7101231
REMARK minimizedRMSD -1
REMARK  0 active torsions:
REMARK  status: ('A' for Active; 'I' for Inactive)
ROOT
ATOM      1  C   UNL d   1       0.077  -4.150   0.367  0.00  0.00     0.124 A 
ATOM      2  C1  UNL d   1       0.973  -3.996  -0.682  0.00  0.00     0.062 A 
ATOM      3  C2  UNL d   1       1.093  -2.768  -1.326  0.00  0.00     0.162 A 
ATOM      4  C3  UNL d   1       0.316  -1.683  -0.922  0.00  0.00    -0.034 A 
ATOM      5  C4  UNL d   1      -0.583  -1.845   0.133  0.00  0.00     0.162 A 
ATOM      6  C5  UNL d   1      -0.700  -3.074   0.774  0.00  0.00     0.062 A 
ATOM      7  F   UNL d   1      -1.566  -3.220   1.787  0.00  0.00    -0.097 F 
ATOM      8  F1  UNL d   1      -1.345  -0.822   0.547  0.00  0.00    -0.096 F 
ATOM      9  I   UNL d   1       0.494   0.155  -1.882  0.00  0.00    -0.060 I 
ATOM     10  F2  UNL d   1       1.967  -2.649  -2.337  0.00  0.00    -0.096 F 
ATOM     11  F3  UNL d   1       1.724  -5.034  -1.078  0.00  0.00    -0.097 F 
ATOM     12  F4  UNL d   1      -0.037  -5.333   0.984  0.00  0.00    -0.092 F 
ENDROOT
TORSDOF 0
ENDMDL
