MODEL 1
REMARK minimizedAffinity 19.0001163
REMARK minimizedRMSD -1
REMARK  0 active torsions:
REMARK  status: ('A' for Active; 'I' for Inactive)
ROOT
ATOM      1  C   UNL d   1       2.221   0.782  -1.966  0.00  0.00     0.124 A 
ATOM      2  C1  UNL d   1       2.474   0.381  -0.661  0.00  0.00     0.062 A 
ATOM      3  C2  UNL d   1       1.928  -0.803  -0.174  0.00  0.00     0.162 A 
ATOM      4  C3  UNL d   1       1.123  -1.596  -0.993  0.00  0.00    -0.034 A 
ATOM      5  C4  UNL d   1       0.873  -1.186  -2.304  0.00  0.00     0.162 A 
ATOM      6  C5  UNL d   1       1.421  -0.002  -2.786  0.00  0.00     0.062 A 
ATOM      7  F   UNL d   1       1.176   0.384  -4.046  0.00  0.00    -0.097 F 
ATOM      8  F1  UNL d   1       0.104  -1.925  -3.118  0.00  0.00    -0.096 F 
ATOM      9  I   UNL d   1       0.305  -3.367  -0.268  0.00  0.00    -0.060 I 
ATOM     10  F2  UNL d   1       2.189  -1.165   1.091  0.00  0.00    -0.096 F 
ATOM     11  F3  UNL d   1       3.245   1.137   0.133  0.00  0.00    -0.097 F 
ATOM     12  F4  UNL d   1       2.747   1.922  -2.432  0.00  0.00    -0.092 F 
ENDROOT
TORSDOF 0
ENDMDL
