MODEL 1
REMARK minimizedAffinity 17.3187943
REMARK minimizedRMSD -1
REMARK  0 active torsions:
REMARK  status: ('A' for Active; 'I' for Inactive)
ROOT
ATOM      1  C   UNL d   1      -0.284  -1.847  -0.355  0.00  0.00     0.124 A 
ATOM      2  C1  UNL d   1       0.039  -3.193  -0.253  0.00  0.00     0.062 A 
ATOM      3  C2  UNL d   1       0.805  -3.806  -1.240  0.00  0.00     0.162 A 
ATOM      4  C3  UNL d   1       1.255  -3.074  -2.338  0.00  0.00    -0.034 A 
ATOM      5  C4  UNL d   1       0.926  -1.720  -2.434  0.00  0.00     0.162 A 
ATOM      6  C5  UNL d   1       0.160  -1.112  -1.445  0.00  0.00     0.062 A 
ATOM      7  F   UNL d   1      -0.150   0.189  -1.546  0.00  0.00    -0.097 F 
ATOM      8  F1  UNL d   1       1.343  -0.986  -3.477  0.00  0.00    -0.096 F 
ATOM      9  I   UNL d   1       2.401  -3.987  -3.816  0.00  0.00    -0.060 I 
ATOM     10  F2  UNL d   1       1.102  -5.109  -1.115  0.00  0.00    -0.096 F 
ATOM     11  F3  UNL d   1      -0.389  -3.906   0.799  0.00  0.00    -0.097 F 
ATOM     12  F4  UNL d   1      -1.022  -1.260   0.596  0.00  0.00    -0.092 F 
ENDROOT
TORSDOF 0
ENDMDL
