MODEL 1
REMARK minimizedAffinity 7.4133873
REMARK minimizedRMSD -1
REMARK  0 active torsions:
REMARK  status: ('A' for Active; 'I' for Inactive)
ROOT
ATOM      1  C   UNL d   1       0.931  -3.450  -1.544  0.00  0.00     0.124 A 
ATOM      2  C1  UNL d   1       0.403  -3.934  -0.355  0.00  0.00     0.062 A 
ATOM      3  C2  UNL d   1      -0.282  -3.080   0.505  0.00  0.00     0.162 A 
ATOM      4  C3  UNL d   1      -0.445  -1.734   0.178  0.00  0.00    -0.034 A 
ATOM      5  C4  UNL d   1       0.090  -1.255  -1.020  0.00  0.00     0.162 A 
ATOM      6  C5  UNL d   1       0.774  -2.112  -1.875  0.00  0.00     0.062 A 
ATOM      7  F   UNL d   1       1.283  -1.643  -3.024  0.00  0.00    -0.097 F 
ATOM      8  F1  UNL d   1      -0.048   0.034  -1.365  0.00  0.00    -0.096 F 
ATOM      9  I   UNL d   1      -1.469  -0.455   1.461  0.00  0.00    -0.060 I 
ATOM     10  F2  UNL d   1      -0.782  -3.575   1.647  0.00  0.00    -0.096 F 
ATOM     11  F3  UNL d   1       0.555  -5.226  -0.033  0.00  0.00    -0.097 F 
ATOM     12  F4  UNL d   1       1.591  -4.273  -2.369  0.00  0.00    -0.092 F 
ENDROOT
TORSDOF 0
ENDMDL
