MODEL 1
REMARK minimizedAffinity 20.2996922
REMARK minimizedRMSD -1
REMARK  0 active torsions:
REMARK  status: ('A' for Active; 'I' for Inactive)
ROOT
ATOM      1  C   UNL d   1       0.188  -3.074  -0.828  0.00  0.00     0.124 A 
ATOM      2  C1  UNL d   1       0.749  -2.252  -1.796  0.00  0.00     0.062 A 
ATOM      3  C2  UNL d   1       0.375  -0.914  -1.879  0.00  0.00     0.162 A 
ATOM      4  C3  UNL d   1      -0.564  -0.388  -0.991  0.00  0.00    -0.034 A 
ATOM      5  C4  UNL d   1      -1.124  -1.221  -0.021  0.00  0.00     0.162 A 
ATOM      6  C5  UNL d   1      -0.747  -2.558   0.058  0.00  0.00     0.062 A 
ATOM      7  F   UNL d   1      -1.289  -3.351   0.994  0.00  0.00    -0.097 F 
ATOM      8  F1  UNL d   1      -2.029  -0.749   0.848  0.00  0.00    -0.096 F 
ATOM      9  I   UNL d   1      -1.125   1.612  -1.113  0.00  0.00    -0.060 I 
ATOM     10  F2  UNL d   1       0.933  -0.142  -2.825  0.00  0.00    -0.096 F 
ATOM     11  F3  UNL d   1       1.652  -2.748  -2.654  0.00  0.00    -0.097 F 
ATOM     12  F4  UNL d   1       0.549  -4.361  -0.750  0.00  0.00    -0.092 F 
ENDROOT
TORSDOF 0
ENDMDL
