MODEL 1
REMARK minimizedAffinity 11.377367
REMARK minimizedRMSD -1
REMARK  0 active torsions:
REMARK  status: ('A' for Active; 'I' for Inactive)
ROOT
ATOM      1  C   UNL d   1       2.207   0.655  -1.014  0.00  0.00     0.124 A 
ATOM      2  C1  UNL d   1       2.883   0.017   0.018  0.00  0.00     0.062 A 
ATOM      3  C2  UNL d   1       2.486  -1.248   0.438  0.00  0.00     0.162 A 
ATOM      4  C3  UNL d   1       1.407  -1.886  -0.173  0.00  0.00    -0.034 A 
ATOM      5  C4  UNL d   1       0.731  -1.239  -1.209  0.00  0.00     0.162 A 
ATOM      6  C5  UNL d   1       1.132   0.026  -1.626  0.00  0.00     0.062 A 
ATOM      7  F   UNL d   1       0.478   0.640  -2.623  0.00  0.00    -0.097 F 
ATOM      8  F1  UNL d   1      -0.311  -1.824  -1.819  0.00  0.00    -0.096 F 
ATOM      9  I   UNL d   1       0.809  -3.779   0.453  0.00  0.00    -0.060 I 
ATOM     10  F2  UNL d   1       3.157  -1.840   1.437  0.00  0.00    -0.096 F 
ATOM     11  F3  UNL d   1       3.922   0.623   0.611  0.00  0.00    -0.097 F 
ATOM     12  F4  UNL d   1       2.591   1.873  -1.416  0.00  0.00    -0.092 F 
ENDROOT
TORSDOF 0
ENDMDL
