MODEL 1
REMARK minimizedAffinity 5.58575201
REMARK minimizedRMSD -1
REMARK  0 active torsions:
REMARK  status: ('A' for Active; 'I' for Inactive)
ROOT
ATOM      1  C   UNL d   1      -0.510  -1.516  -1.067  0.00  0.00     0.124 A 
ATOM      2  C1  UNL d   1      -0.828  -0.266  -0.554  0.00  0.00     0.062 A 
ATOM      3  C2  UNL d   1      -1.121  -0.119   0.799  0.00  0.00     0.162 A 
ATOM      4  C3  UNL d   1      -1.097  -1.226   1.648  0.00  0.00    -0.034 A 
ATOM      5  C4  UNL d   1      -0.777  -2.479   1.124  0.00  0.00     0.162 A 
ATOM      6  C5  UNL d   1      -0.485  -2.621  -0.228  0.00  0.00     0.062 A 
ATOM      7  F   UNL d   1      -0.178  -3.829  -0.723  0.00  0.00    -0.097 F 
ATOM      8  F1  UNL d   1      -0.744  -3.564   1.913  0.00  0.00    -0.096 F 
ATOM      9  I   UNL d   1      -1.535  -1.010   3.672  0.00  0.00    -0.060 I 
ATOM     10  F2  UNL d   1      -1.425   1.100   1.268  0.00  0.00    -0.096 F 
ATOM     11  F3  UNL d   1      -0.854   0.803  -1.362  0.00  0.00    -0.097 F 
ATOM     12  F4  UNL d   1      -0.229  -1.654  -2.370  0.00  0.00    -0.092 F 
ENDROOT
TORSDOF 0
ENDMDL
