MODEL 1
REMARK minimizedAffinity 1.37744451
REMARK minimizedRMSD -1
REMARK  0 active torsions:
REMARK  status: ('A' for Active; 'I' for Inactive)
ROOT
ATOM      1  C   UNL d   1      -0.254  -1.779  -0.794  0.00  0.00     0.124 A 
ATOM      2  C1  UNL d   1      -0.817  -1.412   0.420  0.00  0.00     0.062 A 
ATOM      3  C2  UNL d   1      -0.596  -0.139   0.938  0.00  0.00     0.162 A 
ATOM      4  C3  UNL d   1       0.190   0.778   0.240  0.00  0.00    -0.034 A 
ATOM      5  C4  UNL d   1       0.753   0.402  -0.980  0.00  0.00     0.162 A 
ATOM      6  C5  UNL d   1       0.530  -0.872  -1.493  0.00  0.00     0.062 A 
ATOM      7  F   UNL d   1       1.075  -1.225  -2.667  0.00  0.00    -0.097 F 
ATOM      8  F1  UNL d   1       1.515   1.258  -1.677  0.00  0.00    -0.096 F 
ATOM      9  I   UNL d   1       0.522   2.683   1.011  0.00  0.00    -0.060 I 
ATOM     10  F2  UNL d   1      -1.153   0.189   2.114  0.00  0.00    -0.096 F 
ATOM     11  F3  UNL d   1      -1.574  -2.286   1.098  0.00  0.00    -0.097 F 
ATOM     12  F4  UNL d   1      -0.467  -3.005  -1.289  0.00  0.00    -0.092 F 
ENDROOT
TORSDOF 0
ENDMDL
