MODEL 1
REMARK minimizedAffinity -4.55976534
REMARK minimizedRMSD -1
REMARK  0 active torsions:
REMARK  status: ('A' for Active; 'I' for Inactive)
ROOT
ATOM      1  C   UNL d   1      -0.422   1.013  -0.153  0.00  0.00     0.124 A 
ATOM      2  C1  UNL d   1      -1.030   0.156   0.755  0.00  0.00     0.062 A 
ATOM      3  C2  UNL d   1      -0.787  -1.213   0.695  0.00  0.00     0.162 A 
ATOM      4  C3  UNL d   1       0.069  -1.735  -0.275  0.00  0.00    -0.034 A 
ATOM      5  C4  UNL d   1       0.676  -0.867  -1.185  0.00  0.00     0.162 A 
ATOM      6  C5  UNL d   1       0.430   0.501  -1.121  0.00  0.00     0.062 A 
ATOM      7  F   UNL d   1       1.018   1.327  -1.999  0.00  0.00    -0.097 F 
ATOM      8  F1  UNL d   1       1.504  -1.334  -2.130  0.00  0.00    -0.096 F 
ATOM      9  I   UNL d   1       0.435  -3.781  -0.367  0.00  0.00    -0.060 I 
ATOM     10  F2  UNL d   1      -1.388  -2.018   1.584  0.00  0.00    -0.096 F 
ATOM     11  F3  UNL d   1      -1.854   0.648   1.691  0.00  0.00    -0.097 F 
ATOM     12  F4  UNL d   1      -0.659   2.330  -0.094  0.00  0.00    -0.092 F 
ENDROOT
TORSDOF 0
ENDMDL
