MODEL 1
REMARK minimizedAffinity 9.57507706
REMARK minimizedRMSD -1
REMARK  0 active torsions:
REMARK  status: ('A' for Active; 'I' for Inactive)
ROOT
ATOM      1  C   UNL d   1      -1.129  -2.138  -0.497  0.00  0.00     0.124 A 
ATOM      2  C1  UNL d   1      -1.563  -1.792   0.776  0.00  0.00     0.062 A 
ATOM      3  C2  UNL d   1      -1.163  -0.588   1.349  0.00  0.00     0.162 A 
ATOM      4  C3  UNL d   1      -0.324   0.280   0.650  0.00  0.00    -0.034 A 
ATOM      5  C4  UNL d   1       0.109  -0.075  -0.629  0.00  0.00     0.162 A 
ATOM      6  C5  UNL d   1      -0.294  -1.279  -1.197  0.00  0.00     0.062 A 
ATOM      7  F   UNL d   1       0.127  -1.612  -2.427  0.00  0.00    -0.097 F 
ATOM      8  F1  UNL d   1       0.916   0.736  -1.329  0.00  0.00    -0.096 F 
ATOM      9  I   UNL d   1       0.276   2.080   1.503  0.00  0.00    -0.060 I 
ATOM     10  F2  UNL d   1      -1.598  -0.280   2.580  0.00  0.00    -0.096 F 
ATOM     11  F3  UNL d   1      -2.370  -2.620   1.455  0.00  0.00    -0.097 F 
ATOM     12  F4  UNL d   1      -1.515  -3.297  -1.045  0.00  0.00    -0.092 F 
ENDROOT
TORSDOF 0
ENDMDL
