MODEL 1
REMARK minimizedAffinity 19.4773941
REMARK minimizedRMSD -1
REMARK  0 active torsions:
REMARK  status: ('A' for Active; 'I' for Inactive)
ROOT
ATOM      1  C   UNL d   1      -0.412   0.366   1.607  0.00  0.00     0.124 A 
ATOM      2  C1  UNL d   1      -1.687   0.747   1.213  0.00  0.00     0.062 A 
ATOM      3  C2  UNL d   1      -2.642  -0.218   0.905  0.00  0.00     0.162 A 
ATOM      4  C3  UNL d   1      -2.325  -1.574   0.990  0.00  0.00    -0.034 A 
ATOM      5  C4  UNL d   1      -1.040  -1.949   1.387  0.00  0.00     0.162 A 
ATOM      6  C5  UNL d   1      -0.090  -0.981   1.694  0.00  0.00     0.062 A 
ATOM      7  F   UNL d   1       1.142  -1.350   2.074  0.00  0.00    -0.097 F 
ATOM      8  F1  UNL d   1      -0.702  -3.243   1.480  0.00  0.00    -0.096 F 
ATOM      9  I   UNL d   1      -3.750  -3.020   0.530  0.00  0.00    -0.060 I 
ATOM     10  F2  UNL d   1      -3.866   0.178   0.526  0.00  0.00    -0.096 F 
ATOM     11  F3  UNL d   1      -2.001   2.048   1.127  0.00  0.00    -0.097 F 
ATOM     12  F4  UNL d   1       0.505   1.297   1.902  0.00  0.00    -0.092 F 
ENDROOT
TORSDOF 0
ENDMDL
