MODEL 1
REMARK minimizedAffinity 2.71386528
REMARK minimizedRMSD -1
REMARK  0 active torsions:
REMARK  status: ('A' for Active; 'I' for Inactive)
ROOT
ATOM      1  C   UNL d   1      -1.031  -2.591  -0.689  0.00  0.00     0.124 A 
ATOM      2  C1  UNL d   1      -0.580  -1.863  -1.781  0.00  0.00     0.062 A 
ATOM      3  C2  UNL d   1       0.039  -0.631  -1.594  0.00  0.00     0.162 A 
ATOM      4  C3  UNL d   1       0.212  -0.119  -0.308  0.00  0.00    -0.034 A 
ATOM      5  C4  UNL d   1      -0.245  -0.857   0.786  0.00  0.00     0.162 A 
ATOM      6  C5  UNL d   1      -0.863  -2.088   0.593  0.00  0.00     0.062 A 
ATOM      7  F   UNL d   1      -1.298  -2.790   1.650  0.00  0.00    -0.097 F 
ATOM      8  F1  UNL d   1      -0.094  -0.394   2.036  0.00  0.00    -0.096 F 
ATOM      9  I   UNL d   1       1.138   1.723  -0.023  0.00  0.00    -0.060 I 
ATOM     10  F2  UNL d   1       0.465   0.051  -2.667  0.00  0.00    -0.096 F 
ATOM     11  F3  UNL d   1      -0.742  -2.347  -3.021  0.00  0.00    -0.097 F 
ATOM     12  F4  UNL d   1      -1.628  -3.776  -0.872  0.00  0.00    -0.092 F 
ENDROOT
TORSDOF 0
ENDMDL
