MODEL 1
REMARK minimizedAffinity 0.151336342
REMARK minimizedRMSD -1
REMARK  0 active torsions:
REMARK  status: ('A' for Active; 'I' for Inactive)
ROOT
ATOM      1  C   UNL d   1       0.687  -1.432  -0.619  0.00  0.00     0.124 A 
ATOM      2  C1  UNL d   1       0.531  -0.058  -0.509  0.00  0.00     0.062 A 
ATOM      3  C2  UNL d   1      -0.530   0.471   0.221  0.00  0.00     0.162 A 
ATOM      4  C3  UNL d   1      -1.444  -0.376   0.847  0.00  0.00    -0.034 A 
ATOM      5  C4  UNL d   1      -1.282  -1.758   0.731  0.00  0.00     0.162 A 
ATOM      6  C5  UNL d   1      -0.220  -2.281   0.001  0.00  0.00     0.062 A 
ATOM      7  F   UNL d   1      -0.071  -3.610  -0.104  0.00  0.00    -0.097 F 
ATOM      8  F1  UNL d   1      -2.142  -2.601   1.321  0.00  0.00    -0.096 F 
ATOM      9  I   UNL d   1      -3.032   0.410   1.939  0.00  0.00    -0.060 I 
ATOM     10  F2  UNL d   1      -0.655   1.803   0.310  0.00  0.00    -0.096 F 
ATOM     11  F3  UNL d   1       1.405   0.764  -1.107  0.00  0.00    -0.097 F 
ATOM     12  F4  UNL d   1       1.708  -1.938  -1.322  0.00  0.00    -0.092 F 
ENDROOT
TORSDOF 0
ENDMDL
