MODEL 1
REMARK minimizedAffinity -2.73796844
REMARK minimizedRMSD -1
REMARK  0 active torsions:
REMARK  status: ('A' for Active; 'I' for Inactive)
ROOT
ATOM      1  C   UNL d   1       1.045  -2.251   2.267  0.00  0.00     0.077 C 
ATOM      2  C1  UNL d   1       2.196  -2.578   3.171  0.00  0.00    -0.074 A 
ATOM      3  C2  UNL d   1       1.979  -3.101   4.451  0.00  0.00    -0.005 A 
ATOM      4  C3  UNL d   1       3.060  -3.409   5.277  0.00  0.00     0.006 A 
ATOM      5  C4  UNL d   1       4.366  -3.198   4.833  0.00  0.00    -0.005 A 
ATOM      6  C5  UNL d   1       4.602  -2.677   3.557  0.00  0.00    -0.074 A 
ATOM      7  C6  UNL d   1       6.000  -2.453   3.061  0.00  0.00     0.077 C 
ATOM      8  C7  UNL d   1       3.511  -2.376   2.730  0.00  0.00    -0.001 A 
ENDROOT
TORSDOF 0
ENDMDL
