MODEL 1
REMARK minimizedAffinity 7.58772278
REMARK minimizedRMSD -1
REMARK  0 active torsions:
REMARK  status: ('A' for Active; 'I' for Inactive)
ROOT
ATOM      1  C   UNL d   1      -1.715   2.563   0.565  0.00  0.00     0.077 C 
ATOM      2  C1  UNL d   1      -3.100   3.044   0.883  0.00  0.00    -0.074 A 
ATOM      3  C2  UNL d   1      -3.796   2.548   1.991  0.00  0.00    -0.005 A 
ATOM      4  C3  UNL d   1      -5.079   3.011   2.280  0.00  0.00     0.006 A 
ATOM      5  C4  UNL d   1      -5.679   3.972   1.466  0.00  0.00    -0.005 A 
ATOM      6  C5  UNL d   1      -4.999   4.480   0.355  0.00  0.00    -0.074 A 
ATOM      7  C6  UNL d   1      -5.625   5.522  -0.524  0.00  0.00     0.077 C 
ATOM      8  C7  UNL d   1      -3.707   4.015   0.075  0.00  0.00    -0.001 A 
ENDROOT
TORSDOF 0
ENDMDL
