MODEL 1
REMARK minimizedAffinity 2.48898005
REMARK minimizedRMSD -1
REMARK  0 active torsions:
REMARK  status: ('A' for Active; 'I' for Inactive)
ROOT
ATOM      1  C   UNL d   1       1.468  -0.734   1.896  0.00  0.00     0.077 C 
ATOM      2  C1  UNL d   1       2.319  -1.362   2.960  0.00  0.00    -0.074 A 
ATOM      3  C2  UNL d   1       1.748  -1.865   4.133  0.00  0.00    -0.005 A 
ATOM      4  C3  UNL d   1       2.551  -2.456   5.109  0.00  0.00     0.006 A 
ATOM      5  C4  UNL d   1       3.930  -2.549   4.922  0.00  0.00    -0.005 A 
ATOM      6  C5  UNL d   1       4.519  -2.053   3.754  0.00  0.00    -0.074 A 
ATOM      7  C6  UNL d   1       5.999  -2.154   3.533  0.00  0.00     0.077 C 
ATOM      8  C7  UNL d   1       3.705  -1.467   2.775  0.00  0.00    -0.001 A 
ENDROOT
TORSDOF 0
ENDMDL
