MODEL 1
REMARK minimizedAffinity 11.0157375
REMARK minimizedRMSD -1
REMARK  0 active torsions:
REMARK  status: ('A' for Active; 'I' for Inactive)
ROOT
ATOM      1  C   UNL d   1       2.998   0.148   5.919  0.00  0.00     0.077 C 
ATOM      2  C1  UNL d   1       3.395   0.979   4.735  0.00  0.00    -0.074 A 
ATOM      3  C2  UNL d   1       4.569   1.739   4.750  0.00  0.00    -0.005 A 
ATOM      4  C3  UNL d   1       4.929   2.499   3.638  0.00  0.00     0.006 A 
ATOM      5  C4  UNL d   1       4.121   2.509   2.501  0.00  0.00    -0.005 A 
ATOM      6  C5  UNL d   1       2.943   1.755   2.467  0.00  0.00    -0.074 A 
ATOM      7  C6  UNL d   1       2.068   1.746   1.249  0.00  0.00     0.077 C 
ATOM      8  C7  UNL d   1       2.591   0.988   3.586  0.00  0.00    -0.001 A 
ENDROOT
TORSDOF 0
ENDMDL
