MODEL 1
REMARK minimizedAffinity 11.4218349
REMARK minimizedRMSD -1
REMARK  0 active torsions:
REMARK  status: ('A' for Active; 'I' for Inactive)
ROOT
ATOM      1  C   UNL d   1      -0.569   4.842   1.579  0.00  0.00     0.077 C 
ATOM      2  C1  UNL d   1       0.311   4.062   0.648  0.00  0.00    -0.074 A 
ATOM      3  C2  UNL d   1       0.244   2.666   0.596  0.00  0.00    -0.005 A 
ATOM      4  C3  UNL d   1       1.061   1.955  -0.282  0.00  0.00     0.006 A 
ATOM      5  C4  UNL d   1       1.952   2.631  -1.117  0.00  0.00    -0.005 A 
ATOM      6  C5  UNL d   1       2.032   4.027  -1.080  0.00  0.00    -0.074 A 
ATOM      7  C6  UNL d   1       2.977   4.770  -1.976  0.00  0.00     0.077 C 
ATOM      8  C7  UNL d   1       1.203   4.735  -0.199  0.00  0.00    -0.001 A 
ENDROOT
TORSDOF 0
ENDMDL
