MODEL 1
REMARK minimizedAffinity 11.8605795
REMARK minimizedRMSD -1
REMARK  0 active torsions:
REMARK  status: ('A' for Active; 'I' for Inactive)
ROOT
ATOM      1  C   UNL d   1       0.992  -1.219  -1.114  0.00  0.00     0.077 C 
ATOM      2  C1  UNL d   1       1.260  -0.059  -0.202  0.00  0.00    -0.074 A 
ATOM      3  C2  UNL d   1       2.405  -0.024   0.599  0.00  0.00    -0.005 A 
ATOM      4  C3  UNL d   1       2.646   1.066   1.435  0.00  0.00     0.006 A 
ATOM      5  C4  UNL d   1       1.744   2.130   1.479  0.00  0.00    -0.005 A 
ATOM      6  C5  UNL d   1       0.593   2.113   0.685  0.00  0.00    -0.074 A 
ATOM      7  C6  UNL d   1      -0.381   3.253   0.712  0.00  0.00     0.077 C 
ATOM      8  C7  UNL d   1       0.362   1.017  -0.158  0.00  0.00    -0.001 A 
ENDROOT
TORSDOF 0
ENDMDL
