MODEL 1
REMARK minimizedAffinity 10.6064577
REMARK minimizedRMSD -1
REMARK  0 active torsions:
REMARK  status: ('A' for Active; 'I' for Inactive)
ROOT
ATOM      1  C   UNL d   1       2.022  -5.091   3.736  0.00  0.00     0.077 C 
ATOM      2  C1  UNL d   1       1.927  -3.607   3.931  0.00  0.00    -0.074 A 
ATOM      3  C2  UNL d   1       1.298  -3.069   5.058  0.00  0.00    -0.005 A 
ATOM      4  C3  UNL d   1       1.225  -1.687   5.230  0.00  0.00     0.006 A 
ATOM      5  C4  UNL d   1       1.781  -0.830   4.279  0.00  0.00    -0.005 A 
ATOM      6  C5  UNL d   1       2.415  -1.350   3.146  0.00  0.00    -0.074 A 
ATOM      7  C6  UNL d   1       3.026  -0.443   2.119  0.00  0.00     0.077 C 
ATOM      8  C7  UNL d   1       2.490  -2.740   2.984  0.00  0.00    -0.001 A 
ENDROOT
TORSDOF 0
ENDMDL
