MODEL 1
REMARK minimizedAffinity 0.70047754
REMARK minimizedRMSD -1
REMARK  0 active torsions:
REMARK  status: ('A' for Active; 'I' for Inactive)
ROOT
ATOM      1  C   UNL d   1       2.627   0.122   2.339  0.00  0.00     0.077 C 
ATOM      2  C1  UNL d   1       2.979  -0.929   3.350  0.00  0.00    -0.074 A 
ATOM      3  C2  UNL d   1       2.049  -1.902   3.729  0.00  0.00    -0.005 A 
ATOM      4  C3  UNL d   1       2.394  -2.878   4.664  0.00  0.00     0.006 A 
ATOM      5  C4  UNL d   1       3.670  -2.891   5.228  0.00  0.00    -0.005 A 
ATOM      6  C5  UNL d   1       4.614  -1.927   4.860  0.00  0.00    -0.074 A 
ATOM      7  C6  UNL d   1       5.993  -1.932   5.449  0.00  0.00     0.077 C 
ATOM      8  C7  UNL d   1       4.262  -0.953   3.915  0.00  0.00    -0.001 A 
ENDROOT
TORSDOF 0
ENDMDL
