MODEL 1
REMARK minimizedAffinity 7.66881609
REMARK minimizedRMSD -1
REMARK  0 active torsions:
REMARK  status: ('A' for Active; 'I' for Inactive)
ROOT
ATOM      1  C   UNL d   1       2.242  -0.233   3.361  0.00  0.00     0.077 C 
ATOM      2  C1  UNL d   1       2.810  -1.438   4.049  0.00  0.00    -0.074 A 
ATOM      3  C2  UNL d   1       2.094  -2.638   4.104  0.00  0.00    -0.005 A 
ATOM      4  C3  UNL d   1       2.639  -3.754   4.739  0.00  0.00     0.006 A 
ATOM      5  C4  UNL d   1       3.904  -3.681   5.325  0.00  0.00    -0.005 A 
ATOM      6  C5  UNL d   1       4.635  -2.490   5.278  0.00  0.00    -0.074 A 
ATOM      7  C6  UNL d   1       6.000  -2.398   5.894  0.00  0.00     0.077 C 
ATOM      8  C7  UNL d   1       4.083  -1.375   4.632  0.00  0.00    -0.001 A 
ENDROOT
TORSDOF 0
ENDMDL
