MODEL 1
REMARK minimizedAffinity 3.44946408
REMARK minimizedRMSD -1
REMARK  0 active torsions:
REMARK  status: ('A' for Active; 'I' for Inactive)
ROOT
ATOM      1  C   UNL d   1       5.055  -2.281   4.463  0.00  0.00     0.077 C 
ATOM      2  C1  UNL d   1       3.814  -1.680   3.872  0.00  0.00    -0.074 A 
ATOM      3  C2  UNL d   1       2.637  -2.427   3.762  0.00  0.00    -0.005 A 
ATOM      4  C3  UNL d   1       1.488  -1.852   3.219  0.00  0.00     0.006 A 
ATOM      5  C4  UNL d   1       1.505  -0.527   2.781  0.00  0.00    -0.005 A 
ATOM      6  C5  UNL d   1       2.673   0.235   2.883  0.00  0.00    -0.074 A 
ATOM      7  C6  UNL d   1       2.705   1.663   2.425  0.00  0.00     0.077 C 
ATOM      8  C7  UNL d   1       3.821  -0.348   3.436  0.00  0.00    -0.001 A 
ENDROOT
TORSDOF 0
ENDMDL
