MODEL 1
REMARK minimizedAffinity 8.44244099
REMARK minimizedRMSD -1
REMARK  0 active torsions:
REMARK  status: ('A' for Active; 'I' for Inactive)
ROOT
ATOM      1  C   UNL d   1      -4.856   5.817   5.963  0.00  0.00     0.023 A 
ATOM      2  C1  UNL d   1      -5.934   5.010   5.598  0.00  0.00     0.003 A 
ATOM      3  C2  UNL d   1      -5.948   4.384   4.350  0.00  0.00     0.048 A 
ATOM      4  C3  UNL d   1      -4.881   4.569   3.472  0.00  0.00     0.023 A 
ATOM      5  C4  UNL d   1      -3.800   5.375   3.833  0.00  0.00     0.048 A 
ATOM      6  C5  UNL d   1      -3.791   5.999   5.082  0.00  0.00     0.003 A 
ATOM      7  I   UNL d   1      -4.899   3.639   1.613  0.00  0.00    -0.146 I 
ENDROOT
TORSDOF 0
ENDMDL
