MODEL 1
REMARK minimizedAffinity 5.49351311
REMARK minimizedRMSD -1
REMARK  0 active torsions:
REMARK  status: ('A' for Active; 'I' for Inactive)
ROOT
ATOM      1  C   UNL d   1      -4.810   5.995   5.969  0.00  0.00     0.023 A 
ATOM      2  C1  UNL d   1      -5.977   5.400   5.492  0.00  0.00     0.003 A 
ATOM      3  C2  UNL d   1      -5.994   4.809   4.227  0.00  0.00     0.048 A 
ATOM      4  C3  UNL d   1      -4.840   4.815   3.445  0.00  0.00     0.023 A 
ATOM      5  C4  UNL d   1      -3.669   5.409   3.919  0.00  0.00     0.048 A 
ATOM      6  C5  UNL d   1      -3.657   6.000   5.184  0.00  0.00     0.003 A 
ATOM      7  I   UNL d   1      -4.862   3.935   1.562  0.00  0.00    -0.146 I 
ENDROOT
TORSDOF 0
ENDMDL
