MODEL 1
REMARK minimizedAffinity 2.7560029
REMARK minimizedRMSD -1
REMARK  0 active torsions:
REMARK  status: ('A' for Active; 'I' for Inactive)
ROOT
ATOM      1  C   UNL d   1      -5.997   4.763   4.652  0.00  0.00     0.023 A 
ATOM      2  C1  UNL d   1      -5.494   5.608   5.641  0.00  0.00     0.003 A 
ATOM      3  C2  UNL d   1      -4.143   5.964   5.636  0.00  0.00     0.048 A 
ATOM      4  C3  UNL d   1      -3.302   5.471   4.639  0.00  0.00     0.023 A 
ATOM      5  C4  UNL d   1      -3.802   4.625   3.647  0.00  0.00     0.048 A 
ATOM      6  C5  UNL d   1      -5.152   4.272   3.657  0.00  0.00     0.003 A 
ATOM      7  I   UNL d   1      -1.292   5.999   4.629  0.00  0.00    -0.146 I 
ENDROOT
TORSDOF 0
ENDMDL
