MODEL 1
REMARK minimizedAffinity 8.62597656
REMARK minimizedRMSD -1
REMARK  0 active torsions:
REMARK  status: ('A' for Active; 'I' for Inactive)
ROOT
ATOM      1  C   UNL d   1      -5.458   3.662   1.686  0.00  0.00     0.023 A 
ATOM      2  C1  UNL d   1      -5.840   5.003   1.741  0.00  0.00     0.003 A 
ATOM      3  C2  UNL d   1      -5.996   5.635   2.976  0.00  0.00     0.048 A 
ATOM      4  C3  UNL d   1      -5.767   4.922   4.152  0.00  0.00     0.023 A 
ATOM      5  C4  UNL d   1      -5.384   3.581   4.102  0.00  0.00     0.048 A 
ATOM      6  C5  UNL d   1      -5.230   2.952   2.865  0.00  0.00     0.003 A 
ATOM      7  I   UNL d   1      -5.998   5.861   5.992  0.00  0.00    -0.146 I 
ENDROOT
TORSDOF 0
ENDMDL
