MODEL 1
REMARK minimizedAffinity 3.87236834
REMARK minimizedRMSD -1
REMARK  0 active torsions:
REMARK  status: ('A' for Active; 'I' for Inactive)
ROOT
ATOM      1  C   UNL d   1      -5.998   4.616   4.180  0.00  0.00     0.023 A 
ATOM      2  C1  UNL d   1      -5.855   4.993   5.516  0.00  0.00     0.003 A 
ATOM      3  C2  UNL d   1      -4.607   5.391   6.000  0.00  0.00     0.048 A 
ATOM      4  C3  UNL d   1      -3.506   5.409   5.143  0.00  0.00     0.023 A 
ATOM      5  C4  UNL d   1      -3.645   5.033   3.806  0.00  0.00     0.048 A 
ATOM      6  C5  UNL d   1      -4.895   4.635   3.327  0.00  0.00     0.003 A 
ATOM      7  I   UNL d   1      -1.648   6.000   5.862  0.00  0.00    -0.146 I 
ENDROOT
TORSDOF 0
ENDMDL
