MODEL 1
REMARK minimizedAffinity 8.27571392
REMARK minimizedRMSD -1
REMARK  0 active torsions:
REMARK  status: ('A' for Active; 'I' for Inactive)
ROOT
ATOM      1  C   UNL d   1       1.937  -0.560   0.694  0.00  0.00     0.023 A 
ATOM      2  C1  UNL d   1       2.938   0.160   1.344  0.00  0.00     0.003 A 
ATOM      3  C2  UNL d   1       3.906   0.841   0.602  0.00  0.00     0.048 A 
ATOM      4  C3  UNL d   1       3.865   0.797  -0.791  0.00  0.00     0.023 A 
ATOM      5  C4  UNL d   1       2.864   0.079  -1.447  0.00  0.00     0.048 A 
ATOM      6  C5  UNL d   1       1.899  -0.601  -0.700  0.00  0.00     0.003 A 
ATOM      7  I   UNL d   1       5.303   1.810  -1.899  0.00  0.00    -0.146 I 
ENDROOT
TORSDOF 0
ENDMDL
