MODEL 1
REMARK minimizedAffinity 2.48214197
REMARK minimizedRMSD -1
REMARK  0 active torsions:
REMARK  status: ('A' for Active; 'I' for Inactive)
ROOT
ATOM      1  C   UNL d   1      -5.357   4.281   2.157  0.00  0.00     0.078 C 
ATOM      2  C1  UNL d   1      -5.043   4.871   3.499  0.00  0.00    -0.077 A 
ATOM      3  C2  UNL d   1      -5.999   4.885   4.522  0.00  0.00    -0.001 A 
ATOM      4  C3  UNL d   1      -5.697   5.446   5.763  0.00  0.00     0.003 A 
ATOM      5  C4  UNL d   1      -4.439   5.999   5.994  0.00  0.00    -0.005 A 
ATOM      6  C5  UNL d   1      -3.481   5.991   4.981  0.00  0.00     0.003 A 
ATOM      7  C6  UNL d   1      -3.782   5.431   3.739  0.00  0.00    -0.001 A 
ENDROOT
TORSDOF 0
ENDMDL
