MODEL 1
REMARK minimizedAffinity 7.63321066
REMARK minimizedRMSD -1
REMARK  0 active torsions:
REMARK  status: ('A' for Active; 'I' for Inactive)
ROOT
ATOM      1  C   UNL d   1       2.175  -1.848   2.038  0.00  0.00     0.078 C 
ATOM      2  C1  UNL d   1       2.491  -0.705   1.120  0.00  0.00    -0.077 A 
ATOM      3  C2  UNL d   1       1.820  -0.554  -0.100  0.00  0.00    -0.001 A 
ATOM      4  C3  UNL d   1       2.131   0.509  -0.950  0.00  0.00     0.003 A 
ATOM      5  C4  UNL d   1       3.114   1.428  -0.589  0.00  0.00    -0.005 A 
ATOM      6  C5  UNL d   1       3.788   1.285   0.622  0.00  0.00     0.003 A 
ATOM      7  C6  UNL d   1       3.479   0.222   1.473  0.00  0.00    -0.001 A 
ENDROOT
TORSDOF 0
ENDMDL
