MODEL 1
REMARK minimizedAffinity -0.469209999
REMARK minimizedRMSD -1
REMARK  0 active torsions:
REMARK  status: ('A' for Active; 'I' for Inactive)
ROOT
ATOM      1  C   UNL d   1      -4.910   3.259   2.285  0.00  0.00     0.078 C 
ATOM      2  C1  UNL d   1      -4.913   4.223   3.434  0.00  0.00    -0.077 A 
ATOM      3  C2  UNL d   1      -3.844   5.104   3.639  0.00  0.00    -0.001 A 
ATOM      4  C3  UNL d   1      -3.856   5.989   4.718  0.00  0.00     0.003 A 
ATOM      5  C4  UNL d   1      -4.933   6.000   5.602  0.00  0.00    -0.005 A 
ATOM      6  C5  UNL d   1      -6.000   5.125   5.408  0.00  0.00     0.003 A 
ATOM      7  C6  UNL d   1      -5.990   4.240   4.329  0.00  0.00    -0.001 A 
ENDROOT
TORSDOF 0
ENDMDL
