MODEL 1
REMARK minimizedAffinity 3.7450614
REMARK minimizedRMSD -1
REMARK  0 active torsions:
REMARK  status: ('A' for Active; 'I' for Inactive)
ROOT
ATOM      1  C   UNL d   1       4.563   1.844   0.882  0.00  0.00     0.078 C 
ATOM      2  C1  UNL d   1       3.587   0.800   0.428  0.00  0.00    -0.077 A 
ATOM      3  C2  UNL d   1       2.771   1.012  -0.690  0.00  0.00    -0.001 A 
ATOM      4  C3  UNL d   1       1.861   0.035  -1.096  0.00  0.00     0.003 A 
ATOM      5  C4  UNL d   1       1.756  -1.161  -0.388  0.00  0.00    -0.005 A 
ATOM      6  C5  UNL d   1       2.562  -1.381   0.727  0.00  0.00     0.003 A 
ATOM      7  C6  UNL d   1       3.474  -0.405   1.134  0.00  0.00    -0.001 A 
ENDROOT
TORSDOF 0
ENDMDL
