MODEL 1
REMARK minimizedAffinity 1.14181757
REMARK minimizedRMSD -1
REMARK  0 active torsions:
REMARK  status: ('A' for Active; 'I' for Inactive)
ROOT
ATOM      1  C   UNL d   1      -1.925   6.000   4.264  0.00  0.00     0.078 C 
ATOM      2  C1  UNL d   1      -3.343   5.581   4.511  0.00  0.00    -0.077 A 
ATOM      3  C2  UNL d   1      -4.094   4.951   3.511  0.00  0.00    -0.001 A 
ATOM      4  C3  UNL d   1      -5.416   4.575   3.752  0.00  0.00     0.003 A 
ATOM      5  C4  UNL d   1      -6.000   4.825   4.992  0.00  0.00    -0.005 A 
ATOM      6  C5  UNL d   1      -5.261   5.453   5.993  0.00  0.00     0.003 A 
ATOM      7  C6  UNL d   1      -3.939   5.829   5.754  0.00  0.00    -0.001 A 
ENDROOT
TORSDOF 0
ENDMDL
