MODEL 1
REMARK minimizedAffinity 3.31082702
REMARK minimizedRMSD -1
REMARK  0 active torsions:
REMARK  status: ('A' for Active; 'I' for Inactive)
ROOT
ATOM      1  C   UNL d   1      -4.942   3.411   2.194  0.00  0.00     0.078 C 
ATOM      2  C1  UNL d   1      -4.919   4.305   3.398  0.00  0.00    -0.077 A 
ATOM      3  C2  UNL d   1      -6.000   4.346   4.287  0.00  0.00    -0.001 A 
ATOM      4  C3  UNL d   1      -5.968   5.190   5.399  0.00  0.00     0.003 A 
ATOM      5  C4  UNL d   1      -4.858   6.000   5.631  0.00  0.00    -0.005 A 
ATOM      6  C5  UNL d   1      -3.779   5.968   4.750  0.00  0.00     0.003 A 
ATOM      7  C6  UNL d   1      -3.808   5.124   3.638  0.00  0.00    -0.001 A 
ENDROOT
TORSDOF 0
ENDMDL
