MODEL 1
REMARK minimizedAffinity 3.72362542
REMARK minimizedRMSD -1
REMARK  0 active torsions:
REMARK  status: ('A' for Active; 'I' for Inactive)
ROOT
ATOM      1  C   UNL d   1      -5.203   3.443   2.460  0.00  0.00     0.078 C 
ATOM      2  C1  UNL d   1      -5.022   4.334   3.652  0.00  0.00    -0.077 A 
ATOM      3  C2  UNL d   1      -3.883   5.137   3.786  0.00  0.00    -0.001 A 
ATOM      4  C3  UNL d   1      -3.723   5.955   4.906  0.00  0.00     0.003 A 
ATOM      5  C4  UNL d   1      -4.698   5.976   5.901  0.00  0.00    -0.005 A 
ATOM      6  C5  UNL d   1      -5.834   5.179   5.778  0.00  0.00     0.003 A 
ATOM      7  C6  UNL d   1      -5.996   4.361   4.658  0.00  0.00    -0.001 A 
ENDROOT
TORSDOF 0
ENDMDL
