MODEL 1
REMARK minimizedAffinity 4.41137123
REMARK minimizedRMSD -1
REMARK  0 active torsions:
REMARK  status: ('A' for Active; 'I' for Inactive)
ROOT
ATOM      1  C   UNL d   1      -4.661   3.592   1.752  0.00  0.00     0.078 C 
ATOM      2  C1  UNL d   1      -4.749   4.422   2.997  0.00  0.00    -0.077 A 
ATOM      3  C2  UNL d   1      -5.930   4.474   3.748  0.00  0.00    -0.001 A 
ATOM      4  C3  UNL d   1      -6.000   5.259   4.900  0.00  0.00     0.003 A 
ATOM      5  C4  UNL d   1      -4.893   5.999   5.311  0.00  0.00    -0.005 A 
ATOM      6  C5  UNL d   1      -3.714   5.954   4.570  0.00  0.00     0.003 A 
ATOM      7  C6  UNL d   1      -3.642   5.170   3.417  0.00  0.00    -0.001 A 
ENDROOT
TORSDOF 0
ENDMDL
