MODEL 1
REMARK minimizedAffinity -4.15549707
REMARK minimizedRMSD -1
REMARK  1 active torsions:
REMARK  status: ('A' for Active; 'I' for Inactive)
REMARK    1  A    between atoms: C1_2  and  C2_3 
ROOT
ATOM      1  C2  UNL d   1       1.055   1.561  -0.528  0.00  0.00    -0.077 A 
ATOM      2  C3  UNL d   1       1.337   2.401  -1.614  0.00  0.00     0.002 A 
ATOM      3  C4  UNL d   1       1.546   3.767  -1.415  0.00  0.00     0.002 A 
ATOM      4  C5  UNL d   1       1.480   4.304  -0.131  0.00  0.00    -0.004 A 
ATOM      5  C6  UNL d   1       1.198   3.477   0.956  0.00  0.00     0.002 A 
ATOM      6  C7  UNL d   1       0.988   2.112   0.758  0.00  0.00     0.002 A 
ENDROOT
BRANCH   1   7
ATOM      7  C1  UNL d   1       0.877   0.079  -0.734  0.00  0.00     0.055 C 
ATOM      8  C   UNL d   1       1.476  -0.371  -2.059  0.00  0.00     0.019 C 
ENDBRANCH   1   7
TORSDOF 1
ENDMDL
