MODEL 1
REMARK minimizedAffinity -2.479599
REMARK minimizedRMSD -1
REMARK  1 active torsions:
REMARK  status: ('A' for Active; 'I' for Inactive)
REMARK    1  A    between atoms: C1_2  and  C2_3 
ROOT
ATOM      1  C2  UNL d   1       1.233   1.989   0.810  0.00  0.00    -0.077 A 
ATOM      2  C3  UNL d   1       1.255   3.112  -0.030  0.00  0.00     0.002 A 
ATOM      3  C4  UNL d   1       1.359   2.957  -1.413  0.00  0.00     0.002 A 
ATOM      4  C5  UNL d   1       1.438   1.682  -1.970  0.00  0.00    -0.004 A 
ATOM      5  C6  UNL d   1       1.420   0.559  -1.143  0.00  0.00     0.002 A 
ATOM      6  C7  UNL d   1       1.317   0.712   0.240  0.00  0.00     0.002 A 
ENDROOT
BRANCH   1   7
ATOM      7  C1  UNL d   1       1.071   2.152   2.299  0.00  0.00     0.055 C 
ATOM      8  C   UNL d   1       2.160   1.409   3.059  0.00  0.00     0.019 C 
ENDBRANCH   1   7
TORSDOF 1
ENDMDL
