MODEL 1
REMARK minimizedAffinity -1.15445447
REMARK minimizedRMSD -1
REMARK  1 active torsions:
REMARK  status: ('A' for Active; 'I' for Inactive)
REMARK    1  A    between atoms: C1_2  and  C2_3 
ROOT
ATOM      1  C2  UNL d   1       1.360   3.932  -0.628  0.00  0.00    -0.077 A 
ATOM      2  C3  UNL d   1       1.313   3.348   0.645  0.00  0.00     0.002 A 
ATOM      3  C4  UNL d   1       1.418   1.963   0.790  0.00  0.00     0.002 A 
ATOM      4  C5  UNL d   1       1.575   1.153  -0.332  0.00  0.00    -0.004 A 
ATOM      5  C6  UNL d   1       1.620   1.724  -1.603  0.00  0.00     0.002 A 
ATOM      6  C7  UNL d   1       1.514   3.108  -1.750  0.00  0.00     0.002 A 
ENDROOT
BRANCH   1   7
ATOM      7  C1  UNL d   1       1.296   5.429  -0.784  0.00  0.00     0.055 C 
ATOM      8  C   UNL d   1       2.642   6.000  -1.207  0.00  0.00     0.019 C 
ENDBRANCH   1   7
TORSDOF 1
ENDMDL
