MODEL 1
REMARK minimizedAffinity 0.840011954
REMARK minimizedRMSD -1
REMARK  1 active torsions:
REMARK  status: ('A' for Active; 'I' for Inactive)
REMARK    1  A    between atoms: C1_2  and  C2_3 
ROOT
ATOM      1  C2  UNL d   1       1.552   3.167   0.444  0.00  0.00    -0.077 A 
ATOM      2  C3  UNL d   1       1.457   4.524   0.103  0.00  0.00     0.002 A 
ATOM      3  C4  UNL d   1       1.490   4.920  -1.235  0.00  0.00     0.002 A 
ATOM      4  C5  UNL d   1       1.613   3.965  -2.243  0.00  0.00    -0.004 A 
ATOM      5  C6  UNL d   1       1.710   2.614  -1.914  0.00  0.00     0.002 A 
ATOM      6  C7  UNL d   1       1.679   2.217  -0.576  0.00  0.00     0.002 A 
ENDROOT
BRANCH   1   7
ATOM      7  C1  UNL d   1       1.467   2.735   1.885  0.00  0.00     0.055 C 
ATOM      8  C   UNL d   1       2.417   1.582   2.173  0.00  0.00     0.019 C 
ENDBRANCH   1   7
TORSDOF 1
ENDMDL
