MODEL 1
REMARK minimizedAffinity -2.45700312
REMARK minimizedRMSD -1
REMARK  1 active torsions:
REMARK  status: ('A' for Active; 'I' for Inactive)
REMARK    1  A    between atoms: C1_2  and  C2_3 
ROOT
ATOM      1  C2  UNL d   1       0.901  -1.391  -0.897  0.00  0.00    -0.077 A 
ATOM      2  C3  UNL d   1       1.162  -0.482   0.138  0.00  0.00     0.002 A 
ATOM      3  C4  UNL d   1       1.522   0.835  -0.152  0.00  0.00     0.002 A 
ATOM      4  C5  UNL d   1       1.621   1.256  -1.477  0.00  0.00    -0.004 A 
ATOM      5  C6  UNL d   1       1.366   0.360  -2.514  0.00  0.00     0.002 A 
ATOM      6  C7  UNL d   1       1.007  -0.958  -2.225  0.00  0.00     0.002 A 
ENDROOT
BRANCH   1   7
ATOM      7  C1  UNL d   1       0.464  -2.798  -0.586  0.00  0.00     0.055 C 
ATOM      8  C   UNL d   1      -0.524  -3.314  -1.622  0.00  0.00     0.019 C 
ENDBRANCH   1   7
TORSDOF 1
ENDMDL
