MODEL 1
REMARK minimizedAffinity -4.56965446
REMARK minimizedRMSD -1
REMARK  1 active torsions:
REMARK  status: ('A' for Active; 'I' for Inactive)
REMARK    1  A    between atoms: C1_2  and  C2_3 
ROOT
ATOM      1  C2  UNL d   1       1.278   1.887  -0.629  0.00  0.00    -0.077 A 
ATOM      2  C3  UNL d   1       0.971   2.031   0.731  0.00  0.00     0.002 A 
ATOM      3  C4  UNL d   1       0.849   3.301   1.298  0.00  0.00     0.002 A 
ATOM      4  C5  UNL d   1       1.028   4.437   0.511  0.00  0.00    -0.004 A 
ATOM      5  C6  UNL d   1       1.336   4.304  -0.843  0.00  0.00     0.002 A 
ATOM      6  C7  UNL d   1       1.460   3.036  -1.410  0.00  0.00     0.002 A 
ENDROOT
BRANCH   1   7
ATOM      7  C1  UNL d   1       1.362   0.519  -1.253  0.00  0.00     0.055 C 
ATOM      8  C   UNL d   1       2.098  -0.458  -0.347  0.00  0.00     0.019 C 
ENDBRANCH   1   7
TORSDOF 1
ENDMDL
