MODEL 1
REMARK minimizedAffinity 2.28619981
REMARK minimizedRMSD -1
REMARK  1 active torsions:
REMARK  status: ('A' for Active; 'I' for Inactive)
REMARK    1  A    between atoms: C1_2  and  C2_3 
ROOT
ATOM      1  C2  UNL d   1       1.804   3.227  -1.623  0.00  0.00    -0.077 A 
ATOM      2  C3  UNL d   1       2.203   2.473  -0.511  0.00  0.00     0.002 A 
ATOM      3  C4  UNL d   1       1.916   1.109  -0.443  0.00  0.00     0.002 A 
ATOM      4  C5  UNL d   1       1.233   0.486  -1.486  0.00  0.00    -0.004 A 
ATOM      5  C6  UNL d   1       0.830   1.228  -2.595  0.00  0.00     0.002 A 
ATOM      6  C7  UNL d   1       1.115   2.592  -2.664  0.00  0.00     0.002 A 
ENDROOT
BRANCH   1   7
ATOM      7  C1  UNL d   1       2.156   4.689  -1.721  0.00  0.00     0.055 C 
ATOM      8  C   UNL d   1       1.895   5.410  -0.407  0.00  0.00     0.019 C 
ENDBRANCH   1   7
TORSDOF 1
ENDMDL
