MODEL 1
REMARK minimizedAffinity 5.96154737
REMARK minimizedRMSD -1
REMARK  1 active torsions:
REMARK  status: ('A' for Active; 'I' for Inactive)
REMARK    1  A    between atoms: C1_2  and  C2_3 
ROOT
ATOM      1  C2  UNL d   1       1.711   3.772  -1.649  0.00  0.00    -0.077 A 
ATOM      2  C3  UNL d   1       2.284   4.893  -2.265  0.00  0.00     0.002 A 
ATOM      3  C4  UNL d   1       2.664   6.000  -1.504  0.00  0.00     0.002 A 
ATOM      4  C5  UNL d   1       2.480   5.994  -0.123  0.00  0.00    -0.004 A 
ATOM      5  C6  UNL d   1       1.909   4.885   0.499  0.00  0.00     0.002 A 
ATOM      6  C7  UNL d   1       1.527   3.778  -0.260  0.00  0.00     0.002 A 
ENDROOT
BRANCH   1   7
ATOM      7  C1  UNL d   1       1.345   2.557  -2.462  0.00  0.00     0.055 C 
ATOM      8  C   UNL d   1       0.187   2.851  -3.405  0.00  0.00     0.019 C 
ENDBRANCH   1   7
TORSDOF 1
ENDMDL
