MODEL 1
REMARK minimizedAffinity 4.45926952
REMARK minimizedRMSD -1
REMARK  0 active torsions:
REMARK  status: ('A' for Active; 'I' for Inactive)
ROOT
ATOM      1  C   UNL d   1      -0.117  -0.787   3.007  0.00  0.00     0.020 A 
ATOM      2  C1  UNL d   1      -0.795   0.356   3.431  0.00  0.00     0.020 A 
ATOM      3  C2  UNL d   1      -1.858   0.857   2.676  0.00  0.00     0.034 A 
ATOM      4  C3  UNL d   1      -2.246   0.216   1.494  0.00  0.00     0.017 A 
ATOM      5  C4  UNL d   1      -1.565  -0.931   1.070  0.00  0.00     0.017 A 
ATOM      6  C5  UNL d   1      -0.502  -1.429   1.829  0.00  0.00     0.034 A 
ATOM      7 Cl   UNL d   1      -1.986  -1.777  -0.377  0.00  0.00    -0.070 Cl
ATOM      8 Cl1  UNL d   1      -3.569   0.891   0.611  0.00  0.00    -0.070 Cl
ENDROOT
TORSDOF 0
ENDMDL
