MODEL 1
REMARK minimizedAffinity 0.15823023
REMARK minimizedRMSD -1
REMARK  0 active torsions:
REMARK  status: ('A' for Active; 'I' for Inactive)
ROOT
ATOM      1  C   UNL d   1      -1.005  -0.232   2.641  0.00  0.00     0.020 A 
ATOM      2  C1  UNL d   1      -2.193   0.415   2.978  0.00  0.00     0.020 A 
ATOM      3  C2  UNL d   1      -3.149   0.677   1.994  0.00  0.00     0.034 A 
ATOM      4  C3  UNL d   1      -2.919   0.292   0.669  0.00  0.00     0.017 A 
ATOM      5  C4  UNL d   1      -1.726  -0.358   0.331  0.00  0.00     0.017 A 
ATOM      6  C5  UNL d   1      -0.772  -0.618   1.320  0.00  0.00     0.034 A 
ATOM      7 Cl   UNL d   1      -1.371  -0.863  -1.283  0.00  0.00    -0.070 Cl
ATOM      8 Cl1  UNL d   1      -4.145   0.647  -0.496  0.00  0.00    -0.070 Cl
ENDROOT
TORSDOF 0
ENDMDL
