MODEL 1
REMARK minimizedAffinity 2.65504837
REMARK minimizedRMSD -1
REMARK  0 active torsions:
REMARK  status: ('A' for Active; 'I' for Inactive)
ROOT
ATOM      1  C   UNL d   1      -0.987   1.109  -4.245  0.00  0.00     0.020 A 
ATOM      2  C1  UNL d   1      -0.944   0.784  -5.600  0.00  0.00     0.020 A 
ATOM      3  C2  UNL d   1      -0.611  -0.513  -5.996  0.00  0.00     0.034 A 
ATOM      4  C3  UNL d   1      -0.319  -1.489  -5.037  0.00  0.00     0.017 A 
ATOM      5  C4  UNL d   1      -0.362  -1.162  -3.677  0.00  0.00     0.017 A 
ATOM      6  C5  UNL d   1      -0.697   0.138  -3.285  0.00  0.00     0.034 A 
ATOM      7 Cl   UNL d   1      -0.014  -2.312  -2.435  0.00  0.00    -0.070 Cl
ATOM      8 Cl1  UNL d   1       0.085  -3.073  -5.598  0.00  0.00    -0.070 Cl
ENDROOT
TORSDOF 0
ENDMDL
