MODEL 1
REMARK minimizedAffinity 2.4766171
REMARK minimizedRMSD -1
REMARK  0 active torsions:
REMARK  status: ('A' for Active; 'I' for Inactive)
ROOT
ATOM      1  C   UNL d   1      -0.387  -0.034  -5.993  0.00  0.00     0.020 A 
ATOM      2  C1  UNL d   1      -0.520   0.653  -4.787  0.00  0.00     0.020 A 
ATOM      3  C2  UNL d   1      -0.578  -0.053  -3.584  0.00  0.00     0.034 A 
ATOM      4  C3  UNL d   1      -0.503  -1.450  -3.583  0.00  0.00     0.017 A 
ATOM      5  C4  UNL d   1      -0.370  -2.140  -4.794  0.00  0.00     0.017 A 
ATOM      6  C5  UNL d   1      -0.312  -1.428  -5.996  0.00  0.00     0.034 A 
ATOM      7 Cl   UNL d   1      -0.272  -3.863  -4.873  0.00  0.00    -0.070 Cl
ATOM      8 Cl1  UNL d   1      -0.581  -2.258  -2.058  0.00  0.00    -0.070 Cl
ENDROOT
TORSDOF 0
ENDMDL
