MODEL 1
REMARK minimizedAffinity -2.22084212
REMARK minimizedRMSD -1
REMARK  0 active torsions:
REMARK  status: ('A' for Active; 'I' for Inactive)
ROOT
ATOM      1  C   UNL d   1       2.835  -3.122  -1.273  0.00  0.00     0.020 A 
ATOM      2  C1  UNL d   1       3.158  -3.005  -2.625  0.00  0.00     0.020 A 
ATOM      3  C2  UNL d   1       2.151  -2.781  -3.566  0.00  0.00     0.034 A 
ATOM      4  C3  UNL d   1       0.817  -2.672  -3.158  0.00  0.00     0.017 A 
ATOM      5  C4  UNL d   1       0.494  -2.789  -1.801  0.00  0.00     0.017 A 
ATOM      6  C5  UNL d   1       1.505  -3.014  -0.863  0.00  0.00     0.034 A 
ATOM      7 Cl   UNL d   1      -1.130  -2.666  -1.222  0.00  0.00    -0.070 Cl
ATOM      8 Cl1  UNL d   1      -0.376  -2.395  -4.377  0.00  0.00    -0.070 Cl
ENDROOT
TORSDOF 0
ENDMDL
