MODEL 1
REMARK minimizedAffinity 1.65620565
REMARK minimizedRMSD -1
REMARK  0 active torsions:
REMARK  status: ('A' for Active; 'I' for Inactive)
ROOT
ATOM      1  C   UNL d   1       0.432  -1.287   3.430  0.00  0.00     0.020 A 
ATOM      2  C1  UNL d   1       0.058  -2.294   4.319  0.00  0.00     0.020 A 
ATOM      3  C2  UNL d   1      -1.276  -2.419   4.712  0.00  0.00     0.034 A 
ATOM      4  C3  UNL d   1      -2.241  -1.535   4.216  0.00  0.00     0.017 A 
ATOM      5  C4  UNL d   1      -1.866  -0.524   3.324  0.00  0.00     0.017 A 
ATOM      6  C5  UNL d   1      -0.528  -0.404   2.934  0.00  0.00     0.034 A 
ATOM      7 Cl   UNL d   1      -3.000   0.604   2.670  0.00  0.00    -0.070 Cl
ATOM      8 Cl1  UNL d   1      -3.873  -1.748   4.745  0.00  0.00    -0.070 Cl
ENDROOT
TORSDOF 0
ENDMDL
