MODEL 1
REMARK minimizedAffinity 6.90631819
REMARK minimizedRMSD -1
REMARK  0 active torsions:
REMARK  status: ('A' for Active; 'I' for Inactive)
ROOT
ATOM      1  C   UNL d   1      -2.108   0.254   2.350  0.00  0.00     0.020 A 
ATOM      2  C1  UNL d   1      -0.850  -0.331   2.494  0.00  0.00     0.020 A 
ATOM      3  C2  UNL d   1      -0.494  -1.425   1.703  0.00  0.00     0.034 A 
ATOM      4  C3  UNL d   1      -1.396  -1.938   0.763  0.00  0.00     0.017 A 
ATOM      5  C4  UNL d   1      -2.658  -1.350   0.619  0.00  0.00     0.017 A 
ATOM      6  C5  UNL d   1      -3.010  -0.255   1.414  0.00  0.00     0.034 A 
ATOM      7 Cl   UNL d   1      -3.824  -1.927  -0.519  0.00  0.00    -0.070 Cl
ATOM      8 Cl1  UNL d   1      -0.888  -3.292  -0.182  0.00  0.00    -0.070 Cl
ENDROOT
TORSDOF 0
ENDMDL
