MODEL 1
REMARK minimizedAffinity -0.147497848
REMARK minimizedRMSD -1
REMARK  0 active torsions:
REMARK  status: ('A' for Active; 'I' for Inactive)
ROOT
ATOM      1  C   UNL d   1      -1.877   0.967  -5.069  0.00  0.00     0.020 A 
ATOM      2  C1  UNL d   1      -3.001   0.458  -5.719  0.00  0.00     0.020 A 
ATOM      3  C2  UNL d   1      -3.087  -0.908  -5.997  0.00  0.00     0.034 A 
ATOM      4  C3  UNL d   1      -2.048  -1.769  -5.624  0.00  0.00     0.017 A 
ATOM      5  C4  UNL d   1      -0.921  -1.256  -4.972  0.00  0.00     0.017 A 
ATOM      6  C5  UNL d   1      -0.840   0.112  -4.696  0.00  0.00     0.034 A 
ATOM      7 Cl   UNL d   1       0.401  -2.256  -4.482  0.00  0.00    -0.070 Cl
ATOM      8 Cl1  UNL d   1      -2.222  -3.447  -5.999  0.00  0.00    -0.070 Cl
ENDROOT
TORSDOF 0
ENDMDL
