MODEL 1
REMARK minimizedAffinity 2.80248642
REMARK minimizedRMSD -1
REMARK  0 active torsions:
REMARK  status: ('A' for Active; 'I' for Inactive)
ROOT
ATOM      1  C   UNL d   1      -4.066   0.448   0.339  0.00  0.00     0.020 A 
ATOM      2  C1  UNL d   1      -3.539   1.150   1.423  0.00  0.00     0.020 A 
ATOM      3  C2  UNL d   1      -2.316   0.765   1.976  0.00  0.00     0.034 A 
ATOM      4  C3  UNL d   1      -1.616  -0.325   1.446  0.00  0.00     0.017 A 
ATOM      5  C4  UNL d   1      -2.146  -1.029   0.358  0.00  0.00     0.017 A 
ATOM      6  C5  UNL d   1      -3.371  -0.639  -0.192  0.00  0.00     0.034 A 
ATOM      7 Cl   UNL d   1      -1.340  -2.384  -0.350  0.00  0.00    -0.070 Cl
ATOM      8 Cl1  UNL d   1      -0.109  -0.746   2.179  0.00  0.00    -0.070 Cl
ENDROOT
TORSDOF 0
ENDMDL
