MODEL 1
REMARK minimizedAffinity 10.4364176
REMARK minimizedRMSD -1
REMARK  0 active torsions:
REMARK  status: ('A' for Active; 'I' for Inactive)
ROOT
ATOM      1  C   UNL d   1       2.202  -2.289  -1.852  0.00  0.00     0.023 A 
ATOM      2  C1  UNL d   1       1.563  -1.105  -2.221  0.00  0.00     0.003 A 
ATOM      3  C2  UNL d   1       1.391  -0.083  -1.286  0.00  0.00     0.048 A 
ATOM      4  C3  UNL d   1       1.862  -0.249   0.016  0.00  0.00     0.023 A 
ATOM      5  C4  UNL d   1       2.503  -1.432   0.389  0.00  0.00     0.048 A 
ATOM      6  C5  UNL d   1       2.671  -2.452  -0.549  0.00  0.00     0.003 A 
ATOM      7  I   UNL d   1       1.608   1.272   1.409  0.00  0.00    -0.146 I 
ENDROOT
TORSDOF 0
ENDMDL
