MODEL 1
REMARK minimizedAffinity 12.4124336
REMARK minimizedRMSD -1
REMARK  0 active torsions:
REMARK  status: ('A' for Active; 'I' for Inactive)
ROOT
ATOM      1  C   UNL d   1       2.747   6.000  -1.503  0.00  0.00     0.023 A 
ATOM      2  C1  UNL d   1       3.290   4.861  -2.099  0.00  0.00     0.003 A 
ATOM      3  C2  UNL d   1       3.355   3.662  -1.386  0.00  0.00     0.048 A 
ATOM      4  C3  UNL d   1       2.874   3.608  -0.078  0.00  0.00     0.023 A 
ATOM      5  C4  UNL d   1       2.329   4.745   0.522  0.00  0.00     0.048 A 
ATOM      6  C5  UNL d   1       2.267   5.942  -0.194  0.00  0.00     0.003 A 
ATOM      7  I   UNL d   1       2.969   1.825   0.984  0.00  0.00    -0.146 I 
ENDROOT
TORSDOF 0
ENDMDL
