MODEL 1
REMARK minimizedAffinity 17.1327724
REMARK minimizedRMSD -1
REMARK  0 active torsions:
REMARK  status: ('A' for Active; 'I' for Inactive)
ROOT
ATOM      1  C   UNL d   1       3.352   0.623  -1.109  0.00  0.00     0.023 A 
ATOM      2  C1  UNL d   1       3.551   1.585  -0.118  0.00  0.00     0.003 A 
ATOM      3  C2  UNL d   1       2.654   1.689   0.947  0.00  0.00     0.048 A 
ATOM      4  C3  UNL d   1       1.561   0.826   1.016  0.00  0.00     0.023 A 
ATOM      5  C4  UNL d   1       1.358  -0.139   0.028  0.00  0.00     0.048 A 
ATOM      6  C5  UNL d   1       2.257  -0.238  -1.035  0.00  0.00     0.003 A 
ATOM      7  I   UNL d   1       0.225   0.978   2.601  0.00  0.00    -0.146 I 
ENDROOT
TORSDOF 0
ENDMDL
