MODEL 1
REMARK minimizedAffinity 20.7996025
REMARK minimizedRMSD -1
REMARK  0 active torsions:
REMARK  status: ('A' for Active; 'I' for Inactive)
ROOT
ATOM      1  C   UNL d   1       3.103  -5.043   0.118  0.00  0.00     0.023 A 
ATOM      2  C1  UNL d   1       1.777  -4.759  -0.212  0.00  0.00     0.003 A 
ATOM      3  C2  UNL d   1       1.418  -3.472  -0.617  0.00  0.00     0.048 A 
ATOM      4  C3  UNL d   1       2.389  -2.474  -0.692  0.00  0.00     0.023 A 
ATOM      5  C4  UNL d   1       3.716  -2.754  -0.364  0.00  0.00     0.048 A 
ATOM      6  C5  UNL d   1       4.071  -4.042   0.042  0.00  0.00     0.003 A 
ATOM      7  I   UNL d   1       1.856  -0.558  -1.296  0.00  0.00    -0.146 I 
ENDROOT
TORSDOF 0
ENDMDL
