MODEL 1
REMARK minimizedAffinity 23.495924
REMARK minimizedRMSD -1
REMARK  0 active torsions:
REMARK  status: ('A' for Active; 'I' for Inactive)
ROOT
ATOM      1  C   UNL d   1       3.819  -4.866   0.719  0.00  0.00     0.023 A 
ATOM      2  C1  UNL d   1       2.473  -4.690   0.401  0.00  0.00     0.003 A 
ATOM      3  C2  UNL d   1       1.980  -3.413   0.123  0.00  0.00     0.048 A 
ATOM      4  C3  UNL d   1       2.840  -2.317   0.165  0.00  0.00     0.023 A 
ATOM      5  C4  UNL d   1       4.189  -2.488   0.483  0.00  0.00     0.048 A 
ATOM      6  C5  UNL d   1       4.676  -3.766   0.760  0.00  0.00     0.003 A 
ATOM      7  I   UNL d   1       2.110  -0.415  -0.247  0.00  0.00    -0.146 I 
ENDROOT
TORSDOF 0
ENDMDL
