MODEL 1
REMARK minimizedAffinity 0.87872529
REMARK minimizedRMSD -1
REMARK  0 active torsions:
REMARK  status: ('A' for Active; 'I' for Inactive)
ROOT
ATOM      1  C   UNL d   1       1.793  -0.144  -1.851  0.00  0.00     0.023 A 
ATOM      2  C1  UNL d   1       1.894  -1.338  -2.565  0.00  0.00     0.003 A 
ATOM      3  C2  UNL d   1       2.509  -2.450  -1.986  0.00  0.00     0.048 A 
ATOM      4  C3  UNL d   1       3.019  -2.362  -0.691  0.00  0.00     0.023 A 
ATOM      5  C4  UNL d   1       2.920  -1.169   0.028  0.00  0.00     0.048 A 
ATOM      6  C5  UNL d   1       2.305  -0.060  -0.556  0.00  0.00     0.003 A 
ATOM      7  I   UNL d   1       3.934  -4.015   0.173  0.00  0.00    -0.146 I 
ENDROOT
TORSDOF 0
ENDMDL
