MODEL 1
REMARK minimizedAffinity 16.9059811
REMARK minimizedRMSD -1
REMARK  0 active torsions:
REMARK  status: ('A' for Active; 'I' for Inactive)
ROOT
ATOM      1  C   UNL d   1       2.564   4.372  -0.698  0.00  0.00     0.023 A 
ATOM      2  C1  UNL d   1       2.608   3.789   0.568  0.00  0.00     0.003 A 
ATOM      3  C2  UNL d   1       2.761   2.407   0.697  0.00  0.00     0.048 A 
ATOM      4  C3  UNL d   1       2.871   1.614  -0.445  0.00  0.00     0.023 A 
ATOM      5  C4  UNL d   1       2.828   2.193  -1.714  0.00  0.00     0.048 A 
ATOM      6  C5  UNL d   1       2.673   3.575  -1.838  0.00  0.00     0.003 A 
ATOM      7  I   UNL d   1       3.099  -0.443  -0.256  0.00  0.00    -0.146 I 
ENDROOT
TORSDOF 0
ENDMDL
