MODEL 1
REMARK minimizedAffinity 22.3592987
REMARK minimizedRMSD -1
REMARK  0 active torsions:
REMARK  status: ('A' for Active; 'I' for Inactive)
ROOT
ATOM      1  C   UNL d   1       3.210  -2.917  -0.387  0.00  0.00     0.023 A 
ATOM      2  C1  UNL d   1       2.103  -2.119  -0.675  0.00  0.00     0.003 A 
ATOM      3  C2  UNL d   1       2.128  -0.754  -0.379  0.00  0.00     0.048 A 
ATOM      4  C3  UNL d   1       3.265  -0.195   0.203  0.00  0.00     0.023 A 
ATOM      5  C4  UNL d   1       4.375  -0.989   0.492  0.00  0.00     0.048 A 
ATOM      6  C5  UNL d   1       4.345  -2.353   0.195  0.00  0.00     0.003 A 
ATOM      7  I   UNL d   1       3.305   1.836   0.644  0.00  0.00    -0.146 I 
ENDROOT
TORSDOF 0
ENDMDL
