MODEL 1
REMARK minimizedAffinity 13.477603
REMARK minimizedRMSD -1
REMARK  0 active torsions:
REMARK  status: ('A' for Active; 'I' for Inactive)
ROOT
ATOM      1  C   UNL d   1       0.559   1.099   1.705  0.00  0.00     0.023 A 
ATOM      2  C1  UNL d   1      -0.579   0.634   1.045  0.00  0.00     0.003 A 
ATOM      3  C2  UNL d   1      -1.848   0.945   1.536  0.00  0.00     0.048 A 
ATOM      4  C3  UNL d   1      -1.974   1.723   2.686  0.00  0.00     0.023 A 
ATOM      5  C4  UNL d   1      -0.838   2.192   3.349  0.00  0.00     0.048 A 
ATOM      6  C5  UNL d   1       0.429   1.877   2.856  0.00  0.00     0.003 A 
ATOM      7  I   UNL d   1      -3.862   2.188   3.418  0.00  0.00    -0.146 I 
ENDROOT
TORSDOF 0
ENDMDL
