MODEL 1
REMARK minimizedAffinity -1.09044468
REMARK minimizedRMSD -1
REMARK  0 active torsions:
REMARK  status: ('A' for Active; 'I' for Inactive)
ROOT
ATOM      1  C   UNL d   1       2.917  -5.996  -1.879  0.00  0.00     0.023 A 
ATOM      2  C1  UNL d   1       3.470  -5.173  -0.897  0.00  0.00     0.003 A 
ATOM      3  C2  UNL d   1       3.196  -3.804  -0.896  0.00  0.00     0.048 A 
ATOM      4  C3  UNL d   1       2.367  -3.264  -1.879  0.00  0.00     0.023 A 
ATOM      5  C4  UNL d   1       1.811  -4.083  -2.863  0.00  0.00     0.048 A 
ATOM      6  C5  UNL d   1       2.089  -5.452  -2.860  0.00  0.00     0.003 A 
ATOM      7  I   UNL d   1       1.957  -1.227  -1.879  0.00  0.00    -0.146 I 
ENDROOT
TORSDOF 0
ENDMDL
