MODEL 1
REMARK minimizedAffinity 14.2995577
REMARK minimizedRMSD -1
REMARK  0 active torsions:
REMARK  status: ('A' for Active; 'I' for Inactive)
ROOT
ATOM      1  C   UNL d   1       1.369   1.869   2.164  0.00  0.00     0.023 A 
ATOM      2  C1  UNL d   1       0.413   2.798   1.753  0.00  0.00     0.003 A 
ATOM      3  C2  UNL d   1      -0.941   2.570   2.010  0.00  0.00     0.048 A 
ATOM      4  C3  UNL d   1      -1.331   1.410   2.680  0.00  0.00     0.023 A 
ATOM      5  C4  UNL d   1      -0.378   0.478   3.094  0.00  0.00     0.048 A 
ATOM      6  C5  UNL d   1       0.974   0.711   2.834  0.00  0.00     0.003 A 
ATOM      7  I   UNL d   1      -3.344   1.068   3.064  0.00  0.00    -0.146 I 
ENDROOT
TORSDOF 0
ENDMDL
