MODEL 1
REMARK minimizedAffinity 14.0122957
REMARK minimizedRMSD -1
REMARK  0 active torsions:
REMARK  status: ('A' for Active; 'I' for Inactive)
ROOT
ATOM      1  C   UNL d   1      -4.879   2.938   5.310  0.00  0.00     0.023 A 
ATOM      2  C1  UNL d   1      -3.704   2.637   5.999  0.00  0.00     0.003 A 
ATOM      3  C2  UNL d   1      -2.638   2.029   5.333  0.00  0.00     0.048 A 
ATOM      4  C3  UNL d   1      -2.753   1.726   3.977  0.00  0.00     0.023 A 
ATOM      5  C4  UNL d   1      -3.926   2.026   3.283  0.00  0.00     0.048 A 
ATOM      6  C5  UNL d   1      -4.990   2.633   3.953  0.00  0.00     0.003 A 
ATOM      7  I   UNL d   1      -1.168   0.821   2.983  0.00  0.00    -0.146 I 
ENDROOT
TORSDOF 0
ENDMDL
