MODEL 1
REMARK minimizedAffinity 12.5634623
REMARK minimizedRMSD -1
REMARK  0 active torsions:
REMARK  status: ('A' for Active; 'I' for Inactive)
ROOT
ATOM      1  C   UNL d   1       3.195   0.381  -0.440  0.00  0.00     0.023 A 
ATOM      2  C1  UNL d   1       1.991  -0.238  -0.776  0.00  0.00     0.003 A 
ATOM      3  C2  UNL d   1       0.849  -0.011  -0.005  0.00  0.00     0.048 A 
ATOM      4  C3  UNL d   1       0.918   0.837   1.100  0.00  0.00     0.023 A 
ATOM      5  C4  UNL d   1       2.121   1.459   1.439  0.00  0.00     0.048 A 
ATOM      6  C5  UNL d   1       3.260   1.228   0.666  0.00  0.00     0.003 A 
ATOM      7  I   UNL d   1      -0.780   1.177   2.249  0.00  0.00    -0.146 I 
ENDROOT
TORSDOF 0
ENDMDL
