MODEL 1
REMARK minimizedAffinity 12.4922056
REMARK minimizedRMSD -1
REMARK  0 active torsions:
REMARK  status: ('A' for Active; 'I' for Inactive)
ROOT
ATOM      1  C   UNL d   1       2.078   5.979   0.204  0.00  0.00     0.023 A 
ATOM      2  C1  UNL d   1       0.703   5.978   0.439  0.00  0.00     0.003 A 
ATOM      3  C2  UNL d   1      -0.190   5.982  -0.634  0.00  0.00     0.048 A 
ATOM      4  C3  UNL d   1       0.299   5.985  -1.940  0.00  0.00     0.023 A 
ATOM      5  C4  UNL d   1       1.674   5.985  -2.180  0.00  0.00     0.048 A 
ATOM      6  C5  UNL d   1       2.563   5.983  -1.104  0.00  0.00     0.003 A 
ATOM      7  I   UNL d   1      -1.028   5.991  -3.540  0.00  0.00    -0.146 I 
ENDROOT
TORSDOF 0
ENDMDL
