MODEL 1
REMARK minimizedAffinity 10.6814899
REMARK minimizedRMSD -1
REMARK  0 active torsions:
REMARK  status: ('A' for Active; 'I' for Inactive)
ROOT
ATOM      1  C   UNL d   1       0.967   1.417   3.310  0.00  0.00     0.023 A 
ATOM      2  C1  UNL d   1      -0.153   2.187   2.996  0.00  0.00     0.003 A 
ATOM      3  C2  UNL d   1      -0.008   3.370   2.268  0.00  0.00     0.048 A 
ATOM      4  C3  UNL d   1       1.261   3.777   1.858  0.00  0.00     0.023 A 
ATOM      5  C4  UNL d   1       2.385   3.010   2.170  0.00  0.00     0.048 A 
ATOM      6  C5  UNL d   1       2.234   1.828   2.898  0.00  0.00     0.003 A 
ATOM      7  I   UNL d   1       1.481   5.538   0.775  0.00  0.00    -0.146 I 
ENDROOT
TORSDOF 0
ENDMDL
