MODEL 1
REMARK minimizedAffinity 15.5345831
REMARK minimizedRMSD -1
REMARK  0 active torsions:
REMARK  status: ('A' for Active; 'I' for Inactive)
ROOT
ATOM      1  C   UNL d   1      -4.124  -3.242  -6.000  0.00  0.00     0.023 A 
ATOM      2  C1  UNL d   1      -3.593  -4.532  -6.000  0.00  0.00     0.003 A 
ATOM      3  C2  UNL d   1      -2.622  -4.888  -5.062  0.00  0.00     0.048 A 
ATOM      4  C3  UNL d   1      -2.188  -3.950  -4.126  0.00  0.00     0.023 A 
ATOM      5  C4  UNL d   1      -2.717  -2.659  -4.121  0.00  0.00     0.048 A 
ATOM      6  C5  UNL d   1      -3.687  -2.307  -5.062  0.00  0.00     0.003 A 
ATOM      7  I   UNL d   1      -0.742  -4.478  -2.728  0.00  0.00    -0.146 I 
ENDROOT
TORSDOF 0
ENDMDL
