MODEL 1
REMARK minimizedAffinity 9.82738495
REMARK minimizedRMSD -1
REMARK  0 active torsions:
REMARK  status: ('A' for Active; 'I' for Inactive)
ROOT
ATOM      1  C   UNL d   1      -3.121   0.580   4.016  0.00  0.00     0.023 A 
ATOM      2  C1  UNL d   1      -3.101   0.760   5.399  0.00  0.00     0.003 A 
ATOM      3  C2  UNL d   1      -3.738   1.864   5.970  0.00  0.00     0.048 A 
ATOM      4  C3  UNL d   1      -4.393   2.784   5.152  0.00  0.00     0.023 A 
ATOM      5  C4  UNL d   1      -4.416   2.608   3.768  0.00  0.00     0.048 A 
ATOM      6  C5  UNL d   1      -3.777   1.503   3.201  0.00  0.00     0.003 A 
ATOM      7  I   UNL d   1      -5.342   4.427   6.000  0.00  0.00    -0.146 I 
ENDROOT
TORSDOF 0
ENDMDL
