MODEL 1
REMARK minimizedAffinity 16.0588684
REMARK minimizedRMSD -1
REMARK  0 active torsions:
REMARK  status: ('A' for Active; 'I' for Inactive)
ROOT
ATOM      1  C   UNL d   1       2.402   0.141  -2.282  0.00  0.00     0.023 A 
ATOM      2  C1  UNL d   1       2.910   1.193  -1.519  0.00  0.00     0.003 A 
ATOM      3  C2  UNL d   1       2.458   1.392  -0.213  0.00  0.00     0.048 A 
ATOM      4  C3  UNL d   1       1.498   0.535   0.325  0.00  0.00     0.023 A 
ATOM      5  C4  UNL d   1       0.988  -0.519  -0.435  0.00  0.00     0.048 A 
ATOM      6  C5  UNL d   1       1.442  -0.714  -1.740  0.00  0.00     0.003 A 
ATOM      7  I   UNL d   1       0.824   0.829   2.268  0.00  0.00    -0.146 I 
ENDROOT
TORSDOF 0
ENDMDL
