MODEL 1
REMARK minimizedAffinity -4.27408552
REMARK minimizedRMSD -1
REMARK  0 active torsions:
REMARK  status: ('A' for Active; 'I' for Inactive)
ROOT
ATOM      1  N1  IND d   1      -1.283   2.280  -0.109  0.00  0.00    -0.196 N 
ATOM      2  C2  IND d   1      -2.116   2.607   0.924  0.00  0.00     0.054 A 
ATOM      3  C3  IND d   1      -2.229   1.570   1.784  0.00  0.00    -0.031 A 
ATOM      4  C4  IND d   1      -1.057  -0.722   1.745  0.00  0.00     0.051 A 
ATOM      5  C5  IND d   1      -0.233  -1.497   0.979  0.00  0.00    -0.031 A 
ATOM      6  C6  IND d   1       0.297  -1.043  -0.212  0.00  0.00     0.015 A 
ATOM      7  C7  IND d   1       0.029   0.213  -0.677  0.00  0.00    -0.016 A 
ATOM      8  C8  IND d   1      -0.813   1.001   0.095  0.00  0.00    -0.047 A 
ATOM      9  C9  IND d   1      -1.388   0.530   1.282  0.00  0.00    -0.096 A 
ATOM     10  HN1 IND d   1      -1.086   2.787  -0.775  0.00  0.00     0.298 HD
ENDROOT
TORSDOF 0
ENDMDL
