MODEL 1
REMARK minimizedAffinity -5.45229769
REMARK minimizedRMSD -1
REMARK  0 active torsions:
REMARK  status: ('A' for Active; 'I' for Inactive)
ROOT
ATOM      1  N1  IND d   1      -0.184   2.424  -0.682  0.00  0.00    -0.196 N 
ATOM      2  C2  IND d   1      -0.823   3.437  -0.022  0.00  0.00     0.054 A 
ATOM      3  C3  IND d   1      -1.456   2.959   1.073  0.00  0.00    -0.031 A 
ATOM      4  C4  IND d   1      -1.494   0.568   2.027  0.00  0.00     0.051 A 
ATOM      5  C5  IND d   1      -1.087  -0.707   1.753  0.00  0.00    -0.031 A 
ATOM      6  C6  IND d   1      -0.341  -1.010   0.632  0.00  0.00     0.015 A 
ATOM      7  C7  IND d   1       0.037  -0.042  -0.254  0.00  0.00    -0.016 A 
ATOM      8  C8  IND d   1      -0.380   1.253   0.017  0.00  0.00    -0.047 A 
ATOM      9  C9  IND d   1      -1.174   1.560   1.130  0.00  0.00    -0.096 A 
ATOM     10  HN1 IND d   1       0.264   2.505  -1.411  0.00  0.00     0.298 HD
ENDROOT
TORSDOF 0
ENDMDL
