MODEL 1
REMARK minimizedAffinity -1.130777
REMARK minimizedRMSD -1
REMARK  0 active torsions:
REMARK  status: ('A' for Active; 'I' for Inactive)
ROOT
ATOM      1  N1  IND d   1       0.522   0.378   0.178  0.00  0.00    -0.196 N 
ATOM      2  C2  IND d   1       0.221  -0.850   0.696  0.00  0.00     0.054 A 
ATOM      3  C3  IND d   1      -0.736  -0.739   1.644  0.00  0.00    -0.031 A 
ATOM      4  C4  IND d   1      -2.023   1.346   2.433  0.00  0.00     0.051 A 
ATOM      5  C5  IND d   1      -2.073   2.703   2.279  0.00  0.00    -0.031 A 
ATOM      6  C6  IND d   1      -1.246   3.368   1.396  0.00  0.00     0.015 A 
ATOM      7  C7  IND d   1      -0.342   2.696   0.624  0.00  0.00    -0.016 A 
ATOM      8  C8  IND d   1      -0.283   1.318   0.783  0.00  0.00    -0.047 A 
ATOM      9  C9  IND d   1      -1.090   0.643   1.708  0.00  0.00    -0.096 A 
ATOM     10  HN1 IND d   1       1.114   0.537  -0.425  0.00  0.00     0.298 HD
ENDROOT
TORSDOF 0
ENDMDL
