MODEL 1
REMARK minimizedAffinity -4.31143379
REMARK minimizedRMSD -1
REMARK  0 active torsions:
REMARK  status: ('A' for Active; 'I' for Inactive)
ROOT
ATOM      1  N1  IND d   1       0.608  -0.522   1.245  0.00  0.00    -0.196 N 
ATOM      2  C2  IND d   1       1.360  -0.556   0.104  0.00  0.00     0.054 A 
ATOM      3  C3  IND d   1       0.814   0.239  -0.843  0.00  0.00    -0.031 A 
ATOM      4  C4  IND d   1      -1.254   1.766  -0.703  0.00  0.00     0.051 A 
ATOM      5  C5  IND d   1      -2.288   2.106   0.123  0.00  0.00    -0.031 A 
ATOM      6  C6  IND d   1      -2.410   1.579   1.393  0.00  0.00     0.015 A 
ATOM      7  C7  IND d   1      -1.493   0.697   1.889  0.00  0.00    -0.016 A 
ATOM      8  C8  IND d   1      -0.445   0.344   1.050  0.00  0.00    -0.047 A 
ATOM      9  C9  IND d   1      -0.339   0.843  -0.255  0.00  0.00    -0.096 A 
ATOM     10  HN1 IND d   1       0.767  -0.967   1.964  0.00  0.00     0.298 HD
ENDROOT
TORSDOF 0
ENDMDL
