MODEL 1
REMARK minimizedAffinity -4.68174076
REMARK minimizedRMSD -1
REMARK  0 active torsions:
REMARK  status: ('A' for Active; 'I' for Inactive)
ROOT
ATOM      1  N1  IND d   1       0.768   0.509  -0.845  0.00  0.00    -0.196 N 
ATOM      2  C2  IND d   1       1.259  -0.729  -0.536  0.00  0.00     0.054 A 
ATOM      3  C3  IND d   1       0.585  -1.254   0.513  0.00  0.00    -0.031 A 
ATOM      4  C4  IND d   1      -1.424  -0.300   1.808  0.00  0.00     0.051 A 
ATOM      5  C5  IND d   1      -2.205   0.817   1.916  0.00  0.00    -0.031 A 
ATOM      6  C6  IND d   1      -2.032   1.910   1.090  0.00  0.00     0.015 A 
ATOM      7  C7  IND d   1      -1.076   1.921   0.114  0.00  0.00    -0.016 A 
ATOM      8  C8  IND d   1      -0.277   0.791   0.007  0.00  0.00    -0.047 A 
ATOM      9  C9  IND d   1      -0.420  -0.303   0.870  0.00  0.00    -0.096 A 
ATOM     10  HN1 IND d   1       1.063   1.025  -1.466  0.00  0.00     0.298 HD
ENDROOT
TORSDOF 0
ENDMDL
