MODEL 1
REMARK minimizedAffinity -1.55965221
REMARK minimizedRMSD -1
REMARK  0 active torsions:
REMARK  status: ('A' for Active; 'I' for Inactive)
ROOT
ATOM      1  N1  IND d   1      -0.119  -0.085  -1.523  0.00  0.00    -0.196 N 
ATOM      2  C2  IND d   1       0.755  -1.136  -1.546  0.00  0.00     0.054 A 
ATOM      3  C3  IND d   1       1.077  -1.508  -0.287  0.00  0.00    -0.031 A 
ATOM      4  C4  IND d   1       0.210  -0.599   1.960  0.00  0.00     0.051 A 
ATOM      5  C5  IND d   1      -0.575   0.385   2.493  0.00  0.00    -0.031 A 
ATOM      6  C6  IND d   1      -1.264   1.279   1.698  0.00  0.00     0.015 A 
ATOM      7  C7  IND d   1      -1.202   1.215   0.335  0.00  0.00    -0.016 A 
ATOM      8  C8  IND d   1      -0.401   0.221  -0.210  0.00  0.00    -0.047 A 
ATOM      9  C9  IND d   1       0.334  -0.662   0.592  0.00  0.00    -0.096 A 
ATOM     10  HN1 IND d   1      -0.439   0.317  -2.212  0.00  0.00     0.298 HD
ENDROOT
TORSDOF 0
ENDMDL
