MODEL 1
REMARK minimizedAffinity -4.10260582
REMARK minimizedRMSD -1
REMARK  0 active torsions:
REMARK  status: ('A' for Active; 'I' for Inactive)
ROOT
ATOM      1  N1  IND d   1      -1.239   1.429   2.369  0.00  0.00    -0.196 N 
ATOM      2  C2  IND d   1      -1.877   2.409   1.661  0.00  0.00     0.054 A 
ATOM      3  C3  IND d   1      -1.644   2.261   0.337  0.00  0.00    -0.031 A 
ATOM      4  C4  IND d   1      -0.327   0.424  -0.896  0.00  0.00     0.051 A 
ATOM      5  C5  IND d   1       0.466  -0.667  -0.673  0.00  0.00    -0.031 A 
ATOM      6  C6  IND d   1       0.734  -1.126   0.601  0.00  0.00     0.015 A 
ATOM      7  C7  IND d   1       0.208  -0.515   1.703  0.00  0.00    -0.016 A 
ATOM      8  C8  IND d   1      -0.592   0.598   1.481  0.00  0.00    -0.047 A 
ATOM      9  C9  IND d   1      -0.833   1.093   0.194  0.00  0.00    -0.096 A 
ATOM     10  HN1 IND d   1      -1.241   1.347   3.225  0.00  0.00     0.298 HD
ENDROOT
TORSDOF 0
ENDMDL
