MODEL 1
REMARK minimizedAffinity -4.57102776
REMARK minimizedRMSD -1
REMARK  0 active torsions:
REMARK  status: ('A' for Active; 'I' for Inactive)
ROOT
ATOM      1  N1  IND d   1      -1.572   2.020  -0.016  0.00  0.00    -0.196 N 
ATOM      2  C2  IND d   1      -2.057   1.844   1.250  0.00  0.00     0.054 A 
ATOM      3  C3  IND d   1      -1.463   0.782   1.838  0.00  0.00    -0.031 A 
ATOM      4  C4  IND d   1       0.404  -0.750   0.946  0.00  0.00     0.051 A 
ATOM      5  C5  IND d   1       1.145  -1.004  -0.174  0.00  0.00    -0.031 A 
ATOM      6  C6  IND d   1       1.017  -0.247  -1.321  0.00  0.00     0.015 A 
ATOM      7  C7  IND d   1       0.148   0.805  -1.387  0.00  0.00    -0.016 A 
ATOM      8  C8  IND d   1      -0.611   1.062  -0.254  0.00  0.00    -0.047 A 
ATOM      9  C9  IND d   1      -0.516   0.271   0.898  0.00  0.00    -0.096 A 
ATOM     10  HN1 IND d   1      -1.825   2.626  -0.570  0.00  0.00     0.298 HD
ENDROOT
TORSDOF 0
ENDMDL
