MODEL 1
REMARK minimizedAffinity -4.03495646
REMARK minimizedRMSD -1
REMARK  0 active torsions:
REMARK  status: ('A' for Active; 'I' for Inactive)
ROOT
ATOM      1  N1  IND d   1      -0.031   0.894  -1.381  0.00  0.00    -0.196 N 
ATOM      2  C2  IND d   1       0.636  -0.279  -1.603  0.00  0.00     0.054 A 
ATOM      3  C3  IND d   1       0.699  -1.006  -0.465  0.00  0.00    -0.031 A 
ATOM      4  C4  IND d   1      -0.314  -0.512   1.850  0.00  0.00     0.051 A 
ATOM      5  C5  IND d   1      -0.981   0.453   2.550  0.00  0.00    -0.031 A 
ATOM      6  C6  IND d   1      -1.375   1.638   1.963  0.00  0.00     0.015 A 
ATOM      7  C7  IND d   1      -1.127   1.898   0.645  0.00  0.00    -0.016 A 
ATOM      8  C8  IND d   1      -0.444   0.922  -0.067  0.00  0.00    -0.047 A 
ATOM      9  C9  IND d   1      -0.003  -0.264   0.534  0.00  0.00    -0.096 A 
ATOM     10  HN1 IND d   1      -0.170   1.510  -1.965  0.00  0.00     0.298 HD
ENDROOT
TORSDOF 0
ENDMDL
