MODEL 1
REMARK minimizedAffinity -6.35096693
REMARK minimizedRMSD -1
REMARK  0 active torsions:
REMARK  status: ('A' for Active; 'I' for Inactive)
ROOT
ATOM      1  N1  IND d   1       0.378  -0.149  -0.909  0.00  0.00    -0.196 N 
ATOM      2  C2  IND d   1       0.462  -1.167  -0.001  0.00  0.00     0.054 A 
ATOM      3  C3  IND d   1      -0.081  -0.792   1.179  0.00  0.00    -0.031 A 
ATOM      4  C4  IND d   1      -1.256   1.409   1.812  0.00  0.00     0.051 A 
ATOM      5  C5  IND d   1      -1.545   2.654   1.327  0.00  0.00    -0.031 A 
ATOM      6  C6  IND d   1      -1.204   3.035   0.046  0.00  0.00     0.015 A 
ATOM      7  C7  IND d   1      -0.568   2.177  -0.807  0.00  0.00    -0.016 A 
ATOM      8  C8  IND d   1      -0.266   0.915  -0.315  0.00  0.00    -0.047 A 
ATOM      9  C9  IND d   1      -0.572   0.537   0.998  0.00  0.00    -0.096 A 
ATOM     10  HN1 IND d   1       0.676  -0.169  -1.715  0.00  0.00     0.298 HD
ENDROOT
TORSDOF 0
ENDMDL
