MODEL 1
REMARK minimizedAffinity -2.70081234
REMARK minimizedRMSD -1
REMARK  0 active torsions:
REMARK  status: ('A' for Active; 'I' for Inactive)
ROOT
ATOM      1  N1  IND d   1      -2.822   1.833   1.221  0.00  0.00    -0.196 N 
ATOM      2  C2  IND d   1      -3.313   1.774  -0.053  0.00  0.00     0.054 A 
ATOM      3  C3  IND d   1      -2.438   1.139  -0.865  0.00  0.00    -0.031 A 
ATOM      4  C4  IND d   1      -0.187   0.028  -0.294  0.00  0.00     0.051 A 
ATOM      5  C5  IND d   1       0.699  -0.146   0.732  0.00  0.00    -0.031 A 
ATOM      6  C6  IND d   1       0.450   0.339   2.000  0.00  0.00     0.015 A 
ATOM      7  C7  IND d   1      -0.704   1.008   2.293  0.00  0.00    -0.016 A 
ATOM      8  C8  IND d   1      -1.603   1.193   1.252  0.00  0.00    -0.047 A 
ATOM      9  C9  IND d   1      -1.337   0.740  -0.047  0.00  0.00    -0.096 A 
ATOM     10  HN1 IND d   1      -3.210   2.208   1.891  0.00  0.00     0.298 HD
ENDROOT
TORSDOF 0
ENDMDL
