MODEL 1
REMARK minimizedAffinity -5.803936
REMARK minimizedRMSD -1
REMARK  0 active torsions:
REMARK  status: ('A' for Active; 'I' for Inactive)
ROOT
ATOM      1  N1  IND d   1       1.109   0.688  -0.653  0.00  0.00    -0.196 N 
ATOM      2  C2  IND d   1       1.020  -0.518  -0.015  0.00  0.00     0.054 A 
ATOM      3  C3  IND d   1       0.103  -0.459   0.977  0.00  0.00    -0.031 A 
ATOM      4  C4  IND d   1      -1.442   1.483   1.662  0.00  0.00     0.051 A 
ATOM      5  C5  IND d   1      -1.701   2.799   1.397  0.00  0.00    -0.031 A 
ATOM      6  C6  IND d   1      -1.026   3.491   0.412  0.00  0.00     0.015 A 
ATOM      7  C7  IND d   1      -0.069   2.887  -0.354  0.00  0.00    -0.016 A 
ATOM      8  C8  IND d   1       0.202   1.554  -0.082  0.00  0.00    -0.047 A 
ATOM      9  C9  IND d   1      -0.450   0.858   0.944  0.00  0.00    -0.096 A 
ATOM     10  HN1 IND d   1       1.642   0.874  -1.302  0.00  0.00     0.298 HD
ENDROOT
TORSDOF 0
ENDMDL
