MODEL 1
REMARK minimizedAffinity -6.00920391
REMARK minimizedRMSD -1
REMARK  0 active torsions:
REMARK  status: ('A' for Active; 'I' for Inactive)
ROOT
ATOM      1  N1  IND d   1      -0.267   2.638  -0.888  0.00  0.00    -0.196 N 
ATOM      2  C2  IND d   1      -1.041   3.534  -0.205  0.00  0.00     0.054 A 
ATOM      3  C3  IND d   1      -1.511   2.977   0.934  0.00  0.00    -0.031 A 
ATOM      4  C4  IND d   1      -1.052   0.646   1.925  0.00  0.00     0.051 A 
ATOM      5  C5  IND d   1      -0.433  -0.540   1.646  0.00  0.00    -0.031 A 
ATOM      6  C6  IND d   1       0.289  -0.731   0.486  0.00  0.00     0.015 A 
ATOM      7  C7  IND d   1       0.430   0.266  -0.437  0.00  0.00    -0.016 A 
ATOM      8  C8  IND d   1      -0.202   1.470  -0.160  0.00  0.00    -0.047 A 
ATOM      9  C9  IND d   1      -0.972   1.655   0.995  0.00  0.00    -0.096 A 
ATOM     10  HN1 IND d   1       0.116   2.780  -1.644  0.00  0.00     0.298 HD
ENDROOT
TORSDOF 0
ENDMDL
