MODEL 1
REMARK minimizedAffinity -3.4684813
REMARK minimizedRMSD -1
REMARK  0 active torsions:
REMARK  status: ('A' for Active; 'I' for Inactive)
ROOT
ATOM      1  N1  IND d   1      -1.092   1.131   2.511  0.00  0.00    -0.196 N 
ATOM      2  C2  IND d   1      -1.781   2.098   1.833  0.00  0.00     0.054 A 
ATOM      3  C3  IND d   1      -1.502   2.035   0.511  0.00  0.00    -0.031 A 
ATOM      4  C4  IND d   1      -0.026   0.360  -0.770  0.00  0.00     0.051 A 
ATOM      5  C5  IND d   1       0.837  -0.683  -0.578  0.00  0.00    -0.031 A 
ATOM      6  C6  IND d   1       1.104  -1.186   0.679  0.00  0.00     0.015 A 
ATOM      7  C7  IND d   1       0.506  -0.670   1.795  0.00  0.00    -0.016 A 
ATOM      8  C8  IND d   1      -0.365   0.393   1.604  0.00  0.00    -0.047 A 
ATOM      9  C9  IND d   1      -0.607   0.936   0.335  0.00  0.00    -0.096 A 
ATOM     10  HN1 IND d   1      -1.111   1.005   3.361  0.00  0.00     0.298 HD
ENDROOT
TORSDOF 0
ENDMDL
