MODEL 1
REMARK minimizedAffinity -2.47439408
REMARK minimizedRMSD -1
REMARK  0 active torsions:
REMARK  status: ('A' for Active; 'I' for Inactive)
ROOT
ATOM      1  N1  IND d   1      -0.785  -0.386  -0.760  0.00  0.00    -0.196 N 
ATOM      2  C2  IND d   1       0.470  -0.918  -0.656  0.00  0.00     0.054 A 
ATOM      3  C3  IND d   1       1.104  -0.418   0.428  0.00  0.00    -0.031 A 
ATOM      4  C4  IND d   1       0.236   1.207   2.226  0.00  0.00     0.051 A 
ATOM      5  C5  IND d   1      -0.838   1.992   2.541  0.00  0.00    -0.031 A 
ATOM      6  C6  IND d   1      -1.973   2.023   1.757  0.00  0.00     0.015 A 
ATOM      7  C7  IND d   1      -2.081   1.258   0.630  0.00  0.00    -0.016 A 
ATOM      8  C8  IND d   1      -0.990   0.465   0.304  0.00  0.00    -0.047 A 
ATOM      9  C9  IND d   1       0.181   0.461   1.072  0.00  0.00    -0.096 A 
ATOM     10  HN1 IND d   1      -1.352  -0.555  -1.385  0.00  0.00     0.298 HD
ENDROOT
TORSDOF 0
ENDMDL
