MODEL 1
REMARK minimizedAffinity -4.76764631
REMARK minimizedRMSD -1
REMARK  0 active torsions:
REMARK  status: ('A' for Active; 'I' for Inactive)
ROOT
ATOM      1  N1  IND d   1       0.206  -0.520   1.165  0.00  0.00    -0.196 N 
ATOM      2  C2  IND d   1       0.508  -0.880  -0.119  0.00  0.00     0.054 A 
ATOM      3  C3  IND d   1      -0.094  -0.045  -0.995  0.00  0.00    -0.031 A 
ATOM      4  C4  IND d   1      -1.536   2.039  -0.541  0.00  0.00     0.051 A 
ATOM      5  C5  IND d   1      -2.119   2.746   0.473  0.00  0.00    -0.031 A 
ATOM      6  C6  IND d   1      -1.950   2.395   1.797  0.00  0.00     0.015 A 
ATOM      7  C7  IND d   1      -1.180   1.326   2.158  0.00  0.00    -0.016 A 
ATOM      8  C8  IND d   1      -0.593   0.601   1.130  0.00  0.00    -0.047 A 
ATOM      9  C9  IND d   1      -0.795   0.927  -0.217  0.00  0.00    -0.096 A 
ATOM     10  HN1 IND d   1       0.471  -0.926   1.875  0.00  0.00     0.298 HD
ENDROOT
TORSDOF 0
ENDMDL
