MODEL 1
REMARK minimizedAffinity -5.4752264
REMARK minimizedRMSD -1
REMARK  0 active torsions:
REMARK  status: ('A' for Active; 'I' for Inactive)
ROOT
ATOM      1  N1  IND d   1       0.338   2.324  -1.010  0.00  0.00    -0.196 N 
ATOM      2  C2  IND d   1      -0.269   3.509  -0.702  0.00  0.00     0.054 A 
ATOM      3  C3  IND d   1      -1.051   3.367   0.392  0.00  0.00    -0.031 A 
ATOM      4  C4  IND d   1      -1.405   1.305   1.892  0.00  0.00     0.051 A 
ATOM      5  C5  IND d   1      -1.091  -0.021   1.992  0.00  0.00    -0.031 A 
ATOM      6  C6  IND d   1      -0.266  -0.646   1.079  0.00  0.00     0.015 A 
ATOM      7  C7  IND d   1       0.288   0.039   0.034  0.00  0.00    -0.016 A 
ATOM      8  C8  IND d   1      -0.035   1.384  -0.074  0.00  0.00    -0.047 A 
ATOM      9  C9  IND d   1      -0.905   2.014   0.825  0.00  0.00    -0.096 A 
ATOM     10  HN1 IND d   1       0.864   2.188  -1.677  0.00  0.00     0.298 HD
ENDROOT
TORSDOF 0
ENDMDL
