MODEL 1
REMARK minimizedAffinity -3.13697863
REMARK minimizedRMSD -1
REMARK  0 active torsions:
REMARK  status: ('A' for Active; 'I' for Inactive)
ROOT
ATOM      1  C   UNL d   1       0.640   1.541  -1.184  0.00  0.00     0.078 C 
ATOM      2  C1  UNL d   1       0.266   0.858   0.097  0.00  0.00    -0.077 A 
ATOM      3  C2  UNL d   1       0.995  -0.241   0.568  0.00  0.00    -0.001 A 
ATOM      4  C3  UNL d   1       0.630  -0.873   1.758  0.00  0.00     0.003 A 
ATOM      5  C4  UNL d   1      -0.465  -0.413   2.487  0.00  0.00    -0.005 A 
ATOM      6  C5  UNL d   1      -1.198   0.678   2.025  0.00  0.00     0.003 A 
ATOM      7  C6  UNL d   1      -0.835   1.311   0.835  0.00  0.00    -0.001 A 
ENDROOT
TORSDOF 0
ENDMDL
