MODEL 1
REMARK minimizedAffinity -4.46313953
REMARK minimizedRMSD -1
REMARK  0 active torsions:
REMARK  status: ('A' for Active; 'I' for Inactive)
ROOT
ATOM      1  C   UNL d   1      -2.326   2.098   1.195  0.00  0.00     0.078 C 
ATOM      2  C1  UNL d   1      -1.224   1.167   0.790  0.00  0.00    -0.077 A 
ATOM      3  C2  UNL d   1      -0.738   1.153  -0.523  0.00  0.00    -0.001 A 
ATOM      4  C3  UNL d   1       0.283   0.273  -0.889  0.00  0.00     0.003 A 
ATOM      5  C4  UNL d   1       0.825  -0.600   0.052  0.00  0.00    -0.005 A 
ATOM      6  C5  UNL d   1       0.346  -0.595   1.360  0.00  0.00     0.003 A 
ATOM      7  C6  UNL d   1      -0.674   0.284   1.728  0.00  0.00    -0.001 A 
ENDROOT
TORSDOF 0
ENDMDL
