MODEL 1
REMARK minimizedAffinity -3.75012517
REMARK minimizedRMSD -1
REMARK  0 active torsions:
REMARK  status: ('A' for Active; 'I' for Inactive)
ROOT
ATOM      1  C   UNL d   1      -1.215   2.303   2.196  0.00  0.00     0.078 C 
ATOM      2  C1  UNL d   1      -0.508   1.318   1.314  0.00  0.00    -0.077 A 
ATOM      3  C2  UNL d   1       0.112   1.728   0.127  0.00  0.00    -0.001 A 
ATOM      4  C3  UNL d   1       0.757   0.798  -0.689  0.00  0.00     0.003 A 
ATOM      5  C4  UNL d   1       0.788  -0.548  -0.329  0.00  0.00    -0.005 A 
ATOM      6  C5  UNL d   1       0.172  -0.965   0.849  0.00  0.00     0.003 A 
ATOM      7  C6  UNL d   1      -0.474  -0.037   1.667  0.00  0.00    -0.001 A 
ENDROOT
TORSDOF 0
ENDMDL
