MODEL 1
REMARK minimizedAffinity -1.51663113
REMARK minimizedRMSD -1
REMARK  0 active torsions:
REMARK  status: ('A' for Active; 'I' for Inactive)
ROOT
ATOM      1  C   UNL d   1       0.267  -2.152  -1.980  0.00  0.00     0.078 C 
ATOM      2  C1  UNL d   1      -0.072  -1.408  -0.723  0.00  0.00    -0.077 A 
ATOM      3  C2  UNL d   1       0.926  -0.787   0.038  0.00  0.00    -0.001 A 
ATOM      4  C3  UNL d   1       0.598  -0.105   1.211  0.00  0.00     0.003 A 
ATOM      5  C4  UNL d   1      -0.728  -0.039   1.634  0.00  0.00    -0.005 A 
ATOM      6  C5  UNL d   1      -1.728  -0.655   0.884  0.00  0.00     0.003 A 
ATOM      7  C6  UNL d   1      -1.401  -1.337  -0.289  0.00  0.00    -0.001 A 
ENDROOT
TORSDOF 0
ENDMDL
