MODEL 1
REMARK minimizedAffinity -4.2616663
REMARK minimizedRMSD -1
REMARK  0 active torsions:
REMARK  status: ('A' for Active; 'I' for Inactive)
ROOT
ATOM      1  C   UNL d   1       0.714  -0.558  -0.475  0.00  0.00     0.078 C 
ATOM      2  C1  UNL d   1      -0.256   0.216   0.367  0.00  0.00    -0.077 A 
ATOM      3  C2  UNL d   1      -0.831  -0.351   1.510  0.00  0.00    -0.001 A 
ATOM      4  C3  UNL d   1      -1.740   0.377   2.279  0.00  0.00     0.003 A 
ATOM      5  C4  UNL d   1      -2.083   1.677   1.912  0.00  0.00    -0.005 A 
ATOM      6  C5  UNL d   1      -1.517   2.249   0.774  0.00  0.00     0.003 A 
ATOM      7  C6  UNL d   1      -0.608   1.522   0.004  0.00  0.00    -0.001 A 
ENDROOT
TORSDOF 0
ENDMDL
