MODEL 1
REMARK minimizedAffinity -5.56649971
REMARK minimizedRMSD -1
REMARK  0 active torsions:
REMARK  status: ('A' for Active; 'I' for Inactive)
ROOT
ATOM      1  C   UNL d   1      -1.150   1.580   2.211  0.00  0.00     0.078 C 
ATOM      2  C1  UNL d   1      -0.786   1.930   0.799  0.00  0.00    -0.077 A 
ATOM      3  C2  UNL d   1      -0.709   3.265   0.384  0.00  0.00    -0.001 A 
ATOM      4  C3  UNL d   1      -0.379   3.576  -0.936  0.00  0.00     0.003 A 
ATOM      5  C4  UNL d   1      -0.123   2.558  -1.852  0.00  0.00    -0.005 A 
ATOM      6  C5  UNL d   1      -0.199   1.226  -1.448  0.00  0.00     0.003 A 
ATOM      7  C6  UNL d   1      -0.529   0.913  -0.129  0.00  0.00    -0.001 A 
ENDROOT
TORSDOF 0
ENDMDL
