MODEL 1
REMARK minimizedAffinity -3.52659917
REMARK minimizedRMSD -1
REMARK  0 active torsions:
REMARK  status: ('A' for Active; 'I' for Inactive)
ROOT
ATOM      1  C   UNL d   1       0.219   0.295   0.266  0.00  0.00     0.078 C 
ATOM      2  C1  UNL d   1       0.514  -0.855  -0.649  0.00  0.00    -0.077 A 
ATOM      3  C2  UNL d   1      -0.463  -1.353  -1.520  0.00  0.00    -0.001 A 
ATOM      4  C3  UNL d   1      -0.177  -2.431  -2.359  0.00  0.00     0.003 A 
ATOM      5  C4  UNL d   1       1.085  -3.022  -2.335  0.00  0.00    -0.005 A 
ATOM      6  C5  UNL d   1       2.063  -2.535  -1.470  0.00  0.00     0.003 A 
ATOM      7  C6  UNL d   1       1.779  -1.457  -0.630  0.00  0.00    -0.001 A 
ENDROOT
TORSDOF 0
ENDMDL
