MODEL 1
REMARK minimizedAffinity -5.16023922
REMARK minimizedRMSD -1
REMARK  0 active torsions:
REMARK  status: ('A' for Active; 'I' for Inactive)
ROOT
ATOM      1  C   UNL d   1      -2.579   2.012   1.076  0.00  0.00     0.078 C 
ATOM      2  C1  UNL d   1      -1.378   1.189   0.718  0.00  0.00    -0.077 A 
ATOM      3  C2  UNL d   1      -0.778   1.299  -0.543  0.00  0.00    -0.001 A 
ATOM      4  C3  UNL d   1       0.333   0.519  -0.866  0.00  0.00     0.003 A 
ATOM      5  C4  UNL d   1       0.854  -0.377   0.066  0.00  0.00    -0.005 A 
ATOM      6  C5  UNL d   1       0.263  -0.494   1.322  0.00  0.00     0.003 A 
ATOM      7  C6  UNL d   1      -0.848   0.284   1.647  0.00  0.00    -0.001 A 
ENDROOT
TORSDOF 0
ENDMDL
