MODEL 1
REMARK minimizedAffinity -5.9685111
REMARK minimizedRMSD -1
REMARK  0 active torsions:
REMARK  status: ('A' for Active; 'I' for Inactive)
ROOT
ATOM      1  C   UNL d   1       0.261  -0.250  -0.492  0.00  0.00     0.078 C 
ATOM      2  C1  UNL d   1      -0.503   0.881   0.131  0.00  0.00    -0.077 A 
ATOM      3  C2  UNL d   1      -0.214   2.212  -0.194  0.00  0.00    -0.001 A 
ATOM      4  C3  UNL d   1      -0.927   3.254   0.401  0.00  0.00     0.003 A 
ATOM      5  C4  UNL d   1      -1.932   2.977   1.324  0.00  0.00    -0.005 A 
ATOM      6  C5  UNL d   1      -2.226   1.655   1.656  0.00  0.00     0.003 A 
ATOM      7  C6  UNL d   1      -1.514   0.611   1.062  0.00  0.00    -0.001 A 
ENDROOT
TORSDOF 0
ENDMDL
