MODEL 1
REMARK minimizedAffinity -5.32736015
REMARK minimizedRMSD -1
REMARK  0 active torsions:
REMARK  status: ('A' for Active; 'I' for Inactive)
ROOT
ATOM      1  C   UNL d   1       1.042  -0.572  -0.370  0.00  0.00     0.078 C 
ATOM      2  C1  UNL d   1       0.164   0.469   0.257  0.00  0.00    -0.077 A 
ATOM      3  C2  UNL d   1      -0.380   0.280   1.534  0.00  0.00    -0.001 A 
ATOM      4  C3  UNL d   1      -1.203   1.253   2.101  0.00  0.00     0.003 A 
ATOM      5  C4  UNL d   1      -1.491   2.422   1.400  0.00  0.00    -0.005 A 
ATOM      6  C5  UNL d   1      -0.956   2.618   0.128  0.00  0.00     0.003 A 
ATOM      7  C6  UNL d   1      -0.133   1.646  -0.441  0.00  0.00    -0.001 A 
ENDROOT
TORSDOF 0
ENDMDL
