MODEL 1
REMARK minimizedAffinity -5.56450176
REMARK minimizedRMSD -1
REMARK  0 active torsions:
REMARK  status: ('A' for Active; 'I' for Inactive)
ROOT
ATOM      1  C   UNL d   1       0.382  -0.692  -0.572  0.00  0.00     0.078 C 
ATOM      2  C1  UNL d   1      -0.362   0.470   0.016  0.00  0.00    -0.077 A 
ATOM      3  C2  UNL d   1      -0.246   1.753  -0.533  0.00  0.00    -0.001 A 
ATOM      4  C3  UNL d   1      -0.937   2.827   0.030  0.00  0.00     0.003 A 
ATOM      5  C4  UNL d   1      -1.747   2.630   1.147  0.00  0.00    -0.005 A 
ATOM      6  C5  UNL d   1      -1.866   1.358   1.702  0.00  0.00     0.003 A 
ATOM      7  C6  UNL d   1      -1.176   0.282   1.140  0.00  0.00    -0.001 A 
ENDROOT
TORSDOF 0
ENDMDL
