MODEL 1
REMARK minimizedAffinity -5.94319057
REMARK minimizedRMSD -1
REMARK  0 active torsions:
REMARK  status: ('A' for Active; 'I' for Inactive)
ROOT
ATOM      1  C   UNL d   1       0.133   3.733  -0.756  0.00  0.00     0.078 C 
ATOM      2  C1  UNL d   1      -0.511   2.632   0.033  0.00  0.00    -0.077 A 
ATOM      3  C2  UNL d   1      -1.457   2.915   1.026  0.00  0.00    -0.001 A 
ATOM      4  C3  UNL d   1      -2.041   1.882   1.760  0.00  0.00     0.003 A 
ATOM      5  C4  UNL d   1      -1.685   0.558   1.510  0.00  0.00    -0.005 A 
ATOM      6  C5  UNL d   1      -0.742   0.267   0.526  0.00  0.00     0.003 A 
ATOM      7  C6  UNL d   1      -0.157   1.299  -0.209  0.00  0.00    -0.001 A 
ENDROOT
TORSDOF 0
ENDMDL
