MODEL 1
REMARK minimizedAffinity -2.87237215
REMARK minimizedRMSD -1
REMARK  0 active torsions:
REMARK  status: ('A' for Active; 'I' for Inactive)
ROOT
ATOM      1  C   UNL d   1       1.207  -1.010  -0.841  0.00  0.00     0.078 C 
ATOM      2  C1  UNL d   1       0.534  -0.326   0.311  0.00  0.00    -0.077 A 
ATOM      3  C2  UNL d   1      -0.706   0.304   0.150  0.00  0.00    -0.001 A 
ATOM      4  C3  UNL d   1      -1.317   0.946   1.229  0.00  0.00     0.003 A 
ATOM      5  C4  UNL d   1      -0.695   0.965   2.475  0.00  0.00    -0.005 A 
ATOM      6  C5  UNL d   1       0.540   0.342   2.644  0.00  0.00     0.003 A 
ATOM      7  C6  UNL d   1       1.152  -0.300   1.567  0.00  0.00    -0.001 A 
ENDROOT
TORSDOF 0
ENDMDL
