MODEL 1
REMARK minimizedAffinity -4.5402565
REMARK minimizedRMSD -1
REMARK  0 active torsions:
REMARK  status: ('A' for Active; 'I' for Inactive)
ROOT
ATOM      1  C   UNL d   1       0.703  -1.078  -0.877  0.00  0.00     0.078 C 
ATOM      2  C1  UNL d   1      -0.013  -0.027  -0.083  0.00  0.00    -0.077 A 
ATOM      3  C2  UNL d   1      -0.668  -0.347   1.113  0.00  0.00    -0.001 A 
ATOM      4  C3  UNL d   1      -1.339   0.640   1.836  0.00  0.00     0.003 A 
ATOM      5  C4  UNL d   1      -1.363   1.954   1.372  0.00  0.00    -0.005 A 
ATOM      6  C5  UNL d   1      -0.716   2.282   0.182  0.00  0.00     0.003 A 
ATOM      7  C6  UNL d   1      -0.044   1.296  -0.543  0.00  0.00    -0.001 A 
ENDROOT
TORSDOF 0
ENDMDL
