MODEL 1
REMARK minimizedAffinity -5.73857117
REMARK minimizedRMSD -1
REMARK  0 active torsions:
REMARK  status: ('A' for Active; 'I' for Inactive)
ROOT
ATOM      1  C   UNL d   1       0.167   3.795  -1.215  0.00  0.00     0.078 C 
ATOM      2  C1  UNL d   1      -0.483   2.798  -0.303  0.00  0.00    -0.077 A 
ATOM      3  C2  UNL d   1      -1.330   3.212   0.732  0.00  0.00    -0.001 A 
ATOM      4  C3  UNL d   1      -1.920   2.273   1.580  0.00  0.00     0.003 A 
ATOM      5  C4  UNL d   1      -1.669   0.914   1.402  0.00  0.00    -0.005 A 
ATOM      6  C5  UNL d   1      -0.825   0.493   0.376  0.00  0.00     0.003 A 
ATOM      7  C6  UNL d   1      -0.234   1.430  -0.473  0.00  0.00    -0.001 A 
ENDROOT
TORSDOF 0
ENDMDL
