MODEL 1
REMARK minimizedAffinity -5.52902555
REMARK minimizedRMSD -1
REMARK  0 active torsions:
REMARK  status: ('A' for Active; 'I' for Inactive)
ROOT
ATOM      1  C   UNL d   1      -0.113   3.435  -1.198  0.00  0.00     0.078 C 
ATOM      2  C1  UNL d   1      -0.755   2.638  -0.102  0.00  0.00    -0.077 A 
ATOM      3  C2  UNL d   1      -0.525   1.262   0.019  0.00  0.00    -0.001 A 
ATOM      4  C3  UNL d   1      -1.137   0.530   1.038  0.00  0.00     0.003 A 
ATOM      5  C4  UNL d   1      -1.984   1.166   1.943  0.00  0.00    -0.005 A 
ATOM      6  C5  UNL d   1      -2.221   2.534   1.830  0.00  0.00     0.003 A 
ATOM      7  C6  UNL d   1      -1.610   3.267   0.812  0.00  0.00    -0.001 A 
ENDROOT
TORSDOF 0
ENDMDL
