MODEL 1
REMARK minimizedAffinity -0.963680863
REMARK minimizedRMSD -1
REMARK  1 active torsions:
REMARK  status: ('A' for Active; 'I' for Inactive)
REMARK    1  A    between atoms: C1_2  and  C2_3 
ROOT
ATOM      1  C2  UNL d   1      -4.913   4.522  -3.683  0.00  0.00    -0.073 A 
ATOM      2  C3  UNL d   1      -5.182   4.193  -2.350  0.00  0.00    -0.002 A 
ATOM      3  C4  UNL d   1      -5.720   2.947  -2.026  0.00  0.00     0.004 A 
ATOM      4  C5  UNL d   1      -5.987   2.015  -3.028  0.00  0.00    -0.004 A 
ATOM      5  C6  UNL d   1      -5.715   2.320  -4.366  0.00  0.00    -0.075 A 
ATOM      6  C7  UNL d   1      -5.999   1.330  -5.457  0.00  0.00     0.076 C 
ATOM      7  C8  UNL d   1      -5.177   3.575  -4.684  0.00  0.00     0.001 A 
ENDROOT
BRANCH   1   8
ATOM      8  C1  UNL d   1      -4.327   5.864  -4.038  0.00  0.00     0.053 C 
ATOM      9  C   UNL d   1      -4.077   6.000  -5.532  0.00  0.00     0.018 C 
ENDBRANCH   1   8
TORSDOF 1
ENDMDL
