MODEL 1
REMARK minimizedAffinity 6.77283287
REMARK minimizedRMSD -1
REMARK  1 active torsions:
REMARK  status: ('A' for Active; 'I' for Inactive)
REMARK    1  A    between atoms: C1_2  and  C2_3 
ROOT
ATOM      1  C2  UNL d   1      -4.870  -1.415   4.676  0.00  0.00    -0.073 A 
ATOM      2  C3  UNL d   1      -5.814  -0.500   5.155  0.00  0.00    -0.002 A 
ATOM      3  C4  UNL d   1      -6.000   0.724   4.511  0.00  0.00     0.004 A 
ATOM      4  C5  UNL d   1      -5.250   1.042   3.379  0.00  0.00    -0.004 A 
ATOM      5  C6  UNL d   1      -4.310   0.136   2.878  0.00  0.00    -0.075 A 
ATOM      6  C7  UNL d   1      -3.493   0.465   1.662  0.00  0.00     0.076 C 
ATOM      7  C8  UNL d   1      -4.127  -1.090   3.532  0.00  0.00     0.001 A 
ENDROOT
BRANCH   1   8
ATOM      8  C1  UNL d   1      -4.670  -2.741   5.364  0.00  0.00     0.053 C 
ATOM      9  C   UNL d   1      -5.954  -3.253   5.997  0.00  0.00     0.018 C 
ENDBRANCH   1   8
TORSDOF 1
ENDMDL
