MODEL 1
REMARK minimizedAffinity 1.49259019
REMARK minimizedRMSD -1
REMARK  1 active torsions:
REMARK  status: ('A' for Active; 'I' for Inactive)
REMARK    1  A    between atoms: C1_2  and  C2_3 
ROOT
ATOM      1  C2  UNL d   1      -5.822   2.227  -4.046  0.00  0.00    -0.073 A 
ATOM      2  C3  UNL d   1      -5.998   1.512  -2.856  0.00  0.00    -0.002 A 
ATOM      3  C4  UNL d   1      -5.999   2.176  -1.629  0.00  0.00     0.004 A 
ATOM      4  C5  UNL d   1      -5.833   3.560  -1.579  0.00  0.00    -0.004 A 
ATOM      5  C6  UNL d   1      -5.667   4.293  -2.758  0.00  0.00    -0.075 A 
ATOM      6  C7  UNL d   1      -5.485   5.782  -2.722  0.00  0.00     0.076 C 
ATOM      7  C8  UNL d   1      -5.664   3.619  -3.987  0.00  0.00     0.001 A 
ENDROOT
BRANCH   1   8
ATOM      8  C1  UNL d   1      -5.825   1.515  -5.374  0.00  0.00     0.053 C 
ATOM      9  C   UNL d   1      -5.996   0.012  -5.215  0.00  0.00     0.018 C 
ENDBRANCH   1   8
TORSDOF 1
ENDMDL
