MODEL 1
REMARK minimizedAffinity 11.7649908
REMARK minimizedRMSD -1
REMARK  1 active torsions:
REMARK  status: ('A' for Active; 'I' for Inactive)
REMARK    1  A    between atoms: C1_2  and  C2_3 
ROOT
ATOM      1  C2  UNL d   1       0.157   3.789  -0.119  0.00  0.00    -0.073 A 
ATOM      2  C3  UNL d   1       1.494   3.896   0.282  0.00  0.00    -0.002 A 
ATOM      3  C4  UNL d   1       1.886   3.464   1.550  0.00  0.00     0.004 A 
ATOM      4  C5  UNL d   1       0.949   2.915   2.425  0.00  0.00    -0.004 A 
ATOM      5  C6  UNL d   1      -0.389   2.788   2.038  0.00  0.00    -0.075 A 
ATOM      6  C7  UNL d   1      -1.409   2.202   2.969  0.00  0.00     0.076 C 
ATOM      7  C8  UNL d   1      -0.775   3.227   0.765  0.00  0.00     0.001 A 
ENDROOT
BRANCH   1   8
ATOM      8  C1  UNL d   1      -0.270   4.248  -1.489  0.00  0.00     0.053 C 
ATOM      9  C   UNL d   1      -0.782   5.680  -1.476  0.00  0.00     0.018 C 
ENDBRANCH   1   8
TORSDOF 1
ENDMDL
