MODEL 1
REMARK minimizedAffinity 5.31705523
REMARK minimizedRMSD -1
REMARK  1 active torsions:
REMARK  status: ('A' for Active; 'I' for Inactive)
REMARK    1  A    between atoms: C1_2  and  C2_3 
ROOT
ATOM      1  C2  UNL d   1      -0.368   4.590  -0.690  0.00  0.00    -0.073 A 
ATOM      2  C3  UNL d   1       0.834   5.188  -1.083  0.00  0.00    -0.002 A 
ATOM      3  C4  UNL d   1       1.999   4.982  -0.343  0.00  0.00     0.004 A 
ATOM      4  C5  UNL d   1       1.975   4.172   0.792  0.00  0.00    -0.004 A 
ATOM      5  C6  UNL d   1       0.785   3.556   1.194  0.00  0.00    -0.075 A 
ATOM      6  C7  UNL d   1       0.742   2.684   2.415  0.00  0.00     0.076 C 
ATOM      7  C8  UNL d   1      -0.381   3.770   0.447  0.00  0.00     0.001 A 
ENDROOT
BRANCH   1   8
ATOM      8  C1  UNL d   1      -1.627   4.804  -1.491  0.00  0.00     0.053 C 
ATOM      9  C   UNL d   1      -1.511   5.997  -2.427  0.00  0.00     0.018 C 
ENDBRANCH   1   8
TORSDOF 1
ENDMDL
