MODEL 1
REMARK minimizedAffinity -2.44937825
REMARK minimizedRMSD -1
REMARK  0 active torsions:
REMARK  status: ('A' for Active; 'I' for Inactive)
ROOT
ATOM      1  O1  BZF d   1       1.196   0.384  -1.464  0.00  0.00    -0.204 OA
ATOM      2  C2  BZF d   1       1.416  -0.539  -0.461  0.00  0.00     0.174 A 
ATOM      3  C3  BZF d   1       0.517  -0.389   0.533  0.00  0.00    -0.012 A 
ATOM      4  C3A BZF d   1      -0.374   0.635   0.083  0.00  0.00    -0.107 A 
ATOM      5  C4  BZF d   1      -1.485   1.218   0.623  0.00  0.00     0.055 A 
ATOM      6  C5  BZF d   1      -2.083   2.242  -0.041  0.00  0.00    -0.016 A 
ATOM      7  C6  BZF d   1      -1.595   2.711  -1.243  0.00  0.00     0.022 A 
ATOM      8  C7  BZF d   1      -0.500   2.161  -1.821  0.00  0.00     0.029 A 
ATOM      9  C7A BZF d   1       0.088   1.105  -1.169  0.00  0.00     0.058 A 
ENDROOT
TORSDOF 0
ENDMDL
