MODEL 1
REMARK minimizedAffinity -4.88034964
REMARK minimizedRMSD -1
REMARK  0 active torsions:
REMARK  status: ('A' for Active; 'I' for Inactive)
ROOT
ATOM      1  O1  BZF d   1       0.637  -0.760   0.674  0.00  0.00    -0.204 OA
ATOM      2  C2  BZF d   1       0.588  -1.044  -0.677  0.00  0.00     0.174 A 
ATOM      3  C3  BZF d   1      -0.086  -0.085  -1.344  0.00  0.00    -0.012 A 
ATOM      4  C3A BZF d   1      -0.404   0.905  -0.360  0.00  0.00    -0.107 A 
ATOM      5  C4  BZF d   1      -1.053   2.105  -0.412  0.00  0.00     0.055 A 
ATOM      6  C5  BZF d   1      -1.260   2.794   0.742  0.00  0.00    -0.016 A 
ATOM      7  C6  BZF d   1      -0.837   2.310   1.962  0.00  0.00     0.022 A 
ATOM      8  C7  BZF d   1      -0.184   1.127   2.063  0.00  0.00     0.029 A 
ATOM      9  C7A BZF d   1       0.056   0.444   0.895  0.00  0.00     0.058 A 
ENDROOT
TORSDOF 0
ENDMDL
