MODEL 1
REMARK minimizedAffinity -4.14893436
REMARK minimizedRMSD -1
REMARK  0 active torsions:
REMARK  status: ('A' for Active; 'I' for Inactive)
ROOT
ATOM      1  O1  BZF d   1      -0.194  -0.924  -0.727  0.00  0.00    -0.204 OA
ATOM      2  C2  BZF d   1       1.101  -1.326  -0.460  0.00  0.00     0.174 A 
ATOM      3  C3  BZF d   1       1.718  -0.443   0.352  0.00  0.00    -0.012 A 
ATOM      4  C3A BZF d   1       0.718   0.526   0.683  0.00  0.00    -0.107 A 
ATOM      5  C4  BZF d   1       0.717   1.643   1.468  0.00  0.00     0.055 A 
ATOM      6  C5  BZF d   1      -0.402   2.412   1.522  0.00  0.00    -0.016 A 
ATOM      7  C6  BZF d   1      -1.535   2.096   0.800  0.00  0.00     0.022 A 
ATOM      8  C7  BZF d   1      -1.583   0.995   0.012  0.00  0.00     0.029 A 
ATOM      9  C7A BZF d   1      -0.465   0.198  -0.019  0.00  0.00     0.058 A 
ENDROOT
TORSDOF 0
ENDMDL
