MODEL 1
REMARK minimizedAffinity -2.0825913
REMARK minimizedRMSD -1
REMARK  0 active torsions:
REMARK  status: ('A' for Active; 'I' for Inactive)
ROOT
ATOM      1  O1  BZF d   1      -0.415   2.306   2.195  0.00  0.00    -0.204 OA
ATOM      2  C2  BZF d   1      -1.696   2.558   1.744  0.00  0.00     0.174 A 
ATOM      3  C3  BZF d   1      -1.999   1.764   0.697  0.00  0.00    -0.012 A 
ATOM      4  C3A BZF d   1      -0.869   0.901   0.539  0.00  0.00    -0.107 A 
ATOM      5  C4  BZF d   1      -0.578  -0.117  -0.324  0.00  0.00     0.055 A 
ATOM      6  C5  BZF d   1       0.644  -0.708  -0.260  0.00  0.00    -0.016 A 
ATOM      7  C6  BZF d   1       1.599  -0.304   0.650  0.00  0.00     0.022 A 
ATOM      8  C7  BZF d   1       1.355   0.698   1.529  0.00  0.00     0.029 A 
ATOM      9  C7A BZF d   1       0.109   1.276   1.489  0.00  0.00     0.058 A 
ENDROOT
TORSDOF 0
ENDMDL
