MODEL 1
REMARK minimizedAffinity -3.69764137
REMARK minimizedRMSD -1
REMARK  0 active torsions:
REMARK  status: ('A' for Active; 'I' for Inactive)
ROOT
ATOM      1  O1  BZF d   1      -0.338   2.114  -1.057  0.00  0.00    -0.204 OA
ATOM      2  C2  BZF d   1       0.022   1.163  -1.992  0.00  0.00     0.174 A 
ATOM      3  C3  BZF d   1       0.527   0.067  -1.389  0.00  0.00    -0.012 A 
ATOM      4  C3A BZF d   1       0.393   0.314   0.014  0.00  0.00    -0.107 A 
ATOM      5  C4  BZF d   1       0.702  -0.412   1.129  0.00  0.00     0.055 A 
ATOM      6  C5  BZF d   1       0.514   0.146   2.353  0.00  0.00    -0.016 A 
ATOM      7  C6  BZF d   1       0.024   1.427   2.500  0.00  0.00     0.022 A 
ATOM      8  C7  BZF d   1      -0.302   2.184   1.424  0.00  0.00     0.029 A 
ATOM      9  C7A BZF d   1      -0.143   1.611   0.186  0.00  0.00     0.058 A 
ENDROOT
TORSDOF 0
ENDMDL
