MODEL 1
REMARK minimizedAffinity -0.219970599
REMARK minimizedRMSD -1
REMARK  0 active torsions:
REMARK  status: ('A' for Active; 'I' for Inactive)
ROOT
ATOM      1  O1  BZF d   1      -0.932   0.294  -1.108  0.00  0.00    -0.204 OA
ATOM      2  C2  BZF d   1       0.102   0.786  -0.335  0.00  0.00     0.174 A 
ATOM      3  C3  BZF d   1       0.987  -0.189  -0.045  0.00  0.00    -0.012 A 
ATOM      4  C3A BZF d   1       0.522  -1.343  -0.752  0.00  0.00    -0.107 A 
ATOM      5  C4  BZF d   1       0.987  -2.621  -0.872  0.00  0.00     0.055 A 
ATOM      6  C5  BZF d   1       0.258  -3.525  -1.578  0.00  0.00    -0.016 A 
ATOM      7  C6  BZF d   1      -0.940  -3.187  -2.172  0.00  0.00     0.022 A 
ATOM      8  C7  BZF d   1      -1.439  -1.930  -2.084  0.00  0.00     0.029 A 
ATOM      9  C7A BZF d   1      -0.689  -1.006  -1.399  0.00  0.00     0.058 A 
ENDROOT
TORSDOF 0
ENDMDL
