MODEL 1
REMARK minimizedAffinity -3.92167902
REMARK minimizedRMSD -1
REMARK  0 active torsions:
REMARK  status: ('A' for Active; 'I' for Inactive)
ROOT
ATOM      1  O1  BZF d   1       0.097  -0.445  -1.161  0.00  0.00    -0.204 OA
ATOM      2  C2  BZF d   1       0.774  -1.361  -0.379  0.00  0.00     0.174 A 
ATOM      3  C3  BZF d   1       0.791  -0.970   0.911  0.00  0.00    -0.012 A 
ATOM      4  C3A BZF d   1       0.001   0.222   0.953  0.00  0.00    -0.107 A 
ATOM      5  C4  BZF d   1      -0.367   1.070   1.959  0.00  0.00     0.055 A 
ATOM      6  C5  BZF d   1      -1.082   2.184   1.655  0.00  0.00    -0.016 A 
ATOM      7  C6  BZF d   1      -1.442   2.485   0.357  0.00  0.00     0.022 A 
ATOM      8  C7  BZF d   1      -1.104   1.672  -0.673  0.00  0.00     0.029 A 
ATOM      9  C7A BZF d   1      -0.409   0.528  -0.365  0.00  0.00     0.058 A 
ENDROOT
TORSDOF 0
ENDMDL
