MODEL 1
REMARK minimizedAffinity -2.26048326
REMARK minimizedRMSD -1
REMARK  0 active torsions:
REMARK  status: ('A' for Active; 'I' for Inactive)
ROOT
ATOM      1  O1  BZF d   1       1.333  -0.445   0.440  0.00  0.00    -0.204 OA
ATOM      2  C2  BZF d   1       0.585  -1.099  -0.520  0.00  0.00     0.174 A 
ATOM      3  C3  BZF d   1      -0.597  -0.479  -0.711  0.00  0.00    -0.012 A 
ATOM      4  C3A BZF d   1      -0.550   0.685   0.120  0.00  0.00    -0.107 A 
ATOM      5  C4  BZF d   1      -1.423   1.710   0.352  0.00  0.00     0.055 A 
ATOM      6  C5  BZF d   1      -1.104   2.652   1.277  0.00  0.00    -0.016 A 
ATOM      7  C6  BZF d   1       0.075   2.599   1.991  0.00  0.00     0.022 A 
ATOM      8  C7  BZF d   1       0.975   1.605   1.793  0.00  0.00     0.029 A 
ATOM      9  C7A BZF d   1       0.670   0.669   0.835  0.00  0.00     0.058 A 
ENDROOT
TORSDOF 0
ENDMDL
