MODEL 1
REMARK minimizedAffinity -4.01048422
REMARK minimizedRMSD -1
REMARK  1 active torsions:
REMARK  status: ('A' for Active; 'I' for Inactive)
REMARK    1  A    between atoms: N_2  and  C1_3 
ROOT
ATOM      1  C1  UNL d   1       0.370  -0.162   0.128  0.00  0.00     0.143 A 
ATOM      2  C2  UNL d   1       1.459   0.685  -0.104  0.00  0.00    -0.057 A 
ATOM      3  C3  UNL d   1       1.611   1.883   0.605  0.00  0.00     0.033 A 
ATOM      4  C4  UNL d   1       0.658   2.270   1.541  0.00  0.00    -0.042 A 
ATOM      5  C5  UNL d   1      -0.446   1.456   1.770  0.00  0.00     0.033 A 
ATOM      6  C6  UNL d   1      -0.588   0.258   1.064  0.00  0.00    -0.057 A 
ENDROOT
BRANCH   1   7
ATOM      7  N   UNL d   1       0.111  -1.317  -0.614  0.00  0.00    -0.732 N 
ATOM      8  C   UNL d   1      -1.157  -1.491  -1.288  0.00  0.00     0.284 C 
ATOM      9  H3  UNL d   1       0.916  -1.617  -1.158  0.00  0.00     0.395 HD
ENDBRANCH   1   7
TORSDOF 1
ENDMDL
