MODEL 1
REMARK minimizedAffinity -5.30205536
REMARK minimizedRMSD -1
REMARK  1 active torsions:
REMARK  status: ('A' for Active; 'I' for Inactive)
REMARK    1  A    between atoms: N_2  and  C1_3 
ROOT
ATOM      1  C1  UNL d   1       0.413  -0.290  -0.104  0.00  0.00     0.143 A 
ATOM      2  C2  UNL d   1      -0.240   0.600   0.755  0.00  0.00    -0.057 A 
ATOM      3  C3  UNL d   1       0.387   1.769   1.203  0.00  0.00     0.033 A 
ATOM      4  C4  UNL d   1       1.694   2.054   0.822  0.00  0.00    -0.042 A 
ATOM      5  C5  UNL d   1       2.371   1.171  -0.011  0.00  0.00     0.033 A 
ATOM      6  C6  UNL d   1       1.737   0.009  -0.461  0.00  0.00    -0.057 A 
ENDROOT
BRANCH   1   7
ATOM      7  N   UNL d   1      -0.121  -1.518  -0.505  0.00  0.00    -0.732 N 
ATOM      8  C   UNL d   1      -1.355  -1.574  -1.259  0.00  0.00     0.284 C 
ATOM      9  H3  UNL d   1       0.594  -2.165  -0.830  0.00  0.00     0.395 HD
ENDBRANCH   1   7
TORSDOF 1
ENDMDL
