MODEL 1
REMARK minimizedAffinity -2.8848002
REMARK minimizedRMSD -1
REMARK  1 active torsions:
REMARK  status: ('A' for Active; 'I' for Inactive)
REMARK    1  A    between atoms: N_2  and  C1_3 
ROOT
ATOM      1  C1  UNL d   1      -0.076  -0.360  -0.350  0.00  0.00     0.143 A 
ATOM      2  C2  UNL d   1      -0.868   0.032   0.734  0.00  0.00    -0.057 A 
ATOM      3  C3  UNL d   1      -0.554   1.168   1.490  0.00  0.00     0.033 A 
ATOM      4  C4  UNL d   1       0.580   1.917   1.192  0.00  0.00    -0.042 A 
ATOM      5  C5  UNL d   1       1.396   1.531   0.134  0.00  0.00     0.033 A 
ATOM      6  C6  UNL d   1       1.073   0.400  -0.621  0.00  0.00    -0.057 A 
ENDROOT
BRANCH   1   7
ATOM      7  N   UNL d   1      -0.280  -1.534  -1.079  0.00  0.00    -0.732 N 
ATOM      8  C   UNL d   1      -1.402  -1.653  -1.986  0.00  0.00     0.284 C 
ATOM      9  H3  UNL d   1       0.588  -1.925  -1.438  0.00  0.00     0.395 HD
ENDBRANCH   1   7
TORSDOF 1
ENDMDL
