MODEL 1
REMARK minimizedAffinity -5.17538691
REMARK minimizedRMSD -1
REMARK  1 active torsions:
REMARK  status: ('A' for Active; 'I' for Inactive)
REMARK    1  A    between atoms: N_2  and  C1_3 
ROOT
ATOM      1  C1  UNL d   1       0.094   0.108   0.017  0.00  0.00     0.143 A 
ATOM      2  C2  UNL d   1       1.018   1.080  -0.380  0.00  0.00    -0.057 A 
ATOM      3  C3  UNL d   1       1.119   2.303   0.293  0.00  0.00     0.033 A 
ATOM      4  C4  UNL d   1       0.274   2.589   1.360  0.00  0.00    -0.042 A 
ATOM      5  C5  UNL d   1      -0.669   1.648   1.756  0.00  0.00     0.033 A 
ATOM      6  C6  UNL d   1      -0.761   0.425   1.085  0.00  0.00    -0.057 A 
ENDROOT
BRANCH   1   7
ATOM      7  N   UNL d   1      -0.122  -1.088  -0.672  0.00  0.00    -0.732 N 
ATOM      8  C   UNL d   1      -1.014  -1.131  -1.811  0.00  0.00     0.284 C 
ATOM      9  H3  UNL d   1       0.733  -1.627  -0.793  0.00  0.00     0.395 HD
ENDBRANCH   1   7
TORSDOF 1
ENDMDL
