MODEL 1
REMARK minimizedAffinity -5.05700064
REMARK minimizedRMSD -1
REMARK  1 active torsions:
REMARK  status: ('A' for Active; 'I' for Inactive)
REMARK    1  A    between atoms: N_2  and  C1_3 
ROOT
ATOM      1  C1  UNL d   1      -0.116  -0.064  -0.021  0.00  0.00     0.143 A 
ATOM      2  C2  UNL d   1      -0.740   0.324   1.170  0.00  0.00    -0.057 A 
ATOM      3  C3  UNL d   1      -0.347   1.482   1.852  0.00  0.00     0.033 A 
ATOM      4  C4  UNL d   1       0.700   2.259   1.368  0.00  0.00    -0.042 A 
ATOM      5  C5  UNL d   1       1.351   1.879   0.199  0.00  0.00     0.033 A 
ATOM      6  C6  UNL d   1       0.949   0.726  -0.480  0.00  0.00    -0.057 A 
ENDROOT
BRANCH   1   7
ATOM      7  N   UNL d   1      -0.396  -1.257  -0.693  0.00  0.00    -0.732 N 
ATOM      8  C   UNL d   1      -1.346  -1.283  -1.784  0.00  0.00     0.284 C 
ATOM      9  H3  UNL d   1       0.439  -1.816  -0.854  0.00  0.00     0.395 HD
ENDBRANCH   1   7
TORSDOF 1
ENDMDL
