MODEL 1
REMARK minimizedAffinity -3.79333758
REMARK minimizedRMSD -1
REMARK  1 active torsions:
REMARK  status: ('A' for Active; 'I' for Inactive)
REMARK    1  A    between atoms: N_2  and  C1_3 
ROOT
ATOM      1  C1  UNL d   1       0.018   0.171  -0.099  0.00  0.00     0.143 A 
ATOM      2  C2  UNL d   1      -0.381   0.660   1.150  0.00  0.00    -0.057 A 
ATOM      3  C3  UNL d   1       0.322   1.692   1.784  0.00  0.00     0.033 A 
ATOM      4  C4  UNL d   1       1.457   2.235   1.191  0.00  0.00    -0.042 A 
ATOM      5  C5  UNL d   1       1.886   1.747  -0.038  0.00  0.00     0.033 A 
ATOM      6  C6  UNL d   1       1.176   0.721  -0.669  0.00  0.00    -0.057 A 
ENDROOT
BRANCH   1   7
ATOM      7  N   UNL d   1      -0.581  -0.920  -0.734  0.00  0.00    -0.732 N 
ATOM      8  C   UNL d   1      -1.372  -0.732  -1.931  0.00  0.00     0.284 C 
ATOM      9  H3  UNL d   1       0.027  -1.735  -0.761  0.00  0.00     0.395 HD
ENDBRANCH   1   7
TORSDOF 1
ENDMDL
