MODEL 1
REMARK minimizedAffinity -4.46594095
REMARK minimizedRMSD -1
REMARK  1 active torsions:
REMARK  status: ('A' for Active; 'I' for Inactive)
REMARK    1  A    between atoms: N_2  and  C1_3 
ROOT
ATOM      1  C1  UNL d   1      -0.115   0.181  -0.201  0.00  0.00     0.143 A 
ATOM      2  C2  UNL d   1      -0.678   0.637   0.996  0.00  0.00    -0.057 A 
ATOM      3  C3  UNL d   1      -0.272   1.845   1.575  0.00  0.00     0.033 A 
ATOM      4  C4  UNL d   1       0.728   2.607   0.981  0.00  0.00    -0.042 A 
ATOM      5  C5  UNL d   1       1.320   2.161  -0.196  0.00  0.00     0.033 A 
ATOM      6  C6  UNL d   1       0.905   0.957  -0.773  0.00  0.00    -0.057 A 
ENDROOT
BRANCH   1   7
ATOM      7  N   UNL d   1      -0.406  -1.060  -0.774  0.00  0.00    -0.732 N 
ATOM      8  C   UNL d   1      -1.074  -1.141  -2.055  0.00  0.00     0.284 C 
ATOM      9  H3  UNL d   1       0.352  -1.729  -0.657  0.00  0.00     0.395 HD
ENDBRANCH   1   7
TORSDOF 1
ENDMDL
