MODEL 1
REMARK minimizedAffinity -5.04798603
REMARK minimizedRMSD -1
REMARK  1 active torsions:
REMARK  status: ('A' for Active; 'I' for Inactive)
REMARK    1  A    between atoms: N_2  and  C1_3 
ROOT
ATOM      1  C1  UNL d   1       0.126   0.478  -0.003  0.00  0.00     0.143 A 
ATOM      2  C2  UNL d   1       1.440   0.899  -0.234  0.00  0.00    -0.057 A 
ATOM      3  C3  UNL d   1       2.033   1.896   0.551  0.00  0.00     0.033 A 
ATOM      4  C4  UNL d   1       1.308   2.511   1.566  0.00  0.00    -0.042 A 
ATOM      5  C5  UNL d   1      -0.007   2.127   1.798  0.00  0.00     0.033 A 
ATOM      6  C6  UNL d   1      -0.591   1.126   1.015  0.00  0.00    -0.057 A 
ENDROOT
BRANCH   1   7
ATOM      7  N   UNL d   1      -0.551  -0.438  -0.811  0.00  0.00    -0.732 N 
ATOM      8  C   UNL d   1      -0.362  -1.861  -0.630  0.00  0.00     0.284 C 
ATOM      9  H3  UNL d   1      -1.516  -0.165  -0.983  0.00  0.00     0.395 HD
ENDBRANCH   1   7
TORSDOF 1
ENDMDL
