MODEL 1
REMARK minimizedAffinity -3.07818818
REMARK minimizedRMSD -1
REMARK  1 active torsions:
REMARK  status: ('A' for Active; 'I' for Inactive)
REMARK    1  A    between atoms: N_2  and  C1_3 
ROOT
ATOM      1  C1  UNL d   1       0.040   0.076   0.227  0.00  0.00     0.143 A 
ATOM      2  C2  UNL d   1      -0.835   0.776   1.064  0.00  0.00    -0.057 A 
ATOM      3  C3  UNL d   1      -0.380   1.813   1.887  0.00  0.00     0.033 A 
ATOM      4  C4  UNL d   1       0.970   2.150   1.910  0.00  0.00    -0.042 A 
ATOM      5  C5  UNL d   1       1.862   1.450   1.105  0.00  0.00     0.033 A 
ATOM      6  C6  UNL d   1       1.400   0.421   0.280  0.00  0.00    -0.057 A 
ENDROOT
BRANCH   1   7
ATOM      7  N   UNL d   1      -0.335  -1.029  -0.541  0.00  0.00    -0.732 N 
ATOM      8  C   UNL d   1      -1.117  -0.858  -1.746  0.00  0.00     0.284 C 
ATOM      9  H3  UNL d   1       0.411  -1.716  -0.624  0.00  0.00     0.395 HD
ENDBRANCH   1   7
TORSDOF 1
ENDMDL
