MODEL 1
REMARK minimizedAffinity -1.42813921
REMARK minimizedRMSD -1
REMARK  1 active torsions:
REMARK  status: ('A' for Active; 'I' for Inactive)
REMARK    1  A    between atoms: N_2  and  C1_3 
ROOT
ATOM      1  C1  UNL d   1       0.476  -0.028   0.042  0.00  0.00     0.143 A 
ATOM      2  C2  UNL d   1      -0.810  -0.309   0.516  0.00  0.00    -0.057 A 
ATOM      3  C3  UNL d   1      -1.425   0.506   1.474  0.00  0.00     0.033 A 
ATOM      4  C4  UNL d   1      -0.751   1.603   1.998  0.00  0.00    -0.042 A 
ATOM      5  C5  UNL d   1       0.538   1.888   1.561  0.00  0.00     0.033 A 
ATOM      6  C6  UNL d   1       1.144   1.074   0.599  0.00  0.00    -0.057 A 
ENDROOT
BRANCH   1   7
ATOM      7  N   UNL d   1       1.180  -0.856  -0.836  0.00  0.00    -0.732 N 
ATOM      8  C   UNL d   1       2.589  -0.637  -1.086  0.00  0.00     0.284 C 
ATOM      9  H3  UNL d   1       0.922  -1.835  -0.737  0.00  0.00     0.395 HD
ENDBRANCH   1   7
TORSDOF 1
ENDMDL
