MODEL 1
REMARK minimizedAffinity -3.69194746
REMARK minimizedRMSD -1
REMARK  1 active torsions:
REMARK  status: ('A' for Active; 'I' for Inactive)
REMARK    1  A    between atoms: C1_2  and  C2_3 
ROOT
ATOM      1  C2  UNL d   1      -0.325   0.162  -0.684  0.00  0.00    -0.076 A 
ATOM      2  C3  UNL d   1      -0.269  -1.122  -0.116  0.00  0.00     0.004 A 
ATOM      3  C4  UNL d   1       0.778  -1.993  -0.413  0.00  0.00    -0.003 A 
ATOM      4  C5  UNL d   1       1.787  -1.593  -1.281  0.00  0.00     0.000 A 
ATOM      5  C6  UNL d   1       1.757  -0.316  -1.840  0.00  0.00     0.000 A 
ATOM      6  C7  UNL d   1       0.717   0.580  -1.539  0.00  0.00    -0.073 A 
ATOM      7  C8  UNL d   1       0.732   1.943  -2.175  0.00  0.00     0.078 C 
ENDROOT
BRANCH   1   8
ATOM      8  C1  UNL d   1      -1.500   1.053  -0.347  0.00  0.00     0.053 C 
ATOM      9  C   UNL d   1      -1.936   0.917   1.103  0.00  0.00     0.018 C 
ENDBRANCH   1   8
TORSDOF 1
ENDMDL
