MODEL 1
REMARK minimizedAffinity 5.76838541
REMARK minimizedRMSD -1
REMARK  1 active torsions:
REMARK  status: ('A' for Active; 'I' for Inactive)
REMARK    1  A    between atoms: C1_2  and  C2_3 
ROOT
ATOM      1  C2  UNL d   1       0.644  -1.101  -1.052  0.00  0.00    -0.076 A 
ATOM      2  C3  UNL d   1       1.930  -0.554  -0.901  0.00  0.00     0.004 A 
ATOM      3  C4  UNL d   1       2.136   0.594  -0.137  0.00  0.00    -0.003 A 
ATOM      4  C5  UNL d   1       1.059   1.213   0.487  0.00  0.00     0.000 A 
ATOM      5  C6  UNL d   1      -0.221   0.674   0.362  0.00  0.00     0.000 A 
ATOM      6  C7  UNL d   1      -0.443  -0.492  -0.391  0.00  0.00    -0.073 A 
ATOM      7  C8  UNL d   1      -1.845  -1.026  -0.497  0.00  0.00     0.078 C 
ENDROOT
BRANCH   1   8
ATOM      8  C1  UNL d   1       0.478  -2.332  -1.914  0.00  0.00     0.053 C 
ATOM      9  C   UNL d   1       1.341  -2.288  -3.166  0.00  0.00     0.018 C 
ENDBRANCH   1   8
TORSDOF 1
ENDMDL
