MODEL 1
REMARK minimizedAffinity 0.297085613
REMARK minimizedRMSD -1
REMARK  1 active torsions:
REMARK  status: ('A' for Active; 'I' for Inactive)
REMARK    1  A    between atoms: C1_2  and  C2_3 
ROOT
ATOM      1  C2  UNL d   1       1.049   0.108  -2.138  0.00  0.00    -0.076 A 
ATOM      2  C3  UNL d   1       1.663   1.351  -1.907  0.00  0.00     0.004 A 
ATOM      3  C4  UNL d   1       1.566   1.980  -0.667  0.00  0.00    -0.003 A 
ATOM      4  C5  UNL d   1       0.854   1.376   0.363  0.00  0.00     0.000 A 
ATOM      5  C6  UNL d   1       0.253   0.134   0.157  0.00  0.00     0.000 A 
ATOM      6  C7  UNL d   1       0.355  -0.521  -1.082  0.00  0.00    -0.073 A 
ATOM      7  C8  UNL d   1      -0.317  -1.856  -1.250  0.00  0.00     0.078 C 
ENDROOT
BRANCH   1   8
ATOM      8  C1  UNL d   1       1.166  -0.514  -3.511  0.00  0.00     0.053 C 
ATOM      9  C   UNL d   1       1.194   0.526  -4.621  0.00  0.00     0.018 C 
ENDBRANCH   1   8
TORSDOF 1
ENDMDL
