MODEL 1
REMARK minimizedAffinity -0.31103307
REMARK minimizedRMSD -1
REMARK  1 active torsions:
REMARK  status: ('A' for Active; 'I' for Inactive)
REMARK    1  A    between atoms: C1_2  and  C2_3 
ROOT
ATOM      1  C2  UNL d   1       0.654  -0.169  -1.078  0.00  0.00    -0.076 A 
ATOM      2  C3  UNL d   1      -0.007  -1.132  -0.297  0.00  0.00     0.004 A 
ATOM      3  C4  UNL d   1      -1.207  -0.834   0.346  0.00  0.00    -0.003 A 
ATOM      4  C5  UNL d   1      -1.767   0.433   0.216  0.00  0.00     0.000 A 
ATOM      5  C6  UNL d   1      -1.134   1.395  -0.570  0.00  0.00     0.000 A 
ATOM      6  C7  UNL d   1       0.069   1.105  -1.238  0.00  0.00    -0.073 A 
ATOM      7  C8  UNL d   1       0.711   2.183  -2.067  0.00  0.00     0.078 C 
ENDROOT
BRANCH   1   8
ATOM      8  C1  UNL d   1       1.967  -0.541  -1.729  0.00  0.00     0.053 C 
ATOM      9  C   UNL d   1       1.823  -1.685  -2.721  0.00  0.00     0.018 C 
ENDBRANCH   1   8
TORSDOF 1
ENDMDL
