MODEL 1
REMARK minimizedAffinity -5.39644432
REMARK minimizedRMSD -1
REMARK  1 active torsions:
REMARK  status: ('A' for Active; 'I' for Inactive)
REMARK    1  A    between atoms: C1_2  and  C2_3 
ROOT
ATOM      1  C2  UNL d   1      -0.164  -0.390   0.188  0.00  0.00    -0.076 A 
ATOM      2  C3  UNL d   1       0.343  -1.581   0.737  0.00  0.00     0.004 A 
ATOM      3  C4  UNL d   1       1.365  -2.285   0.102  0.00  0.00    -0.003 A 
ATOM      4  C5  UNL d   1       1.896  -1.810  -1.092  0.00  0.00     0.000 A 
ATOM      5  C6  UNL d   1       1.417  -0.622  -1.642  0.00  0.00     0.000 A 
ATOM      6  C7  UNL d   1       0.399   0.109  -1.006  0.00  0.00    -0.073 A 
ATOM      7  C8  UNL d   1      -0.084   1.382  -1.646  0.00  0.00     0.078 C 
ENDROOT
BRANCH   1   8
ATOM      8  C1  UNL d   1      -1.291   0.316   0.907  0.00  0.00     0.053 C 
ATOM      9  C   UNL d   1      -1.342  -0.026   2.388  0.00  0.00     0.018 C 
ENDBRANCH   1   8
TORSDOF 1
ENDMDL
