MODEL 1
REMARK minimizedAffinity -3.48732424
REMARK minimizedRMSD -1
REMARK  1 active torsions:
REMARK  status: ('A' for Active; 'I' for Inactive)
REMARK    1  A    between atoms: C1_2  and  C2_3 
ROOT
ATOM      1  C2  UNL d   1       0.366  -0.132  -0.411  0.00  0.00    -0.076 A 
ATOM      2  C3  UNL d   1       0.497  -1.492  -0.078  0.00  0.00     0.004 A 
ATOM      3  C4  UNL d   1       1.683  -2.181  -0.330  0.00  0.00    -0.003 A 
ATOM      4  C5  UNL d   1       2.756  -1.521  -0.919  0.00  0.00     0.000 A 
ATOM      5  C6  UNL d   1       2.649  -0.168  -1.239  0.00  0.00     0.000 A 
ATOM      6  C7  UNL d   1       1.467   0.545  -0.977  0.00  0.00    -0.073 A 
ATOM      7  C8  UNL d   1       1.404   2.001  -1.349  0.00  0.00     0.078 C 
ENDROOT
BRANCH   1   8
ATOM      8  C1  UNL d   1      -0.953   0.555  -0.139  0.00  0.00     0.053 C 
ATOM      9  C   UNL d   1      -1.249   0.681   1.348  0.00  0.00     0.018 C 
ENDBRANCH   1   8
TORSDOF 1
ENDMDL
