MODEL 1
REMARK minimizedAffinity -4.40619802
REMARK minimizedRMSD -1
REMARK  1 active torsions:
REMARK  status: ('A' for Active; 'I' for Inactive)
REMARK    1  A    between atoms: C1_2  and  C2_3 
ROOT
ATOM      1  C2  UNL d   1      -2.356  -0.313   2.269  0.00  0.00    -0.076 A 
ATOM      2  C3  UNL d   1      -2.876   0.836   2.891  0.00  0.00     0.004 A 
ATOM      3  C4  UNL d   1      -2.379   2.102   2.589  0.00  0.00    -0.003 A 
ATOM      4  C5  UNL d   1      -1.354   2.242   1.659  0.00  0.00     0.000 A 
ATOM      5  C6  UNL d   1      -0.839   1.115   1.019  0.00  0.00     0.000 A 
ATOM      6  C7  UNL d   1      -1.339  -0.168   1.300  0.00  0.00    -0.073 A 
ATOM      7  C8  UNL d   1      -0.742  -1.348   0.585  0.00  0.00     0.078 C 
ENDROOT
BRANCH   1   8
ATOM      8  C1  UNL d   1      -2.915  -1.663   2.656  0.00  0.00     0.053 C 
ATOM      9  C   UNL d   1      -2.763  -1.952   4.141  0.00  0.00     0.018 C 
ENDBRANCH   1   8
TORSDOF 1
ENDMDL
