MODEL 1
REMARK minimizedAffinity 6.64013195
REMARK minimizedRMSD -1
REMARK  1 active torsions:
REMARK  status: ('A' for Active; 'I' for Inactive)
REMARK    1  A    between atoms: C1_2  and  C2_3 
ROOT
ATOM      1  C2  UNL d   1      -1.755   0.201   2.429  0.00  0.00    -0.076 A 
ATOM      2  C3  UNL d   1      -1.398   1.507   2.053  0.00  0.00     0.004 A 
ATOM      3  C4  UNL d   1      -1.074   2.466   3.012  0.00  0.00    -0.003 A 
ATOM      4  C5  UNL d   1      -1.102   2.134   4.362  0.00  0.00     0.000 A 
ATOM      5  C6  UNL d   1      -1.437   0.837   4.751  0.00  0.00     0.000 A 
ATOM      6  C7  UNL d   1      -1.749  -0.146   3.797  0.00  0.00    -0.073 A 
ATOM      7  C8  UNL d   1      -2.109  -1.526   4.274  0.00  0.00     0.078 C 
ENDROOT
BRANCH   1   8
ATOM      8  C1  UNL d   1      -2.122  -0.789   1.346  0.00  0.00     0.053 C 
ATOM      9  C   UNL d   1      -1.868  -0.245  -0.051  0.00  0.00     0.018 C 
ENDBRANCH   1   8
TORSDOF 1
ENDMDL
