MODEL 1
REMARK minimizedAffinity -5.60561132
REMARK minimizedRMSD -1
REMARK  1 active torsions:
REMARK  status: ('A' for Active; 'I' for Inactive)
REMARK    1  A    between atoms: C1_2  and  C2_3 
ROOT
ATOM      1  C2  UNL d   1      -2.341  -0.665   2.616  0.00  0.00    -0.076 A 
ATOM      2  C3  UNL d   1      -1.636  -1.187   1.518  0.00  0.00     0.004 A 
ATOM      3  C4  UNL d   1      -1.332  -0.389   0.416  0.00  0.00    -0.003 A 
ATOM      4  C5  UNL d   1      -1.728   0.943   0.395  0.00  0.00     0.000 A 
ATOM      5  C6  UNL d   1      -2.413   1.483   1.483  0.00  0.00     0.000 A 
ATOM      6  C7  UNL d   1      -2.714   0.697   2.609  0.00  0.00    -0.073 A 
ATOM      7  C8  UNL d   1      -3.460   1.328   3.751  0.00  0.00     0.078 C 
ENDROOT
BRANCH   1   8
ATOM      8  C1  UNL d   1      -2.667  -1.584   3.772  0.00  0.00     0.053 C 
ATOM      9  C   UNL d   1      -4.075  -2.151   3.686  0.00  0.00     0.018 C 
ENDBRANCH   1   8
TORSDOF 1
ENDMDL
