MODEL 1
REMARK minimizedAffinity -5.0570941
REMARK minimizedRMSD -1
REMARK  1 active torsions:
REMARK  status: ('A' for Active; 'I' for Inactive)
REMARK    1  A    between atoms: C1_2  and  C2_3 
ROOT
ATOM      1  C2  UNL d   1       0.691  -0.276  -0.497  0.00  0.00    -0.076 A 
ATOM      2  C3  UNL d   1       0.813   1.096  -0.778  0.00  0.00     0.004 A 
ATOM      3  C4  UNL d   1       1.762   1.560  -1.688  0.00  0.00    -0.003 A 
ATOM      4  C5  UNL d   1       2.603   0.659  -2.332  0.00  0.00     0.000 A 
ATOM      5  C6  UNL d   1       2.483  -0.707  -2.079  0.00  0.00     0.000 A 
ATOM      6  C7  UNL d   1       1.522  -1.193  -1.177  0.00  0.00    -0.073 A 
ATOM      7  C8  UNL d   1       1.441  -2.675  -0.937  0.00  0.00     0.078 C 
ENDROOT
BRANCH   1   8
ATOM      8  C1  UNL d   1      -0.338  -0.719   0.519  0.00  0.00     0.053 C 
ATOM      9  C   UNL d   1      -1.033   0.454   1.193  0.00  0.00     0.018 C 
ENDBRANCH   1   8
TORSDOF 1
ENDMDL
