MODEL 1
REMARK minimizedAffinity -0.804161787
REMARK minimizedRMSD -1
REMARK  1 active torsions:
REMARK  status: ('A' for Active; 'I' for Inactive)
REMARK    1  A    between atoms: C1_2  and  C2_3 
ROOT
ATOM      1  C2  UNL d   1      -2.364  -0.661   3.375  0.00  0.00    -0.076 A 
ATOM      2  C3  UNL d   1      -2.667   0.128   4.499  0.00  0.00     0.004 A 
ATOM      3  C4  UNL d   1      -2.424   1.500   4.499  0.00  0.00    -0.003 A 
ATOM      4  C5  UNL d   1      -1.874   2.107   3.375  0.00  0.00     0.000 A 
ATOM      5  C6  UNL d   1      -1.584   1.343   2.245  0.00  0.00     0.000 A 
ATOM      6  C7  UNL d   1      -1.838  -0.039   2.222  0.00  0.00    -0.073 A 
ATOM      7  C8  UNL d   1      -1.500  -0.815   0.979  0.00  0.00     0.078 C 
ENDROOT
BRANCH   1   8
ATOM      8  C1  UNL d   1      -2.625  -2.148   3.442  0.00  0.00     0.053 C 
ATOM      9  C   UNL d   1      -3.749  -2.500   4.404  0.00  0.00     0.018 C 
ENDBRANCH   1   8
TORSDOF 1
ENDMDL
