MODEL 1
REMARK minimizedAffinity 1.348405
REMARK minimizedRMSD -1
REMARK  1 active torsions:
REMARK  status: ('A' for Active; 'I' for Inactive)
REMARK    1  A    between atoms: C1_2  and  C2_3 
ROOT
ATOM      1  C2  UNL d   1      -0.070   0.134  -1.375  0.00  0.00    -0.076 A 
ATOM      2  C3  UNL d   1       0.899  -0.292  -2.299  0.00  0.00     0.004 A 
ATOM      3  C4  UNL d   1       1.620  -1.467  -2.093  0.00  0.00    -0.003 A 
ATOM      4  C5  UNL d   1       1.382  -2.236  -0.959  0.00  0.00     0.000 A 
ATOM      5  C6  UNL d   1       0.411  -1.838  -0.041  0.00  0.00     0.000 A 
ATOM      6  C7  UNL d   1      -0.335  -0.664  -0.242  0.00  0.00    -0.073 A 
ATOM      7  C8  UNL d   1      -1.365  -0.279   0.785  0.00  0.00     0.078 C 
ENDROOT
BRANCH   1   8
ATOM      8  C1  UNL d   1      -0.800   1.432  -1.638  0.00  0.00     0.053 C 
ATOM      9  C   UNL d   1       0.079   2.467  -2.322  0.00  0.00     0.018 C 
ENDBRANCH   1   8
TORSDOF 1
ENDMDL
