MODEL 1
REMARK minimizedAffinity -5.29507637
REMARK minimizedRMSD -1
REMARK  1 active torsions:
REMARK  status: ('A' for Active; 'I' for Inactive)
REMARK    1  A    between atoms: C1_2  and  C2_3 
ROOT
ATOM      1  C2  UNL d   1      -2.271  -0.448   2.746  0.00  0.00    -0.076 A 
ATOM      2  C3  UNL d   1      -2.478   0.486   3.776  0.00  0.00     0.004 A 
ATOM      3  C4  UNL d   1      -2.143   1.828   3.607  0.00  0.00    -0.003 A 
ATOM      4  C5  UNL d   1      -1.595   2.259   2.403  0.00  0.00     0.000 A 
ATOM      5  C6  UNL d   1      -1.399   1.350   1.364  0.00  0.00     0.000 A 
ATOM      6  C7  UNL d   1      -1.747  -0.004   1.513  0.00  0.00    -0.073 A 
ATOM      7  C8  UNL d   1      -1.508  -0.941   0.361  0.00  0.00     0.078 C 
ENDROOT
BRANCH   1   8
ATOM      8  C1  UNL d   1      -2.629  -1.895   2.997  0.00  0.00     0.053 C 
ATOM      9  C   UNL d   1      -3.637  -2.059   4.124  0.00  0.00     0.018 C 
ENDBRANCH   1   8
TORSDOF 1
ENDMDL
