MODEL 1
REMARK minimizedAffinity 8.81678581
REMARK minimizedRMSD -1
REMARK  0 active torsions:
REMARK  status: ('A' for Active; 'I' for Inactive)
ROOT
ATOM      1  C   UNL d   1       3.981   2.388   3.611  0.00  0.00     0.020 A 
ATOM      2  C1  UNL d   1       2.765   2.564   4.269  0.00  0.00     0.020 A 
ATOM      3  C2  UNL d   1       1.572   2.566   3.542  0.00  0.00     0.034 A 
ATOM      4  C3  UNL d   1       1.593   2.390   2.154  0.00  0.00     0.017 A 
ATOM      5  C4  UNL d   1       2.815   2.213   1.495  0.00  0.00     0.017 A 
ATOM      6  C5  UNL d   1       4.006   2.212   2.227  0.00  0.00     0.034 A 
ATOM      7 Cl   UNL d   1       2.921   1.990  -0.216  0.00  0.00    -0.070 Cl
ATOM      8 Cl1  UNL d   1       0.080   2.403   1.320  0.00  0.00    -0.070 Cl
ENDROOT
TORSDOF 0
ENDMDL
