MODEL 1
REMARK minimizedAffinity 13.8231554
REMARK minimizedRMSD -1
REMARK  0 active torsions:
REMARK  status: ('A' for Active; 'I' for Inactive)
ROOT
ATOM      1  C   UNL d   1      -0.694   2.510  -0.384  0.00  0.00     0.020 A 
ATOM      2  C1  UNL d   1      -1.711   3.452  -0.237  0.00  0.00     0.020 A 
ATOM      3  C2  UNL d   1      -1.881   4.111   0.983  0.00  0.00     0.034 A 
ATOM      4  C3  UNL d   1      -1.033   3.829   2.060  0.00  0.00     0.017 A 
ATOM      5  C4  UNL d   1      -0.012   2.883   1.911  0.00  0.00     0.017 A 
ATOM      6  C5  UNL d   1       0.154   2.226   0.688  0.00  0.00     0.034 A 
ATOM      7 Cl   UNL d   1       1.073   2.481   3.194  0.00  0.00    -0.070 Cl
ATOM      8 Cl1  UNL d   1      -1.301   4.681   3.539  0.00  0.00    -0.070 Cl
ENDROOT
TORSDOF 0
ENDMDL
