MODEL 1
REMARK minimizedAffinity 2.13734484
REMARK minimizedRMSD -1
REMARK  0 active torsions:
REMARK  status: ('A' for Active; 'I' for Inactive)
ROOT
ATOM      1  C   UNL d   1       5.809   5.999   2.401  0.00  0.00     0.020 A 
ATOM      2  C1  UNL d   1       5.830   5.276   1.209  0.00  0.00     0.020 A 
ATOM      3  C2  UNL d   1       5.886   3.881   1.240  0.00  0.00     0.034 A 
ATOM      4  C3  UNL d   1       5.921   3.205   2.465  0.00  0.00     0.017 A 
ATOM      5  C4  UNL d   1       5.900   3.932   3.661  0.00  0.00     0.017 A 
ATOM      6  C5  UNL d   1       5.844   5.329   3.624  0.00  0.00     0.034 A 
ATOM      7 Cl   UNL d   1       5.941   3.168   5.211  0.00  0.00    -0.070 Cl
ATOM      8 Cl1  UNL d   1       5.990   1.479   2.428  0.00  0.00    -0.070 Cl
ENDROOT
TORSDOF 0
ENDMDL
