MODEL 1
REMARK minimizedAffinity 6.47849751
REMARK minimizedRMSD -1
REMARK  0 active torsions:
REMARK  status: ('A' for Active; 'I' for Inactive)
ROOT
ATOM      1  C   UNL d   1      -0.760  -1.534  -0.114  0.00  0.00     0.020 A 
ATOM      2  C1  UNL d   1      -0.655  -0.802   1.068  0.00  0.00     0.020 A 
ATOM      3  C2  UNL d   1       0.180   0.316   1.124  0.00  0.00     0.034 A 
ATOM      4  C3  UNL d   1       0.914   0.704  -0.003  0.00  0.00     0.017 A 
ATOM      5  C4  UNL d   1       0.808  -0.032  -1.188  0.00  0.00     0.017 A 
ATOM      6  C5  UNL d   1      -0.030  -1.150  -1.239  0.00  0.00     0.034 A 
ATOM      7 Cl   UNL d   1       1.682   0.385  -2.620  0.00  0.00    -0.070 Cl
ATOM      8 Cl1  UNL d   1       1.927   2.097   0.138  0.00  0.00    -0.070 Cl
ENDROOT
TORSDOF 0
ENDMDL
