MODEL 1
REMARK minimizedAffinity 7.82573175
REMARK minimizedRMSD -1
REMARK  0 active torsions:
REMARK  status: ('A' for Active; 'I' for Inactive)
ROOT
ATOM      1  C   UNL d   1       5.996   4.586   4.946  0.00  0.00     0.020 A 
ATOM      2  C1  UNL d   1       6.000   5.856   4.369  0.00  0.00     0.020 A 
ATOM      3  C2  UNL d   1       5.999   5.991   2.979  0.00  0.00     0.034 A 
ATOM      4  C3  UNL d   1       5.995   4.855   2.161  0.00  0.00     0.017 A 
ATOM      5  C4  UNL d   1       5.992   3.581   2.741  0.00  0.00     0.017 A 
ATOM      6  C5  UNL d   1       5.992   3.451   4.133  0.00  0.00     0.034 A 
ATOM      7 Cl   UNL d   1       5.986   2.133   1.798  0.00  0.00    -0.070 Cl
ATOM      8 Cl1  UNL d   1       5.995   5.096   0.450  0.00  0.00    -0.070 Cl
ENDROOT
TORSDOF 0
ENDMDL
