MODEL 1
REMARK minimizedAffinity 8.58499336
REMARK minimizedRMSD -1
REMARK  0 active torsions:
REMARK  status: ('A' for Active; 'I' for Inactive)
ROOT
ATOM      1  C   UNL d   1       1.980   2.694   1.795  0.00  0.00     0.020 A 
ATOM      2  C1  UNL d   1       0.680   2.264   2.055  0.00  0.00     0.020 A 
ATOM      3  C2  UNL d   1       0.080   1.313   1.227  0.00  0.00     0.034 A 
ATOM      4  C3  UNL d   1       0.780   0.789   0.135  0.00  0.00     0.017 A 
ATOM      5  C4  UNL d   1       2.085   1.221  -0.126  0.00  0.00     0.017 A 
ATOM      6  C5  UNL d   1       2.681   2.174   0.707  0.00  0.00     0.034 A 
ATOM      7 Cl   UNL d   1       3.013   0.620  -1.455  0.00  0.00    -0.070 Cl
ATOM      8 Cl1  UNL d   1      -0.024  -0.384  -0.847  0.00  0.00    -0.070 Cl
ENDROOT
TORSDOF 0
ENDMDL
