MODEL 1
REMARK minimizedAffinity 10.5075502
REMARK minimizedRMSD -1
REMARK  0 active torsions:
REMARK  status: ('A' for Active; 'I' for Inactive)
ROOT
ATOM      1  C   UNL d   1       5.973   0.546   5.962  0.00  0.00     0.020 A 
ATOM      2  C1  UNL d   1       5.635  -0.667   5.363  0.00  0.00     0.020 A 
ATOM      3  C2  UNL d   1       5.318  -0.709   4.004  0.00  0.00     0.034 A 
ATOM      4  C3  UNL d   1       5.339   0.463   3.239  0.00  0.00     0.017 A 
ATOM      5  C4  UNL d   1       5.679   1.680   3.841  0.00  0.00     0.017 A 
ATOM      6  C5  UNL d   1       5.995   1.716   5.203  0.00  0.00     0.034 A 
ATOM      7 Cl   UNL d   1       5.727   3.167   2.963  0.00  0.00    -0.070 Cl
ATOM      8 Cl1  UNL d   1       4.936   0.336   1.564  0.00  0.00    -0.070 Cl
ENDROOT
TORSDOF 0
ENDMDL
