MODEL 1
REMARK minimizedAffinity 4.966887
REMARK minimizedRMSD -1
REMARK  0 active torsions:
REMARK  status: ('A' for Active; 'I' for Inactive)
ROOT
ATOM      1  C   UNL d   1       3.013  -5.096   3.742  0.00  0.00     0.020 A 
ATOM      2  C1  UNL d   1       2.284  -6.000   2.971  0.00  0.00     0.020 A 
ATOM      3  C2  UNL d   1       1.634  -5.566   1.813  0.00  0.00     0.034 A 
ATOM      4  C3  UNL d   1       1.713  -4.224   1.423  0.00  0.00     0.017 A 
ATOM      5  C4  UNL d   1       2.445  -3.317   2.198  0.00  0.00     0.017 A 
ATOM      6  C5  UNL d   1       3.093  -3.757   3.356  0.00  0.00     0.034 A 
ATOM      7 Cl   UNL d   1       2.588  -1.646   1.781  0.00  0.00    -0.070 Cl
ATOM      8 Cl1  UNL d   1       0.886  -3.757  -0.020  0.00  0.00    -0.070 Cl
ENDROOT
TORSDOF 0
ENDMDL
