MODEL 1
REMARK minimizedAffinity 3.46991801
REMARK minimizedRMSD -1
REMARK  0 active torsions:
REMARK  status: ('A' for Active; 'I' for Inactive)
ROOT
ATOM      1  C   UNL d   1       1.507   2.460   1.220  0.00  0.00     0.020 A 
ATOM      2  C1  UNL d   1       0.440   1.665   1.637  0.00  0.00     0.020 A 
ATOM      3  C2  UNL d   1       0.285   0.377   1.120  0.00  0.00     0.034 A 
ATOM      4  C3  UNL d   1       1.198  -0.120   0.183  0.00  0.00     0.017 A 
ATOM      5  C4  UNL d   1       2.268   0.679  -0.236  0.00  0.00     0.017 A 
ATOM      6  C5  UNL d   1       2.419   1.968   0.285  0.00  0.00     0.034 A 
ATOM      7 Cl   UNL d   1       3.435   0.135  -1.389  0.00  0.00    -0.070 Cl
ATOM      8 Cl1  UNL d   1       0.945  -1.721  -0.414  0.00  0.00    -0.070 Cl
ENDROOT
TORSDOF 0
ENDMDL
