MODEL 1
REMARK minimizedAffinity 3.88570642
REMARK minimizedRMSD -1
REMARK  0 active torsions:
REMARK  status: ('A' for Active; 'I' for Inactive)
ROOT
ATOM      1  C   UNL d   1      -1.267  -5.249   1.007  0.00  0.00     0.020 A 
ATOM      2  C1  UNL d   1      -2.619  -5.433   0.721  0.00  0.00     0.020 A 
ATOM      3  C2  UNL d   1      -3.366  -4.386   0.178  0.00  0.00     0.034 A 
ATOM      4  C3  UNL d   1      -2.762  -3.150  -0.081  0.00  0.00     0.017 A 
ATOM      5  C4  UNL d   1      -1.404  -2.967   0.207  0.00  0.00     0.017 A 
ATOM      6  C5  UNL d   1      -0.661  -4.019   0.751  0.00  0.00     0.034 A 
ATOM      7 Cl   UNL d   1      -0.589  -1.471  -0.085  0.00  0.00    -0.070 Cl
ATOM      8 Cl1  UNL d   1      -3.746  -1.900  -0.754  0.00  0.00    -0.070 Cl
ENDROOT
TORSDOF 0
ENDMDL
