MODEL 1
REMARK minimizedAffinity 12.8744993
REMARK minimizedRMSD -1
REMARK  0 active torsions:
REMARK  status: ('A' for Active; 'I' for Inactive)
ROOT
ATOM      1  C   UNL d   1       2.110   2.793   0.825  0.00  0.00     0.020 A 
ATOM      2  C1  UNL d   1       1.358   3.777   1.465  0.00  0.00     0.020 A 
ATOM      3  C2  UNL d   1       0.035   3.518   1.831  0.00  0.00     0.034 A 
ATOM      4  C3  UNL d   1      -0.540   2.272   1.556  0.00  0.00     0.017 A 
ATOM      5  C4  UNL d   1       0.216   1.285   0.914  0.00  0.00     0.017 A 
ATOM      6  C5  UNL d   1       1.540   1.549   0.550  0.00  0.00     0.034 A 
ATOM      7 Cl   UNL d   1      -0.425  -0.277   0.542  0.00  0.00    -0.070 Cl
ATOM      8 Cl1  UNL d   1      -2.180   2.021   2.037  0.00  0.00    -0.070 Cl
ENDROOT
TORSDOF 0
ENDMDL
