MODEL 1
REMARK minimizedAffinity 8.75596237
REMARK minimizedRMSD -1
REMARK  0 active torsions:
REMARK  status: ('A' for Active; 'I' for Inactive)
ROOT
ATOM      1  C   UNL d   1       5.986  -4.667   3.367  0.00  0.00     0.020 A 
ATOM      2  C1  UNL d   1       5.726  -5.602   2.366  0.00  0.00     0.020 A 
ATOM      3  C2  UNL d   1       4.413  -6.000   2.106  0.00  0.00     0.034 A 
ATOM      4  C3  UNL d   1       3.355  -5.463   2.849  0.00  0.00     0.017 A 
ATOM      5  C4  UNL d   1       3.617  -4.524   3.854  0.00  0.00     0.017 A 
ATOM      6  C5  UNL d   1       4.934  -4.129   4.109  0.00  0.00     0.034 A 
ATOM      7 Cl   UNL d   1       2.364  -3.817   4.812  0.00  0.00    -0.070 Cl
ATOM      8 Cl1  UNL d   1       1.756  -6.000   2.474  0.00  0.00    -0.070 Cl
ENDROOT
TORSDOF 0
ENDMDL
