MODEL 1
REMARK minimizedAffinity 6.24882317
REMARK minimizedRMSD -1
REMARK  0 active torsions:
REMARK  status: ('A' for Active; 'I' for Inactive)
ROOT
ATOM      1  C   UNL d   1       5.970   4.027   1.326  0.00  0.00     0.020 A 
ATOM      2  C1  UNL d   1       5.968   5.415   1.461  0.00  0.00     0.020 A 
ATOM      3  C2  UNL d   1       5.973   5.992   2.732  0.00  0.00     0.034 A 
ATOM      4  C3  UNL d   1       5.981   5.182   3.873  0.00  0.00     0.017 A 
ATOM      5  C4  UNL d   1       5.984   3.789   3.737  0.00  0.00     0.017 A 
ATOM      6  C5  UNL d   1       5.978   3.216   2.461  0.00  0.00     0.034 A 
ATOM      7 Cl   UNL d   1       5.993   2.724   5.098  0.00  0.00    -0.070 Cl
ATOM      8 Cl1  UNL d   1       5.989   5.964   5.414  0.00  0.00    -0.070 Cl
ENDROOT
TORSDOF 0
ENDMDL
