MODEL 1
REMARK minimizedAffinity 10.4078484
REMARK minimizedRMSD -1
REMARK  0 active torsions:
REMARK  status: ('A' for Active; 'I' for Inactive)
ROOT
ATOM      1  C   UNL d   1       5.145   2.662  -5.960  0.00  0.00     0.020 A 
ATOM      2  C1  UNL d   1       5.990   2.502  -4.862  0.00  0.00     0.020 A 
ATOM      3  C2  UNL d   1       5.491   1.974  -3.669  0.00  0.00     0.034 A 
ATOM      4  C3  UNL d   1       4.145   1.604  -3.572  0.00  0.00     0.017 A 
ATOM      5  C4  UNL d   1       3.298   1.765  -4.674  0.00  0.00     0.017 A 
ATOM      6  C5  UNL d   1       3.802   2.295  -5.866  0.00  0.00     0.034 A 
ATOM      7 Cl   UNL d   1       1.626   1.332  -4.630  0.00  0.00    -0.070 Cl
ATOM      8 Cl1  UNL d   1       3.596   0.956  -2.066  0.00  0.00    -0.070 Cl
ENDROOT
TORSDOF 0
ENDMDL
