MODEL 1
REMARK minimizedAffinity 1.33877861
REMARK minimizedRMSD -1
REMARK  0 active torsions:
REMARK  status: ('A' for Active; 'I' for Inactive)
ROOT
ATOM      1  C   UNL d   1       5.961   5.994   3.678  0.00  0.00     0.020 A 
ATOM      2  C1  UNL d   1       5.980   5.993   5.072  0.00  0.00     0.020 A 
ATOM      3  C2  UNL d   1       5.992   4.784   5.769  0.00  0.00     0.034 A 
ATOM      4  C3  UNL d   1       5.984   3.570   5.073  0.00  0.00     0.017 A 
ATOM      5  C4  UNL d   1       5.965   3.571   3.673  0.00  0.00     0.017 A 
ATOM      6  C5  UNL d   1       5.953   4.786   2.980  0.00  0.00     0.034 A 
ATOM      7 Cl   UNL d   1       5.955   2.114   2.745  0.00  0.00    -0.070 Cl
ATOM      8 Cl1  UNL d   1       6.000   2.111   6.000  0.00  0.00    -0.070 Cl
ENDROOT
TORSDOF 0
ENDMDL
