MODEL 1
REMARK minimizedAffinity -0.841356635
REMARK minimizedRMSD -1
REMARK  0 active torsions:
REMARK  status: ('A' for Active; 'I' for Inactive)
ROOT
ATOM      1  C   UNL d   1       0.483  -0.955  -0.492  0.00  0.00     0.020 A 
ATOM      2  C1  UNL d   1       0.870  -2.268  -0.229  0.00  0.00     0.020 A 
ATOM      3  C2  UNL d   1      -0.095  -3.271  -0.116  0.00  0.00     0.034 A 
ATOM      4  C3  UNL d   1      -1.452  -2.962  -0.266  0.00  0.00     0.017 A 
ATOM      5  C4  UNL d   1      -1.840  -1.644  -0.531  0.00  0.00     0.017 A 
ATOM      6  C5  UNL d   1      -0.869  -0.643  -0.643  0.00  0.00     0.034 A 
ATOM      7 Cl   UNL d   1      -3.495  -1.186  -0.729  0.00  0.00    -0.070 Cl
ATOM      8 Cl1  UNL d   1      -2.591  -4.253  -0.115  0.00  0.00    -0.070 Cl
ENDROOT
TORSDOF 0
ENDMDL
