MODEL 1
REMARK minimizedAffinity 5.69033432
REMARK minimizedRMSD -1
REMARK  0 active torsions:
REMARK  status: ('A' for Active; 'I' for Inactive)
ROOT
ATOM      1  C   UNL d   1       3.279   5.930  -1.819  0.00  0.00     0.020 A 
ATOM      2  C1  UNL d   1       4.449   6.000  -2.573  0.00  0.00     0.020 A 
ATOM      3  C2  UNL d   1       5.275   4.880  -2.686  0.00  0.00     0.034 A 
ATOM      4  C3  UNL d   1       4.932   3.684  -2.044  0.00  0.00     0.017 A 
ATOM      5  C4  UNL d   1       3.756   3.615  -1.287  0.00  0.00     0.017 A 
ATOM      6  C5  UNL d   1       2.933   4.740  -1.178  0.00  0.00     0.034 A 
ATOM      7 Cl   UNL d   1       3.266   2.175  -0.466  0.00  0.00    -0.070 Cl
ATOM      8 Cl1  UNL d   1       6.000   2.338  -2.227  0.00  0.00    -0.070 Cl
ENDROOT
TORSDOF 0
ENDMDL
