MODEL 1
REMARK minimizedAffinity 17.4900646
REMARK minimizedRMSD -1
REMARK  0 active torsions:
REMARK  status: ('A' for Active; 'I' for Inactive)
ROOT
ATOM      1  C   UNL d   1       4.597  -5.964   2.110  0.00  0.00     0.020 A 
ATOM      2  C1  UNL d   1       3.748  -5.962   3.216  0.00  0.00     0.020 A 
ATOM      3  C2  UNL d   1       2.364  -5.969   3.033  0.00  0.00     0.034 A 
ATOM      4  C3  UNL d   1       1.824  -5.977   1.742  0.00  0.00     0.017 A 
ATOM      5  C4  UNL d   1       2.677  -5.979   0.633  0.00  0.00     0.017 A 
ATOM      6  C5  UNL d   1       4.063  -5.972   0.821  0.00  0.00     0.034 A 
ATOM      7 Cl   UNL d   1       2.086  -5.989  -0.991  0.00  0.00    -0.070 Cl
ATOM      8 Cl1  UNL d   1       0.103  -5.985   1.590  0.00  0.00    -0.070 Cl
ENDROOT
TORSDOF 0
ENDMDL
