MODEL 1
REMARK minimizedAffinity 11.7949018
REMARK minimizedRMSD -1
REMARK  0 active torsions:
REMARK  status: ('A' for Active; 'I' for Inactive)
ROOT
ATOM      1  C   UNL d   1      -5.906  -0.832   4.055  0.00  0.00     0.020 A 
ATOM      2  C1  UNL d   1      -5.084  -1.958   4.055  0.00  0.00     0.020 A 
ATOM      3  C2  UNL d   1      -3.827  -1.905   4.661  0.00  0.00     0.034 A 
ATOM      4  C3  UNL d   1      -3.388  -0.723   5.269  0.00  0.00     0.017 A 
ATOM      5  C4  UNL d   1      -4.214   0.407   5.269  0.00  0.00     0.017 A 
ATOM      6  C5  UNL d   1      -5.472   0.348   4.661  0.00  0.00     0.034 A 
ATOM      7 Cl   UNL d   1      -3.742   1.900   6.000  0.00  0.00    -0.070 Cl
ATOM      8 Cl1  UNL d   1      -1.822  -0.729   6.000  0.00  0.00    -0.070 Cl
ENDROOT
TORSDOF 0
ENDMDL
