MODEL 1
REMARK minimizedAffinity -1.83504236
REMARK minimizedRMSD -1
REMARK  0 active torsions:
REMARK  status: ('A' for Active; 'I' for Inactive)
ROOT
ATOM      1  C4' PXY d   1       2.695  -2.001   4.062  0.00  0.00     0.077 C 
ATOM      2  C1' PXY d   1       1.482   2.096   0.169  0.00  0.00     0.077 C 
ATOM      3  C1  PXY d   1       1.788   1.018   1.190  0.00  0.00    -0.082 A 
ATOM      4  C2  PXY d   1       2.840   1.146   1.981  0.00  0.00     0.003 A 
ATOM      5  C3  PXY d   1       3.149   0.165   2.889  0.00  0.00     0.003 A 
ATOM      6  C4  PXY d   1       2.343  -0.933   3.023  0.00  0.00    -0.082 A 
ATOM      7  C5  PXY d   1       1.261  -1.066   2.227  0.00  0.00     0.003 A 
ATOM      8  C6  PXY d   1       0.988  -0.079   1.284  0.00  0.00     0.003 A 
ENDROOT
TORSDOF 0
ENDMDL
