MODEL 1
REMARK minimizedAffinity -2.636127
REMARK minimizedRMSD -1
REMARK  0 active torsions:
REMARK  status: ('A' for Active; 'I' for Inactive)
ROOT
ATOM      1  C4' PXY d   1      -2.042   0.037  -1.707  0.00  0.00     0.077 C 
ATOM      2  C1' PXY d   1       2.364  -0.497   1.996  0.00  0.00     0.077 C 
ATOM      3  C1  PXY d   1       1.202  -0.350   1.034  0.00  0.00    -0.082 A 
ATOM      4  C2  PXY d   1       1.058  -1.218   0.046  0.00  0.00     0.003 A 
ATOM      5  C3  PXY d   1       0.031  -1.081  -0.853  0.00  0.00     0.003 A 
ATOM      6  C4  PXY d   1      -0.889  -0.078  -0.706  0.00  0.00    -0.082 A 
ATOM      7  C5  PXY d   1      -0.755   0.805   0.306  0.00  0.00     0.003 A 
ATOM      8  C6  PXY d   1       0.318   0.674   1.183  0.00  0.00     0.003 A 
ENDROOT
TORSDOF 0
ENDMDL
