MODEL 1
REMARK minimizedAffinity 10.9667997
REMARK minimizedRMSD -1
REMARK  0 active torsions:
REMARK  status: ('A' for Active; 'I' for Inactive)
ROOT
ATOM      1  C4' PXY d   1      -5.997   1.929   1.172  0.00  0.00     0.077 C 
ATOM      2  C1' PXY d   1      -5.975   5.761  -3.156  0.00  0.00     0.077 C 
ATOM      3  C1  PXY d   1      -5.976   4.765  -2.013  0.00  0.00    -0.082 A 
ATOM      4  C2  PXY d   1      -5.962   3.468  -2.276  0.00  0.00     0.003 A 
ATOM      5  C3  PXY d   1      -5.994   2.554  -1.255  0.00  0.00     0.003 A 
ATOM      6  C4  PXY d   1      -5.987   2.971   0.050  0.00  0.00    -0.082 A 
ATOM      7  C5  PXY d   1      -5.991   4.292   0.325  0.00  0.00     0.003 A 
ATOM      8  C6  PXY d   1      -5.999   5.204  -0.726  0.00  0.00     0.003 A 
ENDROOT
TORSDOF 0
ENDMDL
