MODEL 1
REMARK minimizedAffinity 9.04199314
REMARK minimizedRMSD -1
REMARK  0 active torsions:
REMARK  status: ('A' for Active; 'I' for Inactive)
ROOT
ATOM      1  C4' PXY d   1       0.284  -2.049   1.235  0.00  0.00     0.077 C 
ATOM      2  C1' PXY d   1       3.904  -3.616   5.460  0.00  0.00     0.077 C 
ATOM      3  C1  PXY d   1       2.949  -3.197   4.360  0.00  0.00    -0.082 A 
ATOM      4  C2  PXY d   1       2.686  -4.032   3.368  0.00  0.00     0.003 A 
ATOM      5  C3  PXY d   1       1.850  -3.657   2.349  0.00  0.00     0.003 A 
ATOM      6  C4  PXY d   1       1.235  -2.434   2.372  0.00  0.00    -0.082 A 
ATOM      7  C5  PXY d   1       1.490  -1.580   3.386  0.00  0.00     0.003 A 
ATOM      8  C6  PXY d   1       2.374  -1.964   4.390  0.00  0.00     0.003 A 
ENDROOT
TORSDOF 0
ENDMDL
