MODEL 1
REMARK minimizedAffinity 3.28044415
REMARK minimizedRMSD -1
REMARK  0 active torsions:
REMARK  status: ('A' for Active; 'I' for Inactive)
ROOT
ATOM      1  C4' PXY d   1      -1.837  -5.470  -0.820  0.00  0.00     0.077 C 
ATOM      2  C1' PXY d   1      -2.792  -0.688  -3.924  0.00  0.00     0.077 C 
ATOM      3  C1  PXY d   1      -2.535  -1.947  -3.120  0.00  0.00    -0.082 A 
ATOM      4  C2  PXY d   1      -3.341  -2.260  -2.119  0.00  0.00     0.003 A 
ATOM      5  C3  PXY d   1      -3.105  -3.378  -1.361  0.00  0.00     0.003 A 
ATOM      6  C4  PXY d   1      -2.064  -4.213  -1.665  0.00  0.00    -0.082 A 
ATOM      7  C5  PXY d   1      -1.243  -3.907  -2.692  0.00  0.00     0.003 A 
ATOM      8  C6  PXY d   1      -1.476  -2.745  -3.423  0.00  0.00     0.003 A 
ENDROOT
TORSDOF 0
ENDMDL
