MODEL 1
REMARK minimizedAffinity 3.64093852
REMARK minimizedRMSD -1
REMARK  0 active torsions:
REMARK  status: ('A' for Active; 'I' for Inactive)
ROOT
ATOM      1  C4' PXY d   1      -0.068  -1.414   0.526  0.00  0.00     0.077 C 
ATOM      2  C1' PXY d   1       0.319   4.330  -0.002  0.00  0.00     0.077 C 
ATOM      3  C1  PXY d   1       0.231   2.822   0.136  0.00  0.00    -0.082 A 
ATOM      4  C2  PXY d   1      -0.889   2.200  -0.196  0.00  0.00     0.003 A 
ATOM      5  C3  PXY d   1      -0.997   0.841  -0.047  0.00  0.00     0.003 A 
ATOM      6  C4  PXY d   1       0.070   0.105   0.394  0.00  0.00    -0.082 A 
ATOM      7  C5  PXY d   1       1.219   0.732   0.724  0.00  0.00     0.003 A 
ATOM      8  C6  PXY d   1       1.295   2.116   0.606  0.00  0.00     0.003 A 
ENDROOT
TORSDOF 0
ENDMDL
