MODEL 1
REMARK minimizedAffinity 10.384161
REMARK minimizedRMSD -1
REMARK  0 active torsions:
REMARK  status: ('A' for Active; 'I' for Inactive)
ROOT
ATOM      1  C4' PXY d   1       0.680  -2.019   1.898  0.00  0.00     0.077 C 
ATOM      2  C1' PXY d   1      -1.689  -3.746  -3.084  0.00  0.00     0.077 C 
ATOM      3  C1  PXY d   1      -1.060  -3.304  -1.778  0.00  0.00    -0.082 A 
ATOM      4  C2  PXY d   1      -1.727  -2.494  -0.972  0.00  0.00     0.003 A 
ATOM      5  C3  PXY d   1      -1.161  -2.058   0.199  0.00  0.00     0.003 A 
ATOM      6  C4  PXY d   1       0.080  -2.499   0.573  0.00  0.00    -0.082 A 
ATOM      7  C5  PXY d   1       0.763  -3.334  -0.238  0.00  0.00     0.003 A 
ATOM      8  C6  PXY d   1       0.187  -3.731  -1.441  0.00  0.00     0.003 A 
ENDROOT
TORSDOF 0
ENDMDL
