MODEL 1
REMARK minimizedAffinity 1.44254577
REMARK minimizedRMSD -1
REMARK  0 active torsions:
REMARK  status: ('A' for Active; 'I' for Inactive)
ROOT
ATOM      1  C4' PXY d   1       5.968   1.369  -5.995  0.00  0.00     0.077 C 
ATOM      2  C1' PXY d   1       2.551  -3.293  -5.981  0.00  0.00     0.077 C 
ATOM      3  C1  PXY d   1       3.457  -2.078  -5.980  0.00  0.00    -0.082 A 
ATOM      4  C2  PXY d   1       2.925  -0.866  -5.968  0.00  0.00     0.003 A 
ATOM      5  C3  PXY d   1       3.729   0.244  -5.998  0.00  0.00     0.003 A 
ATOM      6  C4  PXY d   1       5.092   0.113  -5.988  0.00  0.00    -0.082 A 
ATOM      7  C5  PXY d   1       5.642  -1.120  -5.990  0.00  0.00     0.003 A 
ATOM      8  C6  PXY d   1       4.808  -2.234  -6.000  0.00  0.00     0.003 A 
ENDROOT
TORSDOF 0
ENDMDL
