MODEL 1
REMARK minimizedAffinity 2.40975118
REMARK minimizedRMSD -1
REMARK  1 active torsions:
REMARK  status: ('A' for Active; 'I' for Inactive)
REMARK    1  A    between atoms: C1_2  and  C2_3 
ROOT
ATOM      1  C2  UNL d   1      -4.924   2.183  -0.943  0.00  0.00    -0.077 A 
ATOM      2  C3  UNL d   1      -3.784   2.828  -0.446  0.00  0.00     0.002 A 
ATOM      3  C4  UNL d   1      -3.530   2.855   0.927  0.00  0.00     0.002 A 
ATOM      4  C5  UNL d   1      -4.409   2.235   1.812  0.00  0.00    -0.004 A 
ATOM      5  C6  UNL d   1      -5.547   1.592   1.327  0.00  0.00     0.002 A 
ATOM      6  C7  UNL d   1      -5.803   1.565  -0.044  0.00  0.00     0.002 A 
ENDROOT
BRANCH   1   7
ATOM      7  C1  UNL d   1      -5.174   2.110  -2.427  0.00  0.00     0.055 C 
ATOM      8  C   UNL d   1      -3.868   2.050  -3.206  0.00  0.00     0.019 C 
ENDBRANCH   1   7
TORSDOF 1
ENDMDL
