MODEL 1
REMARK minimizedAffinity 3.78494477
REMARK minimizedRMSD -1
REMARK  1 active torsions:
REMARK  status: ('A' for Active; 'I' for Inactive)
REMARK    1  A    between atoms: C1_2  and  C2_3 
ROOT
ATOM      1  C2  UNL d   1       1.466  -3.070   0.773  0.00  0.00    -0.077 A 
ATOM      2  C3  UNL d   1       1.289  -1.679   0.779  0.00  0.00     0.002 A 
ATOM      3  C4  UNL d   1       1.430  -0.954   1.963  0.00  0.00     0.002 A 
ATOM      4  C5  UNL d   1       1.752  -1.610   3.150  0.00  0.00    -0.004 A 
ATOM      5  C6  UNL d   1       1.928  -2.993   3.155  0.00  0.00     0.002 A 
ATOM      6  C7  UNL d   1       1.786  -3.720   1.972  0.00  0.00     0.002 A 
ENDROOT
BRANCH   1   7
ATOM      7  C1  UNL d   1       1.363  -3.848  -0.513  0.00  0.00     0.055 C 
ATOM      8  C   UNL d   1       1.836  -3.021  -1.699  0.00  0.00     0.019 C 
ENDBRANCH   1   7
TORSDOF 1
ENDMDL
