MODEL 1
REMARK minimizedAffinity 3.57474613
REMARK minimizedRMSD -1
REMARK  1 active torsions:
REMARK  status: ('A' for Active; 'I' for Inactive)
REMARK    1  A    between atoms: C1_2  and  C2_3 
ROOT
ATOM      1  C2  UNL d   1      -5.622   1.639  -0.406  0.00  0.00    -0.077 A 
ATOM      2  C3  UNL d   1      -5.239   1.151   0.852  0.00  0.00     0.002 A 
ATOM      3  C4  UNL d   1      -5.234   1.994   1.965  0.00  0.00     0.002 A 
ATOM      4  C5  UNL d   1      -5.615   3.327   1.832  0.00  0.00    -0.004 A 
ATOM      5  C6  UNL d   1      -5.996   3.823   0.585  0.00  0.00     0.002 A 
ATOM      6  C7  UNL d   1      -6.000   2.982  -0.528  0.00  0.00     0.002 A 
ENDROOT
BRANCH   1   7
ATOM      7  C1  UNL d   1      -5.675   0.719  -1.598  0.00  0.00     0.055 C 
ATOM      8  C   UNL d   1      -4.654   1.120  -2.652  0.00  0.00     0.019 C 
ENDBRANCH   1   7
TORSDOF 1
ENDMDL
