MODEL 1
REMARK minimizedAffinity 1.69774532
REMARK minimizedRMSD -1
REMARK  1 active torsions:
REMARK  status: ('A' for Active; 'I' for Inactive)
REMARK    1  A    between atoms: C1_2  and  C2_3 
ROOT
ATOM      1  C2  UNL d   1      -5.994   2.732  -1.162  0.00  0.00    -0.077 A 
ATOM      2  C3  UNL d   1      -5.935   3.733  -0.183  0.00  0.00     0.002 A 
ATOM      3  C4  UNL d   1      -5.884   3.394   1.171  0.00  0.00     0.002 A 
ATOM      4  C5  UNL d   1      -5.886   2.055   1.556  0.00  0.00    -0.004 A 
ATOM      5  C6  UNL d   1      -5.946   1.053   0.589  0.00  0.00     0.002 A 
ATOM      6  C7  UNL d   1      -5.999   1.389  -0.764  0.00  0.00     0.002 A 
ENDROOT
BRANCH   1   7
ATOM      7  C1  UNL d   1      -6.000   3.095  -2.625  0.00  0.00     0.055 C 
ATOM      8  C   UNL d   1      -4.910   2.352  -3.383  0.00  0.00     0.019 C 
ENDBRANCH   1   7
TORSDOF 1
ENDMDL
