MODEL 1
REMARK minimizedAffinity 11.5259647
REMARK minimizedRMSD -1
REMARK  1 active torsions:
REMARK  status: ('A' for Active; 'I' for Inactive)
REMARK    1  A    between atoms: C1_2  and  C2_3 
ROOT
ATOM      1  C2  UNL d   1       1.273  -1.792   1.290  0.00  0.00    -0.077 A 
ATOM      2  C3  UNL d   1       1.371  -3.176   1.086  0.00  0.00     0.002 A 
ATOM      3  C4  UNL d   1       1.258  -3.710  -0.199  0.00  0.00     0.002 A 
ATOM      4  C5  UNL d   1       1.052  -2.868  -1.289  0.00  0.00    -0.004 A 
ATOM      5  C6  UNL d   1       0.951  -1.491  -1.097  0.00  0.00     0.002 A 
ATOM      6  C7  UNL d   1       1.062  -0.955   0.187  0.00  0.00     0.002 A 
ENDROOT
BRANCH   1   7
ATOM      7  C1  UNL d   1       1.443  -1.210   2.669  0.00  0.00     0.055 C 
ATOM      8  C   UNL d   1       1.552  -2.303   3.722  0.00  0.00     0.019 C 
ENDBRANCH   1   7
TORSDOF 1
ENDMDL
