MODEL 1
REMARK minimizedAffinity -0.0874422193
REMARK minimizedRMSD -1
REMARK  1 active torsions:
REMARK  status: ('A' for Active; 'I' for Inactive)
REMARK    1  A    between atoms: C1_2  and  C2_3 
ROOT
ATOM      1  C2  UNL d   1      -4.822   3.577   0.284  0.00  0.00    -0.077 A 
ATOM      2  C3  UNL d   1      -4.912   4.311   1.474  0.00  0.00     0.002 A 
ATOM      3  C4  UNL d   1      -3.810   4.413   2.326  0.00  0.00     0.002 A 
ATOM      4  C5  UNL d   1      -2.611   3.787   1.995  0.00  0.00    -0.004 A 
ATOM      5  C6  UNL d   1      -2.511   3.053   0.814  0.00  0.00     0.002 A 
ATOM      6  C7  UNL d   1      -3.612   2.949  -0.038  0.00  0.00     0.002 A 
ENDROOT
BRANCH   1   7
ATOM      7  C1  UNL d   1      -5.993   3.506  -0.661  0.00  0.00     0.055 C 
ATOM      8  C   UNL d   1      -6.000   2.198  -1.438  0.00  0.00     0.019 C 
ENDBRANCH   1   7
TORSDOF 1
ENDMDL
