MODEL 1
REMARK minimizedAffinity -4.78748751
REMARK minimizedRMSD -1
REMARK  0 active torsions:
REMARK  status: ('A' for Active; 'I' for Inactive)
ROOT
ATOM      1  C2' OXE d   1       0.920  -2.445   1.291  0.00  0.00     0.078 C 
ATOM      2  C1' OXE d   1       2.888  -0.988  -0.082  0.00  0.00     0.078 C 
ATOM      3  C1  OXE d   1       1.473  -0.467  -0.118  0.00  0.00    -0.078 A 
ATOM      4  C2  OXE d   1       0.509  -1.211   0.518  0.00  0.00    -0.078 A 
ATOM      5  C3  OXE d   1      -0.803  -0.746   0.562  0.00  0.00     0.003 A 
ATOM      6  C4  OXE d   1      -1.177   0.391  -0.164  0.00  0.00    -0.002 A 
ATOM      7  C5  OXE d   1      -0.217   1.142  -0.852  0.00  0.00    -0.002 A 
ATOM      8  C6  OXE d   1       1.116   0.751  -0.803  0.00  0.00     0.003 A 
ENDROOT
TORSDOF 0
ENDMDL
