MODEL 1
REMARK minimizedAffinity -3.88160038
REMARK minimizedRMSD -1
REMARK  0 active torsions:
REMARK  status: ('A' for Active; 'I' for Inactive)
ROOT
ATOM      1  C2' OXE d   1      -0.539   1.455  -0.665  0.00  0.00     0.078 C 
ATOM      2  C1' OXE d   1       2.237   1.080  -0.839  0.00  0.00     0.078 C 
ATOM      3  C1  OXE d   1       1.439   0.070  -0.054  0.00  0.00    -0.078 A 
ATOM      4  C2  OXE d   1       0.087   0.287   0.065  0.00  0.00    -0.078 A 
ATOM      5  C3  OXE d   1      -0.704  -0.644   0.732  0.00  0.00     0.003 A 
ATOM      6  C4  OXE d   1      -0.116  -1.717   1.413  0.00  0.00    -0.002 A 
ATOM      7  C5  OXE d   1       1.264  -1.934   1.338  0.00  0.00    -0.002 A 
ATOM      8  C6  OXE d   1       2.048  -1.076   0.575  0.00  0.00     0.003 A 
ENDROOT
TORSDOF 0
ENDMDL
