MODEL 1
REMARK minimizedAffinity -2.6676085
REMARK minimizedRMSD -1
REMARK  0 active torsions:
REMARK  status: ('A' for Active; 'I' for Inactive)
ROOT
ATOM      1  C2' OXE d   1       2.077   0.478  -0.799  0.00  0.00     0.078 C 
ATOM      2  C1' OXE d   1      -0.685   0.853  -0.468  0.00  0.00     0.078 C 
ATOM      3  C1  OXE d   1      -0.088  -0.443   0.020  0.00  0.00    -0.078 A 
ATOM      4  C2  OXE d   1       1.256  -0.637  -0.188  0.00  0.00    -0.078 A 
ATOM      5  C3  OXE d   1       1.868  -1.792   0.291  0.00  0.00     0.003 A 
ATOM      6  C4  OXE d   1       1.101  -2.823   0.846  0.00  0.00    -0.002 A 
ATOM      7  C5  OXE d   1      -0.276  -2.662   1.031  0.00  0.00    -0.002 A 
ATOM      8  C6  OXE d   1      -0.878  -1.463   0.663  0.00  0.00     0.003 A 
ENDROOT
TORSDOF 0
ENDMDL
