MODEL 1
REMARK minimizedAffinity -1.81416619
REMARK minimizedRMSD -1
REMARK  0 active torsions:
REMARK  status: ('A' for Active; 'I' for Inactive)
ROOT
ATOM      1  C2' OXE d   1       1.913  -0.033  -1.117  0.00  0.00     0.078 C 
ATOM      2  C1' OXE d   1       1.577  -2.091   0.763  0.00  0.00     0.078 C 
ATOM      3  C1  OXE d   1       0.519  -1.018   0.698  0.00  0.00    -0.078 A 
ATOM      4  C2  OXE d   1       0.715   0.010  -0.193  0.00  0.00    -0.078 A 
ATOM      5  C3  OXE d   1      -0.257   0.997  -0.331  0.00  0.00     0.003 A 
ATOM      6  C4  OXE d   1      -1.357   1.035   0.534  0.00  0.00    -0.002 A 
ATOM      7  C5  OXE d   1      -1.555   0.019   1.475  0.00  0.00    -0.002 A 
ATOM      8  C6  OXE d   1      -0.651  -1.035   1.540  0.00  0.00     0.003 A 
ENDROOT
TORSDOF 0
ENDMDL
