MODEL 1
REMARK minimizedAffinity -5.57257414
REMARK minimizedRMSD -1
REMARK  0 active torsions:
REMARK  status: ('A' for Active; 'I' for Inactive)
ROOT
ATOM      1  C2' OXE d   1       2.366   0.616  -0.961  0.00  0.00     0.078 C 
ATOM      2  C1' OXE d   1      -0.334   1.277  -0.568  0.00  0.00     0.078 C 
ATOM      3  C1  OXE d   1       0.164  -0.024   0.011  0.00  0.00    -0.078 A 
ATOM      4  C2  OXE d   1       1.475  -0.362  -0.227  0.00  0.00    -0.078 A 
ATOM      5  C3  OXE d   1       1.999  -1.524   0.331  0.00  0.00     0.003 A 
ATOM      6  C4  OXE d   1       1.166  -2.428   1.001  0.00  0.00    -0.002 A 
ATOM      7  C5  OXE d   1      -0.182  -2.122   1.219  0.00  0.00    -0.002 A 
ATOM      8  C6  OXE d   1      -0.687  -0.908   0.769  0.00  0.00     0.003 A 
ENDROOT
TORSDOF 0
ENDMDL
