MODEL 1
REMARK minimizedAffinity -3.1428318
REMARK minimizedRMSD -1
REMARK  0 active torsions:
REMARK  status: ('A' for Active; 'I' for Inactive)
ROOT
ATOM      1  C2' OXE d   1      -0.647   0.861  -0.113  0.00  0.00     0.078 C 
ATOM      2  C1' OXE d   1       2.086   0.627  -0.713  0.00  0.00     0.078 C 
ATOM      3  C1  OXE d   1       1.417  -0.531  -0.016  0.00  0.00    -0.078 A 
ATOM      4  C2  OXE d   1       0.091  -0.390   0.315  0.00  0.00    -0.078 A 
ATOM      5  C3  OXE d   1      -0.588  -1.449   0.910  0.00  0.00     0.003 A 
ATOM      6  C4  OXE d   1       0.104  -2.598   1.311  0.00  0.00    -0.002 A 
ATOM      7  C5  OXE d   1       1.464  -2.747   1.019  0.00  0.00    -0.002 A 
ATOM      8  C6  OXE d   1       2.124  -1.742   0.319  0.00  0.00     0.003 A 
ENDROOT
TORSDOF 0
ENDMDL
