MODEL 1
REMARK minimizedAffinity -4.61140919
REMARK minimizedRMSD -1
REMARK  0 active torsions:
REMARK  status: ('A' for Active; 'I' for Inactive)
ROOT
ATOM      1  C2' OXE d   1       2.430  -0.191  -0.980  0.00  0.00     0.078 C 
ATOM      2  C1' OXE d   1       1.729  -2.392   0.615  0.00  0.00     0.078 C 
ATOM      3  C1  OXE d   1       0.742  -1.257   0.509  0.00  0.00    -0.078 A 
ATOM      4  C2  OXE d   1       1.113  -0.163  -0.235  0.00  0.00    -0.078 A 
ATOM      5  C3  OXE d   1       0.217   0.888  -0.410  0.00  0.00     0.003 A 
ATOM      6  C4  OXE d   1      -0.996   0.909   0.290  0.00  0.00    -0.002 A 
ATOM      7  C5  OXE d   1      -1.376  -0.177   1.086  0.00  0.00    -0.002 A 
ATOM      8  C6  OXE d   1      -0.539  -1.284   1.172  0.00  0.00     0.003 A 
ENDROOT
TORSDOF 0
ENDMDL
