MODEL 1
REMARK minimizedAffinity -4.1148138
REMARK minimizedRMSD -1
REMARK  0 active torsions:
REMARK  status: ('A' for Active; 'I' for Inactive)
ROOT
ATOM      1  C2' OXE d   1       1.358  -2.560   0.940  0.00  0.00     0.078 C 
ATOM      2  C1' OXE d   1      -1.251  -1.672   1.473  0.00  0.00     0.078 C 
ATOM      3  C1  OXE d   1      -0.344  -0.759   0.686  0.00  0.00    -0.078 A 
ATOM      4  C2  OXE d   1       0.945  -1.182   0.470  0.00  0.00    -0.078 A 
ATOM      5  C3  OXE d   1       1.807  -0.402  -0.296  0.00  0.00     0.003 A 
ATOM      6  C4  OXE d   1       1.421   0.876  -0.718  0.00  0.00    -0.002 A 
ATOM      7  C5  OXE d   1       0.125   1.343  -0.474  0.00  0.00    -0.002 A 
ATOM      8  C6  OXE d   1      -0.781   0.522   0.188  0.00  0.00     0.003 A 
ENDROOT
TORSDOF 0
ENDMDL
