MODEL 1
REMARK minimizedAffinity -2.42589283
REMARK minimizedRMSD -1
REMARK  0 active torsions:
REMARK  status: ('A' for Active; 'I' for Inactive)
ROOT
ATOM      1  C2' OXE d   1       2.570   0.676  -0.698  0.00  0.00     0.078 C 
ATOM      2  C1' OXE d   1      -0.213   0.797  -1.042  0.00  0.00     0.078 C 
ATOM      3  C1  OXE d   1       0.342  -0.312  -0.184  0.00  0.00    -0.078 A 
ATOM      4  C2  OXE d   1       1.708  -0.391  -0.059  0.00  0.00    -0.078 A 
ATOM      5  C3  OXE d   1       2.270  -1.362   0.766  0.00  0.00     0.003 A 
ATOM      6  C4  OXE d   1       1.466  -2.351   1.346  0.00  0.00    -0.002 A 
ATOM      7  C5  OXE d   1       0.075  -2.312   1.199  0.00  0.00    -0.002 A 
ATOM      8  C6  OXE d   1      -0.505  -1.276   0.474  0.00  0.00     0.003 A 
ENDROOT
TORSDOF 0
ENDMDL
