MODEL 1
REMARK minimizedAffinity -4.95654774
REMARK minimizedRMSD -1
REMARK  0 active torsions:
REMARK  status: ('A' for Active; 'I' for Inactive)
ROOT
ATOM      1  C2' OXE d   1       1.764   0.969  -0.897  0.00  0.00     0.078 C 
ATOM      2  C1' OXE d   1      -0.982   0.949  -0.315  0.00  0.00     0.078 C 
ATOM      3  C1  OXE d   1      -0.181  -0.281   0.030  0.00  0.00    -0.078 A 
ATOM      4  C2  OXE d   1       1.153  -0.280  -0.300  0.00  0.00    -0.078 A 
ATOM      5  C3  OXE d   1       1.950  -1.368   0.046  0.00  0.00     0.003 A 
ATOM      6  C4  OXE d   1       1.375  -2.524   0.588  0.00  0.00    -0.002 A 
ATOM      7  C5  OXE d   1       0.011  -2.561   0.896  0.00  0.00    -0.002 A 
ATOM      8  C6  OXE d   1      -0.771  -1.434   0.663  0.00  0.00     0.003 A 
ENDROOT
TORSDOF 0
ENDMDL
