MODEL 1
REMARK minimizedAffinity -3.91067672
REMARK minimizedRMSD -1
REMARK  0 active torsions:
REMARK  status: ('A' for Active; 'I' for Inactive)
ROOT
ATOM      1  C2' OXE d   1      -1.524  -1.282   2.057  0.00  0.00     0.078 C 
ATOM      2  C1' OXE d   1      -1.120   1.137   0.691  0.00  0.00     0.078 C 
ATOM      3  C1  OXE d   1      -0.083   0.055   0.526  0.00  0.00    -0.078 A 
ATOM      4  C2  OXE d   1      -0.265  -1.108   1.235  0.00  0.00    -0.078 A 
ATOM      5  C3  OXE d   1       0.634  -2.160   1.077  0.00  0.00     0.003 A 
ATOM      6  C4  OXE d   1       1.801  -1.987   0.323  0.00  0.00    -0.002 A 
ATOM      7  C5  OXE d   1       2.025  -0.796  -0.375  0.00  0.00    -0.002 A 
ATOM      8  C6  OXE d   1       1.074   0.217  -0.319  0.00  0.00     0.003 A 
ENDROOT
TORSDOF 0
ENDMDL
