MODEL 1
REMARK minimizedAffinity -3.83810544
REMARK minimizedRMSD -1
REMARK  0 active torsions:
REMARK  status: ('A' for Active; 'I' for Inactive)
ROOT
ATOM      1  C2' OXE d   1      -2.751   0.979  -1.298  0.00  0.00     0.078 C 
ATOM      2  C1' OXE d   1      -0.518   2.535  -1.983  0.00  0.00     0.078 C 
ATOM      3  C1  OXE d   1      -0.290   1.317  -1.124  0.00  0.00    -0.078 A 
ATOM      4  C2  OXE d   1      -1.394   0.588  -0.754  0.00  0.00    -0.078 A 
ATOM      5  C3  OXE d   1      -1.233  -0.576  -0.008  0.00  0.00     0.003 A 
ATOM      6  C4  OXE d   1       0.024  -0.925   0.499  0.00  0.00    -0.002 A 
ATOM      7  C5  OXE d   1       1.157  -0.173   0.168  0.00  0.00    -0.002 A 
ATOM      8  C6  OXE d   1       1.024   0.924  -0.676  0.00  0.00     0.003 A 
ENDROOT
TORSDOF 0
ENDMDL
