MODEL 1
REMARK minimizedAffinity 0.319614738
REMARK minimizedRMSD -1
REMARK  1 active torsions:
REMARK  status: ('A' for Active; 'I' for Inactive)
REMARK    1  A    between atoms: C1_2  and  C2_3 
ROOT
ATOM      1  C2  UNL d   1      -1.613  -3.600   0.183  0.00  0.00    -0.077 A 
ATOM      2  C3  UNL d   1      -1.226  -2.269   0.393  0.00  0.00     0.002 A 
ATOM      3  C4  UNL d   1       0.117  -1.948   0.596  0.00  0.00     0.002 A 
ATOM      4  C5  UNL d   1       1.084  -2.951   0.587  0.00  0.00    -0.004 A 
ATOM      5  C6  UNL d   1       0.709  -4.278   0.381  0.00  0.00     0.002 A 
ATOM      6  C7  UNL d   1      -0.633  -4.601   0.179  0.00  0.00     0.002 A 
ENDROOT
BRANCH   1   7
ATOM      7  C1  UNL d   1      -3.056  -3.943  -0.085  0.00  0.00     0.055 C 
ATOM      8  C   UNL d   1      -3.393  -3.800  -1.562  0.00  0.00     0.019 C 
ENDBRANCH   1   7
TORSDOF 1
ENDMDL
