MODEL 1
REMARK minimizedAffinity -0.894125342
REMARK minimizedRMSD -1
REMARK  1 active torsions:
REMARK  status: ('A' for Active; 'I' for Inactive)
REMARK    1  A    between atoms: C1_2  and  C2_3 
ROOT
ATOM      1  C2  UNL d   1      -0.957  -2.321   1.593  0.00  0.00    -0.077 A 
ATOM      2  C3  UNL d   1      -1.435  -1.403   0.648  0.00  0.00     0.002 A 
ATOM      3  C4  UNL d   1      -0.890  -1.364  -0.637  0.00  0.00     0.002 A 
ATOM      4  C5  UNL d   1       0.133  -2.242  -0.989  0.00  0.00    -0.004 A 
ATOM      5  C6  UNL d   1       0.617  -3.157  -0.055  0.00  0.00     0.002 A 
ATOM      6  C7  UNL d   1       0.074  -3.197   1.230  0.00  0.00     0.002 A 
ENDROOT
BRANCH   1   7
ATOM      7  C1  UNL d   1      -1.577  -2.399   2.964  0.00  0.00     0.055 C 
ATOM      8  C   UNL d   1      -1.417  -1.088   3.719  0.00  0.00     0.019 C 
ENDBRANCH   1   7
TORSDOF 1
ENDMDL
