MODEL 1
REMARK minimizedAffinity 6.94425964
REMARK minimizedRMSD -1
REMARK  1 active torsions:
REMARK  status: ('A' for Active; 'I' for Inactive)
REMARK    1  A    between atoms: C1_2  and  C2_3 
ROOT
ATOM      1  C2  UNL d   1       0.354  -1.889  -0.971  0.00  0.00    -0.077 A 
ATOM      2  C3  UNL d   1      -0.870  -1.801  -0.292  0.00  0.00     0.002 A 
ATOM      3  C4  UNL d   1      -1.220  -2.762   0.659  0.00  0.00     0.002 A 
ATOM      4  C5  UNL d   1      -0.351  -3.814   0.942  0.00  0.00    -0.004 A 
ATOM      5  C6  UNL d   1       0.867  -3.910   0.270  0.00  0.00     0.002 A 
ATOM      6  C7  UNL d   1       1.218  -2.952  -0.682  0.00  0.00     0.002 A 
ENDROOT
BRANCH   1   7
ATOM      7  C1  UNL d   1       0.755  -0.826  -1.961  0.00  0.00     0.055 C 
ATOM      8  C   UNL d   1       0.294   0.552  -1.511  0.00  0.00     0.019 C 
ENDBRANCH   1   7
TORSDOF 1
ENDMDL
