MODEL 1
REMARK minimizedAffinity 4.83190203
REMARK minimizedRMSD -1
REMARK  1 active torsions:
REMARK  status: ('A' for Active; 'I' for Inactive)
REMARK    1  A    between atoms: C1_2  and  C2_3 
ROOT
ATOM      1  C2  UNL d   1       0.183  -2.514  -0.331  0.00  0.00    -0.077 A 
ATOM      2  C3  UNL d   1       1.374  -2.888  -0.970  0.00  0.00     0.002 A 
ATOM      3  C4  UNL d   1       1.953  -2.053  -1.927  0.00  0.00     0.002 A 
ATOM      4  C5  UNL d   1       1.352  -0.838  -2.251  0.00  0.00    -0.004 A 
ATOM      5  C6  UNL d   1       0.167  -0.459  -1.623  0.00  0.00     0.002 A 
ATOM      6  C7  UNL d   1      -0.415  -1.293  -0.666  0.00  0.00     0.002 A 
ENDROOT
BRANCH   1   7
ATOM      7  C1  UNL d   1      -0.417  -3.390   0.737  0.00  0.00     0.055 C 
ATOM      8  C   UNL d   1      -1.475  -2.643   1.536  0.00  0.00     0.019 C 
ENDBRANCH   1   7
TORSDOF 1
ENDMDL
