MODEL 1
REMARK minimizedAffinity 7.25133657
REMARK minimizedRMSD -1
REMARK  1 active torsions:
REMARK  status: ('A' for Active; 'I' for Inactive)
REMARK    1  A    between atoms: C1_2  and  C2_3 
ROOT
ATOM      1  C2  UNL d   1       1.558  -0.320  -1.665  0.00  0.00    -0.077 A 
ATOM      2  C3  UNL d   1       2.731  -0.469  -0.911  0.00  0.00     0.002 A 
ATOM      3  C4  UNL d   1       3.178   0.566  -0.088  0.00  0.00     0.002 A 
ATOM      4  C5  UNL d   1       2.457   1.755  -0.007  0.00  0.00    -0.004 A 
ATOM      5  C6  UNL d   1       1.291   1.915  -0.754  0.00  0.00     0.002 A 
ATOM      6  C7  UNL d   1       0.843   0.882  -1.579  0.00  0.00     0.002 A 
ENDROOT
BRANCH   1   7
ATOM      7  C1  UNL d   1       1.047  -1.453  -2.515  0.00  0.00     0.055 C 
ATOM      8  C   UNL d   1       1.415  -1.257  -3.979  0.00  0.00     0.019 C 
ENDBRANCH   1   7
TORSDOF 1
ENDMDL
