MODEL 1
REMARK minimizedAffinity 0.392851353
REMARK minimizedRMSD -1
REMARK  1 active torsions:
REMARK  status: ('A' for Active; 'I' for Inactive)
REMARK    1  A    between atoms: C1_2  and  C2_3 
ROOT
ATOM      1  C2  UNL d   1       3.943   3.572  -3.067  0.00  0.00    -0.077 A 
ATOM      2  C3  UNL d   1       5.307   3.562  -3.392  0.00  0.00     0.002 A 
ATOM      3  C4  UNL d   1       5.998   4.761  -3.574  0.00  0.00     0.002 A 
ATOM      4  C5  UNL d   1       5.336   5.978  -3.428  0.00  0.00    -0.004 A 
ATOM      5  C6  UNL d   1       3.979   5.999  -3.107  0.00  0.00     0.002 A 
ATOM      6  C7  UNL d   1       3.286   4.801  -2.926  0.00  0.00     0.002 A 
ENDROOT
BRANCH   1   7
ATOM      7  C1  UNL d   1       3.207   2.281  -2.822  0.00  0.00     0.055 C 
ATOM      8  C   UNL d   1       3.162   1.942  -1.339  0.00  0.00     0.019 C 
ENDBRANCH   1   7
TORSDOF 1
ENDMDL
