MODEL 1
REMARK minimizedAffinity 0.801631391
REMARK minimizedRMSD -1
REMARK  1 active torsions:
REMARK  status: ('A' for Active; 'I' for Inactive)
REMARK    1  A    between atoms: C1_2  and  C2_3 
ROOT
ATOM      1  C2  UNL d   1      -0.111  -2.808   0.670  0.00  0.00    -0.077 A 
ATOM      2  C3  UNL d   1       0.266  -4.096   0.264  0.00  0.00     0.002 A 
ATOM      3  C4  UNL d   1       0.808  -4.306  -1.005  0.00  0.00     0.002 A 
ATOM      4  C5  UNL d   1       0.982  -3.233  -1.877  0.00  0.00    -0.004 A 
ATOM      5  C6  UNL d   1       0.607  -1.949  -1.483  0.00  0.00     0.002 A 
ATOM      6  C7  UNL d   1       0.064  -1.737  -0.215  0.00  0.00     0.002 A 
ENDROOT
BRANCH   1   7
ATOM      7  C1  UNL d   1      -0.651  -2.572   2.057  0.00  0.00     0.055 C 
ATOM      8  C   UNL d   1      -1.116  -1.134   2.232  0.00  0.00     0.019 C 
ENDBRANCH   1   7
TORSDOF 1
ENDMDL
