MODEL 1
REMARK minimizedAffinity 7.68600845
REMARK minimizedRMSD -1
REMARK  1 active torsions:
REMARK  status: ('A' for Active; 'I' for Inactive)
REMARK    1  A    between atoms: C1_2  and  C2_3 
ROOT
ATOM      1  C2  UNL d   1       0.473  -2.546  -1.330  0.00  0.00    -0.077 A 
ATOM      2  C3  UNL d   1      -0.434  -1.890  -0.485  0.00  0.00     0.002 A 
ATOM      3  C4  UNL d   1      -0.738  -2.417   0.771  0.00  0.00     0.002 A 
ATOM      4  C5  UNL d   1      -0.137  -3.600   1.196  0.00  0.00    -0.004 A 
ATOM      5  C6  UNL d   1       0.765  -4.261   0.363  0.00  0.00     0.002 A 
ATOM      6  C7  UNL d   1       1.069  -3.736  -0.894  0.00  0.00     0.002 A 
ENDROOT
BRANCH   1   7
ATOM      7  C1  UNL d   1       0.839  -1.953  -2.665  0.00  0.00     0.055 C 
ATOM      8  C   UNL d   1       0.866  -0.432  -2.607  0.00  0.00     0.019 C 
ENDBRANCH   1   7
TORSDOF 1
ENDMDL
