MODEL 1
REMARK minimizedAffinity 8.85403538
REMARK minimizedRMSD -1
REMARK  1 active torsions:
REMARK  status: ('A' for Active; 'I' for Inactive)
REMARK    1  A    between atoms: C1_2  and  C2_3 
ROOT
ATOM      1  C2  UNL d   1      -0.552   3.527  -0.194  0.00  0.00    -0.077 A 
ATOM      2  C3  UNL d   1       0.754   3.171   0.173  0.00  0.00     0.002 A 
ATOM      3  C4  UNL d   1       1.301   1.959  -0.252  0.00  0.00     0.002 A 
ATOM      4  C5  UNL d   1       0.552   1.095  -1.048  0.00  0.00    -0.004 A 
ATOM      5  C6  UNL d   1      -0.748   1.439  -1.416  0.00  0.00     0.002 A 
ATOM      6  C7  UNL d   1      -1.298   2.649  -0.991  0.00  0.00     0.002 A 
ENDROOT
BRANCH   1   7
ATOM      7  C1  UNL d   1      -1.127   4.855   0.223  0.00  0.00     0.055 C 
ATOM      8  C   UNL d   1      -0.183   5.999  -0.120  0.00  0.00     0.019 C 
ENDBRANCH   1   7
TORSDOF 1
ENDMDL
