MODEL 1
REMARK minimizedAffinity -0.205273971
REMARK minimizedRMSD -1
REMARK  1 active torsions:
REMARK  status: ('A' for Active; 'I' for Inactive)
REMARK    1  A    between atoms: C1_2  and  C2_3 
ROOT
ATOM      1  C2  UNL d   1      -0.461  -1.544  -0.689  0.00  0.00    -0.077 A 
ATOM      2  C3  UNL d   1      -0.848  -0.443   0.088  0.00  0.00     0.002 A 
ATOM      3  C4  UNL d   1      -1.239  -0.619   1.417  0.00  0.00     0.002 A 
ATOM      4  C5  UNL d   1      -1.241  -1.892   1.982  0.00  0.00    -0.004 A 
ATOM      5  C6  UNL d   1      -0.859  -2.994   1.217  0.00  0.00     0.002 A 
ATOM      6  C7  UNL d   1      -0.470  -2.821  -0.112  0.00  0.00     0.002 A 
ENDROOT
BRANCH   1   7
ATOM      7  C1  UNL d   1       0.008  -1.351  -2.107  0.00  0.00     0.055 C 
ATOM      8  C   UNL d   1       0.326   0.109  -2.391  0.00  0.00     0.019 C 
ENDBRANCH   1   7
TORSDOF 1
ENDMDL
