MODEL 1
REMARK minimizedAffinity -1.81487274
REMARK minimizedRMSD -1
REMARK  1 active torsions:
REMARK  status: ('A' for Active; 'I' for Inactive)
REMARK    1  A    between atoms: C1_2  and  C2_3 
ROOT
ATOM      1  C2  UNL d   1       0.601   2.058   0.372  0.00  0.00    -0.077 A 
ATOM      2  C3  UNL d   1       1.233   1.432  -0.712  0.00  0.00     0.002 A 
ATOM      3  C4  UNL d   1       0.974   0.091  -1.002  0.00  0.00     0.002 A 
ATOM      4  C5  UNL d   1       0.080  -0.634  -0.215  0.00  0.00    -0.004 A 
ATOM      5  C6  UNL d   1      -0.551  -0.020   0.866  0.00  0.00     0.002 A 
ATOM      6  C7  UNL d   1      -0.293   1.320   1.158  0.00  0.00     0.002 A 
ENDROOT
BRANCH   1   7
ATOM      7  C1  UNL d   1       0.841   3.518   0.656  0.00  0.00     0.055 C 
ATOM      8  C   UNL d   1       0.283   3.916   2.015  0.00  0.00     0.019 C 
ENDBRANCH   1   7
TORSDOF 1
ENDMDL
