MODEL 1
REMARK minimizedAffinity -5.508605
REMARK minimizedRMSD -1
REMARK  1 active torsions:
REMARK  status: ('A' for Active; 'I' for Inactive)
REMARK    1  A    between atoms: C1_2  and  C2_3 
ROOT
ATOM      1  C2  UNL d   1      -0.249  -1.323   0.182  0.00  0.00    -0.077 A 
ATOM      2  C3  UNL d   1      -0.800  -2.604   0.333  0.00  0.00     0.002 A 
ATOM      3  C4  UNL d   1      -0.099  -3.729  -0.105  0.00  0.00     0.002 A 
ATOM      4  C5  UNL d   1       1.157  -3.586  -0.691  0.00  0.00    -0.004 A 
ATOM      5  C6  UNL d   1       1.712  -2.316  -0.847  0.00  0.00     0.002 A 
ATOM      6  C7  UNL d   1       1.012  -1.190  -0.412  0.00  0.00     0.002 A 
ENDROOT
BRANCH   1   7
ATOM      7  C1  UNL d   1      -0.982  -0.112   0.698  0.00  0.00     0.055 C 
ATOM      8  C   UNL d   1      -0.604   1.138  -0.084  0.00  0.00     0.019 C 
ENDBRANCH   1   7
TORSDOF 1
ENDMDL
