MODEL 1
REMARK minimizedAffinity 8.19509602
REMARK minimizedRMSD -1
REMARK  1 active torsions:
REMARK  status: ('A' for Active; 'I' for Inactive)
REMARK    1  A    between atoms: C1_2  and  C2_3 
ROOT
ATOM      1  C2  UNL d   1       3.766  -3.221  -3.617  0.00  0.00    -0.077 A 
ATOM      2  C3  UNL d   1       3.024  -4.311  -4.094  0.00  0.00     0.002 A 
ATOM      3  C4  UNL d   1       3.389  -4.949  -5.281  0.00  0.00     0.002 A 
ATOM      4  C5  UNL d   1       4.497  -4.506  -6.000  0.00  0.00    -0.004 A 
ATOM      5  C6  UNL d   1       5.240  -3.421  -5.536  0.00  0.00     0.002 A 
ATOM      6  C7  UNL d   1       4.877  -2.782  -4.349  0.00  0.00     0.002 A 
ENDROOT
BRANCH   1   7
ATOM      7  C1  UNL d   1       3.404  -2.564  -2.311  0.00  0.00     0.055 C 
ATOM      8  C   UNL d   1       3.777  -1.088  -2.312  0.00  0.00     0.019 C 
ENDBRANCH   1   7
TORSDOF 1
ENDMDL
