MODEL 1
REMARK minimizedAffinity -3.15013242
REMARK minimizedRMSD -1
REMARK  1 active torsions:
REMARK  status: ('A' for Active; 'I' for Inactive)
REMARK    1  A    between atoms: C1_2  and  C2_3 
ROOT
ATOM      1  C2  UNL d   1       0.252  -1.266  -0.485  0.00  0.00    -0.077 A 
ATOM      2  C3  UNL d   1      -0.558  -2.307  -0.011  0.00  0.00     0.002 A 
ATOM      3  C4  UNL d   1      -1.534  -2.058   0.956  0.00  0.00     0.002 A 
ATOM      4  C5  UNL d   1      -1.711  -0.769   1.453  0.00  0.00    -0.004 A 
ATOM      5  C6  UNL d   1      -0.909   0.273   0.990  0.00  0.00     0.002 A 
ATOM      6  C7  UNL d   1       0.068   0.026   0.024  0.00  0.00     0.002 A 
ENDROOT
BRANCH   1   7
ATOM      7  C1  UNL d   1       1.272  -1.522  -1.564  0.00  0.00     0.055 C 
ATOM      8  C   UNL d   1       0.912  -0.795  -2.851  0.00  0.00     0.019 C 
ENDBRANCH   1   7
TORSDOF 1
ENDMDL
