MODEL 1
REMARK minimizedAffinity 5.75089312
REMARK minimizedRMSD -1
REMARK  0 active torsions:
REMARK  status: ('A' for Active; 'I' for Inactive)
ROOT
ATOM      1  C   UNL d   1       2.838   1.112  -5.935  0.00  0.00    -0.002 A 
ATOM      2  C1  UNL d   1       4.224   1.178  -5.944  0.00  0.00     0.010 A 
ATOM      3  C2  UNL d   1       4.877   2.412  -5.965  0.00  0.00     0.041 A 
ATOM      4  C3  UNL d   1       4.105   3.591  -5.975  0.00  0.00    -0.075 A 
ATOM      5  S   UNL d   1       4.687   5.213  -5.999  0.00  0.00     0.015 SA
ATOM      6  C4  UNL d   1       3.109   5.858  -5.998  0.00  0.00     0.022 A 
ATOM      7  C5  UNL d   1       2.150   4.873  -5.979  0.00  0.00     0.026 A 
ATOM      8  C6  UNL d   1       2.708   3.550  -5.965  0.00  0.00    -0.082 A 
ATOM      9  C7  UNL d   1       2.076   2.283  -5.945  0.00  0.00     0.045 A 
ENDROOT
TORSDOF 0
ENDMDL
