MODEL 1
REMARK minimizedAffinity -0.757198036
REMARK minimizedRMSD -1
REMARK  0 active torsions:
REMARK  status: ('A' for Active; 'I' for Inactive)
ROOT
ATOM      1  C   UNL d   1       1.897   5.855  -5.936  0.00  0.00    -0.002 A 
ATOM      2  C1  UNL d   1       1.326   4.591  -5.979  0.00  0.00     0.010 A 
ATOM      3  C2  UNL d   1       2.128   3.449  -5.985  0.00  0.00     0.041 A 
ATOM      4  C3  UNL d   1       3.528   3.599  -5.946  0.00  0.00    -0.075 A 
ATOM      5  S   UNL d   1       4.709   2.342  -5.944  0.00  0.00     0.015 SA
ATOM      6  C4  UNL d   1       6.000   3.453  -5.885  0.00  0.00     0.022 A 
ATOM      7  C5  UNL d   1       5.559   4.755  -5.867  0.00  0.00     0.026 A 
ATOM      8  C6  UNL d   1       4.127   4.861  -5.901  0.00  0.00    -0.082 A 
ATOM      9  C7  UNL d   1       3.287   6.000  -5.896  0.00  0.00     0.045 A 
ENDROOT
TORSDOF 0
ENDMDL
