MODEL 1
REMARK minimizedAffinity 13.6363344
REMARK minimizedRMSD -1
REMARK  0 active torsions:
REMARK  status: ('A' for Active; 'I' for Inactive)
ROOT
ATOM      1  C   UNL d   1       5.187  -4.366   6.000  0.00  0.00    -0.002 A 
ATOM      2  C1  UNL d   1       5.188  -2.981   5.927  0.00  0.00     0.010 A 
ATOM      3  C2  UNL d   1       5.049  -2.334   4.697  0.00  0.00     0.041 A 
ATOM      4  C3  UNL d   1       4.905  -3.111   3.531  0.00  0.00    -0.075 A 
ATOM      5  S   UNL d   1       4.719  -2.538   1.915  0.00  0.00     0.015 SA
ATOM      6  C4  UNL d   1       4.632  -4.118   1.285  0.00  0.00     0.022 A 
ATOM      7  C5  UNL d   1       4.741  -5.073   2.268  0.00  0.00     0.026 A 
ATOM      8  C6  UNL d   1       4.900  -4.508   3.579  0.00  0.00    -0.082 A 
ATOM      9  C7  UNL d   1       5.044  -5.134   4.841  0.00  0.00     0.045 A 
ENDROOT
TORSDOF 0
ENDMDL
