MODEL 1
REMARK minimizedAffinity 16.9358749
REMARK minimizedRMSD -1
REMARK  0 active torsions:
REMARK  status: ('A' for Active; 'I' for Inactive)
ROOT
ATOM      1  C   UNL d   1       0.395  -0.912   2.937  0.00  0.00    -0.002 A 
ATOM      2  C1  UNL d   1      -0.542  -0.214   3.685  0.00  0.00     0.010 A 
ATOM      3  C2  UNL d   1      -1.694   0.296   3.084  0.00  0.00     0.041 A 
ATOM      4  C3  UNL d   1      -1.891   0.089   1.704  0.00  0.00    -0.075 A 
ATOM      5  S   UNL d   1      -3.228   0.621   0.754  0.00  0.00     0.015 SA
ATOM      6  C4  UNL d   1      -2.587  -0.066  -0.668  0.00  0.00     0.022 A 
ATOM      7  C5  UNL d   1      -1.383  -0.690  -0.441  0.00  0.00     0.026 A 
ATOM      8  C6  UNL d   1      -0.962  -0.611   0.930  0.00  0.00    -0.082 A 
ATOM      9  C7  UNL d   1       0.196  -1.115   1.569  0.00  0.00     0.045 A 
ENDROOT
TORSDOF 0
ENDMDL
