MODEL 1
REMARK minimizedAffinity 2.39059138
REMARK minimizedRMSD -1
REMARK  0 active torsions:
REMARK  status: ('A' for Active; 'I' for Inactive)
ROOT
ATOM      1  C   UNL d   1       1.500   4.520  -5.972  0.00  0.00    -0.002 A 
ATOM      2  C1  UNL d   1       2.166   5.737  -5.978  0.00  0.00     0.010 A 
ATOM      3  C2  UNL d   1       3.561   5.783  -5.980  0.00  0.00     0.041 A 
ATOM      4  C3  UNL d   1       4.283   4.574  -5.977  0.00  0.00    -0.075 A 
ATOM      5  S   UNL d   1       5.997   4.386  -5.979  0.00  0.00     0.015 SA
ATOM      6  C4  UNL d   1       5.885   2.685  -5.973  0.00  0.00     0.022 A 
ATOM      7  C5  UNL d   1       4.580   2.254  -5.969  0.00  0.00     0.026 A 
ATOM      8  C6  UNL d   1       3.635   3.335  -5.972  0.00  0.00    -0.082 A 
ATOM      9  C7  UNL d   1       2.219   3.322  -5.969  0.00  0.00     0.045 A 
ENDROOT
TORSDOF 0
ENDMDL
