MODEL 1
REMARK minimizedAffinity 0.512366235
REMARK minimizedRMSD -1
REMARK  0 active torsions:
REMARK  status: ('A' for Active; 'I' for Inactive)
ROOT
ATOM      1  C   UNL d   1       2.302   1.505  -5.997  0.00  0.00    -0.002 A 
ATOM      2  C1  UNL d   1       1.187   2.332  -5.995  0.00  0.00     0.010 A 
ATOM      3  C2  UNL d   1       1.333   3.721  -5.994  0.00  0.00     0.041 A 
ATOM      4  C3  UNL d   1       2.631   4.270  -5.997  0.00  0.00    -0.075 A 
ATOM      5  S   UNL d   1       3.052   5.942  -5.997  0.00  0.00     0.015 SA
ATOM      6  C4  UNL d   1       4.721   5.598  -6.000  0.00  0.00     0.022 A 
ATOM      7  C5  UNL d   1       4.969   4.245  -6.000  0.00  0.00     0.026 A 
ATOM      8  C6  UNL d   1       3.768   3.458  -5.999  0.00  0.00    -0.082 A 
ATOM      9  C7  UNL d   1       3.587   2.054  -5.999  0.00  0.00     0.045 A 
ENDROOT
TORSDOF 0
ENDMDL
