MODEL 1
REMARK minimizedAffinity -1.48247814
REMARK minimizedRMSD -1
REMARK  0 active torsions:
REMARK  status: ('A' for Active; 'I' for Inactive)
ROOT
ATOM      1  C   UNL d   1       5.819   2.240  -5.999  0.00  0.00    -0.002 A 
ATOM      2  C1  UNL d   1       4.666   1.469  -5.999  0.00  0.00     0.010 A 
ATOM      3  C2  UNL d   1       3.407   2.073  -5.999  0.00  0.00     0.041 A 
ATOM      4  C3  UNL d   1       3.326   3.480  -5.999  0.00  0.00    -0.075 A 
ATOM      5  S   UNL d   1       1.894   4.439  -6.000  0.00  0.00     0.015 SA
ATOM      6  C4  UNL d   1       2.779   5.895  -6.000  0.00  0.00     0.022 A 
ATOM      7  C5  UNL d   1       4.136   5.674  -5.999  0.00  0.00     0.026 A 
ATOM      8  C6  UNL d   1       4.474   4.278  -6.000  0.00  0.00    -0.082 A 
ATOM      9  C7  UNL d   1       5.735   3.635  -5.999  0.00  0.00     0.045 A 
ENDROOT
TORSDOF 0
ENDMDL
