MODEL 1
REMARK minimizedAffinity -0.728176117
REMARK minimizedRMSD -1
REMARK  1 active torsions:
REMARK  status: ('A' for Active; 'I' for Inactive)
REMARK    1  A    between atoms: C1_2  and  C2_3 
ROOT
ATOM      1  C2  UNL d   1      -0.146  -0.112   2.124  0.00  0.00    -0.073 A 
ATOM      2  C3  UNL d   1      -0.227   1.245   2.456  0.00  0.00    -0.002 A 
ATOM      3  C4  UNL d   1       0.461   2.197   1.703  0.00  0.00     0.004 A 
ATOM      4  C5  UNL d   1       1.231   1.804   0.609  0.00  0.00    -0.004 A 
ATOM      5  C6  UNL d   1       1.316   0.454   0.254  0.00  0.00    -0.075 A 
ATOM      6  C7  UNL d   1       2.142   0.014  -0.919  0.00  0.00     0.076 C 
ATOM      7  C8  UNL d   1       0.624  -0.497   1.017  0.00  0.00     0.001 A 
ENDROOT
BRANCH   1   8
ATOM      8  C1  UNL d   1      -0.893  -1.143   2.930  0.00  0.00     0.053 C 
ATOM      9  C   UNL d   1      -0.922  -2.496   2.238  0.00  0.00     0.018 C 
ENDBRANCH   1   8
TORSDOF 1
ENDMDL
