MODEL 1
REMARK minimizedAffinity 1.87203813
REMARK minimizedRMSD -1
REMARK  1 active torsions:
REMARK  status: ('A' for Active; 'I' for Inactive)
REMARK    1  A    between atoms: C1_2  and  C2_3 
ROOT
ATOM      1  C2  UNL d   1       0.900   1.123   2.484  0.00  0.00    -0.073 A 
ATOM      2  C3  UNL d   1       0.984   2.440   2.020  0.00  0.00    -0.002 A 
ATOM      3  C4  UNL d   1       1.130   2.699   0.656  0.00  0.00     0.004 A 
ATOM      4  C5  UNL d   1       1.186   1.646  -0.256  0.00  0.00    -0.004 A 
ATOM      5  C6  UNL d   1       1.091   0.323   0.187  0.00  0.00    -0.075 A 
ATOM      6  C7  UNL d   1       1.151  -0.822  -0.781  0.00  0.00     0.076 C 
ATOM      7  C8  UNL d   1       0.948   0.071   1.558  0.00  0.00     0.001 A 
ENDROOT
BRANCH   1   8
ATOM      8  C1  UNL d   1       0.736   0.838   3.955  0.00  0.00     0.053 C 
ATOM      9  C   UNL d   1       2.028   1.061   4.726  0.00  0.00     0.018 C 
ENDBRANCH   1   8
TORSDOF 1
ENDMDL
