MODEL 1
REMARK minimizedAffinity -0.762561679
REMARK minimizedRMSD -1
REMARK  1 active torsions:
REMARK  status: ('A' for Active; 'I' for Inactive)
REMARK    1  A    between atoms: C1_2  and  C2_3 
ROOT
ATOM      1  C2  UNL d   1      -0.793  -0.413   1.919  0.00  0.00    -0.073 A 
ATOM      2  C3  UNL d   1      -0.680  -0.989   0.649  0.00  0.00    -0.002 A 
ATOM      3  C4  UNL d   1       0.001  -0.321  -0.370  0.00  0.00     0.004 A 
ATOM      4  C5  UNL d   1       0.579   0.925  -0.128  0.00  0.00    -0.004 A 
ATOM      5  C6  UNL d   1       0.487   1.512   1.138  0.00  0.00    -0.075 A 
ATOM      6  C7  UNL d   1       1.102   2.852   1.414  0.00  0.00     0.076 C 
ATOM      7  C8  UNL d   1      -0.200   0.836   2.155  0.00  0.00     0.001 A 
ENDROOT
BRANCH   1   8
ATOM      8  C1  UNL d   1      -1.521  -1.133   3.025  0.00  0.00     0.053 C 
ATOM      9  C   UNL d   1      -1.233  -2.626   3.019  0.00  0.00     0.018 C 
ENDBRANCH   1   8
TORSDOF 1
ENDMDL
