MODEL 1
REMARK minimizedAffinity -0.707086325
REMARK minimizedRMSD -1
REMARK  1 active torsions:
REMARK  status: ('A' for Active; 'I' for Inactive)
REMARK    1  A    between atoms: C1_2  and  C2_3 
ROOT
ATOM      1  C2  UNL d   1       1.580   1.092   0.234  0.00  0.00    -0.073 A 
ATOM      2  C3  UNL d   1       1.946  -0.029  -0.521  0.00  0.00    -0.002 A 
ATOM      3  C4  UNL d   1       1.103  -1.139  -0.587  0.00  0.00     0.004 A 
ATOM      4  C5  UNL d   1      -0.115  -1.138   0.093  0.00  0.00    -0.004 A 
ATOM      5  C6  UNL d   1      -0.503  -0.023   0.843  0.00  0.00    -0.075 A 
ATOM      6  C7  UNL d   1      -1.809  -0.007   1.582  0.00  0.00     0.076 C 
ATOM      7  C8  UNL d   1       0.350   1.087   0.907  0.00  0.00     0.001 A 
ENDROOT
BRANCH   1   8
ATOM      8  C1  UNL d   1       2.484   2.295   0.304  0.00  0.00     0.053 C 
ATOM      9  C   UNL d   1       2.099   3.232   1.438  0.00  0.00     0.018 C 
ENDBRANCH   1   8
TORSDOF 1
ENDMDL
