MODEL 1
REMARK minimizedAffinity -3.74851966
REMARK minimizedRMSD -1
REMARK  1 active torsions:
REMARK  status: ('A' for Active; 'I' for Inactive)
REMARK    1  A    between atoms: C1_2  and  C2_3 
ROOT
ATOM      1  C2  UNL d   1      -0.662  -0.173   1.848  0.00  0.00    -0.073 A 
ATOM      2  C3  UNL d   1      -0.196  -0.883   0.736  0.00  0.00    -0.002 A 
ATOM      3  C4  UNL d   1       0.617  -0.257  -0.210  0.00  0.00     0.004 A 
ATOM      4  C5  UNL d   1       0.976   1.082  -0.051  0.00  0.00    -0.004 A 
ATOM      5  C6  UNL d   1       0.530   1.805   1.060  0.00  0.00    -0.075 A 
ATOM      6  C7  UNL d   1       0.906   3.245   1.244  0.00  0.00     0.076 C 
ATOM      7  C8  UNL d   1      -0.288   1.170   2.004  0.00  0.00     0.001 A 
ENDROOT
BRANCH   1   8
ATOM      8  C1  UNL d   1      -1.535  -0.846   2.875  0.00  0.00     0.053 C 
ATOM      9  C   UNL d   1      -1.013  -2.225   3.250  0.00  0.00     0.018 C 
ENDBRANCH   1   8
TORSDOF 1
ENDMDL
