MODEL 1
REMARK minimizedAffinity 9.50357342
REMARK minimizedRMSD -1
REMARK  1 active torsions:
REMARK  status: ('A' for Active; 'I' for Inactive)
REMARK    1  A    between atoms: C1_2  and  C2_3 
ROOT
ATOM      1  C2  UNL d   1       2.257   3.355  -3.017  0.00  0.00    -0.073 A 
ATOM      2  C3  UNL d   1       1.738   3.818  -4.231  0.00  0.00    -0.002 A 
ATOM      3  C4  UNL d   1       2.595   4.211  -5.260  0.00  0.00     0.004 A 
ATOM      4  C5  UNL d   1       3.977   4.138  -5.089  0.00  0.00    -0.004 A 
ATOM      5  C6  UNL d   1       4.515   3.666  -3.887  0.00  0.00    -0.075 A 
ATOM      6  C7  UNL d   1       5.999   3.583  -3.686  0.00  0.00     0.076 C 
ATOM      7  C8  UNL d   1       3.648   3.277  -2.857  0.00  0.00     0.001 A 
ENDROOT
BRANCH   1   8
ATOM      8  C1  UNL d   1       1.335   2.924  -1.905  0.00  0.00     0.053 C 
ATOM      9  C   UNL d   1       1.395   1.424  -1.664  0.00  0.00     0.018 C 
ENDBRANCH   1   8
TORSDOF 1
ENDMDL
