MODEL 1
REMARK minimizedAffinity -2.83104372
REMARK minimizedRMSD -1
REMARK  1 active torsions:
REMARK  status: ('A' for Active; 'I' for Inactive)
REMARK    1  A    between atoms: C1_2  and  C2_3 
ROOT
ATOM      1  C2  UNL d   1       1.068   5.620  -3.982  0.00  0.00    -0.073 A 
ATOM      2  C3  UNL d   1       1.248   5.966  -5.326  0.00  0.00    -0.002 A 
ATOM      3  C4  UNL d   1       2.419   5.608  -5.995  0.00  0.00     0.004 A 
ATOM      4  C5  UNL d   1       3.417   4.895  -5.331  0.00  0.00    -0.004 A 
ATOM      5  C6  UNL d   1       3.251   4.530  -3.991  0.00  0.00    -0.075 A 
ATOM      6  C7  UNL d   1       4.316   3.766  -3.262  0.00  0.00     0.076 C 
ATOM      7  C8  UNL d   1       2.073   4.896  -3.325  0.00  0.00     0.001 A 
ENDROOT
BRANCH   1   8
ATOM      8  C1  UNL d   1      -0.198   5.999  -3.257  0.00  0.00     0.053 C 
ATOM      9  C   UNL d   1      -1.406   5.996  -4.180  0.00  0.00     0.018 C 
ENDBRANCH   1   8
TORSDOF 1
ENDMDL
