MODEL 1
REMARK minimizedAffinity -2.74355912
REMARK minimizedRMSD -1
REMARK  1 active torsions:
REMARK  status: ('A' for Active; 'I' for Inactive)
REMARK    1  A    between atoms: C1_2  and  C2_3 
ROOT
ATOM      1  C2  UNL d   1       1.222   1.255   1.804  0.00  0.00    -0.073 A 
ATOM      2  C3  UNL d   1       2.577   1.366   1.473  0.00  0.00    -0.002 A 
ATOM      3  C4  UNL d   1       3.537   1.527   2.473  0.00  0.00     0.004 A 
ATOM      4  C5  UNL d   1       3.154   1.571   3.813  0.00  0.00    -0.004 A 
ATOM      5  C6  UNL d   1       1.806   1.450   4.165  0.00  0.00    -0.075 A 
ATOM      6  C7  UNL d   1       1.376   1.498   5.603  0.00  0.00     0.076 C 
ATOM      7  C8  UNL d   1       0.847   1.291   3.155  0.00  0.00     0.001 A 
ENDROOT
BRANCH   1   8
ATOM      8  C1  UNL d   1       0.183   1.074   0.728  0.00  0.00     0.053 C 
ATOM      9  C   UNL d   1       0.036  -0.382   0.316  0.00  0.00     0.018 C 
ENDBRANCH   1   8
TORSDOF 1
ENDMDL
