MODEL 1
REMARK minimizedAffinity 1.42328203
REMARK minimizedRMSD -1
REMARK  1 active torsions:
REMARK  status: ('A' for Active; 'I' for Inactive)
REMARK    1  A    between atoms: C1_2  and  C2_3 
ROOT
ATOM      1  C2  UNL d   1      -0.904  -0.233  -2.297  0.00  0.00    -0.073 A 
ATOM      2  C3  UNL d   1      -0.820  -0.153  -3.692  0.00  0.00    -0.002 A 
ATOM      3  C4  UNL d   1      -1.753  -0.814  -4.493  0.00  0.00     0.004 A 
ATOM      4  C5  UNL d   1      -2.781  -1.554  -3.909  0.00  0.00    -0.004 A 
ATOM      5  C6  UNL d   1      -2.888  -1.636  -2.516  0.00  0.00    -0.075 A 
ATOM      6  C7  UNL d   1      -3.986  -2.429  -1.872  0.00  0.00     0.076 C 
ATOM      7  C8  UNL d   1      -1.946  -0.971  -1.719  0.00  0.00     0.001 A 
ENDROOT
BRANCH   1   8
ATOM      8  C1  UNL d   1       0.097   0.485  -1.429  0.00  0.00     0.053 C 
ATOM      9  C   UNL d   1       0.011   0.043   0.024  0.00  0.00     0.018 C 
ENDBRANCH   1   8
TORSDOF 1
ENDMDL
