MODEL 1
REMARK minimizedAffinity 0.256575286
REMARK minimizedRMSD -1
REMARK  1 active torsions:
REMARK  status: ('A' for Active; 'I' for Inactive)
REMARK    1  A    between atoms: C1_2  and  C2_3 
ROOT
ATOM      1  C2  UNL d   1       2.183   1.704   2.793  0.00  0.00    -0.073 A 
ATOM      2  C3  UNL d   1       1.025   2.060   3.494  0.00  0.00    -0.002 A 
ATOM      3  C4  UNL d   1      -0.234   1.742   2.984  0.00  0.00     0.004 A 
ATOM      4  C5  UNL d   1      -0.349   1.059   1.773  0.00  0.00    -0.004 A 
ATOM      5  C6  UNL d   1       0.797   0.684   1.063  0.00  0.00    -0.075 A 
ATOM      6  C7  UNL d   1       0.690  -0.049  -0.242  0.00  0.00     0.076 C 
ATOM      7  C8  UNL d   1       2.058   1.010   1.581  0.00  0.00     0.001 A 
ENDROOT
BRANCH   1   8
ATOM      8  C1  UNL d   1       3.545   2.039   3.343  0.00  0.00     0.053 C 
ATOM      9  C   UNL d   1       3.831   3.532   3.285  0.00  0.00     0.018 C 
ENDBRANCH   1   8
TORSDOF 1
ENDMDL
