MODEL 1
REMARK minimizedAffinity 3.64819646
REMARK minimizedRMSD -1
REMARK  0 active torsions:
REMARK  status: ('A' for Active; 'I' for Inactive)
ROOT
ATOM      1  O1  BZF d   1      -4.091   4.216  -3.198  0.00  0.00    -0.204 OA
ATOM      2  C2  BZF d   1      -4.627   4.623  -1.991  0.00  0.00     0.174 A 
ATOM      3  C3  BZF d   1      -4.215   3.820  -0.989  0.00  0.00    -0.012 A 
ATOM      4  C3A BZF d   1      -3.294   2.907  -1.594  0.00  0.00    -0.107 A 
ATOM      5  C4  BZF d   1      -2.539   1.877  -1.109  0.00  0.00     0.055 A 
ATOM      6  C5  BZF d   1      -1.800   1.136  -1.976  0.00  0.00    -0.016 A 
ATOM      7  C6  BZF d   1      -1.797   1.392  -3.331  0.00  0.00     0.022 A 
ATOM      8  C7  BZF d   1      -2.527   2.405  -3.858  0.00  0.00     0.029 A 
ATOM      9  C7A BZF d   1      -3.249   3.177  -2.981  0.00  0.00     0.058 A 
ENDROOT
TORSDOF 0
ENDMDL
