MODEL 1
REMARK minimizedAffinity 6.45806217
REMARK minimizedRMSD -1
REMARK  0 active torsions:
REMARK  status: ('A' for Active; 'I' for Inactive)
ROOT
ATOM      1  O1  BZF d   1      -3.982  -0.942  -3.536  0.00  0.00    -0.204 OA
ATOM      2  C2  BZF d   1      -2.919  -0.106  -3.817  0.00  0.00     0.174 A 
ATOM      3  C3  BZF d   1      -1.758  -0.651  -3.399  0.00  0.00    -0.012 A 
ATOM      4  C3A BZF d   1      -2.108  -1.947  -2.903  0.00  0.00    -0.107 A 
ATOM      5  C4  BZF d   1      -1.385  -2.974  -2.367  0.00  0.00     0.055 A 
ATOM      6  C5  BZF d   1      -2.039  -4.076  -1.915  0.00  0.00    -0.016 A 
ATOM      7  C6  BZF d   1      -3.413  -4.183  -1.979  0.00  0.00     0.022 A 
ATOM      8  C7  BZF d   1      -4.172  -3.193  -2.508  0.00  0.00     0.029 A 
ATOM      9  C7A BZF d   1      -3.512  -2.091  -2.995  0.00  0.00     0.058 A 
ENDROOT
TORSDOF 0
ENDMDL
