MODEL 1
REMARK minimizedAffinity -1.12102175
REMARK minimizedRMSD -1
REMARK  0 active torsions:
REMARK  status: ('A' for Active; 'I' for Inactive)
ROOT
ATOM      1  O1  BZF d   1       4.744  -3.264  -5.980  0.00  0.00    -0.204 OA
ATOM      2  C2  BZF d   1       3.401  -3.585  -5.976  0.00  0.00     0.174 A 
ATOM      3  C3  BZF d   1       2.643  -2.472  -5.903  0.00  0.00    -0.012 A 
ATOM      4  C3A BZF d   1       3.569  -1.382  -5.951  0.00  0.00    -0.107 A 
ATOM      5  C4  BZF d   1       3.423  -0.025  -5.933  0.00  0.00     0.055 A 
ATOM      6  C5  BZF d   1       4.533   0.759  -5.919  0.00  0.00    -0.016 A 
ATOM      7  C6  BZF d   1       5.803   0.219  -5.919  0.00  0.00     0.022 A 
ATOM      8  C7  BZF d   1       5.998  -1.122  -5.942  0.00  0.00     0.029 A 
ATOM      9  C7A BZF d   1       4.878  -1.916  -5.989  0.00  0.00     0.058 A 
ENDROOT
TORSDOF 0
ENDMDL
