MODEL 1
REMARK minimizedAffinity -1.40949953
REMARK minimizedRMSD -1
REMARK  0 active torsions:
REMARK  status: ('A' for Active; 'I' for Inactive)
ROOT
ATOM      1  O1  BZF d   1      -0.987  -0.087   1.442  0.00  0.00    -0.204 OA
ATOM      2  C2  BZF d   1      -0.188  -1.018   2.076  0.00  0.00     0.174 A 
ATOM      3  C3  BZF d   1       1.112  -0.667   1.997  0.00  0.00    -0.012 A 
ATOM      4  C3A BZF d   1       1.118   0.608   1.347  0.00  0.00    -0.107 A 
ATOM      5  C4  BZF d   1       2.110   1.478   0.996  0.00  0.00     0.055 A 
ATOM      6  C5  BZF d   1       1.788   2.605   0.308  0.00  0.00    -0.016 A 
ATOM      7  C6  BZF d   1       0.486   2.889  -0.050  0.00  0.00     0.022 A 
ATOM      8  C7  BZF d   1      -0.533   2.059   0.281  0.00  0.00     0.029 A 
ATOM      9  C7A BZF d   1      -0.214   0.936   1.005  0.00  0.00     0.058 A 
ENDROOT
TORSDOF 0
ENDMDL
