MODEL 1
REMARK minimizedAffinity 15.7139339
REMARK minimizedRMSD -1
REMARK  0 active torsions:
REMARK  status: ('A' for Active; 'I' for Inactive)
ROOT
ATOM      1  O1  BZF d   1      -1.327   2.172   0.367  0.00  0.00    -0.204 OA
ATOM      2  C2  BZF d   1      -1.308   3.541   0.550  0.00  0.00     0.174 A 
ATOM      3  C3  BZF d   1      -0.041   4.001   0.586  0.00  0.00    -0.012 A 
ATOM      4  C3A BZF d   1       0.781   2.861   0.322  0.00  0.00    -0.107 A 
ATOM      5  C4  BZF d   1       2.131   2.682   0.211  0.00  0.00     0.055 A 
ATOM      6  C5  BZF d   1       2.617   1.427   0.020  0.00  0.00    -0.016 A 
ATOM      7  C6  BZF d   1       1.784   0.330  -0.060  0.00  0.00     0.022 A 
ATOM      8  C7  BZF d   1       0.439   0.458   0.040  0.00  0.00     0.029 A 
ATOM      9  C7A BZF d   1      -0.058   1.729   0.199  0.00  0.00     0.058 A 
ENDROOT
TORSDOF 0
ENDMDL
