MODEL 1
REMARK minimizedAffinity 7.38830471
REMARK minimizedRMSD -1
REMARK  0 active torsions:
REMARK  status: ('A' for Active; 'I' for Inactive)
ROOT
ATOM      1  O1  BZF d   1       2.973   2.715   2.434  0.00  0.00    -0.204 OA
ATOM      2  C2  BZF d   1       3.080   2.504   3.795  0.00  0.00     0.174 A 
ATOM      3  C3  BZF d   1       2.534   1.320   4.140  0.00  0.00    -0.012 A 
ATOM      4  C3A BZF d   1       2.137   0.715   2.906  0.00  0.00    -0.107 A 
ATOM      5  C4  BZF d   1       1.548  -0.476   2.591  0.00  0.00     0.055 A 
ATOM      6  C5  BZF d   1       1.227  -0.733   1.296  0.00  0.00    -0.016 A 
ATOM      7  C6  BZF d   1       1.476   0.181   0.292  0.00  0.00     0.022 A 
ATOM      8  C7  BZF d   1       2.062   1.374   0.555  0.00  0.00     0.029 A 
ATOM      9  C7A BZF d   1       2.418   1.622   1.858  0.00  0.00     0.058 A 
ENDROOT
TORSDOF 0
ENDMDL
