MODEL 1
REMARK minimizedAffinity -4.0808506
REMARK minimizedRMSD -1
REMARK  0 active torsions:
REMARK  status: ('A' for Active; 'I' for Inactive)
ROOT
ATOM      1  O1  BZF d   1       3.801  -1.629  -5.718  0.00  0.00    -0.204 OA
ATOM      2  C2  BZF d   1       4.407  -0.853  -4.749  0.00  0.00     0.174 A 
ATOM      3  C3  BZF d   1       4.874  -1.621  -3.744  0.00  0.00    -0.012 A 
ATOM      4  C3A BZF d   1       4.622  -2.969  -4.152  0.00  0.00    -0.107 A 
ATOM      5  C4  BZF d   1       4.874  -4.184  -3.582  0.00  0.00     0.055 A 
ATOM      6  C5  BZF d   1       4.434  -5.309  -4.206  0.00  0.00    -0.016 A 
ATOM      7  C6  BZF d   1       3.737  -5.255  -5.395  0.00  0.00     0.022 A 
ATOM      8  C7  BZF d   1       3.467  -4.073  -6.000  0.00  0.00     0.029 A 
ATOM      9  C7A BZF d   1       3.939  -2.936  -5.389  0.00  0.00     0.058 A 
ENDROOT
TORSDOF 0
ENDMDL
