MODEL 1
REMARK minimizedAffinity 9.66688061
REMARK minimizedRMSD -1
REMARK  0 active torsions:
REMARK  status: ('A' for Active; 'I' for Inactive)
ROOT
ATOM      1  O1  BZF d   1       1.066  -0.020   0.758  0.00  0.00    -0.204 OA
ATOM      2  C2  BZF d   1       0.880   0.920  -0.237  0.00  0.00     0.174 A 
ATOM      3  C3  BZF d   1       1.377   2.117   0.137  0.00  0.00    -0.012 A 
ATOM      4  C3A BZF d   1       1.989   1.890   1.410  0.00  0.00    -0.107 A 
ATOM      5  C4  BZF d   1       2.667   2.692   2.282  0.00  0.00     0.055 A 
ATOM      6  C5  BZF d   1       3.072   2.179   3.473  0.00  0.00    -0.016 A 
ATOM      7  C6  BZF d   1       2.813   0.871   3.826  0.00  0.00     0.022 A 
ATOM      8  C7  BZF d   1       2.148   0.035   2.992  0.00  0.00     0.029 A 
ATOM      9  C7A BZF d   1       1.767   0.541   1.773  0.00  0.00     0.058 A 
ENDROOT
TORSDOF 0
ENDMDL
