MODEL 1
REMARK minimizedAffinity 4.38321972
REMARK minimizedRMSD -1
REMARK  0 active torsions:
REMARK  status: ('A' for Active; 'I' for Inactive)
ROOT
ATOM      1  O1  BZF d   1      -0.477  -1.314  -1.533  0.00  0.00    -0.204 OA
ATOM      2  C2  BZF d   1      -0.258  -0.794  -0.272  0.00  0.00     0.174 A 
ATOM      3  C3  BZF d   1      -0.865   0.402  -0.136  0.00  0.00    -0.012 A 
ATOM      4  C3A BZF d   1      -1.580   0.602  -1.359  0.00  0.00    -0.107 A 
ATOM      5  C4  BZF d   1      -2.389   1.601  -1.821  0.00  0.00     0.055 A 
ATOM      6  C5  BZF d   1      -2.872   1.526  -3.089  0.00  0.00    -0.016 A 
ATOM      7  C6  BZF d   1      -2.563   0.472  -3.923  0.00  0.00     0.022 A 
ATOM      8  C7  BZF d   1      -1.769  -0.545  -3.507  0.00  0.00     0.029 A 
ATOM      9  C7A BZF d   1      -1.306  -0.489  -2.215  0.00  0.00     0.058 A 
ENDROOT
TORSDOF 0
ENDMDL
