MODEL 1
REMARK minimizedAffinity 9.55276585
REMARK minimizedRMSD -1
REMARK  0 active torsions:
REMARK  status: ('A' for Active; 'I' for Inactive)
ROOT
ATOM      1  O1  BZF d   1      -5.649  -1.172  -1.817  0.00  0.00    -0.204 OA
ATOM      2  C2  BZF d   1      -5.998  -0.376  -0.744  0.00  0.00     0.174 A 
ATOM      3  C3  BZF d   1      -5.318   0.788  -0.771  0.00  0.00    -0.012 A 
ATOM      4  C3A BZF d   1      -4.560   0.753  -1.984  0.00  0.00    -0.107 A 
ATOM      5  C4  BZF d   1      -3.699   1.631  -2.579  0.00  0.00     0.055 A 
ATOM      6  C5  BZF d   1      -3.069   1.263  -3.725  0.00  0.00    -0.016 A 
ATOM      7  C6  BZF d   1      -3.272   0.026  -4.301  0.00  0.00     0.022 A 
ATOM      8  C7  BZF d   1      -4.121  -0.876  -3.750  0.00  0.00     0.029 A 
ATOM      9  C7A BZF d   1      -4.784  -0.495  -2.610  0.00  0.00     0.058 A 
ENDROOT
TORSDOF 0
ENDMDL
