MODEL 1
REMARK minimizedAffinity -4.52901411
REMARK minimizedRMSD -1
REMARK  0 active torsions:
REMARK  status: ('A' for Active; 'I' for Inactive)
ROOT
ATOM      1  C   UNL d   1      -0.248   1.718   0.959  0.00  0.00     0.023 A 
ATOM      2  C1  UNL d   1      -0.717   1.896   2.261  0.00  0.00     0.003 A 
ATOM      3  C2  UNL d   1      -1.508   3.003   2.574  0.00  0.00     0.048 A 
ATOM      4  C3  UNL d   1      -1.827   3.928   1.580  0.00  0.00     0.023 A 
ATOM      5  C4  UNL d   1      -1.361   3.753   0.276  0.00  0.00     0.048 A 
ATOM      6  C5  UNL d   1      -0.570   2.645  -0.032  0.00  0.00     0.003 A 
ATOM      7  I   UNL d   1      -3.005   5.577   2.043  0.00  0.00    -0.146 I 
ENDROOT
TORSDOF 0
ENDMDL
