MODEL 1
REMARK minimizedAffinity 4.24506474
REMARK minimizedRMSD -1
REMARK  0 active torsions:
REMARK  status: ('A' for Active; 'I' for Inactive)
ROOT
ATOM      1  C   UNL d   1      -0.632   1.240   2.641  0.00  0.00     0.023 A 
ATOM      2  C1  UNL d   1       0.524   1.261   1.861  0.00  0.00     0.003 A 
ATOM      3  C2  UNL d   1       0.565   2.021   0.690  0.00  0.00     0.048 A 
ATOM      4  C3  UNL d   1      -0.554   2.757   0.305  0.00  0.00     0.023 A 
ATOM      5  C4  UNL d   1      -1.714   2.740   1.082  0.00  0.00     0.048 A 
ATOM      6  C5  UNL d   1      -1.750   1.979   2.252  0.00  0.00     0.003 A 
ATOM      7  I   UNL d   1      -0.496   3.889  -1.438  0.00  0.00    -0.146 I 
ENDROOT
TORSDOF 0
ENDMDL
