MODEL 1
REMARK minimizedAffinity 3.47665882
REMARK minimizedRMSD -1
REMARK  0 active torsions:
REMARK  status: ('A' for Active; 'I' for Inactive)
ROOT
ATOM      1  C   UNL d   1      -0.918   2.288   2.301  0.00  0.00     0.023 A 
ATOM      2  C1  UNL d   1      -0.894   2.388   0.910  0.00  0.00     0.003 A 
ATOM      3  C2  UNL d   1      -0.015   1.597   0.167  0.00  0.00     0.048 A 
ATOM      4  C3  UNL d   1       0.837   0.708   0.821  0.00  0.00     0.023 A 
ATOM      5  C4  UNL d   1       0.816   0.604   2.213  0.00  0.00     0.048 A 
ATOM      6  C5  UNL d   1      -0.064   1.397   2.952  0.00  0.00     0.003 A 
ATOM      7  I   UNL d   1       2.146  -0.470  -0.283  0.00  0.00    -0.146 I 
ENDROOT
TORSDOF 0
ENDMDL
