MODEL 1
REMARK minimizedAffinity 2.06591654
REMARK minimizedRMSD -1
REMARK  0 active torsions:
REMARK  status: ('A' for Active; 'I' for Inactive)
ROOT
ATOM      1  C   UNL d   1       0.637   1.988   1.399  0.00  0.00     0.023 A 
ATOM      2  C1  UNL d   1       1.608   1.057   1.028  0.00  0.00     0.003 A 
ATOM      3  C2  UNL d   1       1.398   0.232  -0.079  0.00  0.00     0.048 A 
ATOM      4  C3  UNL d   1       0.217   0.344  -0.811  0.00  0.00     0.023 A 
ATOM      5  C4  UNL d   1      -0.756   1.275  -0.445  0.00  0.00     0.048 A 
ATOM      6  C5  UNL d   1      -0.543   2.097   0.663  0.00  0.00     0.003 A 
ATOM      7  I   UNL d   1      -0.097  -0.883  -2.459  0.00  0.00    -0.146 I 
ENDROOT
TORSDOF 0
ENDMDL
