MODEL 1
REMARK minimizedAffinity 6.67336559
REMARK minimizedRMSD -1
REMARK  0 active torsions:
REMARK  status: ('A' for Active; 'I' for Inactive)
ROOT
ATOM      1  C   UNL d   1      -0.822   3.017   2.300  0.00  0.00     0.023 A 
ATOM      2  C1  UNL d   1      -0.241   1.886   1.726  0.00  0.00     0.003 A 
ATOM      3  C2  UNL d   1      -0.184   1.757   0.337  0.00  0.00     0.048 A 
ATOM      4  C3  UNL d   1      -0.709   2.764  -0.473  0.00  0.00     0.023 A 
ATOM      5  C4  UNL d   1      -1.290   3.898   0.097  0.00  0.00     0.048 A 
ATOM      6  C5  UNL d   1      -1.346   4.022   1.486  0.00  0.00     0.003 A 
ATOM      7  I   UNL d   1      -0.625   2.575  -2.541  0.00  0.00    -0.146 I 
ENDROOT
TORSDOF 0
ENDMDL
