MODEL 1
REMARK minimizedAffinity -0.967046738
REMARK minimizedRMSD -1
REMARK  0 active torsions:
REMARK  status: ('A' for Active; 'I' for Inactive)
ROOT
ATOM      1  C   UNL d   1      -1.338   2.776  -1.951  0.00  0.00     0.023 A 
ATOM      2  C1  UNL d   1      -1.391   3.700  -0.908  0.00  0.00     0.003 A 
ATOM      3  C2  UNL d   1      -1.063   3.308   0.392  0.00  0.00     0.048 A 
ATOM      4  C3  UNL d   1      -0.682   1.990   0.641  0.00  0.00     0.023 A 
ATOM      5  C4  UNL d   1      -0.626   1.062  -0.400  0.00  0.00     0.048 A 
ATOM      6  C5  UNL d   1      -0.956   1.458  -1.697  0.00  0.00     0.003 A 
ATOM      7  I   UNL d   1      -0.192   1.405   2.574  0.00  0.00    -0.146 I 
ENDROOT
TORSDOF 0
ENDMDL
