MODEL 1
REMARK minimizedAffinity 0.299596101
REMARK minimizedRMSD -1
REMARK  0 active torsions:
REMARK  status: ('A' for Active; 'I' for Inactive)
ROOT
ATOM      1  C   UNL d   1      -2.085   3.430  -0.187  0.00  0.00     0.023 A 
ATOM      2  C1  UNL d   1      -2.218   3.680   1.178  0.00  0.00     0.003 A 
ATOM      3  C2  UNL d   1      -1.086   3.725   1.994  0.00  0.00     0.048 A 
ATOM      4  C3  UNL d   1       0.176   3.520   1.438  0.00  0.00     0.023 A 
ATOM      5  C4  UNL d   1       0.314   3.270   0.072  0.00  0.00     0.048 A 
ATOM      6  C5  UNL d   1      -0.821   3.225  -0.740  0.00  0.00     0.003 A 
ATOM      7  I   UNL d   1       1.863   3.587   2.651  0.00  0.00    -0.146 I 
ENDROOT
TORSDOF 0
ENDMDL
