MODEL 1
REMARK minimizedAffinity 3.01436567
REMARK minimizedRMSD -1
REMARK  0 active torsions:
REMARK  status: ('A' for Active; 'I' for Inactive)
ROOT
ATOM      1  C   UNL d   1       2.692  -1.045  -1.032  0.00  0.00     0.023 A 
ATOM      2  C1  UNL d   1       1.730  -1.975  -0.639  0.00  0.00     0.003 A 
ATOM      3  C2  UNL d   1       1.816  -3.299  -1.075  0.00  0.00     0.048 A 
ATOM      4  C3  UNL d   1       2.869  -3.686  -1.905  0.00  0.00     0.023 A 
ATOM      5  C4  UNL d   1       3.834  -2.759  -2.300  0.00  0.00     0.048 A 
ATOM      6  C5  UNL d   1       3.743  -1.436  -1.862  0.00  0.00     0.003 A 
ATOM      7  I   UNL d   1       3.000  -5.655  -2.556  0.00  0.00    -0.146 I 
ENDROOT
TORSDOF 0
ENDMDL
