MODEL 1
REMARK minimizedAffinity 0.979799807
REMARK minimizedRMSD -1
REMARK  0 active torsions:
REMARK  status: ('A' for Active; 'I' for Inactive)
ROOT
ATOM      1  C   UNL d   1      -2.221   3.280  -0.206  0.00  0.00     0.023 A 
ATOM      2  C1  UNL d   1      -2.356   3.835   1.067  0.00  0.00     0.003 A 
ATOM      3  C2  UNL d   1      -1.261   3.878   1.931  0.00  0.00     0.048 A 
ATOM      4  C3  UNL d   1      -0.032   3.365   1.517  0.00  0.00     0.023 A 
ATOM      5  C4  UNL d   1       0.108   2.809   0.244  0.00  0.00     0.048 A 
ATOM      6  C5  UNL d   1      -0.990   2.768  -0.617  0.00  0.00     0.003 A 
ATOM      7  I   UNL d   1       1.600   3.428   2.802  0.00  0.00    -0.146 I 
ENDROOT
TORSDOF 0
ENDMDL
