MODEL 1
REMARK minimizedAffinity 7.12241316
REMARK minimizedRMSD -1
REMARK  0 active torsions:
REMARK  status: ('A' for Active; 'I' for Inactive)
ROOT
ATOM      1  C   UNL d   1      -0.163   0.730   0.865  0.00  0.00     0.023 A 
ATOM      2  C1  UNL d   1       0.767  -0.082   0.215  0.00  0.00     0.003 A 
ATOM      3  C2  UNL d   1       1.757  -0.737   0.950  0.00  0.00     0.048 A 
ATOM      4  C3  UNL d   1       1.812  -0.577   2.334  0.00  0.00     0.023 A 
ATOM      5  C4  UNL d   1       0.883   0.233   2.989  0.00  0.00     0.048 A 
ATOM      6  C5  UNL d   1      -0.105   0.887   2.250  0.00  0.00     0.003 A 
ATOM      7  I   UNL d   1       3.285  -1.552   3.430  0.00  0.00    -0.146 I 
ENDROOT
TORSDOF 0
ENDMDL
