MODEL 1
REMARK minimizedAffinity 3.940485
REMARK minimizedRMSD -1
REMARK  0 active torsions:
REMARK  status: ('A' for Active; 'I' for Inactive)
ROOT
ATOM      1  C   UNL d   1       1.899  -1.194  -1.332  0.00  0.00     0.023 A 
ATOM      2  C1  UNL d   1       2.194  -1.462   0.005  0.00  0.00     0.003 A 
ATOM      3  C2  UNL d   1       1.560  -0.741   1.019  0.00  0.00     0.048 A 
ATOM      4  C3  UNL d   1       0.633   0.247   0.689  0.00  0.00     0.023 A 
ATOM      5  C4  UNL d   1       0.334   0.518  -0.647  0.00  0.00     0.048 A 
ATOM      6  C5  UNL d   1       0.971  -0.205  -1.658  0.00  0.00     0.003 A 
ATOM      7  I   UNL d   1      -0.311   1.321   2.197  0.00  0.00    -0.146 I 
ENDROOT
TORSDOF 0
ENDMDL
