MODEL 1
REMARK minimizedAffinity 0.293407112
REMARK minimizedRMSD -1
REMARK  0 active torsions:
REMARK  status: ('A' for Active; 'I' for Inactive)
ROOT
ATOM      1  C   UNL d   1       4.085  -1.197  -1.112  0.00  0.00     0.078 C 
ATOM      2  C1  UNL d   1       2.829  -0.729  -0.441  0.00  0.00    -0.077 A 
ATOM      3  C2  UNL d   1       1.778  -1.616  -0.177  0.00  0.00    -0.001 A 
ATOM      4  C3  UNL d   1       0.610  -1.164   0.439  0.00  0.00     0.003 A 
ATOM      5  C4  UNL d   1       0.482   0.177   0.797  0.00  0.00    -0.005 A 
ATOM      6  C5  UNL d   1       1.521   1.068   0.537  0.00  0.00     0.003 A 
ATOM      7  C6  UNL d   1       2.690   0.617  -0.080  0.00  0.00    -0.001 A 
ENDROOT
TORSDOF 0
ENDMDL
