MODEL 1
REMARK minimizedAffinity -1.67681134
REMARK minimizedRMSD -1
REMARK  0 active torsions:
REMARK  status: ('A' for Active; 'I' for Inactive)
ROOT
ATOM      1  C   UNL d   1      -1.062  -1.113   2.449  0.00  0.00     0.078 C 
ATOM      2  C1  UNL d   1       0.071  -0.725   1.547  0.00  0.00    -0.077 A 
ATOM      3  C2  UNL d   1       0.785   0.461   1.756  0.00  0.00    -0.001 A 
ATOM      4  C3  UNL d   1       1.831   0.815   0.902  0.00  0.00     0.003 A 
ATOM      5  C4  UNL d   1       2.172  -0.011  -0.167  0.00  0.00    -0.005 A 
ATOM      6  C5  UNL d   1       1.466  -1.192  -0.384  0.00  0.00     0.003 A 
ATOM      7  C6  UNL d   1       0.419  -1.548   0.468  0.00  0.00    -0.001 A 
ENDROOT
TORSDOF 0
ENDMDL
