MODEL 1
REMARK minimizedAffinity -1.89255023
REMARK minimizedRMSD -1
REMARK  0 active torsions:
REMARK  status: ('A' for Active; 'I' for Inactive)
ROOT
ATOM      1  C   UNL d   1       3.742  -0.797  -1.891  0.00  0.00     0.078 C 
ATOM      2  C1  UNL d   1       2.659  -0.635  -0.867  0.00  0.00    -0.077 A 
ATOM      3  C2  UNL d   1       1.740   0.418  -0.949  0.00  0.00    -0.001 A 
ATOM      4  C3  UNL d   1       0.743   0.562   0.017  0.00  0.00     0.003 A 
ATOM      5  C4  UNL d   1       0.656  -0.343   1.073  0.00  0.00    -0.005 A 
ATOM      6  C5  UNL d   1       1.567  -1.393   1.164  0.00  0.00     0.003 A 
ATOM      7  C6  UNL d   1       2.565  -1.538   0.199  0.00  0.00    -0.001 A 
ENDROOT
TORSDOF 0
ENDMDL
