MODEL 1
REMARK minimizedAffinity -2.75556278
REMARK minimizedRMSD -1
REMARK  0 active torsions:
REMARK  status: ('A' for Active; 'I' for Inactive)
ROOT
ATOM      1  C   UNL d   1       0.296  -0.964   1.291  0.00  0.00     0.078 C 
ATOM      2  C1  UNL d   1       1.340  -0.728   0.241  0.00  0.00    -0.077 A 
ATOM      3  C2  UNL d   1       2.254  -1.730  -0.105  0.00  0.00    -0.001 A 
ATOM      4  C3  UNL d   1       3.227  -1.493  -1.077  0.00  0.00     0.003 A 
ATOM      5  C4  UNL d   1       3.296  -0.254  -1.711  0.00  0.00    -0.005 A 
ATOM      6  C5  UNL d   1       2.392   0.750  -1.372  0.00  0.00     0.003 A 
ATOM      7  C6  UNL d   1       1.418   0.515  -0.400  0.00  0.00    -0.001 A 
ENDROOT
TORSDOF 0
ENDMDL
