MODEL 1
REMARK minimizedAffinity -2.56967759
REMARK minimizedRMSD -1
REMARK  0 active torsions:
REMARK  status: ('A' for Active; 'I' for Inactive)
ROOT
ATOM      1  C   UNL d   1       5.713  -0.192  -2.570  0.00  0.00     0.078 C 
ATOM      2  C1  UNL d   1       4.406  -0.197  -1.833  0.00  0.00    -0.077 A 
ATOM      3  C2  UNL d   1       3.847  -1.392  -1.364  0.00  0.00    -0.001 A 
ATOM      4  C3  UNL d   1       2.625  -1.382  -0.689  0.00  0.00     0.003 A 
ATOM      5  C4  UNL d   1       1.952  -0.180  -0.478  0.00  0.00    -0.005 A 
ATOM      6  C5  UNL d   1       2.500   1.013  -0.943  0.00  0.00     0.003 A 
ATOM      7  C6  UNL d   1       3.721   1.006  -1.618  0.00  0.00    -0.001 A 
ENDROOT
TORSDOF 0
ENDMDL
