MODEL 1
REMARK minimizedAffinity 0.574596584
REMARK minimizedRMSD -1
REMARK  0 active torsions:
REMARK  status: ('A' for Active; 'I' for Inactive)
ROOT
ATOM      1  C   UNL d   1       0.410  -0.648   0.637  0.00  0.00     0.078 C 
ATOM      2  C1  UNL d   1       1.580  -0.461  -0.282  0.00  0.00    -0.077 A 
ATOM      3  C2  UNL d   1       1.889   0.800  -0.808  0.00  0.00    -0.001 A 
ATOM      4  C3  UNL d   1       2.975   0.958  -1.670  0.00  0.00     0.003 A 
ATOM      5  C4  UNL d   1       3.761  -0.140  -2.014  0.00  0.00    -0.005 A 
ATOM      6  C5  UNL d   1       3.460  -1.399  -1.498  0.00  0.00     0.003 A 
ATOM      7  C6  UNL d   1       2.374  -1.559  -0.636  0.00  0.00    -0.001 A 
ENDROOT
TORSDOF 0
ENDMDL
