MODEL 1
REMARK minimizedAffinity -1.80871129
REMARK minimizedRMSD -1
REMARK  0 active torsions:
REMARK  status: ('A' for Active; 'I' for Inactive)
ROOT
ATOM      1  C   UNL d   1       4.805   0.078  -2.656  0.00  0.00     0.078 C 
ATOM      2  C1  UNL d   1       3.549  -0.109  -1.858  0.00  0.00    -0.077 A 
ATOM      3  C2  UNL d   1       2.861   0.989  -1.327  0.00  0.00    -0.001 A 
ATOM      4  C3  UNL d   1       1.699   0.799  -0.578  0.00  0.00     0.003 A 
ATOM      5  C4  UNL d   1       1.214  -0.488  -0.353  0.00  0.00    -0.005 A 
ATOM      6  C5  UNL d   1       1.892  -1.587  -0.876  0.00  0.00     0.003 A 
ATOM      7  C6  UNL d   1       3.055  -1.399  -1.625  0.00  0.00    -0.001 A 
ENDROOT
TORSDOF 0
ENDMDL
