MODEL 1
REMARK minimizedAffinity -1.45479417
REMARK minimizedRMSD -1
REMARK  0 active torsions:
REMARK  status: ('A' for Active; 'I' for Inactive)
ROOT
ATOM      1  C   UNL d   1       5.075  -0.126  -2.248  0.00  0.00     0.078 C 
ATOM      2  C1  UNL d   1       3.811  -0.352  -1.474  0.00  0.00    -0.077 A 
ATOM      3  C2  UNL d   1       3.366  -1.647  -1.180  0.00  0.00    -0.001 A 
ATOM      4  C3  UNL d   1       2.182  -1.842  -0.467  0.00  0.00     0.003 A 
ATOM      5  C4  UNL d   1       1.432  -0.747  -0.044  0.00  0.00    -0.005 A 
ATOM      6  C5  UNL d   1       1.865   0.546  -0.333  0.00  0.00     0.003 A 
ATOM      7  C6  UNL d   1       3.049   0.743  -1.046  0.00  0.00    -0.001 A 
ENDROOT
TORSDOF 0
ENDMDL
