MODEL 1
REMARK minimizedAffinity -1.64313781
REMARK minimizedRMSD -1
REMARK  0 active torsions:
REMARK  status: ('A' for Active; 'I' for Inactive)
ROOT
ATOM      1  C   UNL d   1      -0.713  -0.939   1.757  0.00  0.00     0.078 C 
ATOM      2  C1  UNL d   1       0.567  -0.728   1.005  0.00  0.00    -0.077 A 
ATOM      3  C2  UNL d   1       1.442  -1.793   0.757  0.00  0.00    -0.001 A 
ATOM      4  C3  UNL d   1       2.634  -1.581   0.064  0.00  0.00     0.003 A 
ATOM      5  C4  UNL d   1       2.964  -0.304  -0.387  0.00  0.00    -0.005 A 
ATOM      6  C5  UNL d   1       2.101   0.762  -0.143  0.00  0.00     0.003 A 
ATOM      7  C6  UNL d   1       0.908   0.552   0.550  0.00  0.00    -0.001 A 
ENDROOT
TORSDOF 0
ENDMDL
