MODEL 1
REMARK minimizedAffinity -1.87575781
REMARK minimizedRMSD -1
REMARK  0 active torsions:
REMARK  status: ('A' for Active; 'I' for Inactive)
ROOT
ATOM      1  C   UNL d   1       1.003  -0.354   1.106  0.00  0.00     0.078 C 
ATOM      2  C1  UNL d   1       2.086  -0.110   0.098  0.00  0.00    -0.077 A 
ATOM      3  C2  UNL d   1       2.352   1.180  -0.377  0.00  0.00    -0.001 A 
ATOM      4  C3  UNL d   1       3.357   1.390  -1.322  0.00  0.00     0.003 A 
ATOM      5  C4  UNL d   1       4.103   0.315  -1.802  0.00  0.00    -0.005 A 
ATOM      6  C5  UNL d   1       3.843  -0.973  -1.338  0.00  0.00     0.003 A 
ATOM      7  C6  UNL d   1       2.839  -1.185  -0.392  0.00  0.00    -0.001 A 
ENDROOT
TORSDOF 0
ENDMDL
