MODEL 1
REMARK minimizedAffinity -2.82366705
REMARK minimizedRMSD -1
REMARK  0 active torsions:
REMARK  status: ('A' for Active; 'I' for Inactive)
ROOT
ATOM      1  C   UNL d   1       3.680  -1.056  -2.159  0.00  0.00     0.078 C 
ATOM      2  C1  UNL d   1       2.684  -0.619  -1.127  0.00  0.00    -0.077 A 
ATOM      3  C2  UNL d   1       2.283   0.719  -1.033  0.00  0.00    -0.001 A 
ATOM      4  C3  UNL d   1       1.362   1.113  -0.060  0.00  0.00     0.003 A 
ATOM      5  C4  UNL d   1       0.836   0.176   0.826  0.00  0.00    -0.005 A 
ATOM      6  C5  UNL d   1       1.231  -1.158   0.742  0.00  0.00     0.003 A 
ATOM      7  C6  UNL d   1       2.151  -1.554  -0.230  0.00  0.00    -0.001 A 
ENDROOT
TORSDOF 0
ENDMDL
