MODEL 1
REMARK minimizedAffinity -0.174953163
REMARK minimizedRMSD -1
REMARK  0 active torsions:
REMARK  status: ('A' for Active; 'I' for Inactive)
ROOT
ATOM      1  C   UNL d   1      -1.490  -0.639   2.321  0.00  0.00     0.078 C 
ATOM      2  C1  UNL d   1      -0.184  -0.562   1.589  0.00  0.00    -0.077 A 
ATOM      3  C2  UNL d   1       0.653  -1.679   1.488  0.00  0.00    -0.001 A 
ATOM      4  C3  UNL d   1       1.871  -1.591   0.812  0.00  0.00     0.003 A 
ATOM      5  C4  UNL d   1       2.263  -0.386   0.232  0.00  0.00    -0.005 A 
ATOM      6  C5  UNL d   1       1.438   0.733   0.329  0.00  0.00     0.003 A 
ATOM      7  C6  UNL d   1       0.220   0.646   1.005  0.00  0.00    -0.001 A 
ENDROOT
TORSDOF 0
ENDMDL
