MODEL 1
REMARK minimizedAffinity -0.085289143
REMARK minimizedRMSD -1
REMARK  0 active torsions:
REMARK  status: ('A' for Active; 'I' for Inactive)
ROOT
ATOM      1  C   UNL d   1       2.337   2.342  -0.637  0.00  0.00     0.078 C 
ATOM      2  C1  UNL d   1       2.320   0.842  -0.652  0.00  0.00    -0.077 A 
ATOM      3  C2  UNL d   1       3.310   0.116  -1.325  0.00  0.00    -0.001 A 
ATOM      4  C3  UNL d   1       3.276  -1.279  -1.338  0.00  0.00     0.003 A 
ATOM      5  C4  UNL d   1       2.254  -1.960  -0.681  0.00  0.00    -0.005 A 
ATOM      6  C5  UNL d   1       1.263  -1.246  -0.010  0.00  0.00     0.003 A 
ATOM      7  C6  UNL d   1       1.295   0.149   0.004  0.00  0.00    -0.001 A 
ENDROOT
TORSDOF 0
ENDMDL
