MODEL 1
REMARK minimizedAffinity 4.6306839
REMARK minimizedRMSD -1
REMARK  0 active torsions:
REMARK  status: ('A' for Active; 'I' for Inactive)
ROOT
ATOM      1  C   UNL d   1      -1.834   5.486  -1.929  0.00  0.00     0.078 C 
ATOM      2  C1  UNL d   1      -1.118   4.361  -2.614  0.00  0.00    -0.077 A 
ATOM      3  C2  UNL d   1      -1.809   3.220  -3.040  0.00  0.00    -0.001 A 
ATOM      4  C3  UNL d   1      -1.128   2.176  -3.667  0.00  0.00     0.003 A 
ATOM      5  C4  UNL d   1       0.248   2.261  -3.873  0.00  0.00    -0.005 A 
ATOM      6  C5  UNL d   1       0.944   3.392  -3.451  0.00  0.00     0.003 A 
ATOM      7  C6  UNL d   1       0.265   4.437  -2.823  0.00  0.00    -0.001 A 
ENDROOT
TORSDOF 0
ENDMDL
