MODEL 1
REMARK minimizedAffinity 0.465466827
REMARK minimizedRMSD -1
REMARK  0 active torsions:
REMARK  status: ('A' for Active; 'I' for Inactive)
ROOT
ATOM      1  C   UNL d   1      -1.445  -0.942   2.212  0.00  0.00     0.078 C 
ATOM      2  C1  UNL d   1      -0.118  -0.716   1.552  0.00  0.00    -0.077 A 
ATOM      3  C2  UNL d   1       0.613   0.455   1.786  0.00  0.00    -0.001 A 
ATOM      4  C3  UNL d   1       1.843   0.657   1.157  0.00  0.00     0.003 A 
ATOM      5  C4  UNL d   1       2.351  -0.308   0.289  0.00  0.00    -0.005 A 
ATOM      6  C5  UNL d   1       1.630  -1.475   0.049  0.00  0.00     0.003 A 
ATOM      7  C6  UNL d   1       0.400  -1.678   0.677  0.00  0.00    -0.001 A 
ENDROOT
TORSDOF 0
ENDMDL
