MODEL 1
REMARK minimizedAffinity -2.00590205
REMARK minimizedRMSD -1
REMARK  0 active torsions:
REMARK  status: ('A' for Active; 'I' for Inactive)
ROOT
ATOM      1  C   UNL d   1      -1.019  -0.778   1.981  0.00  0.00     0.078 C 
ATOM      2  C1  UNL d   1       0.295  -0.806   1.261  0.00  0.00    -0.077 A 
ATOM      3  C2  UNL d   1       1.030   0.368   1.055  0.00  0.00    -0.001 A 
ATOM      4  C3  UNL d   1       2.248   0.329   0.375  0.00  0.00     0.003 A 
ATOM      5  C4  UNL d   1       2.741  -0.882  -0.107  0.00  0.00    -0.005 A 
ATOM      6  C5  UNL d   1       2.016  -2.055   0.090  0.00  0.00     0.003 A 
ATOM      7  C6  UNL d   1       0.798  -2.018   0.771  0.00  0.00    -0.001 A 
ENDROOT
TORSDOF 0
ENDMDL
