MODEL 1
REMARK minimizedAffinity -5.12333012
REMARK minimizedRMSD -1
REMARK  0 active torsions:
REMARK  status: ('A' for Active; 'I' for Inactive)
ROOT
ATOM      1  C   UNL d   1       0.568  -0.378   0.747  0.00  0.00     0.078 C 
ATOM      2  C1  UNL d   1       1.702  -0.311  -0.232  0.00  0.00    -0.077 A 
ATOM      3  C2  UNL d   1       2.440  -1.454  -0.560  0.00  0.00    -0.001 A 
ATOM      4  C3  UNL d   1       3.499  -1.375  -1.466  0.00  0.00     0.003 A 
ATOM      5  C4  UNL d   1       3.830  -0.155  -2.051  0.00  0.00    -0.005 A 
ATOM      6  C5  UNL d   1       3.103   0.989  -1.729  0.00  0.00     0.003 A 
ATOM      7  C6  UNL d   1       2.043   0.912  -0.823  0.00  0.00    -0.001 A 
ENDROOT
TORSDOF 0
ENDMDL
