MODEL 1
REMARK minimizedAffinity -2.50146651
REMARK minimizedRMSD -1
REMARK  0 active torsions:
REMARK  status: ('A' for Active; 'I' for Inactive)
ROOT
ATOM      1  C   UNL d   1       0.825  -1.071   2.190  0.00  0.00     0.078 C 
ATOM      2  C1  UNL d   1      -0.657  -1.038   1.966  0.00  0.00    -0.077 A 
ATOM      3  C2  UNL d   1      -1.352  -2.186   1.566  0.00  0.00    -0.001 A 
ATOM      4  C3  UNL d   1      -2.730  -2.139   1.351  0.00  0.00     0.003 A 
ATOM      5  C4  UNL d   1      -3.426  -0.945   1.534  0.00  0.00    -0.005 A 
ATOM      6  C5  UNL d   1      -2.743   0.203   1.929  0.00  0.00     0.003 A 
ATOM      7  C6  UNL d   1      -1.365   0.158   2.144  0.00  0.00    -0.001 A 
ENDROOT
TORSDOF 0
ENDMDL
