MODEL 1
REMARK minimizedAffinity -3.78996325
REMARK minimizedRMSD -1
REMARK  1 active torsions:
REMARK  status: ('A' for Active; 'I' for Inactive)
REMARK    1  A    between atoms: C1_2  and  C2_3 
ROOT
ATOM      1  C2  UNL d   1       0.906  -4.318  -1.256  0.00  0.00    -0.077 A 
ATOM      2  C3  UNL d   1       0.966  -4.283  -2.656  0.00  0.00     0.002 A 
ATOM      3  C4  UNL d   1       0.858  -3.069  -3.337  0.00  0.00     0.002 A 
ATOM      4  C5  UNL d   1       0.694  -1.882  -2.626  0.00  0.00    -0.004 A 
ATOM      5  C6  UNL d   1       0.632  -1.907  -1.234  0.00  0.00     0.002 A 
ATOM      6  C7  UNL d   1       0.738  -3.119  -0.551  0.00  0.00     0.002 A 
ENDROOT
BRANCH   1   7
ATOM      7  C1  UNL d   1       1.072  -5.621  -0.517  0.00  0.00     0.055 C 
ATOM      8  C   UNL d   1       2.439  -5.712   0.144  0.00  0.00     0.019 C 
ENDBRANCH   1   7
TORSDOF 1
ENDMDL
