MODEL 1
REMARK minimizedAffinity -3.69717884
REMARK minimizedRMSD -1
REMARK  1 active torsions:
REMARK  status: ('A' for Active; 'I' for Inactive)
REMARK    1  A    between atoms: C1_2  and  C2_3 
ROOT
ATOM      1  C2  UNL d   1       0.433  -0.675   0.097  0.00  0.00    -0.077 A 
ATOM      2  C3  UNL d   1      -0.857  -0.373  -0.361  0.00  0.00     0.002 A 
ATOM      3  C4  UNL d   1      -1.804   0.176   0.506  0.00  0.00     0.002 A 
ATOM      4  C5  UNL d   1      -1.470   0.431   1.834  0.00  0.00    -0.004 A 
ATOM      5  C6  UNL d   1      -0.190   0.132   2.300  0.00  0.00     0.002 A 
ATOM      6  C7  UNL d   1       0.757  -0.418   1.436  0.00  0.00     0.002 A 
ENDROOT
BRANCH   1   7
ATOM      7  C1  UNL d   1       1.471  -1.221  -0.848  0.00  0.00     0.055 C 
ATOM      8  C   UNL d   1       0.941  -2.421  -1.619  0.00  0.00     0.019 C 
ENDBRANCH   1   7
TORSDOF 1
ENDMDL
