MODEL 1
REMARK minimizedAffinity -2.17582583
REMARK minimizedRMSD -1
REMARK  1 active torsions:
REMARK  status: ('A' for Active; 'I' for Inactive)
REMARK    1  A    between atoms: C1_2  and  C2_3 
ROOT
ATOM      1  C2  UNL d   1       0.415  -0.118   0.243  0.00  0.00    -0.077 A 
ATOM      2  C3  UNL d   1       0.282   1.276   0.312  0.00  0.00     0.002 A 
ATOM      3  C4  UNL d   1      -0.513   1.863   1.299  0.00  0.00     0.002 A 
ATOM      4  C5  UNL d   1      -1.177   1.064   2.226  0.00  0.00    -0.004 A 
ATOM      5  C6  UNL d   1      -1.053  -0.324   2.165  0.00  0.00     0.002 A 
ATOM      6  C7  UNL d   1      -0.260  -0.912   1.179  0.00  0.00     0.002 A 
ENDROOT
BRANCH   1   7
ATOM      7  C1  UNL d   1       1.311  -0.750  -0.790  0.00  0.00     0.055 C 
ATOM      8  C   UNL d   1       1.051  -2.244  -0.908  0.00  0.00     0.019 C 
ENDBRANCH   1   7
TORSDOF 1
ENDMDL
