MODEL 1
REMARK minimizedAffinity -0.73296541
REMARK minimizedRMSD -1
REMARK  1 active torsions:
REMARK  status: ('A' for Active; 'I' for Inactive)
REMARK    1  A    between atoms: C1_2  and  C2_3 
ROOT
ATOM      1  C2  UNL d   1       0.937  -1.253  -0.455  0.00  0.00    -0.077 A 
ATOM      2  C3  UNL d   1       0.044  -1.643   0.554  0.00  0.00     0.002 A 
ATOM      3  C4  UNL d   1      -0.580  -0.683   1.354  0.00  0.00     0.002 A 
ATOM      4  C5  UNL d   1      -0.321   0.671   1.151  0.00  0.00    -0.004 A 
ATOM      5  C6  UNL d   1       0.566   1.068   0.151  0.00  0.00     0.002 A 
ATOM      6  C7  UNL d   1       1.192   0.110  -0.649  0.00  0.00     0.002 A 
ENDROOT
BRANCH   1   7
ATOM      7  C1  UNL d   1       1.572  -2.284  -1.351  0.00  0.00     0.055 C 
ATOM      8  C   UNL d   1       0.618  -2.725  -2.451  0.00  0.00     0.019 C 
ENDBRANCH   1   7
TORSDOF 1
ENDMDL
