MODEL 1
REMARK minimizedAffinity -0.956181705
REMARK minimizedRMSD -1
REMARK  1 active torsions:
REMARK  status: ('A' for Active; 'I' for Inactive)
REMARK    1  A    between atoms: C1_2  and  C2_3 
ROOT
ATOM      1  C2  UNL d   1       0.437   0.301   0.280  0.00  0.00    -0.077 A 
ATOM      2  C3  UNL d   1      -0.409   1.260   0.856  0.00  0.00     0.002 A 
ATOM      3  C4  UNL d   1      -0.752   1.179   2.207  0.00  0.00     0.002 A 
ATOM      4  C5  UNL d   1      -0.251   0.144   2.994  0.00  0.00    -0.004 A 
ATOM      5  C6  UNL d   1       0.589  -0.816   2.430  0.00  0.00     0.002 A 
ATOM      6  C7  UNL d   1       0.932  -0.737   1.079  0.00  0.00     0.002 A 
ENDROOT
BRANCH   1   7
ATOM      7  C1  UNL d   1       0.848   0.415  -1.165  0.00  0.00     0.055 C 
ATOM      8  C   UNL d   1       1.059   1.867  -1.568  0.00  0.00     0.019 C 
ENDBRANCH   1   7
TORSDOF 1
ENDMDL
