MODEL 1
REMARK minimizedAffinity -4.34938431
REMARK minimizedRMSD -1
REMARK  1 active torsions:
REMARK  status: ('A' for Active; 'I' for Inactive)
REMARK    1  A    between atoms: C1_2  and  C2_3 
ROOT
ATOM      1  C2  UNL d   1      -0.762   0.907   0.739  0.00  0.00    -0.077 A 
ATOM      2  C3  UNL d   1      -1.409   1.258   1.931  0.00  0.00     0.002 A 
ATOM      3  C4  UNL d   1      -1.569   2.601   2.280  0.00  0.00     0.002 A 
ATOM      4  C5  UNL d   1      -1.087   3.602   1.440  0.00  0.00    -0.004 A 
ATOM      5  C6  UNL d   1      -0.440   3.264   0.252  0.00  0.00     0.002 A 
ATOM      6  C7  UNL d   1      -0.279   1.922  -0.097  0.00  0.00     0.002 A 
ENDROOT
BRANCH   1   7
ATOM      7  C1  UNL d   1      -0.633  -0.539   0.337  0.00  0.00     0.055 C 
ATOM      8  C   UNL d   1       0.564  -0.754  -0.578  0.00  0.00     0.019 C 
ENDBRANCH   1   7
TORSDOF 1
ENDMDL
