MODEL 1
REMARK minimizedAffinity -2.11149192
REMARK minimizedRMSD -1
REMARK  1 active torsions:
REMARK  status: ('A' for Active; 'I' for Inactive)
REMARK    1  A    between atoms: C1_2  and  C2_3 
ROOT
ATOM      1  C2  UNL d   1       0.653  -0.953  -0.881  0.00  0.00    -0.077 A 
ATOM      2  C3  UNL d   1       0.070  -1.565   0.238  0.00  0.00     0.002 A 
ATOM      3  C4  UNL d   1      -0.134  -0.839   1.413  0.00  0.00     0.002 A 
ATOM      4  C5  UNL d   1       0.237   0.502   1.479  0.00  0.00    -0.004 A 
ATOM      5  C6  UNL d   1       0.819   1.119   0.372  0.00  0.00     0.002 A 
ATOM      6  C7  UNL d   1       1.025   0.395  -0.803  0.00  0.00     0.002 A 
ENDROOT
BRANCH   1   7
ATOM      7  C1  UNL d   1       0.830  -1.720  -2.165  0.00  0.00     0.055 C 
ATOM      8  C   UNL d   1       1.392  -3.110  -1.907  0.00  0.00     0.019 C 
ENDBRANCH   1   7
TORSDOF 1
ENDMDL
