MODEL 1
REMARK minimizedAffinity -2.78603077
REMARK minimizedRMSD -1
REMARK  1 active torsions:
REMARK  status: ('A' for Active; 'I' for Inactive)
REMARK    1  A    between atoms: C1_2  and  C2_3 
ROOT
ATOM      1  C2  UNL d   1       0.128   0.775   0.687  0.00  0.00    -0.077 A 
ATOM      2  C3  UNL d   1      -0.638   1.481   1.625  0.00  0.00     0.002 A 
ATOM      3  C4  UNL d   1      -0.707   2.875   1.574  0.00  0.00     0.002 A 
ATOM      4  C5  UNL d   1      -0.016   3.573   0.586  0.00  0.00    -0.004 A 
ATOM      5  C6  UNL d   1       0.750   2.880  -0.350  0.00  0.00     0.002 A 
ATOM      6  C7  UNL d   1       0.821   1.487  -0.300  0.00  0.00     0.002 A 
ENDROOT
BRANCH   1   7
ATOM      7  C1  UNL d   1       0.163  -0.731   0.709  0.00  0.00     0.055 C 
ATOM      8  C   UNL d   1      -0.253  -1.274   2.068  0.00  0.00     0.019 C 
ENDBRANCH   1   7
TORSDOF 1
ENDMDL
