MODEL 1
REMARK minimizedAffinity -5.22055483
REMARK minimizedRMSD -1
REMARK  1 active torsions:
REMARK  status: ('A' for Active; 'I' for Inactive)
REMARK    1  A    between atoms: C1_2  and  C2_3 
ROOT
ATOM      1  C2  UNL d   1      -0.137   1.903   0.731  0.00  0.00    -0.077 A 
ATOM      2  C3  UNL d   1       0.576   0.907   0.048  0.00  0.00     0.002 A 
ATOM      3  C4  UNL d   1       0.513  -0.422   0.471  0.00  0.00     0.002 A 
ATOM      4  C5  UNL d   1      -0.264  -0.768   1.575  0.00  0.00    -0.004 A 
ATOM      5  C6  UNL d   1      -0.974   0.216   2.262  0.00  0.00     0.002 A 
ATOM      6  C7  UNL d   1      -0.912   1.545   1.841  0.00  0.00     0.002 A 
ENDROOT
BRANCH   1   7
ATOM      7  C1  UNL d   1      -0.109   3.329   0.247  0.00  0.00     0.055 C 
ATOM      8  C   UNL d   1       0.601   3.445  -1.094  0.00  0.00     0.019 C 
ENDBRANCH   1   7
TORSDOF 1
ENDMDL
