MODEL 1
REMARK minimizedAffinity 7.56381321
REMARK minimizedRMSD -1
REMARK  0 active torsions:
REMARK  status: ('A' for Active; 'I' for Inactive)
ROOT
ATOM      1  C2' OXE d   1       0.679   0.127   3.010  0.00  0.00     0.078 C 
ATOM      2  C1' OXE d   1       2.043  -0.324   5.422  0.00  0.00     0.078 C 
ATOM      3  C1  OXE d   1       1.209  -1.450   4.865  0.00  0.00    -0.078 A 
ATOM      4  C2  OXE d   1       0.508  -1.205   3.709  0.00  0.00    -0.078 A 
ATOM      5  C3  OXE d   1      -0.234  -2.227   3.122  0.00  0.00     0.003 A 
ATOM      6  C4  OXE d   1      -0.396  -3.452   3.780  0.00  0.00    -0.002 A 
ATOM      7  C5  OXE d   1       0.278  -3.709   4.979  0.00  0.00    -0.002 A 
ATOM      8  C6  OXE d   1       1.116  -2.736   5.511  0.00  0.00     0.003 A 
ENDROOT
TORSDOF 0
ENDMDL
