MODEL 1
REMARK minimizedAffinity 4.75854826
REMARK minimizedRMSD -1
REMARK  0 active torsions:
REMARK  status: ('A' for Active; 'I' for Inactive)
ROOT
ATOM      1  C2' OXE d   1       3.957  -3.180  -2.970  0.00  0.00     0.078 C 
ATOM      2  C1' OXE d   1       2.617  -3.214  -0.504  0.00  0.00     0.078 C 
ATOM      3  C1  OXE d   1       3.304  -1.935  -0.913  0.00  0.00    -0.078 A 
ATOM      4  C2  OXE d   1       3.997  -1.942  -2.100  0.00  0.00    -0.078 A 
ATOM      5  C3  OXE d   1       4.603  -0.773  -2.551  0.00  0.00     0.003 A 
ATOM      6  C4  OXE d   1       4.644   0.365  -1.736  0.00  0.00    -0.002 A 
ATOM      7  C5  OXE d   1       3.979   0.380  -0.506  0.00  0.00    -0.002 A 
ATOM      8  C6  OXE d   1       3.270  -0.745  -0.100  0.00  0.00     0.003 A 
ENDROOT
TORSDOF 0
ENDMDL
