MODEL 1
REMARK minimizedAffinity 12.3315334
REMARK minimizedRMSD -1
REMARK  0 active torsions:
REMARK  status: ('A' for Active; 'I' for Inactive)
ROOT
ATOM      1  C2' OXE d   1       3.451  -1.275   0.042  0.00  0.00     0.078 C 
ATOM      2  C1' OXE d   1       2.150  -3.082   1.751  0.00  0.00     0.078 C 
ATOM      3  C1  OXE d   1       1.963  -3.260   0.266  0.00  0.00    -0.078 A 
ATOM      4  C2  OXE d   1       2.565  -2.343  -0.562  0.00  0.00    -0.078 A 
ATOM      5  C3  OXE d   1       2.469  -2.494  -1.943  0.00  0.00     0.003 A 
ATOM      6  C4  OXE d   1       1.640  -3.479  -2.493  0.00  0.00    -0.002 A 
ATOM      7  C5  OXE d   1       0.986  -4.398  -1.666  0.00  0.00    -0.002 A 
ATOM      8  C6  OXE d   1       1.170  -4.329  -0.290  0.00  0.00     0.003 A 
ENDROOT
TORSDOF 0
ENDMDL
