MODEL 1
REMARK minimizedAffinity 10.3271351
REMARK minimizedRMSD -1
REMARK  0 active torsions:
REMARK  status: ('A' for Active; 'I' for Inactive)
ROOT
ATOM      1  C2' OXE d   1       2.281   0.002  -0.767  0.00  0.00     0.078 C 
ATOM      2  C1' OXE d   1       4.678   1.400  -1.190  0.00  0.00     0.078 C 
ATOM      3  C1  OXE d   1       4.752   0.081  -0.462  0.00  0.00    -0.078 A 
ATOM      4  C2  OXE d   1       3.569  -0.574  -0.219  0.00  0.00    -0.078 A 
ATOM      5  C3  OXE d   1       3.585  -1.821   0.400  0.00  0.00     0.003 A 
ATOM      6  C4  OXE d   1       4.780  -2.342   0.913  0.00  0.00    -0.002 A 
ATOM      7  C5  OXE d   1       5.991  -1.672   0.711  0.00  0.00    -0.002 A 
ATOM      8  C6  OXE d   1       6.000  -0.483  -0.010  0.00  0.00     0.003 A 
ENDROOT
TORSDOF 0
ENDMDL
