MODEL 1
REMARK minimizedAffinity 8.29793835
REMARK minimizedRMSD -1
REMARK  0 active torsions:
REMARK  status: ('A' for Active; 'I' for Inactive)
ROOT
ATOM      1  C2' OXE d   1       3.412  -2.137   0.410  0.00  0.00     0.078 C 
ATOM      2  C1' OXE d   1       5.999  -1.503   1.295  0.00  0.00     0.078 C 
ATOM      3  C1  OXE d   1       5.323  -0.540   0.351  0.00  0.00    -0.078 A 
ATOM      4  C2  OXE d   1       4.076  -0.882  -0.114  0.00  0.00    -0.078 A 
ATOM      5  C3  OXE d   1       3.385  -0.003  -0.944  0.00  0.00     0.003 A 
ATOM      6  C4  OXE d   1       4.010   1.150  -1.432  0.00  0.00    -0.002 A 
ATOM      7  C5  OXE d   1       5.296   1.497  -1.003  0.00  0.00    -0.002 A 
ATOM      8  C6  OXE d   1       5.948   0.686  -0.080  0.00  0.00     0.003 A 
ENDROOT
TORSDOF 0
ENDMDL
