MODEL 1
REMARK minimizedAffinity 10.9182682
REMARK minimizedRMSD -1
REMARK  0 active torsions:
REMARK  status: ('A' for Active; 'I' for Inactive)
ROOT
ATOM      1  C2' OXE d   1       2.984  -2.257  -1.103  0.00  0.00     0.078 C 
ATOM      2  C1' OXE d   1       1.708   0.178  -0.539  0.00  0.00     0.078 C 
ATOM      3  C1  OXE d   1       3.216   0.157  -0.535  0.00  0.00    -0.078 A 
ATOM      4  C2  OXE d   1       3.832  -1.050  -0.766  0.00  0.00    -0.078 A 
ATOM      5  C3  OXE d   1       5.221  -1.114  -0.827  0.00  0.00     0.003 A 
ATOM      6  C4  OXE d   1       5.998   0.005  -0.504  0.00  0.00    -0.002 A 
ATOM      7  C5  OXE d   1       5.390   1.234  -0.227  0.00  0.00    -0.002 A 
ATOM      8  C6  OXE d   1       4.005   1.337  -0.280  0.00  0.00     0.003 A 
ENDROOT
TORSDOF 0
ENDMDL
