MODEL 1
REMARK minimizedAffinity 14.0829306
REMARK minimizedRMSD -1
REMARK  0 active torsions:
REMARK  status: ('A' for Active; 'I' for Inactive)
ROOT
ATOM      1  C2' OXE d   1      -4.464   4.264  -3.799  0.00  0.00     0.078 C 
ATOM      2  C1' OXE d   1      -5.535   3.207  -1.429  0.00  0.00     0.078 C 
ATOM      3  C1  OXE d   1      -5.495   2.313  -2.643  0.00  0.00    -0.078 A 
ATOM      4  C2  OXE d   1      -5.013   2.853  -3.811  0.00  0.00    -0.078 A 
ATOM      5  C3  OXE d   1      -4.903   2.056  -4.946  0.00  0.00     0.003 A 
ATOM      6  C4  OXE d   1      -5.422   0.755  -4.952  0.00  0.00    -0.002 A 
ATOM      7  C5  OXE d   1      -5.954   0.198  -3.784  0.00  0.00    -0.002 A 
ATOM      8  C6  OXE d   1      -5.959   0.948  -2.612  0.00  0.00     0.003 A 
ENDROOT
TORSDOF 0
ENDMDL
