MODEL 1
REMARK minimizedAffinity 5.05323505
REMARK minimizedRMSD -1
REMARK  0 active torsions:
REMARK  status: ('A' for Active; 'I' for Inactive)
ROOT
ATOM      1  C2' OXE d   1       3.660   2.498   3.361  0.00  0.00     0.078 C 
ATOM      2  C1' OXE d   1       5.741   2.350   5.239  0.00  0.00     0.078 C 
ATOM      3  C1  OXE d   1       4.967   3.641   5.147  0.00  0.00    -0.078 A 
ATOM      4  C2  OXE d   1       3.981   3.721   4.193  0.00  0.00    -0.078 A 
ATOM      5  C3  OXE d   1       3.200   4.870   4.103  0.00  0.00     0.003 A 
ATOM      6  C4  OXE d   1       3.511   6.000   4.869  0.00  0.00    -0.002 A 
ATOM      7  C5  OXE d   1       4.537   5.953   5.819  0.00  0.00    -0.002 A 
ATOM      8  C6  OXE d   1       5.245   4.770   6.000  0.00  0.00     0.003 A 
ENDROOT
TORSDOF 0
ENDMDL
