MODEL 1
REMARK minimizedAffinity 0.533842266
REMARK minimizedRMSD -1
REMARK  0 active torsions:
REMARK  status: ('A' for Active; 'I' for Inactive)
ROOT
ATOM      1  C2' OXE d   1       4.139  -3.565  -3.366  0.00  0.00     0.078 C 
ATOM      2  C1' OXE d   1       2.851  -2.702  -1.026  0.00  0.00     0.078 C 
ATOM      3  C1  OXE d   1       3.867  -1.778  -1.652  0.00  0.00    -0.078 A 
ATOM      4  C2  OXE d   1       4.526  -2.229  -2.770  0.00  0.00    -0.078 A 
ATOM      5  C3  OXE d   1       5.432  -1.395  -3.419  0.00  0.00     0.003 A 
ATOM      6  C4  OXE d   1       5.792  -0.165  -2.856  0.00  0.00    -0.002 A 
ATOM      7  C5  OXE d   1       5.162   0.296  -1.695  0.00  0.00    -0.002 A 
ATOM      8  C6  OXE d   1       4.168  -0.478  -1.106  0.00  0.00     0.003 A 
ENDROOT
TORSDOF 0
ENDMDL
