MODEL 1
REMARK minimizedAffinity 7.17209673
REMARK minimizedRMSD -1
REMARK  0 active torsions:
REMARK  status: ('A' for Active; 'I' for Inactive)
ROOT
ATOM      1  C2' OXE d   1      -0.135   2.247   0.759  0.00  0.00     0.078 C 
ATOM      2  C1' OXE d   1       1.511   0.317   1.962  0.00  0.00     0.078 C 
ATOM      3  C1  OXE d   1       0.750  -0.081   0.722  0.00  0.00    -0.078 A 
ATOM      4  C2  OXE d   1      -0.089   0.855   0.167  0.00  0.00    -0.078 A 
ATOM      5  C3  OXE d   1      -0.772   0.558  -1.009  0.00  0.00     0.003 A 
ATOM      6  C4  OXE d   1      -0.732  -0.735  -1.544  0.00  0.00    -0.002 A 
ATOM      7  C5  OXE d   1       0.085  -1.715  -0.972  0.00  0.00    -0.002 A 
ATOM      8  C6  OXE d   1       0.863  -1.393   0.134  0.00  0.00     0.003 A 
ENDROOT
TORSDOF 0
ENDMDL
