MODEL 1
REMARK minimizedAffinity 15.3123379
REMARK minimizedRMSD -1
REMARK  0 active torsions:
REMARK  status: ('A' for Active; 'I' for Inactive)
ROOT
ATOM      1  C2' OXE d   1       1.872  -3.201  -1.503  0.00  0.00     0.078 C 
ATOM      2  C1' OXE d   1       3.199  -2.417  -3.849  0.00  0.00     0.078 C 
ATOM      3  C1  OXE d   1       3.316  -1.521  -2.642  0.00  0.00    -0.078 A 
ATOM      4  C2  OXE d   1       2.625  -1.888  -1.513  0.00  0.00    -0.078 A 
ATOM      5  C3  OXE d   1       2.742  -1.125  -0.354  0.00  0.00     0.003 A 
ATOM      6  C4  OXE d   1       3.433   0.093  -0.374  0.00  0.00    -0.002 A 
ATOM      7  C5  OXE d   1       4.111   0.505  -1.526  0.00  0.00    -0.002 A 
ATOM      8  C6  OXE d   1       4.098  -0.309  -2.653  0.00  0.00     0.003 A 
ENDROOT
TORSDOF 0
ENDMDL
