MODEL 1
REMARK minimizedAffinity 9.88980579
REMARK minimizedRMSD -1
REMARK  0 active torsions:
REMARK  status: ('A' for Active; 'I' for Inactive)
ROOT
ATOM      1  C2' OXE d   1      -0.043   2.797  -5.614  0.00  0.00     0.078 C 
ATOM      2  C1' OXE d   1       0.521   5.541  -5.793  0.00  0.00     0.078 C 
ATOM      3  C1  OXE d   1       1.683   4.580  -5.841  0.00  0.00    -0.078 A 
ATOM      4  C2  OXE d   1       1.401   3.242  -5.706  0.00  0.00    -0.078 A 
ATOM      5  C3  OXE d   1       2.430   2.308  -5.798  0.00  0.00     0.003 A 
ATOM      6  C4  OXE d   1       3.763   2.728  -5.872  0.00  0.00    -0.002 A 
ATOM      7  C5  OXE d   1       4.075   4.088  -5.971  0.00  0.00    -0.002 A 
ATOM      8  C6  OXE d   1       3.046   5.023  -6.000  0.00  0.00     0.003 A 
ENDROOT
TORSDOF 0
ENDMDL
