MODEL 1
REMARK minimizedAffinity 6.63290501
REMARK minimizedRMSD -1
REMARK  0 active torsions:
REMARK  status: ('A' for Active; 'I' for Inactive)
ROOT
ATOM      1  C2' OXE d   1       2.611   0.868  -4.214  0.00  0.00     0.078 C 
ATOM      2  C1' OXE d   1       0.523   2.734  -4.021  0.00  0.00     0.078 C 
ATOM      3  C1  OXE d   1       0.990   2.068  -2.751  0.00  0.00    -0.078 A 
ATOM      4  C2  OXE d   1       1.980   1.121  -2.861  0.00  0.00    -0.078 A 
ATOM      5  C3  OXE d   1       2.486   0.516  -1.715  0.00  0.00     0.003 A 
ATOM      6  C4  OXE d   1       1.890   0.749  -0.469  0.00  0.00    -0.002 A 
ATOM      7  C5  OXE d   1       0.854   1.679  -0.340  0.00  0.00    -0.002 A 
ATOM      8  C6  OXE d   1       0.422   2.377  -1.463  0.00  0.00     0.003 A 
ENDROOT
TORSDOF 0
ENDMDL
