MODEL 1
REMARK minimizedAffinity 6.02238274
REMARK minimizedRMSD -1
REMARK  0 active torsions:
REMARK  status: ('A' for Active; 'I' for Inactive)
ROOT
ATOM      1  C2' OXE d   1       0.788   4.894  -6.000  0.00  0.00     0.078 C 
ATOM      2  C1' OXE d   1      -0.285   2.448  -5.139  0.00  0.00     0.078 C 
ATOM      3  C1  OXE d   1      -1.238   3.597  -5.354  0.00  0.00    -0.078 A 
ATOM      4  C2  OXE d   1      -0.698   4.803  -5.730  0.00  0.00    -0.078 A 
ATOM      5  C3  OXE d   1      -1.538   5.882  -5.994  0.00  0.00     0.003 A 
ATOM      6  C4  OXE d   1      -2.911   5.792  -5.732  0.00  0.00    -0.002 A 
ATOM      7  C5  OXE d   1      -3.475   4.584  -5.310  0.00  0.00    -0.002 A 
ATOM      8  C6  OXE d   1      -2.661   3.467  -5.158  0.00  0.00     0.003 A 
ENDROOT
TORSDOF 0
ENDMDL
