MODEL 1
REMARK minimizedAffinity -0.92662698
REMARK minimizedRMSD -1
REMARK  0 active torsions:
REMARK  status: ('A' for Active; 'I' for Inactive)
ROOT
ATOM      1  C2' OXE d   1      -0.275   3.157  -5.949  0.00  0.00     0.078 C 
ATOM      2  C1' OXE d   1      -0.372   5.962  -5.966  0.00  0.00     0.078 C 
ATOM      3  C1  OXE d   1      -1.681   5.213  -5.961  0.00  0.00    -0.078 A 
ATOM      4  C2  OXE d   1      -1.624   3.840  -6.000  0.00  0.00    -0.078 A 
ATOM      5  C3  OXE d   1      -2.801   3.099  -5.941  0.00  0.00     0.003 A 
ATOM      6  C4  OXE d   1      -4.045   3.739  -5.999  0.00  0.00    -0.002 A 
ATOM      7  C5  OXE d   1      -4.125   5.136  -6.000  0.00  0.00    -0.002 A 
ATOM      8  C6  OXE d   1      -2.956   5.886  -5.938  0.00  0.00     0.003 A 
ENDROOT
TORSDOF 0
ENDMDL
