MODEL 1
REMARK minimizedAffinity 17.4243546
REMARK minimizedRMSD -1
REMARK  0 active torsions:
REMARK  status: ('A' for Active; 'I' for Inactive)
ROOT
ATOM      1  C2' OXE d   1       3.069   2.550  -1.979  0.00  0.00     0.078 C 
ATOM      2  C1' OXE d   1       5.869   2.491  -2.155  0.00  0.00     0.078 C 
ATOM      3  C1  OXE d   1       5.226   3.731  -1.587  0.00  0.00    -0.078 A 
ATOM      4  C2  OXE d   1       3.853   3.770  -1.548  0.00  0.00    -0.078 A 
ATOM      5  C3  OXE d   1       3.211   4.868  -0.983  0.00  0.00     0.003 A 
ATOM      6  C4  OXE d   1       3.944   5.997  -0.596  0.00  0.00    -0.002 A 
ATOM      7  C5  OXE d   1       5.341   5.994  -0.664  0.00  0.00    -0.002 A 
ATOM      8  C6  OXE d   1       5.998   4.855  -1.117  0.00  0.00     0.003 A 
ENDROOT
TORSDOF 0
ENDMDL
