MODEL 1
REMARK minimizedAffinity 0.51214695
REMARK minimizedRMSD -1
REMARK  0 active torsions:
REMARK  status: ('A' for Active; 'I' for Inactive)
ROOT
ATOM      1  C2' OXE d   1      -2.958   2.266  -5.955  0.00  0.00     0.078 C 
ATOM      2  C1' OXE d   1      -0.151   2.207  -5.929  0.00  0.00     0.078 C 
ATOM      3  C1  OXE d   1      -0.826   3.555  -5.937  0.00  0.00    -0.078 A 
ATOM      4  C2  OXE d   1      -2.199   3.575  -5.997  0.00  0.00    -0.078 A 
ATOM      5  C3  OXE d   1      -2.874   4.791  -5.951  0.00  0.00     0.003 A 
ATOM      6  C4  OXE d   1      -2.165   5.998  -6.000  0.00  0.00    -0.002 A 
ATOM      7  C5  OXE d   1      -0.766   6.000  -5.979  0.00  0.00    -0.002 A 
ATOM      8  C6  OXE d   1      -0.083   4.791  -5.905  0.00  0.00     0.003 A 
ENDROOT
TORSDOF 0
ENDMDL
