MODEL 1
REMARK minimizedAffinity 16.0654907
REMARK minimizedRMSD -1
REMARK  0 active torsions:
REMARK  status: ('A' for Active; 'I' for Inactive)
ROOT
ATOM      1  C2' OXE d   1       1.379   3.678  -1.386  0.00  0.00     0.078 C 
ATOM      2  C1' OXE d   1       1.162   1.356   0.176  0.00  0.00     0.078 C 
ATOM      3  C1  OXE d   1       1.654   1.206  -1.242  0.00  0.00    -0.078 A 
ATOM      4  C2  OXE d   1       1.713   2.342  -2.014  0.00  0.00    -0.078 A 
ATOM      5  C3  OXE d   1       2.212   2.268  -3.311  0.00  0.00     0.003 A 
ATOM      6  C4  OXE d   1       2.509   1.027  -3.887  0.00  0.00    -0.002 A 
ATOM      7  C5  OXE d   1       2.418  -0.146  -3.131  0.00  0.00    -0.002 A 
ATOM      8  C6  OXE d   1       2.034  -0.069  -1.797  0.00  0.00     0.003 A 
ENDROOT
TORSDOF 0
ENDMDL
