MODEL 1
REMARK minimizedAffinity 6.48092031
REMARK minimizedRMSD -1
REMARK  0 active torsions:
REMARK  status: ('A' for Active; 'I' for Inactive)
ROOT
ATOM      1  C2' OXE d   1      -2.815   5.527  -5.900  0.00  0.00     0.078 C 
ATOM      2  C1' OXE d   1      -2.300   2.851  -5.224  0.00  0.00     0.078 C 
ATOM      3  C1  OXE d   1      -1.118   3.765  -5.430  0.00  0.00    -0.078 A 
ATOM      4  C2  OXE d   1      -1.378   5.061  -5.807  0.00  0.00    -0.078 A 
ATOM      5  C3  OXE d   1      -0.326   5.960  -5.957  0.00  0.00     0.003 A 
ATOM      6  C4  OXE d   1       1.000   5.518  -5.879  0.00  0.00    -0.002 A 
ATOM      7  C5  OXE d   1       1.288   4.193  -5.536  0.00  0.00    -0.002 A 
ATOM      8  C6  OXE d   1       0.243   3.316  -5.267  0.00  0.00     0.003 A 
ENDROOT
TORSDOF 0
ENDMDL
