MODEL 1
REMARK minimizedAffinity 7.75397968
REMARK minimizedRMSD -1
REMARK  0 active torsions:
REMARK  status: ('A' for Active; 'I' for Inactive)
ROOT
ATOM      1  C2' OXE d   1       1.588   0.859  -3.383  0.00  0.00     0.078 C 
ATOM      2  C1' OXE d   1       2.956   2.488  -5.215  0.00  0.00     0.078 C 
ATOM      3  C1  OXE d   1       1.452   2.594  -5.165  0.00  0.00    -0.078 A 
ATOM      4  C2  OXE d   1       0.788   1.760  -4.299  0.00  0.00    -0.078 A 
ATOM      5  C3  OXE d   1      -0.595   1.855  -4.174  0.00  0.00     0.003 A 
ATOM      6  C4  OXE d   1      -1.329   2.684  -5.032  0.00  0.00    -0.002 A 
ATOM      7  C5  OXE d   1      -0.674   3.512  -5.950  0.00  0.00    -0.002 A 
ATOM      8  C6  OXE d   1       0.715   3.511  -5.999  0.00  0.00     0.003 A 
ENDROOT
TORSDOF 0
ENDMDL
