MODEL 1
REMARK minimizedAffinity 6.7491231
REMARK minimizedRMSD -1
REMARK  0 active torsions:
REMARK  status: ('A' for Active; 'I' for Inactive)
ROOT
ATOM      1  C2' OXE d   1       0.863   2.314  -4.662  0.00  0.00     0.078 C 
ATOM      2  C1' OXE d   1      -1.850   2.309  -5.383  0.00  0.00     0.078 C 
ATOM      3  C1  OXE d   1      -1.094   3.609  -5.496  0.00  0.00    -0.078 A 
ATOM      4  C2  OXE d   1       0.221   3.613  -5.097  0.00  0.00    -0.078 A 
ATOM      5  C3  OXE d   1       0.979   4.773  -5.233  0.00  0.00     0.003 A 
ATOM      6  C4  OXE d   1       0.375   5.973  -5.627  0.00  0.00    -0.002 A 
ATOM      7  C5  OXE d   1      -0.973   6.000  -6.000  0.00  0.00    -0.002 A 
ATOM      8  C6  OXE d   1      -1.709   4.820  -5.981  0.00  0.00     0.003 A 
ENDROOT
TORSDOF 0
ENDMDL
