MODEL 1
REMARK minimizedAffinity 7.23074627
REMARK minimizedRMSD -1
REMARK  0 active torsions:
REMARK  status: ('A' for Active; 'I' for Inactive)
ROOT
ATOM      1  C2' OXE d   1      -3.283   6.000  -6.000  0.00  0.00     0.078 C 
ATOM      2  C1' OXE d   1      -3.278   3.200  -5.792  0.00  0.00     0.078 C 
ATOM      3  C1  OXE d   1      -1.957   3.917  -5.667  0.00  0.00    -0.078 A 
ATOM      4  C2  OXE d   1      -1.962   5.283  -5.817  0.00  0.00    -0.078 A 
ATOM      5  C3  OXE d   1      -0.779   5.999  -5.657  0.00  0.00     0.003 A 
ATOM      6  C4  OXE d   1       0.439   5.327  -5.498  0.00  0.00    -0.002 A 
ATOM      7  C5  OXE d   1       0.472   3.934  -5.383  0.00  0.00    -0.002 A 
ATOM      8  C6  OXE d   1      -0.719   3.218  -5.423  0.00  0.00     0.003 A 
ENDROOT
TORSDOF 0
ENDMDL
