MODEL 1
REMARK minimizedAffinity 7.31554556
REMARK minimizedRMSD -1
REMARK  0 active torsions:
REMARK  status: ('A' for Active; 'I' for Inactive)
ROOT
ATOM      1  C2' OXE d   1      -3.302  -3.600   5.490  0.00  0.00     0.078 C 
ATOM      2  C1' OXE d   1      -3.783  -1.552   3.632  0.00  0.00     0.078 C 
ATOM      3  C1  OXE d   1      -2.596  -2.452   3.395  0.00  0.00    -0.078 A 
ATOM      4  C2  OXE d   1      -2.341  -3.422   4.334  0.00  0.00    -0.078 A 
ATOM      5  C3  OXE d   1      -1.291  -4.314   4.136  0.00  0.00     0.003 A 
ATOM      6  C4  OXE d   1      -0.401  -4.136   3.070  0.00  0.00    -0.002 A 
ATOM      7  C5  OXE d   1      -0.619  -3.129   2.124  0.00  0.00    -0.002 A 
ATOM      8  C6  OXE d   1      -1.734  -2.307   2.248  0.00  0.00     0.003 A 
ENDROOT
TORSDOF 0
ENDMDL
