MODEL 1
REMARK minimizedAffinity 8.04504967
REMARK minimizedRMSD -1
REMARK  0 active torsions:
REMARK  status: ('A' for Active; 'I' for Inactive)
ROOT
ATOM      1  C2' OXE d   1      -4.437  -2.172   0.042  0.00  0.00     0.078 C 
ATOM      2  C1' OXE d   1      -5.927  -4.518   0.437  0.00  0.00     0.078 C 
ATOM      3  C1  OXE d   1      -4.518  -4.659  -0.084  0.00  0.00    -0.078 A 
ATOM      4  C2  OXE d   1      -3.813  -3.503  -0.318  0.00  0.00    -0.078 A 
ATOM      5  C3  OXE d   1      -2.490  -3.577  -0.746  0.00  0.00     0.003 A 
ATOM      6  C4  OXE d   1      -1.923  -4.812  -1.086  0.00  0.00    -0.002 A 
ATOM      7  C5  OXE d   1      -2.638  -5.999  -0.893  0.00  0.00    -0.002 A 
ATOM      8  C6  OXE d   1      -3.919  -5.942  -0.353  0.00  0.00     0.003 A 
ENDROOT
TORSDOF 0
ENDMDL
