MODEL 1
REMARK minimizedAffinity 12.6879778
REMARK minimizedRMSD -1
REMARK  0 active torsions:
REMARK  status: ('A' for Active; 'I' for Inactive)
ROOT
ATOM      1  C2' OXE d   1      -3.380  -2.749   0.726  0.00  0.00     0.078 C 
ATOM      2  C1' OXE d   1      -5.283  -4.800   0.958  0.00  0.00     0.078 C 
ATOM      3  C1  OXE d   1      -4.282  -4.893  -0.166  0.00  0.00    -0.078 A 
ATOM      4  C2  OXE d   1      -3.384  -3.861  -0.300  0.00  0.00    -0.078 A 
ATOM      5  C3  OXE d   1      -2.405  -3.924  -1.287  0.00  0.00     0.003 A 
ATOM      6  C4  OXE d   1      -2.422  -4.951  -2.239  0.00  0.00    -0.002 A 
ATOM      7  C5  OXE d   1      -3.353  -5.991  -2.144  0.00  0.00    -0.002 A 
ATOM      8  C6  OXE d   1      -4.261  -5.999  -1.091  0.00  0.00     0.003 A 
ENDROOT
TORSDOF 0
ENDMDL
