MODEL 1
REMARK minimizedAffinity 10.6320992
REMARK minimizedRMSD -1
REMARK  0 active torsions:
REMARK  status: ('A' for Active; 'I' for Inactive)
ROOT
ATOM      1  C2' OXE d   1      -5.878   5.056  -3.325  0.00  0.00     0.078 C 
ATOM      2  C1' OXE d   1      -5.190   5.578  -5.996  0.00  0.00     0.078 C 
ATOM      3  C1  OXE d   1      -4.529   4.406  -5.316  0.00  0.00    -0.078 A 
ATOM      4  C2  OXE d   1      -4.836   4.186  -3.995  0.00  0.00    -0.078 A 
ATOM      5  C3  OXE d   1      -4.296   3.086  -3.335  0.00  0.00     0.003 A 
ATOM      6  C4  OXE d   1      -3.325   2.292  -3.958  0.00  0.00    -0.002 A 
ATOM      7  C5  OXE d   1      -2.968   2.522  -5.291  0.00  0.00    -0.002 A 
ATOM      8  C6  OXE d   1      -3.591   3.547  -5.996  0.00  0.00     0.003 A 
ENDROOT
TORSDOF 0
ENDMDL
