MODEL 1
REMARK minimizedAffinity 8.35972118
REMARK minimizedRMSD -1
REMARK  0 active torsions:
REMARK  status: ('A' for Active; 'I' for Inactive)
ROOT
ATOM      1  C2' OXE d   1      -1.948  -5.619   5.992  0.00  0.00     0.078 C 
ATOM      2  C1' OXE d   1      -3.856  -3.559   5.999  0.00  0.00     0.078 C 
ATOM      3  C1  OXE d   1      -2.732  -3.474   4.996  0.00  0.00    -0.078 A 
ATOM      4  C2  OXE d   1      -1.778  -4.462   5.031  0.00  0.00    -0.078 A 
ATOM      5  C3  OXE d   1      -0.751  -4.462   4.091  0.00  0.00     0.003 A 
ATOM      6  C4  OXE d   1      -0.595  -3.383   3.212  0.00  0.00    -0.002 A 
ATOM      7  C5  OXE d   1      -1.534  -2.347   3.187  0.00  0.00    -0.002 A 
ATOM      8  C6  OXE d   1      -2.629  -2.399   4.041  0.00  0.00     0.003 A 
ENDROOT
TORSDOF 0
ENDMDL
