MODEL 1
REMARK minimizedAffinity 0.213612571
REMARK minimizedRMSD -1
REMARK  0 active torsions:
REMARK  status: ('A' for Active; 'I' for Inactive)
ROOT
ATOM      1  C2' OXE d   1      -0.083   2.690  -3.976  0.00  0.00     0.078 C 
ATOM      2  C1' OXE d   1       1.203   4.667  -5.499  0.00  0.00     0.078 C 
ATOM      3  C1  OXE d   1       1.910   4.156  -4.268  0.00  0.00    -0.078 A 
ATOM      4  C2  OXE d   1       1.253   3.223  -3.503  0.00  0.00    -0.078 A 
ATOM      5  C3  OXE d   1       1.883   2.679  -2.387  0.00  0.00     0.003 A 
ATOM      6  C4  OXE d   1       3.113   3.185  -1.951  0.00  0.00    -0.002 A 
ATOM      7  C5  OXE d   1       3.782   4.164  -2.694  0.00  0.00    -0.002 A 
ATOM      8  C6  OXE d   1       3.214   4.629  -3.875  0.00  0.00     0.003 A 
ENDROOT
TORSDOF 0
ENDMDL
