MODEL 1
REMARK minimizedAffinity 7.52024555
REMARK minimizedRMSD -1
REMARK  0 active torsions:
REMARK  status: ('A' for Active; 'I' for Inactive)
ROOT
ATOM      1  C2' OXE d   1      -3.220   5.650  -5.981  0.00  0.00     0.078 C 
ATOM      2  C1' OXE d   1      -2.803   2.876  -5.905  0.00  0.00     0.078 C 
ATOM      3  C1  OXE d   1      -1.589   3.769  -5.914  0.00  0.00    -0.078 A 
ATOM      4  C2  OXE d   1      -1.801   5.124  -5.999  0.00  0.00    -0.078 A 
ATOM      5  C3  OXE d   1      -0.717   5.996  -5.956  0.00  0.00     0.003 A 
ATOM      6  C4  OXE d   1       0.592   5.501  -5.983  0.00  0.00    -0.002 A 
ATOM      7  C5  OXE d   1       0.831   4.124  -5.937  0.00  0.00    -0.002 A 
ATOM      8  C6  OXE d   1      -0.245   3.247  -5.860  0.00  0.00     0.003 A 
ENDROOT
TORSDOF 0
ENDMDL
