MODEL 1
REMARK minimizedAffinity 1.43055272
REMARK minimizedRMSD -1
REMARK  0 active torsions:
REMARK  status: ('A' for Active; 'I' for Inactive)
ROOT
ATOM      1  C2' OXE d   1      -0.437   3.139  -5.416  0.00  0.00     0.078 C 
ATOM      2  C1' OXE d   1      -0.389   5.884  -6.000  0.00  0.00     0.078 C 
ATOM      3  C1  OXE d   1      -1.735   5.217  -5.865  0.00  0.00    -0.078 A 
ATOM      4  C2  OXE d   1      -1.749   3.864  -5.625  0.00  0.00    -0.078 A 
ATOM      5  C3  OXE d   1      -2.963   3.209  -5.438  0.00  0.00     0.003 A 
ATOM      6  C4  OXE d   1      -4.172   3.885  -5.643  0.00  0.00    -0.002 A 
ATOM      7  C5  OXE d   1      -4.180   5.255  -5.927  0.00  0.00    -0.002 A 
ATOM      8  C6  OXE d   1      -2.974   5.943  -5.999  0.00  0.00     0.003 A 
ENDROOT
TORSDOF 0
ENDMDL
