MODEL 1
REMARK minimizedAffinity 9.84583855
REMARK minimizedRMSD -1
REMARK  1 active torsions:
REMARK  status: ('A' for Active; 'I' for Inactive)
REMARK    1  A    between atoms: C1_2  and  C2_3 
ROOT
ATOM      1  C2  UNL d   1       4.743   5.832  -2.918  0.00  0.00    -0.077 A 
ATOM      2  C3  UNL d   1       5.953   5.830  -3.626  0.00  0.00     0.002 A 
ATOM      3  C4  UNL d   1       5.955   5.911  -5.020  0.00  0.00     0.002 A 
ATOM      4  C5  UNL d   1       4.751   5.999  -5.717  0.00  0.00    -0.004 A 
ATOM      5  C6  UNL d   1       3.543   6.000  -5.021  0.00  0.00     0.002 A 
ATOM      6  C7  UNL d   1       3.539   5.917  -3.628  0.00  0.00     0.002 A 
ENDROOT
BRANCH   1   7
ATOM      7  C1  UNL d   1       4.740   5.794  -1.412  0.00  0.00     0.055 C 
ATOM      8  C   UNL d   1       3.324   5.706  -0.863  0.00  0.00     0.019 C 
ENDBRANCH   1   7
TORSDOF 1
ENDMDL
