MODEL 1
REMARK minimizedAffinity 3.30635118
REMARK minimizedRMSD -1
REMARK  1 active torsions:
REMARK  status: ('A' for Active; 'I' for Inactive)
REMARK    1  A    between atoms: C1_2  and  C2_3 
ROOT
ATOM      1  C2  UNL d   1       4.647   5.642  -3.196  0.00  0.00    -0.077 A 
ATOM      2  C3  UNL d   1       3.500   5.533  -3.995  0.00  0.00     0.002 A 
ATOM      3  C4  UNL d   1       3.593   5.656  -5.383  0.00  0.00     0.002 A 
ATOM      4  C5  UNL d   1       4.829   5.884  -5.983  0.00  0.00    -0.004 A 
ATOM      5  C6  UNL d   1       5.975   5.996  -5.196  0.00  0.00     0.002 A 
ATOM      6  C7  UNL d   1       5.884   5.875  -3.809  0.00  0.00     0.002 A 
ENDROOT
BRANCH   1   7
ATOM      7  C1  UNL d   1       4.557   5.460  -1.703  0.00  0.00     0.055 C 
ATOM      8  C   UNL d   1       5.814   5.961  -1.008  0.00  0.00     0.019 C 
ENDBRANCH   1   7
TORSDOF 1
ENDMDL
