MODEL 1
REMARK minimizedAffinity -2.23359489
REMARK minimizedRMSD -1
REMARK  1 active torsions:
REMARK  status: ('A' for Active; 'I' for Inactive)
REMARK    1  A    between atoms: C1_2  and  C2_3 
ROOT
ATOM      1  C2  UNL d   1       4.233   5.420  -4.032  0.00  0.00    -0.077 A 
ATOM      2  C3  UNL d   1       3.188   4.530  -3.749  0.00  0.00     0.002 A 
ATOM      3  C4  UNL d   1       2.895   4.181  -2.429  0.00  0.00     0.002 A 
ATOM      4  C5  UNL d   1       3.639   4.721  -1.382  0.00  0.00    -0.004 A 
ATOM      5  C6  UNL d   1       4.682   5.606  -1.653  0.00  0.00     0.002 A 
ATOM      6  C7  UNL d   1       4.977   5.954  -2.972  0.00  0.00     0.002 A 
ENDROOT
BRANCH   1   7
ATOM      7  C1  UNL d   1       4.519   5.835  -5.451  0.00  0.00     0.055 C 
ATOM      8  C   UNL d   1       6.000   5.706  -5.778  0.00  0.00     0.019 C 
ENDBRANCH   1   7
TORSDOF 1
ENDMDL
