MODEL 1
REMARK minimizedAffinity 3.80312872
REMARK minimizedRMSD -1
REMARK  1 active torsions:
REMARK  status: ('A' for Active; 'I' for Inactive)
REMARK    1  A    between atoms: C1_2  and  C2_3 
ROOT
ATOM      1  C2  UNL d   1       4.754   5.649  -2.078  0.00  0.00    -0.077 A 
ATOM      2  C3  UNL d   1       3.630   5.290  -2.836  0.00  0.00     0.002 A 
ATOM      3  C4  UNL d   1       3.693   5.280  -4.231  0.00  0.00     0.002 A 
ATOM      4  C5  UNL d   1       4.877   5.624  -4.879  0.00  0.00    -0.004 A 
ATOM      5  C6  UNL d   1       5.999   5.984  -4.135  0.00  0.00     0.002 A 
ATOM      6  C7  UNL d   1       5.938   5.996  -2.740  0.00  0.00     0.002 A 
ENDROOT
BRANCH   1   7
ATOM      7  C1  UNL d   1       4.703   5.614  -0.573  0.00  0.00     0.055 C 
ATOM      8  C   UNL d   1       4.093   4.313  -0.071  0.00  0.00     0.019 C 
ENDBRANCH   1   7
TORSDOF 1
ENDMDL
