MODEL 1
REMARK minimizedAffinity 11.519886
REMARK minimizedRMSD -1
REMARK  1 active torsions:
REMARK  status: ('A' for Active; 'I' for Inactive)
REMARK    1  A    between atoms: C1_2  and  C2_3 
ROOT
ATOM      1  C2  UNL d   1      -2.963   0.561  -1.444  0.00  0.00    -0.077 A 
ATOM      2  C3  UNL d   1      -4.047   1.405  -1.724  0.00  0.00     0.002 A 
ATOM      3  C4  UNL d   1      -4.853   1.172  -2.840  0.00  0.00     0.002 A 
ATOM      4  C5  UNL d   1      -4.587   0.094  -3.681  0.00  0.00    -0.004 A 
ATOM      5  C6  UNL d   1      -3.511  -0.750  -3.412  0.00  0.00     0.002 A 
ATOM      6  C7  UNL d   1      -2.703  -0.518  -2.298  0.00  0.00     0.002 A 
ENDROOT
BRANCH   1   7
ATOM      7  C1  UNL d   1      -2.122   0.781  -0.214  0.00  0.00     0.055 C 
ATOM      8  C   UNL d   1      -2.497   2.077   0.489  0.00  0.00     0.019 C 
ENDBRANCH   1   7
TORSDOF 1
ENDMDL
