MODEL 1
REMARK minimizedAffinity 4.53207111
REMARK minimizedRMSD -1
REMARK  1 active torsions:
REMARK  status: ('A' for Active; 'I' for Inactive)
REMARK    1  A    between atoms: C1_2  and  C2_3 
ROOT
ATOM      1  C2  UNL d   1       1.252  -1.197   3.833  0.00  0.00    -0.077 A 
ATOM      2  C3  UNL d   1       1.991  -2.226   3.232  0.00  0.00     0.002 A 
ATOM      3  C4  UNL d   1       2.303  -2.170   1.872  0.00  0.00     0.002 A 
ATOM      4  C5  UNL d   1       1.883  -1.087   1.103  0.00  0.00    -0.004 A 
ATOM      5  C6  UNL d   1       1.146  -0.060   1.691  0.00  0.00     0.002 A 
ATOM      6  C7  UNL d   1       0.832  -0.114   3.050  0.00  0.00     0.002 A 
ENDROOT
BRANCH   1   7
ATOM      7  C1  UNL d   1       0.957  -1.232   5.310  0.00  0.00     0.055 C 
ATOM      8  C   UNL d   1       1.716  -2.356   6.000  0.00  0.00     0.019 C 
ENDBRANCH   1   7
TORSDOF 1
ENDMDL
