MODEL 1
REMARK minimizedAffinity 5.96524715
REMARK minimizedRMSD -1
REMARK  1 active torsions:
REMARK  status: ('A' for Active; 'I' for Inactive)
REMARK    1  A    between atoms: C1_2  and  C2_3 
ROOT
ATOM      1  C2  UNL d   1      -4.540  -3.569  -4.168  0.00  0.00    -0.077 A 
ATOM      2  C3  UNL d   1      -5.346  -3.672  -5.311  0.00  0.00     0.002 A 
ATOM      3  C4  UNL d   1      -5.442  -4.883  -6.000  0.00  0.00     0.002 A 
ATOM      4  C5  UNL d   1      -4.739  -5.999  -5.552  0.00  0.00    -0.004 A 
ATOM      5  C6  UNL d   1      -3.933  -5.906  -4.418  0.00  0.00     0.002 A 
ATOM      6  C7  UNL d   1      -3.835  -4.697  -3.728  0.00  0.00     0.002 A 
ENDROOT
BRANCH   1   7
ATOM      7  C1  UNL d   1      -4.474  -2.278  -3.394  0.00  0.00     0.055 C 
ATOM      8  C   UNL d   1      -5.636  -2.157  -2.419  0.00  0.00     0.019 C 
ENDBRANCH   1   7
TORSDOF 1
ENDMDL
