MODEL 1
REMARK minimizedAffinity 0.12833856
REMARK minimizedRMSD -1
REMARK  1 active torsions:
REMARK  status: ('A' for Active; 'I' for Inactive)
REMARK    1  A    between atoms: C1_2  and  C2_3 
ROOT
ATOM      1  C2  UNL d   1       3.314  -1.883   1.976  0.00  0.00    -0.077 A 
ATOM      2  C3  UNL d   1       2.819  -2.414   0.776  0.00  0.00     0.002 A 
ATOM      3  C4  UNL d   1       3.695  -2.913  -0.190  0.00  0.00     0.002 A 
ATOM      4  C5  UNL d   1       5.070  -2.889   0.035  0.00  0.00    -0.004 A 
ATOM      5  C6  UNL d   1       5.572  -2.362   1.224  0.00  0.00     0.002 A 
ATOM      6  C7  UNL d   1       4.699  -1.861   2.190  0.00  0.00     0.002 A 
ENDROOT
BRANCH   1   7
ATOM      7  C1  UNL d   1       2.369  -1.389   3.040  0.00  0.00     0.055 C 
ATOM      8  C   UNL d   1       1.182  -0.659   2.430  0.00  0.00     0.019 C 
ENDBRANCH   1   7
TORSDOF 1
ENDMDL
