MODEL 1
REMARK minimizedAffinity -0.900103927
REMARK minimizedRMSD -1
REMARK  1 active torsions:
REMARK  status: ('A' for Active; 'I' for Inactive)
REMARK    1  A    between atoms: C1_2  and  C2_3 
ROOT
ATOM      1  C2  UNL d   1       1.444  -1.516   4.388  0.00  0.00    -0.077 A 
ATOM      2  C3  UNL d   1       1.236  -0.167   4.065  0.00  0.00     0.002 A 
ATOM      3  C4  UNL d   1       1.566   0.314   2.797  0.00  0.00     0.002 A 
ATOM      4  C5  UNL d   1       2.102  -0.546   1.841  0.00  0.00    -0.004 A 
ATOM      5  C6  UNL d   1       2.315  -1.888   2.153  0.00  0.00     0.002 A 
ATOM      6  C7  UNL d   1       1.987  -2.371   3.421  0.00  0.00     0.002 A 
ENDROOT
BRANCH   1   7
ATOM      7  C1  UNL d   1       1.043  -2.048   5.739  0.00  0.00     0.055 C 
ATOM      8  C   UNL d   1       1.473  -3.497   5.913  0.00  0.00     0.019 C 
ENDBRANCH   1   7
TORSDOF 1
ENDMDL
