MODEL 1
REMARK minimizedAffinity -2.63275361
REMARK minimizedRMSD -1
REMARK  0 active torsions:
REMARK  status: ('A' for Active; 'I' for Inactive)
ROOT
ATOM      1  C   UNL d   1      -1.032   0.797   2.197  0.00  0.00     0.023 A 
ATOM      2  C1  UNL d   1      -0.972   0.915   3.585  0.00  0.00     0.003 A 
ATOM      3  C2  UNL d   1      -0.020   0.193   4.308  0.00  0.00     0.048 A 
ATOM      4  C3  UNL d   1       0.870  -0.644   3.636  0.00  0.00     0.023 A 
ATOM      5  C4  UNL d   1       0.815  -0.764   2.246  0.00  0.00     0.048 A 
ATOM      6  C5  UNL d   1      -0.140  -0.041   1.528  0.00  0.00     0.003 A 
ATOM      7  I   UNL d   1       2.288  -1.719   4.710  0.00  0.00    -0.146 I 
ENDROOT
TORSDOF 0
ENDMDL
