MODEL 1
REMARK minimizedAffinity 6.51342678
REMARK minimizedRMSD -1
REMARK  0 active torsions:
REMARK  status: ('A' for Active; 'I' for Inactive)
ROOT
ATOM      1  C   UNL d   1       1.482  -0.026   0.822  0.00  0.00     0.023 A 
ATOM      2  C1  UNL d   1       0.497   0.728   1.461  0.00  0.00     0.003 A 
ATOM      3  C2  UNL d   1      -0.851   0.505   1.173  0.00  0.00     0.048 A 
ATOM      4  C3  UNL d   1      -1.207  -0.473   0.246  0.00  0.00     0.023 A 
ATOM      5  C4  UNL d   1      -0.226  -1.231  -0.395  0.00  0.00     0.048 A 
ATOM      6  C5  UNL d   1       1.121  -1.004  -0.105  0.00  0.00     0.003 A 
ATOM      7  I   UNL d   1      -3.213  -0.807  -0.185  0.00  0.00    -0.146 I 
ENDROOT
TORSDOF 0
ENDMDL
