MODEL 1
REMARK minimizedAffinity 9.65808201
REMARK minimizedRMSD -1
REMARK  0 active torsions:
REMARK  status: ('A' for Active; 'I' for Inactive)
ROOT
ATOM      1  C   UNL d   1       5.913   2.540   1.074  0.00  0.00     0.023 A 
ATOM      2  C1  UNL d   1       5.141   2.424  -0.082  0.00  0.00     0.003 A 
ATOM      3  C2  UNL d   1       3.894   1.799  -0.031  0.00  0.00     0.048 A 
ATOM      4  C3  UNL d   1       3.424   1.292   1.181  0.00  0.00     0.023 A 
ATOM      5  C4  UNL d   1       4.192   1.407   2.340  0.00  0.00     0.048 A 
ATOM      6  C5  UNL d   1       5.439   2.032   2.284  0.00  0.00     0.003 A 
ATOM      7  I   UNL d   1       1.567   0.362   1.260  0.00  0.00    -0.146 I 
ENDROOT
TORSDOF 0
ENDMDL
