MODEL 1
REMARK minimizedAffinity -4.74662733
REMARK minimizedRMSD -1
REMARK  0 active torsions:
REMARK  status: ('A' for Active; 'I' for Inactive)
ROOT
ATOM      1  C2' OXE d   1       0.584   0.905  -0.507  0.00  0.00     0.078 C 
ATOM      2  C1' OXE d   1      -1.057  -0.198   1.486  0.00  0.00     0.078 C 
ATOM      3  C1  OXE d   1      -0.487  -1.132   0.447  0.00  0.00    -0.078 A 
ATOM      4  C2  OXE d   1       0.276  -0.576  -0.552  0.00  0.00    -0.078 A 
ATOM      5  C3  OXE d   1       0.870  -1.399  -1.504  0.00  0.00     0.003 A 
ATOM      6  C4  OXE d   1       0.573  -2.766  -1.544  0.00  0.00    -0.002 A 
ATOM      7  C5  OXE d   1      -0.235  -3.346  -0.560  0.00  0.00    -0.002 A 
ATOM      8  C6  OXE d   1      -0.737  -2.552   0.464  0.00  0.00     0.003 A 
ENDROOT
TORSDOF 0
ENDMDL
