MODEL 1
REMARK minimizedAffinity -4.94440842
REMARK minimizedRMSD -1
REMARK  0 active torsions:
REMARK  status: ('A' for Active; 'I' for Inactive)
ROOT
ATOM      1  C2' OXE d   1      -1.147  -0.832   1.578  0.00  0.00     0.078 C 
ATOM      2  C1' OXE d   1      -0.499   0.504  -0.804  0.00  0.00     0.078 C 
ATOM      3  C1  OXE d   1      -0.276  -0.987  -0.750  0.00  0.00    -0.078 A 
ATOM      4  C2  OXE d   1      -0.552  -1.625   0.435  0.00  0.00    -0.078 A 
ATOM      5  C3  OXE d   1      -0.415  -3.008   0.522  0.00  0.00     0.003 A 
ATOM      6  C4  OXE d   1       0.146  -3.732  -0.537  0.00  0.00    -0.002 A 
ATOM      7  C5  OXE d   1       0.471  -3.096  -1.739  0.00  0.00    -0.002 A 
ATOM      8  C6  OXE d   1       0.227  -1.734  -1.877  0.00  0.00     0.003 A 
ENDROOT
TORSDOF 0
ENDMDL
