MODEL 1
REMARK minimizedAffinity -3.83553171
REMARK minimizedRMSD -1
REMARK  0 active torsions:
REMARK  status: ('A' for Active; 'I' for Inactive)
ROOT
ATOM      1  C2' OXE d   1       1.012  -3.177  -2.755  0.00  0.00     0.078 C 
ATOM      2  C1' OXE d   1       0.190  -4.707  -0.550  0.00  0.00     0.078 C 
ATOM      3  C1  OXE d   1       0.074  -3.206  -0.448  0.00  0.00    -0.078 A 
ATOM      4  C2  OXE d   1       0.522  -2.464  -1.514  0.00  0.00    -0.078 A 
ATOM      5  C3  OXE d   1       0.388  -1.078  -1.494  0.00  0.00     0.003 A 
ATOM      6  C4  OXE d   1      -0.057  -0.426  -0.337  0.00  0.00    -0.002 A 
ATOM      7  C5  OXE d   1      -0.481  -1.162   0.774  0.00  0.00    -0.002 A 
ATOM      8  C6  OXE d   1      -0.462  -2.551   0.720  0.00  0.00     0.003 A 
ENDROOT
TORSDOF 0
ENDMDL
