MODEL 1
REMARK minimizedAffinity -5.51892233
REMARK minimizedRMSD -1
REMARK  0 active torsions:
REMARK  status: ('A' for Active; 'I' for Inactive)
ROOT
ATOM      1  C2' OXE d   1      -0.644  -0.549   1.281  0.00  0.00     0.078 C 
ATOM      2  C1' OXE d   1       0.279   0.534  -1.139  0.00  0.00     0.078 C 
ATOM      3  C1  OXE d   1       0.225  -0.968  -1.015  0.00  0.00    -0.078 A 
ATOM      4  C2  OXE d   1      -0.184  -1.490   0.189  0.00  0.00    -0.078 A 
ATOM      5  C3  OXE d   1      -0.304  -2.868   0.338  0.00  0.00     0.003 A 
ATOM      6  C4  OXE d   1       0.134  -3.731  -0.674  0.00  0.00    -0.002 A 
ATOM      7  C5  OXE d   1       0.591  -3.221  -1.894  0.00  0.00    -0.002 A 
ATOM      8  C6  OXE d   1       0.603  -1.846  -2.096  0.00  0.00     0.003 A 
ENDROOT
TORSDOF 0
ENDMDL
