MODEL 1
REMARK minimizedAffinity -3.42292905
REMARK minimizedRMSD -1
REMARK  0 active torsions:
REMARK  status: ('A' for Active; 'I' for Inactive)
ROOT
ATOM      1  C2' OXE d   1       0.004  -0.139  -0.836  0.00  0.00     0.078 C 
ATOM      2  C1' OXE d   1       0.132  -1.887  -3.029  0.00  0.00     0.078 C 
ATOM      3  C1  OXE d   1       0.131  -2.491  -1.647  0.00  0.00    -0.078 A 
ATOM      4  C2  OXE d   1       0.115  -1.626  -0.579  0.00  0.00    -0.078 A 
ATOM      5  C3  OXE d   1       0.057  -2.131   0.717  0.00  0.00     0.003 A 
ATOM      6  C4  OXE d   1       0.170  -3.508   0.946  0.00  0.00    -0.002 A 
ATOM      7  C5  OXE d   1       0.227  -4.404  -0.126  0.00  0.00    -0.002 A 
ATOM      8  C6  OXE d   1       0.166  -3.915  -1.427  0.00  0.00     0.003 A 
ENDROOT
TORSDOF 0
ENDMDL
