MODEL 1
REMARK minimizedAffinity -4.36394548
REMARK minimizedRMSD -1
REMARK  0 active torsions:
REMARK  status: ('A' for Active; 'I' for Inactive)
ROOT
ATOM      1  C2' OXE d   1      -0.071  -3.522  -0.388  0.00  0.00     0.078 C 
ATOM      2  C1' OXE d   1      -2.646  -2.677   0.346  0.00  0.00     0.078 C 
ATOM      3  C1  OXE d   1      -1.534  -1.659   0.386  0.00  0.00    -0.078 A 
ATOM      4  C2  OXE d   1      -0.269  -2.093   0.070  0.00  0.00    -0.078 A 
ATOM      5  C3  OXE d   1       0.784  -1.182   0.038  0.00  0.00     0.003 A 
ATOM      6  C4  OXE d   1       0.595   0.135   0.473  0.00  0.00    -0.002 A 
ATOM      7  C5  OXE d   1      -0.678   0.587   0.837  0.00  0.00    -0.002 A 
ATOM      8  C6  OXE d   1      -1.758  -0.284   0.758  0.00  0.00     0.003 A 
ENDROOT
TORSDOF 0
ENDMDL
