MODEL 1
REMARK minimizedAffinity -3.9922297
REMARK minimizedRMSD -1
REMARK  0 active torsions:
REMARK  status: ('A' for Active; 'I' for Inactive)
ROOT
ATOM      1  C2' OXE d   1       0.001   0.724  -0.800  0.00  0.00     0.078 C 
ATOM      2  C1' OXE d   1       0.780  -1.352  -2.522  0.00  0.00     0.078 C 
ATOM      3  C1  OXE d   1       0.283  -1.727  -1.148  0.00  0.00    -0.078 A 
ATOM      4  C2  OXE d   1      -0.052  -0.702  -0.295  0.00  0.00    -0.078 A 
ATOM      5  C3  OXE d   1      -0.568  -0.994   0.964  0.00  0.00     0.003 A 
ATOM      6  C4  OXE d   1      -0.604  -2.315   1.426  0.00  0.00    -0.002 A 
ATOM      7  C5  OXE d   1      -0.230  -3.371   0.589  0.00  0.00    -0.002 A 
ATOM      8  C6  OXE d   1       0.174  -3.098  -0.713  0.00  0.00     0.003 A 
ENDROOT
TORSDOF 0
ENDMDL
