MODEL 1
REMARK minimizedAffinity -1.77496648
REMARK minimizedRMSD -1
REMARK  0 active torsions:
REMARK  status: ('A' for Active; 'I' for Inactive)
ROOT
ATOM      1  C2' OXE d   1      -0.420  -1.009   1.891  0.00  0.00     0.078 C 
ATOM      2  C1' OXE d   1       0.281   1.046   0.111  0.00  0.00     0.078 C 
ATOM      3  C1  OXE d   1       0.091  -0.340  -0.454  0.00  0.00    -0.078 A 
ATOM      4  C2  OXE d   1      -0.207  -1.348   0.431  0.00  0.00    -0.078 A 
ATOM      5  C3  OXE d   1      -0.446  -2.634  -0.044  0.00  0.00     0.003 A 
ATOM      6  C4  OXE d   1      -0.237  -2.941  -1.394  0.00  0.00    -0.002 A 
ATOM      7  C5  OXE d   1       0.105  -1.937  -2.306  0.00  0.00    -0.002 A 
ATOM      8  C6  OXE d   1       0.230  -0.626  -1.860  0.00  0.00     0.003 A 
ENDROOT
TORSDOF 0
ENDMDL
