MODEL 1
REMARK minimizedAffinity -4.0287447
REMARK minimizedRMSD -1
REMARK  0 active torsions:
REMARK  status: ('A' for Active; 'I' for Inactive)
ROOT
ATOM      1  C2' OXE d   1      -0.916  -1.305   1.343  0.00  0.00     0.078 C 
ATOM      2  C1' OXE d   1       0.147   0.626  -0.395  0.00  0.00     0.078 C 
ATOM      3  C1  OXE d   1      -0.031  -0.775  -0.925  0.00  0.00    -0.078 A 
ATOM      4  C2  OXE d   1      -0.508  -1.724  -0.053  0.00  0.00    -0.078 A 
ATOM      5  C3  OXE d   1      -0.743  -3.020  -0.505  0.00  0.00     0.003 A 
ATOM      6  C4  OXE d   1      -0.354  -3.401  -1.795  0.00  0.00    -0.002 A 
ATOM      7  C5  OXE d   1       0.171  -2.459  -2.686  0.00  0.00    -0.002 A 
ATOM      8  C6  OXE d   1       0.298  -1.135  -2.281  0.00  0.00     0.003 A 
ENDROOT
TORSDOF 0
ENDMDL
