MODEL 1
REMARK minimizedAffinity -3.16481709
REMARK minimizedRMSD -1
REMARK  0 active torsions:
REMARK  status: ('A' for Active; 'I' for Inactive)
ROOT
ATOM      1  C2' OXE d   1       0.009   1.410  -1.285  0.00  0.00     0.078 C 
ATOM      2  C1' OXE d   1      -0.157  -1.280  -2.070  0.00  0.00     0.078 C 
ATOM      3  C1  OXE d   1      -0.457  -0.948  -0.630  0.00  0.00    -0.078 A 
ATOM      4  C2  OXE d   1      -0.328   0.365  -0.244  0.00  0.00    -0.078 A 
ATOM      5  C3  OXE d   1      -0.645   0.734   1.060  0.00  0.00     0.003 A 
ATOM      6  C4  OXE d   1      -0.946  -0.240   2.020  0.00  0.00    -0.002 A 
ATOM      7  C5  OXE d   1      -1.043  -1.588   1.657  0.00  0.00    -0.002 A 
ATOM      8  C6  OXE d   1      -0.844  -1.952   0.330  0.00  0.00     0.003 A 
ENDROOT
TORSDOF 0
ENDMDL
