MODEL 1
REMARK minimizedAffinity -6.0183959
REMARK minimizedRMSD -1
REMARK  0 active torsions:
REMARK  status: ('A' for Active; 'I' for Inactive)
ROOT
ATOM      1  C2' OXE d   1      -0.356   1.304  -0.126  0.00  0.00     0.078 C 
ATOM      2  C1' OXE d   1      -1.375  -0.141   2.054  0.00  0.00     0.078 C 
ATOM      3  C1  OXE d   1      -0.796  -0.923   0.902  0.00  0.00    -0.078 A 
ATOM      4  C2  OXE d   1      -0.342  -0.209  -0.181  0.00  0.00    -0.078 A 
ATOM      5  C3  OXE d   1       0.252  -0.878  -1.248  0.00  0.00     0.003 A 
ATOM      6  C4  OXE d   1       0.252  -2.277  -1.296  0.00  0.00    -0.002 A 
ATOM      7  C5  OXE d   1      -0.242  -3.024  -0.221  0.00  0.00    -0.002 A 
ATOM      8  C6  OXE d   1      -0.729  -2.363   0.902  0.00  0.00     0.003 A 
ENDROOT
TORSDOF 0
ENDMDL
