MODEL 1
REMARK minimizedAffinity -4.32946062
REMARK minimizedRMSD -1
REMARK  0 active torsions:
REMARK  status: ('A' for Active; 'I' for Inactive)
ROOT
ATOM      1  C2' OXE d   1       0.239   0.684  -0.384  0.00  0.00     0.078 C 
ATOM      2  C1' OXE d   1       0.576  -1.042  -2.571  0.00  0.00     0.078 C 
ATOM      3  C1  OXE d   1       0.242  -1.657  -1.235  0.00  0.00    -0.078 A 
ATOM      4  C2  OXE d   1       0.125  -0.808  -0.160  0.00  0.00    -0.078 A 
ATOM      5  C3  OXE d   1      -0.235  -1.317   1.084  0.00  0.00     0.003 A 
ATOM      6  C4  OXE d   1      -0.329  -2.700   1.284  0.00  0.00    -0.002 A 
ATOM      7  C5  OXE d   1      -0.174  -3.585   0.212  0.00  0.00    -0.002 A 
ATOM      8  C6  OXE d   1       0.069  -3.078  -1.060  0.00  0.00     0.003 A 
ENDROOT
TORSDOF 0
ENDMDL
