MODEL 1
REMARK minimizedAffinity -1.78375781
REMARK minimizedRMSD -1
REMARK  0 active torsions:
REMARK  status: ('A' for Active; 'I' for Inactive)
ROOT
ATOM      1  C2' OXE d   1       0.598  -0.514  -1.169  0.00  0.00     0.078 C 
ATOM      2  C1' OXE d   1      -0.879   0.368   1.049  0.00  0.00     0.078 C 
ATOM      3  C1  OXE d   1       0.189   1.285   0.504  0.00  0.00    -0.078 A 
ATOM      4  C2  OXE d   1       0.938   0.825  -0.552  0.00  0.00    -0.078 A 
ATOM      5  C3  OXE d   1       1.899   1.652  -1.127  0.00  0.00     0.003 A 
ATOM      6  C4  OXE d   1       2.213   2.885  -0.544  0.00  0.00    -0.002 A 
ATOM      7  C5  OXE d   1       1.489   3.355   0.557  0.00  0.00    -0.002 A 
ATOM      8  C6  OXE d   1       0.447   2.588   1.066  0.00  0.00     0.003 A 
ENDROOT
TORSDOF 0
ENDMDL
