MODEL 1
REMARK minimizedAffinity -5.35195303
REMARK minimizedRMSD -1
REMARK  0 active torsions:
REMARK  status: ('A' for Active; 'I' for Inactive)
ROOT
ATOM      1  C2' OXE d   1       0.343   0.911  -0.238  0.00  0.00     0.078 C 
ATOM      2  C1' OXE d   1      -0.895  -0.413   1.905  0.00  0.00     0.078 C 
ATOM      3  C1  OXE d   1      -0.390  -1.252   0.757  0.00  0.00    -0.078 A 
ATOM      4  C2  OXE d   1       0.173  -0.591  -0.308  0.00  0.00    -0.078 A 
ATOM      5  C3  OXE d   1       0.704  -1.320  -1.368  0.00  0.00     0.003 A 
ATOM      6  C4  OXE d   1       0.533  -2.708  -1.430  0.00  0.00    -0.002 A 
ATOM      7  C5  OXE d   1      -0.073  -3.397  -0.374  0.00  0.00    -0.002 A 
ATOM      8  C6  OXE d   1      -0.501  -2.689   0.744  0.00  0.00     0.003 A 
ENDROOT
TORSDOF 0
ENDMDL
