MODEL 1
REMARK minimizedAffinity -5.0606451
REMARK minimizedRMSD -1
REMARK  0 active torsions:
REMARK  status: ('A' for Active; 'I' for Inactive)
ROOT
ATOM      1  C2' OXE d   1      -0.480  -2.728  -2.363  0.00  0.00     0.078 C 
ATOM      2  C1' OXE d   1      -0.211   0.006  -2.938  0.00  0.00     0.078 C 
ATOM      3  C1  OXE d   1      -0.340  -0.399  -1.491  0.00  0.00    -0.078 A 
ATOM      4  C2  OXE d   1      -0.518  -1.735  -1.222  0.00  0.00    -0.078 A 
ATOM      5  C3  OXE d   1      -0.587  -2.169   0.099  0.00  0.00     0.003 A 
ATOM      6  C4  OXE d   1      -0.632  -1.243   1.148  0.00  0.00    -0.002 A 
ATOM      7  C5  OXE d   1      -0.492   0.126   0.893  0.00  0.00    -0.002 A 
ATOM      8  C6  OXE d   1      -0.303   0.560  -0.414  0.00  0.00     0.003 A 
ENDROOT
TORSDOF 0
ENDMDL
