MODEL 1
REMARK minimizedAffinity -2.80003166
REMARK minimizedRMSD -1
REMARK  0 active torsions:
REMARK  status: ('A' for Active; 'I' for Inactive)
ROOT
ATOM      1  C2' OXE d   1      -0.147  -3.138   1.060  0.00  0.00     0.078 C 
ATOM      2  C1' OXE d   1      -1.281  -1.079   2.594  0.00  0.00     0.078 C 
ATOM      3  C1  OXE d   1      -0.645  -0.707   1.278  0.00  0.00    -0.078 A 
ATOM      4  C2  OXE d   1      -0.051  -1.714   0.556  0.00  0.00    -0.078 A 
ATOM      5  C3  OXE d   1       0.502  -1.434  -0.690  0.00  0.00     0.003 A 
ATOM      6  C4  OXE d   1       0.596  -0.113  -1.144  0.00  0.00    -0.002 A 
ATOM      7  C5  OXE d   1       0.033   0.933  -0.406  0.00  0.00    -0.002 A 
ATOM      8  C6  OXE d   1      -0.627   0.648   0.785  0.00  0.00     0.003 A 
ENDROOT
TORSDOF 0
ENDMDL
