MODEL 1
REMARK minimizedAffinity -3.78117609
REMARK minimizedRMSD -1
REMARK  0 active torsions:
REMARK  status: ('A' for Active; 'I' for Inactive)
ROOT
ATOM      1  C2' OXE d   1      -0.019  -1.956  -1.989  0.00  0.00     0.078 C 
ATOM      2  C1' OXE d   1      -0.308   0.837  -1.988  0.00  0.00     0.078 C 
ATOM      3  C1  OXE d   1      -0.521   0.107  -0.685  0.00  0.00    -0.078 A 
ATOM      4  C2  OXE d   1      -0.423  -1.264  -0.705  0.00  0.00    -0.078 A 
ATOM      5  C3  OXE d   1      -0.557  -1.982   0.480  0.00  0.00     0.003 A 
ATOM      6  C4  OXE d   1      -0.941  -1.336   1.661  0.00  0.00    -0.002 A 
ATOM      7  C5  OXE d   1      -1.085   0.055   1.694  0.00  0.00    -0.002 A 
ATOM      8  C6  OXE d   1      -0.837   0.794   0.543  0.00  0.00     0.003 A 
ENDROOT
TORSDOF 0
ENDMDL
