MODEL 1
REMARK minimizedAffinity -5.42374802
REMARK minimizedRMSD -1
REMARK  1 active torsions:
REMARK  status: ('A' for Active; 'I' for Inactive)
REMARK    1  A    between atoms: C1_2  and  C2_3 
ROOT
ATOM      1  C2  UNL d   1       1.485   2.611  -1.192  0.00  0.00    -0.077 A 
ATOM      2  C3  UNL d   1       0.976   2.329   0.083  0.00  0.00     0.002 A 
ATOM      3  C4  UNL d   1       0.830   1.007   0.509  0.00  0.00     0.002 A 
ATOM      4  C5  UNL d   1       1.196  -0.042  -0.332  0.00  0.00    -0.004 A 
ATOM      5  C6  UNL d   1       1.701   0.229  -1.603  0.00  0.00     0.002 A 
ATOM      6  C7  UNL d   1       1.846   1.549  -2.031  0.00  0.00     0.002 A 
ENDROOT
BRANCH   1   7
ATOM      7  C1  UNL d   1       1.688   4.037  -1.635  0.00  0.00     0.055 C 
ATOM      8  C   UNL d   1       1.534   5.005  -0.471  0.00  0.00     0.019 C 
ENDBRANCH   1   7
TORSDOF 1
ENDMDL
