MODEL 1
REMARK minimizedAffinity -3.63704872
REMARK minimizedRMSD -1
REMARK  1 active torsions:
REMARK  status: ('A' for Active; 'I' for Inactive)
REMARK    1  A    between atoms: C1_2  and  C2_3 
ROOT
ATOM      1  C2  UNL d   1       1.615   2.590  -1.260  0.00  0.00    -0.077 A 
ATOM      2  C3  UNL d   1       1.354   1.450  -2.034  0.00  0.00     0.002 A 
ATOM      3  C4  UNL d   1       1.027   0.239  -1.419  0.00  0.00     0.002 A 
ATOM      4  C5  UNL d   1       0.953   0.159  -0.030  0.00  0.00    -0.004 A 
ATOM      5  C6  UNL d   1       1.213   1.286   0.747  0.00  0.00     0.002 A 
ATOM      6  C7  UNL d   1       1.541   2.497   0.135  0.00  0.00     0.002 A 
ENDROOT
BRANCH   1   7
ATOM      7  C1  UNL d   1       1.921   3.908  -1.923  0.00  0.00     0.055 C 
ATOM      8  C   UNL d   1       2.166   5.001  -0.893  0.00  0.00     0.019 C 
ENDBRANCH   1   7
TORSDOF 1
ENDMDL
