MODEL 1
REMARK minimizedAffinity -1.14347911
REMARK minimizedRMSD -1
REMARK  1 active torsions:
REMARK  status: ('A' for Active; 'I' for Inactive)
REMARK    1  A    between atoms: C1_2  and  C2_3 
ROOT
ATOM      1  C2  UNL d   1       1.130   2.752  -1.519  0.00  0.00    -0.077 A 
ATOM      2  C3  UNL d   1       1.490   1.878  -2.556  0.00  0.00     0.002 A 
ATOM      3  C4  UNL d   1       1.579   0.505  -2.323  0.00  0.00     0.002 A 
ATOM      4  C5  UNL d   1       1.306  -0.008  -1.056  0.00  0.00    -0.004 A 
ATOM      5  C6  UNL d   1       0.949   0.852  -0.019  0.00  0.00     0.002 A 
ATOM      6  C7  UNL d   1       0.860   2.226  -0.249  0.00  0.00     0.002 A 
ENDROOT
BRANCH   1   7
ATOM      7  C1  UNL d   1       0.985   4.228  -1.781  0.00  0.00     0.055 C 
ATOM      8  C   UNL d   1       1.583   5.052  -0.650  0.00  0.00     0.019 C 
ENDBRANCH   1   7
TORSDOF 1
ENDMDL
