MODEL 1
REMARK minimizedAffinity -3.39175415
REMARK minimizedRMSD -1
REMARK  1 active torsions:
REMARK  status: ('A' for Active; 'I' for Inactive)
REMARK    1  A    between atoms: C1_2  and  C2_3 
ROOT
ATOM      1  C2  UNL d   1       1.288   1.689  -0.261  0.00  0.00    -0.077 A 
ATOM      2  C3  UNL d   1       1.457   2.235  -1.541  0.00  0.00     0.002 A 
ATOM      3  C4  UNL d   1       1.623   3.611  -1.706  0.00  0.00     0.002 A 
ATOM      4  C5  UNL d   1       1.625   4.452  -0.595  0.00  0.00    -0.004 A 
ATOM      5  C6  UNL d   1       1.456   3.920   0.682  0.00  0.00     0.002 A 
ATOM      6  C7  UNL d   1       1.289   2.544   0.849  0.00  0.00     0.002 A 
ENDROOT
BRANCH   1   7
ATOM      7  C1  UNL d   1       1.159   0.200  -0.076  0.00  0.00     0.055 C 
ATOM      8  C   UNL d   1       0.632  -0.470  -1.337  0.00  0.00     0.019 C 
ENDBRANCH   1   7
TORSDOF 1
ENDMDL
