MODEL 1
REMARK minimizedAffinity 7.53864861
REMARK minimizedRMSD -1
REMARK  1 active torsions:
REMARK  status: ('A' for Active; 'I' for Inactive)
REMARK    1  A    between atoms: C1_2  and  C2_3 
ROOT
ATOM      1  C2  UNL d   1      -2.569   3.686   2.516  0.00  0.00    -0.077 A 
ATOM      2  C3  UNL d   1      -3.431   3.487   1.428  0.00  0.00     0.002 A 
ATOM      3  C4  UNL d   1      -4.451   2.537   1.500  0.00  0.00     0.002 A 
ATOM      4  C5  UNL d   1      -4.622   1.782   2.658  0.00  0.00    -0.004 A 
ATOM      5  C6  UNL d   1      -3.769   1.970   3.744  0.00  0.00     0.002 A 
ATOM      6  C7  UNL d   1      -2.747   2.918   3.674  0.00  0.00     0.002 A 
ENDROOT
BRANCH   1   7
ATOM      7  C1  UNL d   1      -1.499   4.744   2.458  0.00  0.00     0.055 C 
ATOM      8  C   UNL d   1      -1.915   5.994   3.221  0.00  0.00     0.019 C 
ENDBRANCH   1   7
TORSDOF 1
ENDMDL
