MODEL 1
REMARK minimizedAffinity 0.719424307
REMARK minimizedRMSD -1
REMARK  1 active torsions:
REMARK  status: ('A' for Active; 'I' for Inactive)
REMARK    1  A    between atoms: C1_2  and  C2_3 
ROOT
ATOM      1  C2  UNL d   1       1.385   2.722  -1.167  0.00  0.00    -0.077 A 
ATOM      2  C3  UNL d   1       1.241   2.700   0.227  0.00  0.00     0.002 A 
ATOM      3  C4  UNL d   1       1.172   1.485   0.911  0.00  0.00     0.002 A 
ATOM      4  C5  UNL d   1       1.249   0.284   0.210  0.00  0.00    -0.004 A 
ATOM      5  C6  UNL d   1       1.390   0.295  -1.177  0.00  0.00     0.002 A 
ATOM      6  C7  UNL d   1       1.459   1.508  -1.862  0.00  0.00     0.002 A 
ENDROOT
BRANCH   1   7
ATOM      7  C1  UNL d   1       1.509   4.031  -1.901  0.00  0.00     0.055 C 
ATOM      8  C   UNL d   1       1.933   5.153  -0.965  0.00  0.00     0.019 C 
ENDBRANCH   1   7
TORSDOF 1
ENDMDL
