MODEL 1
REMARK minimizedAffinity -5.7897253
REMARK minimizedRMSD -1
REMARK  1 active torsions:
REMARK  status: ('A' for Active; 'I' for Inactive)
REMARK    1  A    between atoms: C1_2  and  C2_3 
ROOT
ATOM      1  C2  UNL d   1       1.213   2.658   0.958  0.00  0.00    -0.077 A 
ATOM      2  C3  UNL d   1       0.856   1.309   1.091  0.00  0.00     0.002 A 
ATOM      3  C4  UNL d   1       0.751   0.492  -0.036  0.00  0.00     0.002 A 
ATOM      4  C5  UNL d   1       1.005   1.013  -1.302  0.00  0.00    -0.004 A 
ATOM      5  C6  UNL d   1       1.358   2.354  -1.446  0.00  0.00     0.002 A 
ATOM      6  C7  UNL d   1       1.462   3.173  -0.320  0.00  0.00     0.002 A 
ENDROOT
BRANCH   1   7
ATOM      7  C1  UNL d   1       1.375   3.529   2.177  0.00  0.00     0.055 C 
ATOM      8  C   UNL d   1       2.505   3.032   3.066  0.00  0.00     0.019 C 
ENDBRANCH   1   7
TORSDOF 1
ENDMDL
