MODEL 1
REMARK minimizedAffinity -2.86090136
REMARK minimizedRMSD -1
REMARK  1 active torsions:
REMARK  status: ('A' for Active; 'I' for Inactive)
REMARK    1  A    between atoms: C1_2  and  C2_3 
ROOT
ATOM      1  C2  UNL d   1       1.180   2.109  -0.931  0.00  0.00    -0.077 A 
ATOM      2  C3  UNL d   1       1.344   3.104  -1.905  0.00  0.00     0.002 A 
ATOM      3  C4  UNL d   1       1.521   4.437  -1.530  0.00  0.00     0.002 A 
ATOM      4  C5  UNL d   1       1.540   4.787  -0.182  0.00  0.00    -0.004 A 
ATOM      5  C6  UNL d   1       1.376   3.805   0.795  0.00  0.00     0.002 A 
ATOM      6  C7  UNL d   1       1.198   2.472   0.422  0.00  0.00     0.002 A 
ENDROOT
BRANCH   1   7
ATOM      7  C1  UNL d   1       1.038   0.664  -1.332  0.00  0.00     0.055 C 
ATOM      8  C   UNL d   1       1.641  -0.262  -0.286  0.00  0.00     0.019 C 
ENDBRANCH   1   7
TORSDOF 1
ENDMDL
