MODEL 1
REMARK minimizedAffinity -3.46366549
REMARK minimizedRMSD -1
REMARK  1 active torsions:
REMARK  status: ('A' for Active; 'I' for Inactive)
REMARK    1  A    between atoms: C1_2  and  C2_3 
ROOT
ATOM      1  C2  UNL d   1       1.451   2.160  -1.030  0.00  0.00    -0.077 A 
ATOM      2  C3  UNL d   1       1.197   0.856  -1.478  0.00  0.00     0.002 A 
ATOM      3  C4  UNL d   1       0.838  -0.145  -0.573  0.00  0.00     0.002 A 
ATOM      4  C5  UNL d   1       0.726   0.149   0.784  0.00  0.00    -0.004 A 
ATOM      5  C6  UNL d   1       0.978   1.442   1.240  0.00  0.00     0.002 A 
ATOM      6  C7  UNL d   1       1.338   2.443   0.337  0.00  0.00     0.002 A 
ENDROOT
BRANCH   1   7
ATOM      7  C1  UNL d   1       1.790   3.252  -2.011  0.00  0.00     0.055 C 
ATOM      8  C   UNL d   1       1.805   4.616  -1.337  0.00  0.00     0.019 C 
ENDBRANCH   1   7
TORSDOF 1
ENDMDL
