MODEL 1
REMARK minimizedAffinity -2.76248455
REMARK minimizedRMSD -1
REMARK  1 active torsions:
REMARK  status: ('A' for Active; 'I' for Inactive)
REMARK    1  A    between atoms: C1_2  and  C2_3 
ROOT
ATOM      1  C2  UNL d   1       1.461   3.463  -0.564  0.00  0.00    -0.077 A 
ATOM      2  C3  UNL d   1       0.818   3.257  -1.793  0.00  0.00     0.002 A 
ATOM      3  C4  UNL d   1       0.419   1.974  -2.175  0.00  0.00     0.002 A 
ATOM      4  C5  UNL d   1       0.655   0.890  -1.332  0.00  0.00    -0.004 A 
ATOM      5  C6  UNL d   1       1.295   1.085  -0.109  0.00  0.00     0.002 A 
ATOM      6  C7  UNL d   1       1.695   2.366   0.274  0.00  0.00     0.002 A 
ENDROOT
BRANCH   1   7
ATOM      7  C1  UNL d   1       1.847   4.853  -0.129  0.00  0.00     0.055 C 
ATOM      8  C   UNL d   1       1.963   5.793  -1.319  0.00  0.00     0.019 C 
ENDBRANCH   1   7
TORSDOF 1
ENDMDL
