MODEL 1
REMARK minimizedAffinity -2.58101511
REMARK minimizedRMSD -1
REMARK  1 active torsions:
REMARK  status: ('A' for Active; 'I' for Inactive)
REMARK    1  A    between atoms: C1_2  and  C2_3 
ROOT
ATOM      1  C2  UNL d   1       0.985   1.441   0.082  0.00  0.00    -0.077 A 
ATOM      2  C3  UNL d   1       1.090   0.043   0.033  0.00  0.00     0.002 A 
ATOM      3  C4  UNL d   1       1.462  -0.597  -1.150  0.00  0.00     0.002 A 
ATOM      4  C5  UNL d   1       1.737   0.152  -2.292  0.00  0.00    -0.004 A 
ATOM      5  C6  UNL d   1       1.634   1.542  -2.255  0.00  0.00     0.002 A 
ATOM      6  C7  UNL d   1       1.261   2.184  -1.073  0.00  0.00     0.002 A 
ENDROOT
BRANCH   1   7
ATOM      7  C1  UNL d   1       0.632   2.136   1.370  0.00  0.00     0.055 C 
ATOM      8  C   UNL d   1       1.115   3.579   1.372  0.00  0.00     0.019 C 
ENDBRANCH   1   7
TORSDOF 1
ENDMDL
