MODEL 1
REMARK minimizedAffinity -0.797040164
REMARK minimizedRMSD -1
REMARK  1 active torsions:
REMARK  status: ('A' for Active; 'I' for Inactive)
REMARK    1  A    between atoms: C1_2  and  C2_3 
ROOT
ATOM      1  C2  UNL d   1      -4.767  -0.483   3.390  0.00  0.00    -0.077 A 
ATOM      2  C3  UNL d   1      -3.568   0.193   3.654  0.00  0.00     0.002 A 
ATOM      3  C4  UNL d   1      -3.587   1.509   4.120  0.00  0.00     0.002 A 
ATOM      4  C5  UNL d   1      -4.802   2.159   4.329  0.00  0.00    -0.004 A 
ATOM      5  C6  UNL d   1      -6.000   1.496   4.068  0.00  0.00     0.002 A 
ATOM      6  C7  UNL d   1      -5.983   0.180   3.601  0.00  0.00     0.002 A 
ENDROOT
BRANCH   1   7
ATOM      7  C1  UNL d   1      -4.750  -1.919   2.935  0.00  0.00     0.055 C 
ATOM      8  C   UNL d   1      -5.999  -2.659   3.391  0.00  0.00     0.019 C 
ENDBRANCH   1   7
TORSDOF 1
ENDMDL
