MODEL 1
REMARK minimizedAffinity 2.81486702
REMARK minimizedRMSD -1
REMARK  0 active torsions:
REMARK  status: ('A' for Active; 'I' for Inactive)
ROOT
ATOM      1  O1  BZF d   1       2.883  -3.190  -4.461  0.00  0.00    -0.204 OA
ATOM      2  C2  BZF d   1       3.748  -3.627  -5.445  0.00  0.00     0.174 A 
ATOM      3  C3  BZF d   1       3.302  -4.773  -6.000  0.00  0.00    -0.012 A 
ATOM      4  C3A BZF d   1       2.034  -5.020  -5.384  0.00  0.00    -0.107 A 
ATOM      5  C4  BZF d   1       1.094  -6.000  -5.530  0.00  0.00     0.055 A 
ATOM      6  C5  BZF d   1      -0.000  -5.990  -4.725  0.00  0.00    -0.016 A 
ATOM      7  C6  BZF d   1      -0.185  -5.020  -3.761  0.00  0.00     0.022 A 
ATOM      8  C7  BZF d   1       0.717  -4.025  -3.583  0.00  0.00     0.029 A 
ATOM      9  C7A BZF d   1       1.808  -4.013  -4.417  0.00  0.00     0.058 A 
ENDROOT
TORSDOF 0
ENDMDL
