MODEL 1
REMARK minimizedAffinity 23.0008602
REMARK minimizedRMSD -1
REMARK  0 active torsions:
REMARK  status: ('A' for Active; 'I' for Inactive)
ROOT
ATOM      1  O1  BZF d   1       3.781  -1.180   0.906  0.00  0.00    -0.204 OA
ATOM      2  C2  BZF d   1       4.229   0.036   1.386  0.00  0.00     0.174 A 
ATOM      3  C3  BZF d   1       3.278   0.634   2.132  0.00  0.00    -0.012 A 
ATOM      4  C3A BZF d   1       2.202  -0.306   2.195  0.00  0.00    -0.107 A 
ATOM      5  C4  BZF d   1       0.980  -0.295   2.806  0.00  0.00     0.055 A 
ATOM      6  C5  BZF d   1       0.135  -1.340   2.610  0.00  0.00    -0.016 A 
ATOM      7  C6  BZF d   1       0.475  -2.409   1.807  0.00  0.00     0.022 A 
ATOM      8  C7  BZF d   1       1.677  -2.467   1.185  0.00  0.00     0.029 A 
ATOM      9  C7A BZF d   1       2.547  -1.427   1.407  0.00  0.00     0.058 A 
ENDROOT
TORSDOF 0
ENDMDL
