MODEL 1
REMARK minimizedAffinity 10.2312288
REMARK minimizedRMSD -1
REMARK  0 active torsions:
REMARK  status: ('A' for Active; 'I' for Inactive)
ROOT
ATOM      1  O1  BZF d   1       3.279  -2.735  -4.515  0.00  0.00    -0.204 OA
ATOM      2  C2  BZF d   1       4.376  -2.933  -5.331  0.00  0.00     0.174 A 
ATOM      3  C3  BZF d   1       4.270  -4.099  -5.999  0.00  0.00    -0.012 A 
ATOM      4  C3A BZF d   1       2.986  -4.622  -5.645  0.00  0.00    -0.107 A 
ATOM      5  C4  BZF d   1       2.300  -5.747  -6.000  0.00  0.00     0.055 A 
ATOM      6  C5  BZF d   1       1.098  -5.999  -5.418  0.00  0.00    -0.016 A 
ATOM      7  C6  BZF d   1       0.556  -5.151  -4.475  0.00  0.00     0.022 A 
ATOM      8  C7  BZF d   1       1.197  -4.019  -4.094  0.00  0.00     0.029 A 
ATOM      9  C7A BZF d   1       2.397  -3.745  -4.704  0.00  0.00     0.058 A 
ENDROOT
TORSDOF 0
ENDMDL
