MODEL 1
REMARK minimizedAffinity 11.2644672
REMARK minimizedRMSD -1
REMARK  0 active torsions:
REMARK  status: ('A' for Active; 'I' for Inactive)
ROOT
ATOM      1  O1  BZF d   1      -5.997  -2.922   4.787  0.00  0.00    -0.204 OA
ATOM      2  C2  BZF d   1      -5.322  -3.021   5.988  0.00  0.00     0.174 A 
ATOM      3  C3  BZF d   1      -3.990  -3.060   5.786  0.00  0.00    -0.012 A 
ATOM      4  C3A BZF d   1      -3.817  -2.888   4.376  0.00  0.00    -0.107 A 
ATOM      5  C4  BZF d   1      -2.720  -2.823   3.565  0.00  0.00     0.055 A 
ATOM      6  C5  BZF d   1      -2.897  -2.723   2.222  0.00  0.00    -0.016 A 
ATOM      7  C6  BZF d   1      -4.155  -2.690   1.655  0.00  0.00     0.022 A 
ATOM      8  C7  BZF d   1      -5.273  -2.747   2.419  0.00  0.00     0.029 A 
ATOM      9  C7A BZF d   1      -5.097  -2.815   3.780  0.00  0.00     0.058 A 
ENDROOT
TORSDOF 0
ENDMDL
