MODEL 1
REMARK minimizedAffinity 9.62022686
REMARK minimizedRMSD -1
REMARK  0 active torsions:
REMARK  status: ('A' for Active; 'I' for Inactive)
ROOT
ATOM      1  O1  BZF d   1       1.048  -3.957  -4.538  0.00  0.00    -0.204 OA
ATOM      2  C2  BZF d   1       0.526  -5.215  -4.767  0.00  0.00     0.174 A 
ATOM      3  C3  BZF d   1       1.424  -6.000  -5.397  0.00  0.00    -0.012 A 
ATOM      4  C3A BZF d   1       2.613  -5.209  -5.489  0.00  0.00    -0.107 A 
ATOM      5  C4  BZF d   1       3.859  -5.443  -5.999  0.00  0.00     0.055 A 
ATOM      6  C5  BZF d   1       4.772  -4.436  -5.999  0.00  0.00    -0.016 A 
ATOM      7  C6  BZF d   1       4.473  -3.185  -5.503  0.00  0.00     0.022 A 
ATOM      8  C7  BZF d   1       3.253  -2.907  -4.982  0.00  0.00     0.029 A 
ATOM      9  C7A BZF d   1       2.338  -3.931  -4.951  0.00  0.00     0.058 A 
ENDROOT
TORSDOF 0
ENDMDL
