MODEL 1
REMARK minimizedAffinity 19.4131298
REMARK minimizedRMSD -1
REMARK  0 active torsions:
REMARK  status: ('A' for Active; 'I' for Inactive)
ROOT
ATOM      1  O1  BZF d   1       2.110  -4.357   0.738  0.00  0.00    -0.204 OA
ATOM      2  C2  BZF d   1       0.887  -4.781   1.221  0.00  0.00     0.174 A 
ATOM      3  C3  BZF d   1       0.220  -3.760   1.796  0.00  0.00    -0.012 A 
ATOM      4  C3A BZF d   1       1.039  -2.607   1.582  0.00  0.00    -0.107 A 
ATOM      5  C4  BZF d   1       0.907  -1.287   1.908  0.00  0.00     0.055 A 
ATOM      6  C5  BZF d   1       1.921  -0.431   1.619  0.00  0.00    -0.016 A 
ATOM      7  C6  BZF d   1       3.083  -0.860   1.010  0.00  0.00     0.022 A 
ATOM      8  C7  BZF d   1       3.258  -2.158   0.664  0.00  0.00     0.029 A 
ATOM      9  C7A BZF d   1       2.221  -3.020   0.925  0.00  0.00     0.058 A 
ENDROOT
TORSDOF 0
ENDMDL
