MODEL 1
REMARK minimizedAffinity 21.4913807
REMARK minimizedRMSD -1
REMARK  0 active torsions:
REMARK  status: ('A' for Active; 'I' for Inactive)
ROOT
ATOM      1  O1  BZF d   1       4.834  -1.522  -1.907  0.00  0.00    -0.204 OA
ATOM      2  C2  BZF d   1       5.191  -0.520  -2.789  0.00  0.00     0.174 A 
ATOM      3  C3  BZF d   1       4.866   0.691  -2.292  0.00  0.00    -0.012 A 
ATOM      4  C3A BZF d   1       4.354   0.436  -0.981  0.00  0.00    -0.107 A 
ATOM      5  C4  BZF d   1       3.881   1.240   0.016  0.00  0.00     0.055 A 
ATOM      6  C5  BZF d   1       3.388   0.671   1.147  0.00  0.00    -0.016 A 
ATOM      7  C6  BZF d   1       3.347  -0.698   1.312  0.00  0.00     0.022 A 
ATOM      8  C7  BZF d   1       3.809  -1.537   0.353  0.00  0.00     0.029 A 
ATOM      9  C7A BZF d   1       4.339  -0.964  -0.777  0.00  0.00     0.058 A 
ENDROOT
TORSDOF 0
ENDMDL
