MODEL 1
REMARK minimizedAffinity 25.4471626
REMARK minimizedRMSD -1
REMARK  0 active torsions:
REMARK  status: ('A' for Active; 'I' for Inactive)
ROOT
ATOM      1  O1  BZF d   1      -3.860  -2.712   5.629  0.00  0.00    -0.204 OA
ATOM      2  C2  BZF d   1      -5.191  -2.751   5.999  0.00  0.00     0.174 A 
ATOM      3  C3  BZF d   1      -5.990  -2.718   4.913  0.00  0.00    -0.012 A 
ATOM      4  C3A BZF d   1      -5.103  -2.749   3.791  0.00  0.00    -0.107 A 
ATOM      5  C4  BZF d   1      -5.298  -2.753   2.439  0.00  0.00     0.055 A 
ATOM      6  C5  BZF d   1      -4.218  -2.712   1.616  0.00  0.00    -0.016 A 
ATOM      7  C6  BZF d   1      -2.931  -2.661   2.109  0.00  0.00     0.022 A 
ATOM      8  C7  BZF d   1      -2.687  -2.660   3.442  0.00  0.00     0.029 A 
ATOM      9  C7A BZF d   1      -3.775  -2.735   4.277  0.00  0.00     0.058 A 
ENDROOT
TORSDOF 0
ENDMDL
