MODEL 1
REMARK minimizedAffinity 8.59703445
REMARK minimizedRMSD -1
REMARK  0 active torsions:
REMARK  status: ('A' for Active; 'I' for Inactive)
ROOT
ATOM      1  O1  BZF d   1       2.420   2.131   0.026  0.00  0.00    -0.204 OA
ATOM      2  C2  BZF d   1       1.229   2.535  -0.546  0.00  0.00     0.174 A 
ATOM      3  C3  BZF d   1       0.322   1.538  -0.516  0.00  0.00    -0.012 A 
ATOM      4  C3A BZF d   1       0.957   0.472   0.196  0.00  0.00    -0.107 A 
ATOM      5  C4  BZF d   1       0.557  -0.780   0.565  0.00  0.00     0.055 A 
ATOM      6  C5  BZF d   1       1.443  -1.600   1.189  0.00  0.00    -0.016 A 
ATOM      7  C6  BZF d   1       2.737  -1.202   1.455  0.00  0.00     0.022 A 
ATOM      8  C7  BZF d   1       3.178   0.033   1.113  0.00  0.00     0.029 A 
ATOM      9  C7A BZF d   1       2.275   0.875   0.512  0.00  0.00     0.058 A 
ENDROOT
TORSDOF 0
ENDMDL
