MODEL 1
REMARK minimizedAffinity 14.0117483
REMARK minimizedRMSD -1
REMARK  0 active torsions:
REMARK  status: ('A' for Active; 'I' for Inactive)
ROOT
ATOM      1  O1  BZF d   1      -2.355   4.889  -5.276  0.00  0.00    -0.204 OA
ATOM      2  C2  BZF d   1      -1.544   6.000  -5.404  0.00  0.00     0.174 A 
ATOM      3  C3  BZF d   1      -0.580   6.000  -4.461  0.00  0.00    -0.012 A 
ATOM      4  C3A BZF d   1      -0.747   4.768  -3.752  0.00  0.00    -0.107 A 
ATOM      5  C4  BZF d   1      -0.081   4.186  -2.712  0.00  0.00     0.055 A 
ATOM      6  C5  BZF d   1      -0.542   3.011  -2.208  0.00  0.00    -0.016 A 
ATOM      7  C6  BZF d   1      -1.667   2.394  -2.715  0.00  0.00     0.022 A 
ATOM      8  C7  BZF d   1      -2.357   2.931  -3.751  0.00  0.00     0.029 A 
ATOM      9  C7A BZF d   1      -1.875   4.101  -4.284  0.00  0.00     0.058 A 
ENDROOT
TORSDOF 0
ENDMDL
