MODEL 1
REMARK minimizedAffinity 23.1490288
REMARK minimizedRMSD -1
REMARK  0 active torsions:
REMARK  status: ('A' for Active; 'I' for Inactive)
ROOT
ATOM      1  O1  BZF d   1       2.446   2.720  -0.072  0.00  0.00    -0.204 OA
ATOM      2  C2  BZF d   1       1.265   2.971  -0.743  0.00  0.00     0.174 A 
ATOM      3  C3  BZF d   1       0.435   1.911  -0.663  0.00  0.00    -0.012 A 
ATOM      4  C3A BZF d   1       1.104   0.972   0.183  0.00  0.00    -0.107 A 
ATOM      5  C4  BZF d   1       0.778  -0.269   0.651  0.00  0.00     0.055 A 
ATOM      6  C5  BZF d   1       1.684  -0.952   1.399  0.00  0.00    -0.016 A 
ATOM      7  C6  BZF d   1       2.926  -0.428   1.693  0.00  0.00     0.022 A 
ATOM      8  C7  BZF d   1       3.293   0.801   1.255  0.00  0.00     0.029 A 
ATOM      9  C7A BZF d   1       2.367   1.507   0.527  0.00  0.00     0.058 A 
ENDROOT
TORSDOF 0
ENDMDL
