MODEL 1
REMARK minimizedAffinity 12.94382
REMARK minimizedRMSD -1
REMARK  0 active torsions:
REMARK  status: ('A' for Active; 'I' for Inactive)
ROOT
ATOM      1  O1  BZF d   1      -1.480   2.895  -3.517  0.00  0.00    -0.204 OA
ATOM      2  C2  BZF d   1      -2.723   2.963  -2.918  0.00  0.00     0.174 A 
ATOM      3  C3  BZF d   1      -2.629   2.729  -1.593  0.00  0.00    -0.012 A 
ATOM      4  C3A BZF d   1      -1.229   2.591  -1.333  0.00  0.00    -0.107 A 
ATOM      5  C4  BZF d   1      -0.502   2.363  -0.200  0.00  0.00     0.055 A 
ATOM      6  C5  BZF d   1       0.844   2.209  -0.299  0.00  0.00    -0.016 A 
ATOM      7  C6  BZF d   1       1.495   2.273  -1.513  0.00  0.00     0.022 A 
ATOM      8  C7  BZF d   1       0.818   2.503  -2.664  0.00  0.00     0.029 A 
ATOM      9  C7A BZF d   1      -0.539   2.691  -2.564  0.00  0.00     0.058 A 
ENDROOT
TORSDOF 0
ENDMDL
