MODEL 1
REMARK minimizedAffinity 16.3675728
REMARK minimizedRMSD -1
REMARK  0 active torsions:
REMARK  status: ('A' for Active; 'I' for Inactive)
ROOT
ATOM      1  O1  BZF d   1      -2.140   2.233  -3.753  0.00  0.00    -0.204 OA
ATOM      2  C2  BZF d   1      -1.538   2.383  -2.519  0.00  0.00     0.174 A 
ATOM      3  C3  BZF d   1      -1.098   3.646  -2.352  0.00  0.00    -0.012 A 
ATOM      4  C3A BZF d   1      -1.529   4.352  -3.519  0.00  0.00    -0.107 A 
ATOM      5  C4  BZF d   1      -1.407   5.649  -3.930  0.00  0.00     0.055 A 
ATOM      6  C5  BZF d   1      -1.875   6.000  -5.157  0.00  0.00    -0.016 A 
ATOM      7  C6  BZF d   1      -2.465   5.080  -5.999  0.00  0.00     0.022 A 
ATOM      8  C7  BZF d   1      -2.612   3.783  -5.633  0.00  0.00     0.029 A 
ATOM      9  C7A BZF d   1      -2.170   3.433  -4.381  0.00  0.00     0.058 A 
ENDROOT
TORSDOF 0
ENDMDL
