MODEL 1
REMARK minimizedAffinity 11.3912926
REMARK minimizedRMSD -1
REMARK  0 active torsions:
REMARK  status: ('A' for Active; 'I' for Inactive)
ROOT
ATOM      1  O1  BZF d   1       2.381   2.936   0.479  0.00  0.00    -0.204 OA
ATOM      2  C2  BZF d   1       1.096   2.841  -0.018  0.00  0.00     0.174 A 
ATOM      3  C3  BZF d   1       0.665   1.563   0.010  0.00  0.00    -0.012 A 
ATOM      4  C3A BZF d   1       1.714   0.826   0.644  0.00  0.00    -0.107 A 
ATOM      5  C4  BZF d   1       1.870  -0.490   0.975  0.00  0.00     0.055 A 
ATOM      6  C5  BZF d   1       3.046  -0.899   1.520  0.00  0.00    -0.016 A 
ATOM      7  C6  BZF d   1       4.087  -0.022   1.744  0.00  0.00     0.022 A 
ATOM      8  C7  BZF d   1       3.977   1.294   1.437  0.00  0.00     0.029 A 
ATOM      9  C7A BZF d   1       2.779   1.716   0.916  0.00  0.00     0.058 A 
ENDROOT
TORSDOF 0
ENDMDL
