MODEL 1
REMARK minimizedAffinity 10.5695267
REMARK minimizedRMSD -1
REMARK  0 active torsions:
REMARK  status: ('A' for Active; 'I' for Inactive)
ROOT
ATOM      1  O1  BZF d   1      -4.201  -5.054  -1.004  0.00  0.00    -0.204 OA
ATOM      2  C2  BZF d   1      -5.207  -5.993  -0.890  0.00  0.00     0.174 A 
ATOM      3  C3  BZF d   1      -5.715  -6.000   0.360  0.00  0.00    -0.012 A 
ATOM      4  C3A BZF d   1      -5.044  -4.939   1.045  0.00  0.00    -0.107 A 
ATOM      5  C4  BZF d   1      -5.128  -4.438   2.313  0.00  0.00     0.055 A 
ATOM      6  C5  BZF d   1      -4.281  -3.444   2.688  0.00  0.00    -0.016 A 
ATOM      7  C6  BZF d   1      -3.335  -2.932   1.825  0.00  0.00     0.022 A 
ATOM      8  C7  BZF d   1      -3.217  -3.392   0.556  0.00  0.00     0.029 A 
ATOM      9  C7A BZF d   1      -4.094  -4.374   0.163  0.00  0.00     0.058 A 
ENDROOT
TORSDOF 0
ENDMDL
