MODEL 1
REMARK minimizedAffinity 20.065979
REMARK minimizedRMSD -1
REMARK  0 active torsions:
REMARK  status: ('A' for Active; 'I' for Inactive)
ROOT
ATOM      1  O1  BZF d   1      -2.622   3.791  -5.338  0.00  0.00    -0.204 OA
ATOM      2  C2  BZF d   1      -2.254   4.946  -6.000  0.00  0.00     0.174 A 
ATOM      3  C3  BZF d   1      -2.253   6.000  -5.158  0.00  0.00    -0.012 A 
ATOM      4  C3A BZF d   1      -2.555   5.454  -3.871  0.00  0.00    -0.107 A 
ATOM      5  C4  BZF d   1      -2.681   6.000  -2.625  0.00  0.00     0.055 A 
ATOM      6  C5  BZF d   1      -3.056   5.203  -1.590  0.00  0.00    -0.016 A 
ATOM      7  C6  BZF d   1      -3.317   3.860  -1.765  0.00  0.00     0.022 A 
ATOM      8  C7  BZF d   1      -3.201   3.272  -2.980  0.00  0.00     0.029 A 
ATOM      9  C7A BZF d   1      -2.791   4.068  -4.022  0.00  0.00     0.058 A 
ENDROOT
TORSDOF 0
ENDMDL
