MODEL 1
REMARK minimizedAffinity 0.487806499
REMARK minimizedRMSD -1
REMARK  0 active torsions:
REMARK  status: ('A' for Active; 'I' for Inactive)
ROOT
ATOM      1  O1  BZF d   1      -5.709  -5.999   2.447  0.00  0.00    -0.204 OA
ATOM      2  C2  BZF d   1      -5.293  -5.079   1.504  0.00  0.00     0.174 A 
ATOM      3  C3  BZF d   1      -4.879  -3.941   2.097  0.00  0.00    -0.012 A 
ATOM      4  C3A BZF d   1      -4.960  -4.197   3.502  0.00  0.00    -0.107 A 
ATOM      5  C4  BZF d   1      -4.668  -3.454   4.610  0.00  0.00     0.055 A 
ATOM      6  C5  BZF d   1      -4.929  -3.971   5.840  0.00  0.00    -0.016 A 
ATOM      7  C6  BZF d   1      -5.486  -5.224   5.997  0.00  0.00     0.022 A 
ATOM      8  C7  BZF d   1      -5.787  -6.000   4.928  0.00  0.00     0.029 A 
ATOM      9  C7A BZF d   1      -5.494  -5.493   3.685  0.00  0.00     0.058 A 
ENDROOT
TORSDOF 0
ENDMDL
