MODEL 1
REMARK minimizedAffinity -0.945810676
REMARK minimizedRMSD -1
REMARK  0 active torsions:
REMARK  status: ('A' for Active; 'I' for Inactive)
ROOT
ATOM      1  C   UNL d   1       0.806   2.865   1.431  0.00  0.00    -0.002 A 
ATOM      2  C1  UNL d   1       1.565   2.847   0.269  0.00  0.00     0.010 A 
ATOM      3  C2  UNL d   1       1.614   1.702  -0.529  0.00  0.00     0.041 A 
ATOM      4  C3  UNL d   1       0.880   0.566  -0.137  0.00  0.00    -0.075 A 
ATOM      5  S   UNL d   1       0.789  -0.948  -0.958  0.00  0.00     0.015 SA
ATOM      6  C4  UNL d   1      -0.260  -1.605   0.214  0.00  0.00     0.022 A 
ATOM      7  C5  UNL d   1      -0.544  -0.706   1.214  0.00  0.00     0.026 A 
ATOM      8  C6  UNL d   1       0.107   0.560   1.029  0.00  0.00    -0.082 A 
ATOM      9  C7  UNL d   1       0.079   1.736   1.817  0.00  0.00     0.045 A 
ENDROOT
TORSDOF 0
ENDMDL
