MODEL 1
REMARK minimizedAffinity -2.38848162
REMARK minimizedRMSD -1
REMARK  0 active torsions:
REMARK  status: ('A' for Active; 'I' for Inactive)
ROOT
ATOM      1  C   UNL d   1      -1.716  -2.104  -2.543  0.00  0.00    -0.002 A 
ATOM      2  C1  UNL d   1      -1.310  -1.008  -3.292  0.00  0.00     0.010 A 
ATOM      3  C2  UNL d   1      -0.653   0.063  -2.684  0.00  0.00     0.041 A 
ATOM      4  C3  UNL d   1      -0.405   0.013  -1.298  0.00  0.00    -0.075 A 
ATOM      5  S   UNL d   1       0.385   1.208  -0.340  0.00  0.00     0.015 SA
ATOM      6  C4  UNL d   1       0.204   0.292   1.086  0.00  0.00     0.022 A 
ATOM      7  C5  UNL d   1      -0.442  -0.899   0.855  0.00  0.00     0.026 A 
ATOM      8  C6  UNL d   1      -0.803  -1.080  -0.523  0.00  0.00    -0.082 A 
ATOM      9  C7  UNL d   1      -1.469  -2.150  -1.169  0.00  0.00     0.045 A 
ENDROOT
TORSDOF 0
ENDMDL
