MODEL 1
REMARK minimizedAffinity -4.3247118
REMARK minimizedRMSD -1
REMARK  0 active torsions:
REMARK  status: ('A' for Active; 'I' for Inactive)
ROOT
ATOM      1  C   UNL d   1       1.501   2.919   1.700  0.00  0.00    -0.002 A 
ATOM      2  C1  UNL d   1       0.187   2.549   1.951  0.00  0.00     0.010 A 
ATOM      3  C2  UNL d   1      -0.332   1.367   1.420  0.00  0.00     0.041 A 
ATOM      4  C3  UNL d   1       0.501   0.553   0.627  0.00  0.00    -0.075 A 
ATOM      5  S   UNL d   1       0.082  -0.940  -0.126  0.00  0.00     0.015 SA
ATOM      6  C4  UNL d   1       1.638  -1.124  -0.798  0.00  0.00     0.022 A 
ATOM      7  C5  UNL d   1       2.469  -0.080  -0.466  0.00  0.00     0.026 A 
ATOM      8  C6  UNL d   1       1.828   0.903   0.362  0.00  0.00    -0.082 A 
ATOM      9  C7  UNL d   1       2.324   2.108   0.913  0.00  0.00     0.045 A 
ENDROOT
TORSDOF 0
ENDMDL
