MODEL 1
REMARK minimizedAffinity -1.36912549
REMARK minimizedRMSD -1
REMARK  0 active torsions:
REMARK  status: ('A' for Active; 'I' for Inactive)
ROOT
ATOM      1  C   UNL d   1       1.644   2.791   1.187  0.00  0.00    -0.002 A 
ATOM      2  C1  UNL d   1       1.245   2.035   2.280  0.00  0.00     0.010 A 
ATOM      3  C2  UNL d   1       0.525   0.852   2.101  0.00  0.00     0.041 A 
ATOM      4  C3  UNL d   1       0.211   0.438   0.791  0.00  0.00    -0.075 A 
ATOM      5  S   UNL d   1      -0.662  -0.976   0.330  0.00  0.00     0.015 SA
ATOM      6  C4  UNL d   1      -0.524  -0.610  -1.329  0.00  0.00     0.022 A 
ATOM      7  C5  UNL d   1       0.167   0.559  -1.543  0.00  0.00     0.026 A 
ATOM      8  C6  UNL d   1       0.602   1.182  -0.325  0.00  0.00    -0.082 A 
ATOM      9  C7  UNL d   1       1.330   2.377  -0.110  0.00  0.00     0.045 A 
ENDROOT
TORSDOF 0
ENDMDL
