MODEL 1
REMARK minimizedAffinity -3.33649421
REMARK minimizedRMSD -1
REMARK  0 active torsions:
REMARK  status: ('A' for Active; 'I' for Inactive)
ROOT
ATOM      1  C   UNL d   1       2.085   0.879   4.355  0.00  0.00    -0.002 A 
ATOM      2  C1  UNL d   1       3.245   0.397   3.767  0.00  0.00     0.010 A 
ATOM      3  C2  UNL d   1       3.522   0.658   2.423  0.00  0.00     0.041 A 
ATOM      4  C3  UNL d   1       2.605   1.422   1.675  0.00  0.00    -0.075 A 
ATOM      5  S   UNL d   1       2.735   1.868   0.014  0.00  0.00     0.015 SA
ATOM      6  C4  UNL d   1       1.254   2.710   0.048  0.00  0.00     0.022 A 
ATOM      7  C5  UNL d   1       0.661   2.662   1.287  0.00  0.00     0.026 A 
ATOM      8  C6  UNL d   1       1.430   1.919   2.245  0.00  0.00    -0.082 A 
ATOM      9  C7  UNL d   1       1.178   1.636   3.609  0.00  0.00     0.045 A 
ENDROOT
TORSDOF 0
ENDMDL
