MODEL 1
REMARK minimizedAffinity 0.788810849
REMARK minimizedRMSD -1
REMARK  0 active torsions:
REMARK  status: ('A' for Active; 'I' for Inactive)
ROOT
ATOM      1  C   UNL d   1      -0.330  -1.192   0.377  0.00  0.00    -0.002 A 
ATOM      2  C1  UNL d   1       0.699  -1.881  -0.250  0.00  0.00     0.010 A 
ATOM      3  C2  UNL d   1       1.802  -1.196  -0.764  0.00  0.00     0.041 A 
ATOM      4  C3  UNL d   1       1.855   0.206  -0.635  0.00  0.00    -0.075 A 
ATOM      5  S   UNL d   1       3.107   1.254  -1.187  0.00  0.00     0.015 SA
ATOM      6  C4  UNL d   1       2.306   2.641  -0.603  0.00  0.00     0.022 A 
ATOM      7  C5  UNL d   1       1.111   2.330   0.001  0.00  0.00     0.026 A 
ATOM      8  C6  UNL d   1       0.831   0.922  -0.007  0.00  0.00    -0.082 A 
ATOM      9  C7  UNL d   1      -0.274   0.199   0.504  0.00  0.00     0.045 A 
ENDROOT
TORSDOF 0
ENDMDL
