MODEL 1
REMARK minimizedAffinity -2.24542427
REMARK minimizedRMSD -1
REMARK  0 active torsions:
REMARK  status: ('A' for Active; 'I' for Inactive)
ROOT
ATOM      1  C   UNL d   1       0.734   2.328   1.272  0.00  0.00    -0.002 A 
ATOM      2  C1  UNL d   1       1.719   1.448   1.697  0.00  0.00     0.010 A 
ATOM      3  C2  UNL d   1       1.757   0.137   1.216  0.00  0.00     0.041 A 
ATOM      4  C3  UNL d   1       0.779  -0.277   0.291  0.00  0.00    -0.075 A 
ATOM      5  S   UNL d   1       0.628  -1.834  -0.435  0.00  0.00     0.015 SA
ATOM      6  C4  UNL d   1      -0.748  -1.368  -1.326  0.00  0.00     0.022 A 
ATOM      7  C5  UNL d   1      -1.098  -0.059  -1.088  0.00  0.00     0.026 A 
ATOM      8  C6  UNL d   1      -0.223   0.591  -0.153  0.00  0.00    -0.082 A 
ATOM      9  C7  UNL d   1      -0.235   1.913   0.354  0.00  0.00     0.045 A 
ENDROOT
TORSDOF 0
ENDMDL
