MODEL 1
REMARK minimizedAffinity -3.22402215
REMARK minimizedRMSD -1
REMARK  0 active torsions:
REMARK  status: ('A' for Active; 'I' for Inactive)
ROOT
ATOM      1  C   UNL d   1       1.946   2.841   0.215  0.00  0.00    -0.002 A 
ATOM      2  C1  UNL d   1       1.327   2.977   1.449  0.00  0.00     0.010 A 
ATOM      3  C2  UNL d   1       0.600   1.920   2.000  0.00  0.00     0.041 A 
ATOM      4  C3  UNL d   1       0.506   0.711   1.283  0.00  0.00    -0.075 A 
ATOM      5  S   UNL d   1      -0.330  -0.719   1.761  0.00  0.00     0.015 SA
ATOM      6  C4  UNL d   1       0.117  -1.545   0.339  0.00  0.00     0.022 A 
ATOM      7  C5  UNL d   1       0.885  -0.764  -0.492  0.00  0.00     0.026 A 
ATOM      8  C6  UNL d   1       1.123   0.549   0.039  0.00  0.00    -0.082 A 
ATOM      9  C7  UNL d   1       1.852   1.640  -0.493  0.00  0.00     0.045 A 
ENDROOT
TORSDOF 0
ENDMDL
