MODEL 1
REMARK minimizedAffinity -4.53642893
REMARK minimizedRMSD -1
REMARK  0 active torsions:
REMARK  status: ('A' for Active; 'I' for Inactive)
ROOT
ATOM      1  C   UNL d   1       0.974   2.915   1.157  0.00  0.00    -0.002 A 
ATOM      2  C1  UNL d   1       1.735   2.513   0.068  0.00  0.00     0.010 A 
ATOM      3  C2  UNL d   1       1.515   1.271  -0.532  0.00  0.00     0.041 A 
ATOM      4  C3  UNL d   1       0.506   0.434  -0.016  0.00  0.00    -0.075 A 
ATOM      5  S   UNL d   1       0.058  -1.129  -0.590  0.00  0.00     0.015 SA
ATOM      6  C4  UNL d   1      -1.154  -1.299   0.596  0.00  0.00     0.022 A 
ATOM      7  C5  UNL d   1      -1.228  -0.200   1.419  0.00  0.00     0.026 A 
ATOM      8  C6  UNL d   1      -0.273   0.817   1.079  0.00  0.00    -0.082 A 
ATOM      9  C7  UNL d   1      -0.025   2.081   1.666  0.00  0.00     0.045 A 
ENDROOT
TORSDOF 0
ENDMDL
