MODEL 1
REMARK minimizedAffinity 2.27155113
REMARK minimizedRMSD -1
REMARK  1 active torsions:
REMARK  status: ('A' for Active; 'I' for Inactive)
REMARK    1  A    between atoms: C1_2  and  C2_3 
ROOT
ATOM      1  C2  UNL d   1       4.650  -3.822   0.346  0.00  0.00    -0.077 A 
ATOM      2  C3  UNL d   1       3.428  -3.709  -0.331  0.00  0.00     0.002 A 
ATOM      3  C4  UNL d   1       2.309  -3.178   0.315  0.00  0.00     0.002 A 
ATOM      4  C5  UNL d   1       2.404  -2.752   1.638  0.00  0.00    -0.004 A 
ATOM      5  C6  UNL d   1       3.614  -2.862   2.320  0.00  0.00     0.002 A 
ATOM      6  C7  UNL d   1       4.733  -3.394   1.677  0.00  0.00     0.002 A 
ENDROOT
BRANCH   1   7
ATOM      7  C1  UNL d   1       5.870  -4.349  -0.363  0.00  0.00     0.055 C 
ATOM      8  C   UNL d   1       5.633  -5.752  -0.905  0.00  0.00     0.019 C 
ENDBRANCH   1   7
TORSDOF 1
ENDMDL
