MODEL 1
REMARK minimizedAffinity 8.22363663
REMARK minimizedRMSD -1
REMARK  1 active torsions:
REMARK  status: ('A' for Active; 'I' for Inactive)
REMARK    1  A    between atoms: C1_2  and  C2_3 
ROOT
ATOM      1  C2  UNL d   1       2.464   4.794  -5.321  0.00  0.00    -0.077 A 
ATOM      2  C3  UNL d   1       3.134   5.965  -5.704  0.00  0.00     0.002 A 
ATOM      3  C4  UNL d   1       4.498   5.934  -5.998  0.00  0.00     0.002 A 
ATOM      4  C5  UNL d   1       5.203   4.735  -5.917  0.00  0.00    -0.004 A 
ATOM      5  C6  UNL d   1       4.546   3.565  -5.535  0.00  0.00     0.002 A 
ATOM      6  C7  UNL d   1       3.183   3.595  -5.239  0.00  0.00     0.002 A 
ENDROOT
BRANCH   1   7
ATOM      7  C1  UNL d   1       0.982   4.816  -5.051  0.00  0.00     0.055 C 
ATOM      8  C   UNL d   1       0.261   5.766  -5.997  0.00  0.00     0.019 C 
ENDBRANCH   1   7
TORSDOF 1
ENDMDL
