MODEL 1
REMARK minimizedAffinity 7.96020937
REMARK minimizedRMSD -1
REMARK  1 active torsions:
REMARK  status: ('A' for Active; 'I' for Inactive)
REMARK    1  A    between atoms: C1_2  and  C2_3 
ROOT
ATOM      1  C2  UNL d   1       4.799   3.620  -5.491  0.00  0.00    -0.077 A 
ATOM      2  C3  UNL d   1       3.520   3.633  -4.919  0.00  0.00     0.002 A 
ATOM      3  C4  UNL d   1       2.786   4.819  -4.856  0.00  0.00     0.002 A 
ATOM      4  C5  UNL d   1       3.322   6.000  -5.366  0.00  0.00    -0.004 A 
ATOM      5  C6  UNL d   1       4.595   5.998  -5.935  0.00  0.00     0.002 A 
ATOM      6  C7  UNL d   1       5.330   4.813  -5.999  0.00  0.00     0.002 A 
ENDROOT
BRANCH   1   7
ATOM      7  C1  UNL d   1       5.572   2.332  -5.605  0.00  0.00     0.055 C 
ATOM      8  C   UNL d   1       5.253   1.391  -4.453  0.00  0.00     0.019 C 
ENDBRANCH   1   7
TORSDOF 1
ENDMDL
