MODEL 1
REMARK minimizedAffinity 8.94949532
REMARK minimizedRMSD -1
REMARK  1 active torsions:
REMARK  status: ('A' for Active; 'I' for Inactive)
REMARK    1  A    between atoms: C1_2  and  C2_3 
ROOT
ATOM      1  C2  UNL d   1       2.589   0.355   0.985  0.00  0.00    -0.077 A 
ATOM      2  C3  UNL d   1       2.464   1.551   1.706  0.00  0.00     0.002 A 
ATOM      3  C4  UNL d   1       3.450   2.536   1.615  0.00  0.00     0.002 A 
ATOM      4  C5  UNL d   1       4.564   2.337   0.803  0.00  0.00    -0.004 A 
ATOM      5  C6  UNL d   1       4.698   1.150   0.084  0.00  0.00     0.002 A 
ATOM      6  C7  UNL d   1       3.715   0.163   0.174  0.00  0.00     0.002 A 
ENDROOT
BRANCH   1   7
ATOM      7  C1  UNL d   1       1.504  -0.688   1.043  0.00  0.00     0.055 C 
ATOM      8  C   UNL d   1       1.883  -1.927   0.245  0.00  0.00     0.019 C 
ENDBRANCH   1   7
TORSDOF 1
ENDMDL
