MODEL 1
REMARK minimizedAffinity 8.94683647
REMARK minimizedRMSD -1
REMARK  1 active torsions:
REMARK  status: ('A' for Active; 'I' for Inactive)
REMARK    1  A    between atoms: C1_2  and  C2_3 
ROOT
ATOM      1  C2  UNL d   1       3.090   4.977  -5.105  0.00  0.00    -0.077 A 
ATOM      2  C3  UNL d   1       3.560   3.656  -5.105  0.00  0.00     0.002 A 
ATOM      3  C4  UNL d   1       4.852   3.366  -5.549  0.00  0.00     0.002 A 
ATOM      4  C5  UNL d   1       5.684   4.391  -5.993  0.00  0.00    -0.004 A 
ATOM      5  C6  UNL d   1       5.225   5.708  -5.999  0.00  0.00     0.002 A 
ATOM      6  C7  UNL d   1       3.934   5.999  -5.556  0.00  0.00     0.002 A 
ENDROOT
BRANCH   1   7
ATOM      7  C1  UNL d   1       1.715   5.298  -4.580  0.00  0.00     0.055 C 
ATOM      8  C   UNL d   1       0.819   5.854  -5.678  0.00  0.00     0.019 C 
ENDBRANCH   1   7
TORSDOF 1
ENDMDL
