MODEL 1
REMARK minimizedAffinity 8.80755138
REMARK minimizedRMSD -1
REMARK  1 active torsions:
REMARK  status: ('A' for Active; 'I' for Inactive)
REMARK    1  A    between atoms: C1_2  and  C2_3 
ROOT
ATOM      1  C2  UNL d   1       0.960  -1.484   1.605  0.00  0.00    -0.077 A 
ATOM      2  C3  UNL d   1      -0.192  -2.280   1.673  0.00  0.00     0.002 A 
ATOM      3  C4  UNL d   1      -1.154  -2.047   2.658  0.00  0.00     0.002 A 
ATOM      4  C5  UNL d   1      -0.975  -1.018   3.580  0.00  0.00    -0.004 A 
ATOM      5  C6  UNL d   1       0.169  -0.222   3.522  0.00  0.00     0.002 A 
ATOM      6  C7  UNL d   1       1.132  -0.454   2.539  0.00  0.00     0.002 A 
ENDROOT
BRANCH   1   7
ATOM      7  C1  UNL d   1       1.975  -1.701   0.513  0.00  0.00     0.055 C 
ATOM      8  C   UNL d   1       2.577  -3.097   0.587  0.00  0.00     0.019 C 
ENDBRANCH   1   7
TORSDOF 1
ENDMDL
