MODEL 1
REMARK minimizedAffinity 7.94337845
REMARK minimizedRMSD -1
REMARK  1 active torsions:
REMARK  status: ('A' for Active; 'I' for Inactive)
REMARK    1  A    between atoms: C1_2  and  C2_3 
ROOT
ATOM      1  C2  UNL d   1       5.599  -5.284   3.514  0.00  0.00    -0.077 A 
ATOM      2  C3  UNL d   1       5.186  -5.967   4.667  0.00  0.00     0.002 A 
ATOM      3  C4  UNL d   1       5.172  -5.319   5.904  0.00  0.00     0.002 A 
ATOM      4  C5  UNL d   1       5.566  -3.986   5.999  0.00  0.00    -0.004 A 
ATOM      5  C6  UNL d   1       5.981  -3.300   4.858  0.00  0.00     0.002 A 
ATOM      6  C7  UNL d   1       5.996  -3.945   3.621  0.00  0.00     0.002 A 
ENDROOT
BRANCH   1   7
ATOM      7  C1  UNL d   1       5.567  -5.966   2.171  0.00  0.00     0.055 C 
ATOM      8  C   UNL d   1       5.432  -4.956   1.041  0.00  0.00     0.019 C 
ENDBRANCH   1   7
TORSDOF 1
ENDMDL
