MODEL 1
REMARK minimizedAffinity 8.44385147
REMARK minimizedRMSD -1
REMARK  1 active torsions:
REMARK  status: ('A' for Active; 'I' for Inactive)
REMARK    1  A    between atoms: C1_2  and  C2_3 
ROOT
ATOM      1  C2  UNL d   1      -2.987   0.951  -2.461  0.00  0.00    -0.077 A 
ATOM      2  C3  UNL d   1      -3.580   1.258  -3.693  0.00  0.00     0.002 A 
ATOM      3  C4  UNL d   1      -3.272   2.452  -4.347  0.00  0.00     0.002 A 
ATOM      4  C5  UNL d   1      -2.367   3.346  -3.779  0.00  0.00    -0.004 A 
ATOM      5  C6  UNL d   1      -1.772   3.050  -2.553  0.00  0.00     0.002 A 
ATOM      6  C7  UNL d   1      -2.080   1.858  -1.897  0.00  0.00     0.002 A 
ENDROOT
BRANCH   1   7
ATOM      7  C1  UNL d   1      -3.281  -0.359  -1.777  0.00  0.00     0.055 C 
ATOM      8  C   UNL d   1      -2.002  -1.035  -1.303  0.00  0.00     0.019 C 
ENDBRANCH   1   7
TORSDOF 1
ENDMDL
