MODEL 1
REMARK minimizedAffinity 6.0703907
REMARK minimizedRMSD -1
REMARK  1 active torsions:
REMARK  status: ('A' for Active; 'I' for Inactive)
REMARK    1  A    between atoms: C1_2  and  C2_3 
ROOT
ATOM      1  C2  UNL d   1       4.875   3.270  -5.129  0.00  0.00    -0.077 A 
ATOM      2  C3  UNL d   1       3.719   4.029  -4.895  0.00  0.00     0.002 A 
ATOM      3  C4  UNL d   1       3.692   5.388  -5.210  0.00  0.00     0.002 A 
ATOM      4  C5  UNL d   1       4.814   6.000  -5.764  0.00  0.00    -0.004 A 
ATOM      5  C6  UNL d   1       5.968   5.254  -6.000  0.00  0.00     0.002 A 
ATOM      6  C7  UNL d   1       5.998   3.895  -5.684  0.00  0.00     0.002 A 
ENDROOT
BRANCH   1   7
ATOM      7  C1  UNL d   1       4.890   1.792  -4.836  0.00  0.00     0.055 C 
ATOM      8  C   UNL d   1       5.996   1.434  -3.853  0.00  0.00     0.019 C 
ENDBRANCH   1   7
TORSDOF 1
ENDMDL
