MODEL 1
REMARK minimizedAffinity -4.43853188
REMARK minimizedRMSD -1
REMARK  1 active torsions:
REMARK  status: ('A' for Active; 'I' for Inactive)
REMARK    1  A    between atoms: C1_2  and  C2_3 
ROOT
ATOM      1  C2  UNL d   1      -0.755  -0.720   0.075  0.00  0.00    -0.081 A 
ATOM      2  C3  UNL d   1      -0.069   0.351  -0.512  0.00  0.00     0.006 A 
ATOM      3  C4  UNL d   1      -0.107   1.620   0.070  0.00  0.00     0.002 A 
ATOM      4  C5  UNL d   1      -0.825   1.839   1.251  0.00  0.00    -0.080 A 
ATOM      5  C6  UNL d   1      -0.849   3.190   1.902  0.00  0.00     0.076 C 
ATOM      6  C7  UNL d   1      -1.525   0.773   1.827  0.00  0.00     0.002 A 
ATOM      7  C8  UNL d   1      -1.488  -0.496   1.246  0.00  0.00     0.006 A 
ENDROOT
BRANCH   1   8
ATOM      8  C1  UNL d   1      -0.663  -2.104  -0.515  0.00  0.00     0.054 C 
ATOM      9  C   UNL d   1       0.510  -2.877   0.070  0.00  0.00     0.018 C 
ENDBRANCH   1   8
TORSDOF 1
ENDMDL
