MODEL 1
REMARK minimizedAffinity -4.5968523
REMARK minimizedRMSD -1
REMARK  1 active torsions:
REMARK  status: ('A' for Active; 'I' for Inactive)
REMARK    1  A    between atoms: C1_2  and  C2_3 
ROOT
ATOM      1  C2  UNL d   1      -0.193   0.936  -0.112  0.00  0.00    -0.081 A 
ATOM      2  C3  UNL d   1       0.454  -0.303  -0.032  0.00  0.00     0.006 A 
ATOM      3  C4  UNL d   1       1.425  -0.657  -0.972  0.00  0.00     0.002 A 
ATOM      4  C5  UNL d   1       1.770   0.225  -2.002  0.00  0.00    -0.080 A 
ATOM      5  C6  UNL d   1       2.832  -0.130  -3.000  0.00  0.00     0.076 C 
ATOM      6  C7  UNL d   1       1.111   1.456  -2.092  0.00  0.00     0.002 A 
ATOM      7  C8  UNL d   1       0.140   1.810  -1.153  0.00  0.00     0.006 A 
ENDROOT
BRANCH   1   8
ATOM      8  C1  UNL d   1      -1.194   1.347   0.938  0.00  0.00     0.054 C 
ATOM      9  C   UNL d   1      -2.082   0.180   1.342  0.00  0.00     0.018 C 
ENDBRANCH   1   8
TORSDOF 1
ENDMDL
