MODEL 1
REMARK minimizedAffinity -1.28930962
REMARK minimizedRMSD -1
REMARK  1 active torsions:
REMARK  status: ('A' for Active; 'I' for Inactive)
REMARK    1  A    between atoms: C1_2  and  C2_3 
ROOT
ATOM      1  C2  UNL d   1      -0.040   0.817  -0.882  0.00  0.00    -0.081 A 
ATOM      2  C3  UNL d   1       0.921   0.034  -1.534  0.00  0.00     0.006 A 
ATOM      3  C4  UNL d   1       1.184  -1.268  -1.103  0.00  0.00     0.002 A 
ATOM      4  C5  UNL d   1       0.487  -1.812  -0.019  0.00  0.00    -0.080 A 
ATOM      5  C6  UNL d   1       0.738  -3.219   0.434  0.00  0.00     0.076 C 
ATOM      6  C7  UNL d   1      -0.460  -1.024   0.643  0.00  0.00     0.002 A 
ATOM      7  C8  UNL d   1      -0.724   0.279   0.214  0.00  0.00     0.006 A 
ENDROOT
BRANCH   1   8
ATOM      8  C1  UNL d   1      -0.372   2.199  -1.385  0.00  0.00     0.054 C 
ATOM      9  C   UNL d   1       0.884   3.040  -1.562  0.00  0.00     0.018 C 
ENDBRANCH   1   8
TORSDOF 1
ENDMDL
