MODEL 1
REMARK minimizedAffinity -4.81304312
REMARK minimizedRMSD -1
REMARK  1 active torsions:
REMARK  status: ('A' for Active; 'I' for Inactive)
REMARK    1  A    between atoms: C1_2  and  C2_3 
ROOT
ATOM      1  C2  UNL d   1      -0.230   1.211   1.016  0.00  0.00    -0.081 A 
ATOM      2  C3  UNL d   1       0.081  -0.137   1.228  0.00  0.00     0.006 A 
ATOM      3  C4  UNL d   1       0.761  -0.869   0.251  0.00  0.00     0.002 A 
ATOM      4  C5  UNL d   1       1.146  -0.264  -0.949  0.00  0.00    -0.080 A 
ATOM      5  C6  UNL d   1       1.903  -1.030  -1.994  0.00  0.00     0.076 C 
ATOM      6  C7  UNL d   1       0.820   1.079  -1.169  0.00  0.00     0.002 A 
ATOM      7  C8  UNL d   1       0.140   1.811  -0.193  0.00  0.00     0.006 A 
ENDROOT
BRANCH   1   8
ATOM      8  C1  UNL d   1      -0.905   2.021   2.094  0.00  0.00     0.054 C 
ATOM      9  C   UNL d   1      -1.618   1.123   3.095  0.00  0.00     0.018 C 
ENDBRANCH   1   8
TORSDOF 1
ENDMDL
