MODEL 1
REMARK minimizedAffinity -4.29726028
REMARK minimizedRMSD -1
REMARK  1 active torsions:
REMARK  status: ('A' for Active; 'I' for Inactive)
REMARK    1  A    between atoms: C1_2  and  C2_3 
ROOT
ATOM      1  C2  UNL d   1      -0.628   0.523   0.775  0.00  0.00    -0.081 A 
ATOM      2  C3  UNL d   1      -0.011  -0.706   1.041  0.00  0.00     0.006 A 
ATOM      3  C4  UNL d   1       0.805  -1.311   0.082  0.00  0.00     0.002 A 
ATOM      4  C5  UNL d   1       1.023  -0.694  -1.155  0.00  0.00    -0.080 A 
ATOM      5  C6  UNL d   1       1.921  -1.319  -2.182  0.00  0.00     0.076 C 
ATOM      6  C7  UNL d   1       0.393   0.524  -1.427  0.00  0.00     0.002 A 
ATOM      7  C8  UNL d   1      -0.423   1.130  -0.469  0.00  0.00     0.006 A 
ENDROOT
BRANCH   1   8
ATOM      8  C1  UNL d   1      -1.456   1.209   1.832  0.00  0.00     0.054 C 
ATOM      9  C   UNL d   1      -2.607   0.327   2.292  0.00  0.00     0.018 C 
ENDBRANCH   1   8
TORSDOF 1
ENDMDL
