MODEL 1
REMARK minimizedAffinity -5.38385391
REMARK minimizedRMSD -1
REMARK  1 active torsions:
REMARK  status: ('A' for Active; 'I' for Inactive)
REMARK    1  A    between atoms: C1_2  and  C2_3 
ROOT
ATOM      1  C2  UNL d   1      -1.375   1.175   1.082  0.00  0.00    -0.081 A 
ATOM      2  C3  UNL d   1      -0.174   0.461   0.986  0.00  0.00     0.006 A 
ATOM      3  C4  UNL d   1       0.580   0.498  -0.189  0.00  0.00     0.002 A 
ATOM      4  C5  UNL d   1       0.150   1.255  -1.284  0.00  0.00    -0.080 A 
ATOM      5  C6  UNL d   1       0.966   1.328  -2.541  0.00  0.00     0.076 C 
ATOM      6  C7  UNL d   1      -1.058   1.954  -1.195  0.00  0.00     0.002 A 
ATOM      7  C8  UNL d   1      -1.813   1.917  -0.020  0.00  0.00     0.006 A 
ENDROOT
BRANCH   1   8
ATOM      8  C1  UNL d   1      -2.158   1.189   2.370  0.00  0.00     0.054 C 
ATOM      9  C   UNL d   1      -2.227   2.590   2.961  0.00  0.00     0.018 C 
ENDBRANCH   1   8
TORSDOF 1
ENDMDL
