MODEL 1
REMARK minimizedAffinity -1.29727435
REMARK minimizedRMSD -1
REMARK  1 active torsions:
REMARK  status: ('A' for Active; 'I' for Inactive)
REMARK    1  A    between atoms: C1_2  and  C2_3 
ROOT
ATOM      1  C2  UNL d   1       4.951   2.051   4.011  0.00  0.00    -0.081 A 
ATOM      2  C3  UNL d   1       5.672   2.075   5.212  0.00  0.00     0.006 A 
ATOM      3  C4  UNL d   1       6.000   0.885   5.864  0.00  0.00     0.002 A 
ATOM      4  C5  UNL d   1       5.620  -0.349   5.325  0.00  0.00    -0.080 A 
ATOM      5  C6  UNL d   1       5.992  -1.635   6.000  0.00  0.00     0.076 C 
ATOM      6  C7  UNL d   1       4.884  -0.372   4.135  0.00  0.00     0.002 A 
ATOM      7  C8  UNL d   1       4.555   0.818   3.482  0.00  0.00     0.006 A 
ENDROOT
BRANCH   1   8
ATOM      8  C1  UNL d   1       4.651   3.330   3.272  0.00  0.00     0.054 C 
ATOM      9  C   UNL d   1       4.231   3.053   1.835  0.00  0.00     0.018 C 
ENDBRANCH   1   8
TORSDOF 1
ENDMDL
