MODEL 1
REMARK minimizedAffinity -4.7216258
REMARK minimizedRMSD -1
REMARK  1 active torsions:
REMARK  status: ('A' for Active; 'I' for Inactive)
REMARK    1  A    between atoms: C1_2  and  C2_3 
ROOT
ATOM      1  C2  UNL d   1       0.392   1.353   0.515  0.00  0.00    -0.081 A 
ATOM      2  C3  UNL d   1      -0.576   0.410   0.148  0.00  0.00     0.006 A 
ATOM      3  C4  UNL d   1      -0.210  -0.745  -0.548  0.00  0.00     0.002 A 
ATOM      4  C5  UNL d   1       1.128  -0.980  -0.880  0.00  0.00    -0.080 A 
ATOM      5  C6  UNL d   1       1.537  -2.231  -1.600  0.00  0.00     0.076 C 
ATOM      6  C7  UNL d   1       2.092  -0.030  -0.528  0.00  0.00     0.002 A 
ATOM      7  C8  UNL d   1       1.728   1.125   0.167  0.00  0.00     0.006 A 
ENDROOT
BRANCH   1   8
ATOM      8  C1  UNL d   1       0.011   2.568   1.322  0.00  0.00     0.054 C 
ATOM      9  C   UNL d   1      -0.614   2.174   2.653  0.00  0.00     0.018 C 
ENDBRANCH   1   8
TORSDOF 1
ENDMDL
