MODEL 1
REMARK minimizedAffinity -4.20267677
REMARK minimizedRMSD -1
REMARK  1 active torsions:
REMARK  status: ('A' for Active; 'I' for Inactive)
REMARK    1  A    between atoms: C1_2  and  C2_3 
ROOT
ATOM      1  C2  UNL d   1      -0.763   2.186   0.023  0.00  0.00    -0.081 A 
ATOM      2  C3  UNL d   1      -0.623   2.882   1.230  0.00  0.00     0.006 A 
ATOM      3  C4  UNL d   1      -1.091   2.329   2.424  0.00  0.00     0.002 A 
ATOM      4  C5  UNL d   1      -1.699   1.069   2.433  0.00  0.00    -0.080 A 
ATOM      5  C6  UNL d   1      -2.178   0.451   3.713  0.00  0.00     0.076 C 
ATOM      6  C7  UNL d   1      -1.854   0.382   1.224  0.00  0.00     0.002 A 
ATOM      7  C8  UNL d   1      -1.387   0.934   0.030  0.00  0.00     0.006 A 
ENDROOT
BRANCH   1   8
ATOM      8  C1  UNL d   1      -0.201   2.751  -1.257  0.00  0.00     0.054 C 
ATOM      9  C   UNL d   1       0.918   1.877  -1.804  0.00  0.00     0.018 C 
ENDBRANCH   1   8
TORSDOF 1
ENDMDL
