MODEL 1
REMARK minimizedAffinity -1.81124568
REMARK minimizedRMSD -1
REMARK  1 active torsions:
REMARK  status: ('A' for Active; 'I' for Inactive)
REMARK    1  A    between atoms: C1_2  and  C2_3 
ROOT
ATOM      1  C2  UNL d   1      -0.216   1.234   0.231  0.00  0.00    -0.081 A 
ATOM      2  C3  UNL d   1      -0.879   0.021   0.458  0.00  0.00     0.006 A 
ATOM      3  C4  UNL d   1      -1.360  -0.295   1.731  0.00  0.00     0.002 A 
ATOM      4  C5  UNL d   1      -1.194   0.598   2.795  0.00  0.00    -0.080 A 
ATOM      5  C6  UNL d   1      -1.733   0.283   4.159  0.00  0.00     0.076 C 
ATOM      6  C7  UNL d   1      -0.517   1.801   2.572  0.00  0.00     0.002 A 
ATOM      7  C8  UNL d   1      -0.035   2.118   1.300  0.00  0.00     0.006 A 
ENDROOT
BRANCH   1   8
ATOM      8  C1  UNL d   1       0.247   1.606  -1.154  0.00  0.00     0.054 C 
ATOM      9  C   UNL d   1      -0.103   3.050  -1.485  0.00  0.00     0.018 C 
ENDBRANCH   1   8
TORSDOF 1
ENDMDL
