MODEL 1
REMARK minimizedAffinity -6.07412338
REMARK minimizedRMSD -1
REMARK  0 active torsions:
REMARK  status: ('A' for Active; 'I' for Inactive)
ROOT
ATOM      1  C   UNL d   1      -3.529  -0.949  -0.465  0.00  0.00     0.077 C 
ATOM      2  C1  UNL d   1      -2.230  -1.110   0.269  0.00  0.00    -0.074 A 
ATOM      3  C2  UNL d   1      -2.067  -2.115   1.228  0.00  0.00    -0.005 A 
ATOM      4  C3  UNL d   1      -0.850  -2.258   1.895  0.00  0.00     0.006 A 
ATOM      5  C4  UNL d   1       0.213  -1.400   1.611  0.00  0.00    -0.005 A 
ATOM      6  C5  UNL d   1       0.068  -0.391   0.654  0.00  0.00    -0.074 A 
ATOM      7  C6  UNL d   1       1.204   0.534   0.329  0.00  0.00     0.077 C 
ATOM      8  C7  UNL d   1      -1.155  -0.257  -0.017  0.00  0.00    -0.001 A 
ENDROOT
TORSDOF 0
ENDMDL
