MODEL 1
REMARK minimizedAffinity -3.97455406
REMARK minimizedRMSD -1
REMARK  0 active torsions:
REMARK  status: ('A' for Active; 'I' for Inactive)
ROOT
ATOM      1  C   UNL d   1       2.321   3.818   1.162  0.00  0.00     0.077 C 
ATOM      2  C1  UNL d   1       1.682   2.471   1.321  0.00  0.00    -0.074 A 
ATOM      3  C2  UNL d   1       1.384   1.962   2.589  0.00  0.00    -0.005 A 
ATOM      4  C3  UNL d   1       0.781   0.711   2.721  0.00  0.00     0.006 A 
ATOM      5  C4  UNL d   1       0.470  -0.042   1.588  0.00  0.00    -0.005 A 
ATOM      6  C5  UNL d   1       0.760   0.450   0.312  0.00  0.00    -0.074 A 
ATOM      7  C6  UNL d   1       0.424  -0.342  -0.916  0.00  0.00     0.077 C 
ATOM      8  C7  UNL d   1       1.360   1.711   0.187  0.00  0.00    -0.001 A 
ENDROOT
TORSDOF 0
ENDMDL
