MODEL 1
REMARK minimizedAffinity 3.28654838
REMARK minimizedRMSD -1
REMARK  0 active torsions:
REMARK  status: ('A' for Active; 'I' for Inactive)
ROOT
ATOM      1  C   UNL d   1      -0.022   0.886  -2.480  0.00  0.00     0.077 C 
ATOM      2  C1  UNL d   1       0.236   0.137  -1.206  0.00  0.00    -0.074 A 
ATOM      3  C2  UNL d   1       1.509  -0.362  -0.911  0.00  0.00    -0.005 A 
ATOM      4  C3  UNL d   1       1.736  -1.048   0.282  0.00  0.00     0.006 A 
ATOM      5  C4  UNL d   1       0.695  -1.242   1.190  0.00  0.00    -0.005 A 
ATOM      6  C5  UNL d   1      -0.584  -0.750   0.912  0.00  0.00    -0.074 A 
ATOM      7  C6  UNL d   1      -1.712  -0.941   1.882  0.00  0.00     0.077 C 
ATOM      8  C7  UNL d   1      -0.803  -0.055  -0.285  0.00  0.00    -0.001 A 
ENDROOT
TORSDOF 0
ENDMDL
