MODEL 1
REMARK minimizedAffinity -4.28900862
REMARK minimizedRMSD -1
REMARK  0 active torsions:
REMARK  status: ('A' for Active; 'I' for Inactive)
ROOT
ATOM      1  C   UNL d   1       2.121   2.307   1.612  0.00  0.00     0.077 C 
ATOM      2  C1  UNL d   1       1.361   1.045   1.332  0.00  0.00    -0.074 A 
ATOM      3  C2  UNL d   1       1.503  -0.078   2.154  0.00  0.00    -0.005 A 
ATOM      4  C3  UNL d   1       0.782  -1.241   1.886  0.00  0.00     0.006 A 
ATOM      5  C4  UNL d   1      -0.088  -1.294   0.796  0.00  0.00    -0.005 A 
ATOM      6  C5  UNL d   1      -0.244  -0.181  -0.036  0.00  0.00    -0.074 A 
ATOM      7  C6  UNL d   1      -1.182  -0.217  -1.206  0.00  0.00     0.077 C 
ATOM      8  C7  UNL d   1       0.479   0.987   0.243  0.00  0.00    -0.001 A 
ENDROOT
TORSDOF 0
ENDMDL
