MODEL 1
REMARK minimizedAffinity -3.48270512
REMARK minimizedRMSD -1
REMARK  0 active torsions:
REMARK  status: ('A' for Active; 'I' for Inactive)
ROOT
ATOM      1  C   UNL d   1       0.207  -2.142   1.633  0.00  0.00     0.077 C 
ATOM      2  C1  UNL d   1       0.069  -1.138   0.527  0.00  0.00    -0.074 A 
ATOM      3  C2  UNL d   1      -0.953  -1.250  -0.421  0.00  0.00    -0.005 A 
ATOM      4  C3  UNL d   1      -1.074  -0.303  -1.438  0.00  0.00     0.006 A 
ATOM      5  C4  UNL d   1      -0.177   0.762  -1.518  0.00  0.00    -0.005 A 
ATOM      6  C5  UNL d   1       0.851   0.890  -0.578  0.00  0.00    -0.074 A 
ATOM      7  C6  UNL d   1       1.818   2.035  -0.643  0.00  0.00     0.077 C 
ATOM      8  C7  UNL d   1       0.962  -0.061   0.446  0.00  0.00    -0.001 A 
ENDROOT
TORSDOF 0
ENDMDL
