MODEL 1
REMARK minimizedAffinity -1.84178579
REMARK minimizedRMSD -1
REMARK  0 active torsions:
REMARK  status: ('A' for Active; 'I' for Inactive)
ROOT
ATOM      1  C   UNL d   1      -2.252  -0.132  -1.994  0.00  0.00     0.077 C 
ATOM      2  C1  UNL d   1      -1.145  -0.114  -0.982  0.00  0.00    -0.074 A 
ATOM      3  C2  UNL d   1      -0.065   0.766  -1.113  0.00  0.00    -0.005 A 
ATOM      4  C3  UNL d   1       0.952   0.778  -0.159  0.00  0.00     0.006 A 
ATOM      5  C4  UNL d   1       0.900  -0.088   0.934  0.00  0.00    -0.005 A 
ATOM      6  C5  UNL d   1      -0.172  -0.974   1.083  0.00  0.00    -0.074 A 
ATOM      7  C6  UNL d   1      -0.248  -1.904   2.257  0.00  0.00     0.077 C 
ATOM      8  C7  UNL d   1      -1.194  -0.975   0.123  0.00  0.00    -0.001 A 
ENDROOT
TORSDOF 0
ENDMDL
