MODEL 1
REMARK minimizedAffinity -0.0122661833
REMARK minimizedRMSD -1
REMARK  0 active torsions:
REMARK  status: ('A' for Active; 'I' for Inactive)
ROOT
ATOM      1  C   UNL d   1      -2.765  -0.799  -1.489  0.00  0.00     0.077 C 
ATOM      2  C1  UNL d   1      -1.422  -0.667  -0.834  0.00  0.00    -0.074 A 
ATOM      3  C2  UNL d   1      -0.514   0.312  -1.248  0.00  0.00    -0.005 A 
ATOM      4  C3  UNL d   1       0.728   0.429  -0.623  0.00  0.00     0.006 A 
ATOM      5  C4  UNL d   1       1.073  -0.431   0.420  0.00  0.00    -0.005 A 
ATOM      6  C5  UNL d   1       0.178  -1.417   0.848  0.00  0.00    -0.074 A 
ATOM      7  C6  UNL d   1       0.529  -2.343   1.974  0.00  0.00     0.077 C 
ATOM      8  C7  UNL d   1      -1.071  -1.523   0.220  0.00  0.00    -0.001 A 
ENDROOT
TORSDOF 0
ENDMDL
