MODEL 1
REMARK minimizedAffinity -4.33224583
REMARK minimizedRMSD -1
REMARK  0 active torsions:
REMARK  status: ('A' for Active; 'I' for Inactive)
ROOT
ATOM      1  C   UNL d   1       1.014   0.495   0.761  0.00  0.00     0.077 C 
ATOM      2  C1  UNL d   1      -0.175  -0.329   0.365  0.00  0.00    -0.074 A 
ATOM      3  C2  UNL d   1      -0.968   0.033  -0.728  0.00  0.00    -0.005 A 
ATOM      4  C3  UNL d   1      -2.066  -0.748  -1.091  0.00  0.00     0.006 A 
ATOM      5  C4  UNL d   1      -2.380  -1.898  -0.365  0.00  0.00    -0.005 A 
ATOM      6  C5  UNL d   1      -1.597  -2.277   0.730  0.00  0.00    -0.074 A 
ATOM      7  C6  UNL d   1      -1.915  -3.515   1.515  0.00  0.00     0.077 C 
ATOM      8  C7  UNL d   1      -0.492  -1.490   1.084  0.00  0.00    -0.001 A 
ENDROOT
TORSDOF 0
ENDMDL
