MODEL 1
REMARK minimizedAffinity -5.47319698
REMARK minimizedRMSD -1
REMARK  0 active torsions:
REMARK  status: ('A' for Active; 'I' for Inactive)
ROOT
ATOM      1  C   UNL d   1      -3.054  -1.390   0.071  0.00  0.00     0.077 C 
ATOM      2  C1  UNL d   1      -1.809  -0.578  -0.130  0.00  0.00    -0.074 A 
ATOM      3  C2  UNL d   1      -1.577   0.098  -1.332  0.00  0.00    -0.005 A 
ATOM      4  C3  UNL d   1      -0.419   0.857  -1.500  0.00  0.00     0.006 A 
ATOM      5  C4  UNL d   1       0.518   0.947  -0.470  0.00  0.00    -0.005 A 
ATOM      6  C5  UNL d   1       0.303   0.279   0.739  0.00  0.00    -0.074 A 
ATOM      7  C6  UNL d   1       1.295   0.373   1.860  0.00  0.00     0.077 C 
ATOM      8  C7  UNL d   1      -0.866  -0.476   0.903  0.00  0.00    -0.001 A 
ENDROOT
TORSDOF 0
ENDMDL
