MODEL 1
REMARK minimizedAffinity -4.63363981
REMARK minimizedRMSD -1
REMARK  0 active torsions:
REMARK  status: ('A' for Active; 'I' for Inactive)
ROOT
ATOM      1  C   UNL d   1      -2.789  -0.739  -0.283  0.00  0.00     0.077 C 
ATOM      2  C1  UNL d   1      -1.427  -0.832   0.338  0.00  0.00    -0.074 A 
ATOM      3  C2  UNL d   1      -1.126  -1.836   1.264  0.00  0.00    -0.005 A 
ATOM      4  C3  UNL d   1       0.148  -1.915   1.826  0.00  0.00     0.006 A 
ATOM      5  C4  UNL d   1       1.132  -0.993   1.469  0.00  0.00    -0.005 A 
ATOM      6  C5  UNL d   1       0.850   0.017   0.544  0.00  0.00    -0.074 A 
ATOM      7  C6  UNL d   1       1.900   1.010   0.141  0.00  0.00     0.077 C 
ATOM      8  C7  UNL d   1      -0.430   0.086  -0.022  0.00  0.00    -0.001 A 
ENDROOT
TORSDOF 0
ENDMDL
