MODEL 1
REMARK minimizedAffinity -4.57281351
REMARK minimizedRMSD -1
REMARK  0 active torsions:
REMARK  status: ('A' for Active; 'I' for Inactive)
ROOT
ATOM      1  C   UNL d   1       1.381  -1.015   1.735  0.00  0.00     0.077 C 
ATOM      2  C1  UNL d   1       0.640  -0.488   0.542  0.00  0.00    -0.074 A 
ATOM      3  C2  UNL d   1       1.290   0.288  -0.423  0.00  0.00    -0.005 A 
ATOM      4  C3  UNL d   1       0.590   0.763  -1.532  0.00  0.00     0.006 A 
ATOM      5  C4  UNL d   1      -0.765   0.467  -1.687  0.00  0.00    -0.005 A 
ATOM      6  C5  UNL d   1      -1.432  -0.308  -0.732  0.00  0.00    -0.074 A 
ATOM      7  C6  UNL d   1      -2.885  -0.643  -0.888  0.00  0.00     0.077 C 
ATOM      8  C7  UNL d   1      -0.720  -0.787   0.376  0.00  0.00    -0.001 A 
ENDROOT
TORSDOF 0
ENDMDL
