MODEL 1
REMARK minimizedAffinity -5.81732702
REMARK minimizedRMSD -1
REMARK  0 active torsions:
REMARK  status: ('A' for Active; 'I' for Inactive)
ROOT
ATOM      1  C   UNL d   1      -3.447  -0.765  -0.048  0.00  0.00     0.077 C 
ATOM      2  C1  UNL d   1      -2.043  -0.927   0.456  0.00  0.00    -0.074 A 
ATOM      3  C2  UNL d   1      -1.742  -1.857   1.456  0.00  0.00    -0.005 A 
ATOM      4  C3  UNL d   1      -0.431  -2.004   1.908  0.00  0.00     0.006 A 
ATOM      5  C4  UNL d   1       0.591  -1.223   1.366  0.00  0.00    -0.005 A 
ATOM      6  C5  UNL d   1       0.309  -0.288   0.365  0.00  0.00    -0.074 A 
ATOM      7  C6  UNL d   1       1.396   0.552  -0.235  0.00  0.00     0.077 C 
ATOM      8  C7  UNL d   1      -1.010  -0.152  -0.089  0.00  0.00    -0.001 A 
ENDROOT
TORSDOF 0
ENDMDL
