MODEL 1
REMARK minimizedAffinity -3.14576459
REMARK minimizedRMSD -1
REMARK  0 active torsions:
REMARK  status: ('A' for Active; 'I' for Inactive)
ROOT
ATOM      1  C   UNL d   1       1.080   0.531   1.122  0.00  0.00     0.077 C 
ATOM      2  C1  UNL d   1      -0.062  -0.116   0.395  0.00  0.00    -0.074 A 
ATOM      3  C2  UNL d   1      -0.625   0.483  -0.737  0.00  0.00    -0.005 A 
ATOM      4  C3  UNL d   1      -1.680  -0.135  -1.408  0.00  0.00     0.006 A 
ATOM      5  C4  UNL d   1      -2.183  -1.355  -0.955  0.00  0.00    -0.005 A 
ATOM      6  C5  UNL d   1      -1.633  -1.969   0.175  0.00  0.00    -0.074 A 
ATOM      7  C6  UNL d   1      -2.155  -3.285   0.670  0.00  0.00     0.077 C 
ATOM      8  C7  UNL d   1      -0.568  -1.345   0.840  0.00  0.00    -0.001 A 
ENDROOT
TORSDOF 0
ENDMDL
