MODEL 1
REMARK minimizedAffinity -3.16412568
REMARK minimizedRMSD -1
REMARK  0 active torsions:
REMARK  status: ('A' for Active; 'I' for Inactive)
ROOT
ATOM      1  C   UNL d   1       3.492   2.207  -1.132  0.00  0.00     0.077 C 
ATOM      2  C1  UNL d   1       2.721   1.849   0.104  0.00  0.00    -0.074 A 
ATOM      3  C2  UNL d   1       2.562   2.771   1.144  0.00  0.00    -0.005 A 
ATOM      4  C3  UNL d   1       1.834   2.427   2.283  0.00  0.00     0.006 A 
ATOM      5  C4  UNL d   1       1.259   1.160   2.393  0.00  0.00    -0.005 A 
ATOM      6  C5  UNL d   1       1.407   0.226   1.363  0.00  0.00    -0.074 A 
ATOM      7  C6  UNL d   1       0.787  -1.136   1.462  0.00  0.00     0.077 C 
ATOM      8  C7  UNL d   1       2.134   0.581   0.219  0.00  0.00    -0.001 A 
ENDROOT
TORSDOF 0
ENDMDL
