MODEL 1
REMARK minimizedAffinity -5.99512339
REMARK minimizedRMSD -1
REMARK  0 active torsions:
REMARK  status: ('A' for Active; 'I' for Inactive)
ROOT
ATOM      1  C   UNL d   1       1.018   0.954   0.159  0.00  0.00     0.077 C 
ATOM      2  C1  UNL d   1       0.101  -0.185   0.489  0.00  0.00    -0.074 A 
ATOM      3  C2  UNL d   1       0.565  -1.301   1.193  0.00  0.00    -0.005 A 
ATOM      4  C3  UNL d   1      -0.303  -2.349   1.501  0.00  0.00     0.006 A 
ATOM      5  C4  UNL d   1      -1.641  -2.292   1.108  0.00  0.00    -0.005 A 
ATOM      6  C5  UNL d   1      -2.123  -1.184   0.405  0.00  0.00    -0.074 A 
ATOM      7  C6  UNL d   1      -3.560  -1.102  -0.016  0.00  0.00     0.077 C 
ATOM      8  C7  UNL d   1      -1.247  -0.132   0.105  0.00  0.00    -0.001 A 
ENDROOT
TORSDOF 0
ENDMDL
