MODEL 1
REMARK minimizedAffinity -5.67914009
REMARK minimizedRMSD -1
REMARK  0 active torsions:
REMARK  status: ('A' for Active; 'I' for Inactive)
ROOT
ATOM      1  C   UNL d   1      -1.991  -3.202   1.068  0.00  0.00     0.077 C 
ATOM      2  C1  UNL d   1      -1.491  -1.949   0.411  0.00  0.00    -0.074 A 
ATOM      3  C2  UNL d   1      -2.220  -1.333  -0.611  0.00  0.00    -0.005 A 
ATOM      4  C3  UNL d   1      -1.748  -0.163  -1.206  0.00  0.00     0.006 A 
ATOM      5  C4  UNL d   1      -0.544   0.402  -0.784  0.00  0.00    -0.005 A 
ATOM      6  C5  UNL d   1       0.198  -0.199   0.237  0.00  0.00    -0.074 A 
ATOM      7  C6  UNL d   1       1.490   0.401   0.709  0.00  0.00     0.077 C 
ATOM      8  C7  UNL d   1      -0.286  -1.370   0.835  0.00  0.00    -0.001 A 
ENDROOT
TORSDOF 0
ENDMDL
