MODEL 1
REMARK minimizedAffinity -4.78171158
REMARK minimizedRMSD -1
REMARK  0 active torsions:
REMARK  status: ('A' for Active; 'I' for Inactive)
ROOT
ATOM      1  C   UNL d   1       0.904  -0.462   1.884  0.00  0.00     0.077 C 
ATOM      2  C1  UNL d   1       0.027  -0.317   0.676  0.00  0.00    -0.074 A 
ATOM      3  C2  UNL d   1       0.555   0.097  -0.551  0.00  0.00    -0.005 A 
ATOM      4  C3  UNL d   1      -0.272   0.217  -1.667  0.00  0.00     0.006 A 
ATOM      5  C4  UNL d   1      -1.633  -0.074  -1.569  0.00  0.00    -0.005 A 
ATOM      6  C5  UNL d   1      -2.179  -0.491  -0.350  0.00  0.00    -0.074 A 
ATOM      7  C6  UNL d   1      -3.638  -0.818  -0.230  0.00  0.00     0.077 C 
ATOM      8  C7  UNL d   1      -1.340  -0.616   0.766  0.00  0.00    -0.001 A 
ENDROOT
TORSDOF 0
ENDMDL
