MODEL 1
REMARK minimizedAffinity -5.69687939
REMARK minimizedRMSD -1
REMARK  2 active torsions:
REMARK  status: ('A' for Active; 'I' for Inactive)
REMARK    1  A    between atoms: C1_2  and  C2_3 
REMARK    2  A    between atoms: C2_3  and  C3_4 
ROOT
ATOM      1  C3  UNL d   1       0.373   0.112   0.718  0.00  0.00    -0.075 A 
ATOM      2  C4  UNL d   1      -0.848  -0.576   0.667  0.00  0.00     0.002 A 
ATOM      3  C5  UNL d   1      -1.705  -0.581   1.768  0.00  0.00     0.002 A 
ATOM      4  C6  UNL d   1      -1.349   0.093   2.934  0.00  0.00    -0.004 A 
ATOM      5  C7  UNL d   1      -0.132   0.767   3.002  0.00  0.00     0.002 A 
ATOM      6  C8  UNL d   1       0.726   0.777   1.900  0.00  0.00     0.002 A 
ENDROOT
BRANCH   1   7
ATOM      7  C2  UNL d   1       1.292   0.145  -0.480  0.00  0.00     0.056 C 
BRANCH   7   8
ATOM      8  C1  UNL d   1       0.563   0.271  -1.822  0.00  0.00     0.007 C 
ATOM      9  C   UNL d   1       1.365  -0.278  -2.994  0.00  0.00     0.009 C 
ENDBRANCH   7   8
ENDBRANCH   1   7
TORSDOF 2
ENDMDL
