MODEL 1
REMARK minimizedAffinity -6.49271059
REMARK minimizedRMSD -1
REMARK  2 active torsions:
REMARK  status: ('A' for Active; 'I' for Inactive)
REMARK    1  A    between atoms: C1_2  and  C2_3 
REMARK    2  A    between atoms: C2_3  and  C3_4 
ROOT
ATOM      1  C3  UNL d   1      -0.248   0.022   1.112  0.00  0.00    -0.075 A 
ATOM      2  C4  UNL d   1      -1.614   0.031   0.796  0.00  0.00     0.002 A 
ATOM      3  C5  UNL d   1      -2.575  -0.081   1.802  0.00  0.00     0.002 A 
ATOM      4  C6  UNL d   1      -2.182  -0.213   3.132  0.00  0.00    -0.004 A 
ATOM      5  C7  UNL d   1      -0.828  -0.241   3.456  0.00  0.00     0.002 A 
ATOM      6  C8  UNL d   1       0.136  -0.125   2.452  0.00  0.00     0.002 A 
ENDROOT
BRANCH   1   7
ATOM      7  C2  UNL d   1       0.796   0.172   0.031  0.00  0.00     0.056 C 
BRANCH   7   8
ATOM      8  C1  UNL d   1       0.222   0.514  -1.348  0.00  0.00     0.007 C 
ATOM      9  C   UNL d   1       0.522  -0.543  -2.402  0.00  0.00     0.009 C 
ENDBRANCH   7   8
ENDBRANCH   1   7
TORSDOF 2
ENDMDL
