MODEL 1
REMARK minimizedAffinity -5.90272379
REMARK minimizedRMSD -1
REMARK  2 active torsions:
REMARK  status: ('A' for Active; 'I' for Inactive)
REMARK    1  A    between atoms: C1_2  and  C2_3 
REMARK    2  A    between atoms: C2_3  and  C3_4 
ROOT
ATOM      1  C3  UNL d   1      -0.016   0.276  -0.085  0.00  0.00    -0.075 A 
ATOM      2  C4  UNL d   1       1.209   0.352   0.594  0.00  0.00     0.002 A 
ATOM      3  C5  UNL d   1       1.293   0.008   1.943  0.00  0.00     0.002 A 
ATOM      4  C6  UNL d   1       0.155  -0.406   2.632  0.00  0.00    -0.004 A 
ATOM      5  C7  UNL d   1      -1.070  -0.470   1.972  0.00  0.00     0.002 A 
ATOM      6  C8  UNL d   1      -1.156  -0.130   0.620  0.00  0.00     0.002 A 
ENDROOT
BRANCH   1   7
ATOM      7  C2  UNL d   1      -0.108   0.619  -1.553  0.00  0.00     0.056 C 
BRANCH   7   8
ATOM      8  C1  UNL d   1       0.942  -0.079  -2.424  0.00  0.00     0.007 C 
ATOM      9  C   UNL d   1       0.500  -1.450  -2.915  0.00  0.00     0.009 C 
ENDBRANCH   7   8
ENDBRANCH   1   7
TORSDOF 2
ENDMDL
