MODEL 1
REMARK minimizedAffinity -4.59907436
REMARK minimizedRMSD -1
REMARK  2 active torsions:
REMARK  status: ('A' for Active; 'I' for Inactive)
REMARK    1  A    between atoms: C1_2  and  C2_3 
REMARK    2  A    between atoms: C2_3  and  C3_4 
ROOT
ATOM      1  C3  UNL d   1      -0.265   0.059   0.819  0.00  0.00    -0.075 A 
ATOM      2  C4  UNL d   1      -1.649   0.085   0.592  0.00  0.00     0.002 A 
ATOM      3  C5  UNL d   1      -2.543  -0.021   1.657  0.00  0.00     0.002 A 
ATOM      4  C6  UNL d   1      -2.067  -0.165   2.959  0.00  0.00    -0.004 A 
ATOM      5  C7  UNL d   1      -0.695  -0.209   3.194  0.00  0.00     0.002 A 
ATOM      6  C8  UNL d   1       0.202  -0.098   2.131  0.00  0.00     0.002 A 
ENDROOT
BRANCH   1   7
ATOM      7  C2  UNL d   1       0.709   0.203  -0.326  0.00  0.00     0.056 C 
BRANCH   7   8
ATOM      8  C1  UNL d   1       0.060   0.115  -1.711  0.00  0.00     0.007 C 
ATOM      9  C   UNL d   1       0.988  -0.458  -2.774  0.00  0.00     0.009 C 
ENDBRANCH   7   8
ENDBRANCH   1   7
TORSDOF 2
ENDMDL
