MODEL 1
REMARK minimizedAffinity -5.88568068
REMARK minimizedRMSD -1
REMARK  2 active torsions:
REMARK  status: ('A' for Active; 'I' for Inactive)
REMARK    1  A    between atoms: C1_2  and  C2_3 
REMARK    2  A    between atoms: C2_3  and  C3_4 
ROOT
ATOM      1  C3  UNL d   1      -0.139  -0.086   0.394  0.00  0.00    -0.075 A 
ATOM      2  C4  UNL d   1      -1.520   0.144   0.298  0.00  0.00     0.002 A 
ATOM      3  C5  UNL d   1      -2.328   0.090   1.433  0.00  0.00     0.002 A 
ATOM      4  C6  UNL d   1      -1.770  -0.204   2.676  0.00  0.00    -0.004 A 
ATOM      5  C7  UNL d   1      -0.403  -0.451   2.781  0.00  0.00     0.002 A 
ATOM      6  C8  UNL d   1       0.409  -0.393   1.647  0.00  0.00     0.002 A 
ENDROOT
BRANCH   1   7
ATOM      7  C2  UNL d   1       0.745   0.001  -0.826  0.00  0.00     0.056 C 
BRANCH   7   8
ATOM      8  C1  UNL d   1       0.315  -0.917  -1.975  0.00  0.00     0.007 C 
ATOM      9  C   UNL d   1       1.468  -1.325  -2.882  0.00  0.00     0.009 C 
ENDBRANCH   7   8
ENDBRANCH   1   7
TORSDOF 2
ENDMDL
