MODEL 1
REMARK minimizedAffinity -6.49489689
REMARK minimizedRMSD -1
REMARK  2 active torsions:
REMARK  status: ('A' for Active; 'I' for Inactive)
REMARK    1  A    between atoms: C1_2  and  C2_3 
REMARK    2  A    between atoms: C2_3  and  C3_4 
ROOT
ATOM      1  C3  UNL d   1      -0.086  -0.070   0.879  0.00  0.00    -0.075 A 
ATOM      2  C4  UNL d   1      -1.460   0.059   0.631  0.00  0.00     0.002 A 
ATOM      3  C5  UNL d   1      -2.375   0.036   1.684  0.00  0.00     0.002 A 
ATOM      4  C6  UNL d   1      -1.929  -0.126   2.994  0.00  0.00    -0.004 A 
ATOM      5  C7  UNL d   1      -0.568  -0.272   3.250  0.00  0.00     0.002 A 
ATOM      6  C8  UNL d   1       0.350  -0.245   2.199  0.00  0.00     0.002 A 
ENDROOT
BRANCH   1   7
ATOM      7  C2  UNL d   1       0.912  -0.016  -0.254  0.00  0.00     0.056 C 
BRANCH   7   8
ATOM      8  C1  UNL d   1       0.275  -0.023  -1.647  0.00  0.00     0.007 C 
ATOM      9  C   UNL d   1       0.848  -1.094  -2.565  0.00  0.00     0.009 C 
ENDBRANCH   7   8
ENDBRANCH   1   7
TORSDOF 2
ENDMDL
