MODEL 1
REMARK minimizedAffinity -2.70551634
REMARK minimizedRMSD -1
REMARK  2 active torsions:
REMARK  status: ('A' for Active; 'I' for Inactive)
REMARK    1  A    between atoms: C1_2  and  C2_3 
REMARK    2  A    between atoms: C2_3  and  C3_4 
ROOT
ATOM      1  C3  UNL d   1       0.581   0.047  -0.862  0.00  0.00    -0.075 A 
ATOM      2  C4  UNL d   1      -0.545  -0.784  -0.960  0.00  0.00     0.002 A 
ATOM      3  C5  UNL d   1      -0.736  -1.588  -2.084  0.00  0.00     0.002 A 
ATOM      4  C6  UNL d   1       0.189  -1.566  -3.126  0.00  0.00    -0.004 A 
ATOM      5  C7  UNL d   1       1.303  -0.732  -3.045  0.00  0.00     0.002 A 
ATOM      6  C8  UNL d   1       1.498   0.071  -1.920  0.00  0.00     0.002 A 
ENDROOT
BRANCH   1   7
ATOM      7  C2  UNL d   1       0.808   0.898   0.365  0.00  0.00     0.056 C 
BRANCH   7   8
ATOM      8  C1  UNL d   1       1.764   0.275   1.388  0.00  0.00     0.007 C 
ATOM      9  C   UNL d   1       1.106  -0.003   2.733  0.00  0.00     0.009 C 
ENDBRANCH   7   8
ENDBRANCH   1   7
TORSDOF 2
ENDMDL
