MODEL 1
REMARK minimizedAffinity -6.3199172
REMARK minimizedRMSD -1
REMARK  2 active torsions:
REMARK  status: ('A' for Active; 'I' for Inactive)
REMARK    1  A    between atoms: C1_2  and  C2_3 
REMARK    2  A    between atoms: C2_3  and  C3_4 
ROOT
ATOM      1  C3  UNL d   1      -0.445  -0.026   0.814  0.00  0.00    -0.075 A 
ATOM      2  C4  UNL d   1      -1.826  -0.008   0.570  0.00  0.00     0.002 A 
ATOM      3  C5  UNL d   1      -2.731  -0.275   1.598  0.00  0.00     0.002 A 
ATOM      4  C6  UNL d   1      -2.268  -0.573   2.878  0.00  0.00    -0.004 A 
ATOM      5  C7  UNL d   1      -0.898  -0.610   3.128  0.00  0.00     0.002 A 
ATOM      6  C8  UNL d   1       0.010  -0.339   2.102  0.00  0.00     0.002 A 
ENDROOT
BRANCH   1   7
ATOM      7  C2  UNL d   1       0.538   0.292  -0.287  0.00  0.00     0.056 C 
BRANCH   7   8
ATOM      8  C1  UNL d   1      -0.074   0.279  -1.692  0.00  0.00     0.007 C 
ATOM      9  C   UNL d   1       0.913  -0.144  -2.772  0.00  0.00     0.009 C 
ENDBRANCH   7   8
ENDBRANCH   1   7
TORSDOF 2
ENDMDL
