MODEL 1
REMARK minimizedAffinity -1.57796025
REMARK minimizedRMSD -1
REMARK  2 active torsions:
REMARK  status: ('A' for Active; 'I' for Inactive)
REMARK    1  A    between atoms: C1_2  and  C2_3 
REMARK    2  A    between atoms: C2_3  and  C3_4 
ROOT
ATOM      1  C3  UNL d   1       0.573  -0.271  -2.072  0.00  0.00    -0.075 A 
ATOM      2  C4  UNL d   1      -0.224  -1.145  -2.826  0.00  0.00     0.002 A 
ATOM      3  C5  UNL d   1       0.360  -2.034  -3.729  0.00  0.00     0.002 A 
ATOM      4  C6  UNL d   1       1.743  -2.054  -3.897  0.00  0.00    -0.004 A 
ATOM      5  C7  UNL d   1       2.542  -1.179  -3.165  0.00  0.00     0.002 A 
ATOM      6  C8  UNL d   1       1.961  -0.291  -2.258  0.00  0.00     0.002 A 
ENDROOT
BRANCH   1   7
ATOM      7  C2  UNL d   1      -0.050   0.674  -1.072  0.00  0.00     0.056 C 
BRANCH   7   8
ATOM      8  C1  UNL d   1      -0.323   0.041   0.297  0.00  0.00     0.007 C 
ATOM      9  C   UNL d   1       0.869   0.117   1.241  0.00  0.00     0.009 C 
ENDBRANCH   7   8
ENDBRANCH   1   7
TORSDOF 2
ENDMDL
