MODEL 1
REMARK minimizedAffinity -2.356493
REMARK minimizedRMSD -1
REMARK  2 active torsions:
REMARK  status: ('A' for Active; 'I' for Inactive)
REMARK    1  A    between atoms: C1_2  and  C2_3 
REMARK    2  A    between atoms: C2_3  and  C3_4 
ROOT
ATOM      1  C3  UNL d   1       0.568  -0.038  -0.026  0.00  0.00    -0.075 A 
ATOM      2  C4  UNL d   1      -0.474   0.621   0.642  0.00  0.00     0.002 A 
ATOM      3  C5  UNL d   1      -0.418   0.817   2.023  0.00  0.00     0.002 A 
ATOM      4  C6  UNL d   1       0.672   0.347   2.752  0.00  0.00    -0.004 A 
ATOM      5  C7  UNL d   1       1.705  -0.324   2.101  0.00  0.00     0.002 A 
ATOM      6  C8  UNL d   1       1.653  -0.517   0.719  0.00  0.00     0.002 A 
ENDROOT
BRANCH   1   7
ATOM      7  C2  UNL d   1       0.527  -0.227  -1.524  0.00  0.00     0.056 C 
BRANCH   7   8
ATOM      8  C1  UNL d   1       0.635  -1.688  -1.972  0.00  0.00     0.007 C 
ATOM      9  C   UNL d   1       0.826  -1.843  -3.475  0.00  0.00     0.009 C 
ENDBRANCH   7   8
ENDBRANCH   1   7
TORSDOF 2
ENDMDL
