MODEL 1
REMARK minimizedAffinity -4.07950258
REMARK minimizedRMSD -1
REMARK  2 active torsions:
REMARK  status: ('A' for Active; 'I' for Inactive)
REMARK    1  A    between atoms: C1_2  and  C2_3 
REMARK    2  A    between atoms: C2_3  and  C3_4 
ROOT
ATOM      1  C3  UNL d   1      -0.237   0.026   1.411  0.00  0.00    -0.075 A 
ATOM      2  C4  UNL d   1      -1.624   0.080   1.210  0.00  0.00     0.002 A 
ATOM      3  C5  UNL d   1      -2.503  -0.112   2.276  0.00  0.00     0.002 A 
ATOM      4  C6  UNL d   1      -2.008  -0.371   3.553  0.00  0.00    -0.004 A 
ATOM      5  C7  UNL d   1      -0.633  -0.444   3.761  0.00  0.00     0.002 A 
ATOM      6  C8  UNL d   1       0.249  -0.247   2.697  0.00  0.00     0.002 A 
ENDROOT
BRANCH   1   7
ATOM      7  C2  UNL d   1       0.719   0.262   0.267  0.00  0.00     0.056 C 
BRANCH   7   8
ATOM      8  C1  UNL d   1       0.044   0.329  -1.107  0.00  0.00     0.007 C 
ATOM      9  C   UNL d   1       0.705  -0.569  -2.144  0.00  0.00     0.009 C 
ENDBRANCH   7   8
ENDBRANCH   1   7
TORSDOF 2
ENDMDL
