MODEL 1
REMARK minimizedAffinity -6.42131948
REMARK minimizedRMSD -1
REMARK  2 active torsions:
REMARK  status: ('A' for Active; 'I' for Inactive)
REMARK    1  A    between atoms: C1_2  and  C2_3 
REMARK    2  A    between atoms: C2_3  and  C3_4 
ROOT
ATOM      1  C3  UNL d   1      -0.508  -0.369   0.693  0.00  0.00    -0.075 A 
ATOM      2  C4  UNL d   1      -0.127  -0.498   2.037  0.00  0.00     0.002 A 
ATOM      3  C5  UNL d   1      -1.065  -0.337   3.057  0.00  0.00     0.002 A 
ATOM      4  C6  UNL d   1      -2.389  -0.035   2.749  0.00  0.00    -0.004 A 
ATOM      5  C7  UNL d   1      -2.775   0.112   1.419  0.00  0.00     0.002 A 
ATOM      6  C8  UNL d   1      -1.840  -0.053   0.395  0.00  0.00     0.002 A 
ENDROOT
BRANCH   1   7
ATOM      7  C2  UNL d   1       0.495  -0.571  -0.417  0.00  0.00     0.056 C 
BRANCH   7   8
ATOM      8  C1  UNL d   1       0.141   0.157  -1.718  0.00  0.00     0.007 C 
ATOM      9  C   UNL d   1       0.563  -0.605  -2.967  0.00  0.00     0.009 C 
ENDBRANCH   7   8
ENDBRANCH   1   7
TORSDOF 2
ENDMDL
