MODEL 1
REMARK minimizedAffinity -4.39103508
REMARK minimizedRMSD -1
REMARK  2 active torsions:
REMARK  status: ('A' for Active; 'I' for Inactive)
REMARK    1  A    between atoms: C1_2  and  C2_3 
REMARK    2  A    between atoms: C2_3  and  C3_4 
ROOT
ATOM      1  C3  UNL d   1      -0.744  -0.278   0.661  0.00  0.00    -0.075 A 
ATOM      2  C4  UNL d   1      -0.475  -0.314   2.037  0.00  0.00     0.002 A 
ATOM      3  C5  UNL d   1      -1.475  -0.010   2.961  0.00  0.00     0.002 A 
ATOM      4  C6  UNL d   1      -2.750   0.342   2.523  0.00  0.00    -0.004 A 
ATOM      5  C7  UNL d   1      -3.023   0.396   1.158  0.00  0.00     0.002 A 
ATOM      6  C8  UNL d   1      -2.026   0.089   0.231  0.00  0.00     0.002 A 
ENDROOT
BRANCH   1   7
ATOM      7  C2  UNL d   1       0.326  -0.634  -0.344  0.00  0.00     0.056 C 
BRANCH   7   8
ATOM      8  C1  UNL d   1       0.183   0.087  -1.689  0.00  0.00     0.007 C 
ATOM      9  C   UNL d   1       0.733  -0.714  -2.861  0.00  0.00     0.009 C 
ENDBRANCH   7   8
ENDBRANCH   1   7
TORSDOF 2
ENDMDL
