MODEL 1
REMARK minimizedAffinity -6.04835892
REMARK minimizedRMSD -1
REMARK  2 active torsions:
REMARK  status: ('A' for Active; 'I' for Inactive)
REMARK    1  A    between atoms: C1_2  and  C2_3 
REMARK    2  A    between atoms: C2_3  and  C3_4 
ROOT
ATOM      1  C3  UNL d   1      -0.997   0.062   0.364  0.00  0.00    -0.075 A 
ATOM      2  C4  UNL d   1      -2.303   0.094   0.873  0.00  0.00     0.002 A 
ATOM      3  C5  UNL d   1      -2.538  -0.101   2.234  0.00  0.00     0.002 A 
ATOM      4  C6  UNL d   1      -1.474  -0.341   3.100  0.00  0.00    -0.004 A 
ATOM      5  C7  UNL d   1      -0.173  -0.392   2.603  0.00  0.00     0.002 A 
ATOM      6  C8  UNL d   1       0.065  -0.192   1.242  0.00  0.00     0.002 A 
ENDROOT
BRANCH   1   7
ATOM      7  C2  UNL d   1      -0.733   0.301  -1.104  0.00  0.00     0.056 C 
BRANCH   7   8
ATOM      8  C1  UNL d   1       0.746   0.218  -1.494  0.00  0.00     0.007 C 
ATOM      9  C   UNL d   1       0.998  -0.670  -2.705  0.00  0.00     0.009 C 
ENDBRANCH   7   8
ENDBRANCH   1   7
TORSDOF 2
ENDMDL
