MODEL 1
REMARK minimizedAffinity -5.86365366
REMARK minimizedRMSD -1
REMARK  1 active torsions:
REMARK  status: ('A' for Active; 'I' for Inactive)
REMARK    1  A    between atoms: C1_2  and  C2_3 
ROOT
ATOM      1  C2  UNL d   1       0.259  -0.252  -0.083  0.00  0.00    -0.081 A 
ATOM      2  C3  UNL d   1       1.554   0.036  -0.531  0.00  0.00     0.006 A 
ATOM      3  C4  UNL d   1       2.231   1.165  -0.063  0.00  0.00     0.002 A 
ATOM      4  C5  UNL d   1       1.627   2.021   0.864  0.00  0.00    -0.080 A 
ATOM      5  C6  UNL d   1       2.354   3.220   1.397  0.00  0.00     0.076 C 
ATOM      6  C7  UNL d   1       0.326   1.743   1.298  0.00  0.00     0.002 A 
ATOM      7  C8  UNL d   1      -0.351   0.614   0.831  0.00  0.00     0.006 A 
ENDROOT
BRANCH   1   8
ATOM      8  C1  UNL d   1      -0.448  -1.504  -0.536  0.00  0.00     0.054 C 
ATOM      9  C   UNL d   1      -1.176  -1.282  -1.855  0.00  0.00     0.018 C 
ENDBRANCH   1   8
TORSDOF 1
ENDMDL
