MODEL 1
REMARK minimizedAffinity -4.74886131
REMARK minimizedRMSD -1
REMARK  1 active torsions:
REMARK  status: ('A' for Active; 'I' for Inactive)
REMARK    1  A    between atoms: C1_2  and  C2_3 
ROOT
ATOM      1  C2  UNL d   1       0.003   0.422   0.784  0.00  0.00    -0.081 A 
ATOM      2  C3  UNL d   1       0.984  -0.036  -0.104  0.00  0.00     0.006 A 
ATOM      3  C4  UNL d   1       2.260   0.532  -0.103  0.00  0.00     0.002 A 
ATOM      4  C5  UNL d   1       2.579   1.560   0.790  0.00  0.00    -0.080 A 
ATOM      5  C6  UNL d   1       3.955   2.158   0.822  0.00  0.00     0.076 C 
ATOM      6  C7  UNL d   1       1.594   2.029   1.666  0.00  0.00     0.002 A 
ATOM      7  C8  UNL d   1       0.317   1.462   1.665  0.00  0.00     0.006 A 
ENDROOT
BRANCH   1   8
ATOM      8  C1  UNL d   1      -1.354  -0.232   0.830  0.00  0.00     0.054 C 
ATOM      9  C   UNL d   1      -1.772  -0.541   2.261  0.00  0.00     0.018 C 
ENDBRANCH   1   8
TORSDOF 1
ENDMDL
