MODEL 1
REMARK minimizedAffinity -1.8516531
REMARK minimizedRMSD -1
REMARK  1 active torsions:
REMARK  status: ('A' for Active; 'I' for Inactive)
REMARK    1  A    between atoms: C1_2  and  C2_3 
ROOT
ATOM      1  C2  UNL d   1       0.966   1.411   0.775  0.00  0.00    -0.081 A 
ATOM      2  C3  UNL d   1       1.464   0.988  -0.463  0.00  0.00     0.006 A 
ATOM      3  C4  UNL d   1       0.803  -0.005  -1.191  0.00  0.00     0.002 A 
ATOM      4  C5  UNL d   1      -0.371  -0.584  -0.697  0.00  0.00    -0.080 A 
ATOM      5  C6  UNL d   1      -1.107  -1.628  -1.483  0.00  0.00     0.076 C 
ATOM      6  C7  UNL d   1      -0.859  -0.173   0.548  0.00  0.00     0.002 A 
ATOM      7  C8  UNL d   1      -0.199   0.819   1.276  0.00  0.00     0.006 A 
ENDROOT
BRANCH   1   8
ATOM      8  C1  UNL d   1       1.640   2.527   1.532  0.00  0.00     0.054 C 
ATOM      9  C   UNL d   1       1.979   2.104   2.954  0.00  0.00     0.018 C 
ENDBRANCH   1   8
TORSDOF 1
ENDMDL
