MODEL 1
REMARK minimizedAffinity -5.48142242
REMARK minimizedRMSD -1
REMARK  1 active torsions:
REMARK  status: ('A' for Active; 'I' for Inactive)
REMARK    1  A    between atoms: C1_2  and  C2_3 
ROOT
ATOM      1  C2  UNL d   1      -0.343  -0.255  -0.078  0.00  0.00    -0.081 A 
ATOM      2  C3  UNL d   1       0.905  -0.024  -0.670  0.00  0.00     0.006 A 
ATOM      3  C4  UNL d   1       1.745   0.981  -0.183  0.00  0.00     0.002 A 
ATOM      4  C5  UNL d   1       1.356   1.764   0.908  0.00  0.00    -0.080 A 
ATOM      5  C6  UNL d   1       2.261   2.825   1.460  0.00  0.00     0.076 C 
ATOM      6  C7  UNL d   1       0.102   1.544   1.489  0.00  0.00     0.002 A 
ATOM      7  C8  UNL d   1      -0.739   0.541   1.002  0.00  0.00     0.006 A 
ENDROOT
BRANCH   1   8
ATOM      8  C1  UNL d   1      -1.223  -1.380  -0.560  0.00  0.00     0.054 C 
ATOM      9  C   UNL d   1      -1.899  -1.028  -1.877  0.00  0.00     0.018 C 
ENDBRANCH   1   8
TORSDOF 1
ENDMDL
