MODEL 1
REMARK minimizedAffinity -3.54178047
REMARK minimizedRMSD -1
REMARK  1 active torsions:
REMARK  status: ('A' for Active; 'I' for Inactive)
REMARK    1  A    between atoms: C1_2  and  C2_3 
ROOT
ATOM      1  C2  UNL d   1       0.006  -0.273  -0.192  0.00  0.00    -0.081 A 
ATOM      2  C3  UNL d   1       1.301   0.130  -0.540  0.00  0.00     0.006 A 
ATOM      3  C4  UNL d   1       1.877   1.254   0.056  0.00  0.00     0.002 A 
ATOM      4  C5  UNL d   1       1.172   1.989   1.014  0.00  0.00    -0.080 A 
ATOM      5  C6  UNL d   1       1.790   3.181   1.683  0.00  0.00     0.076 C 
ATOM      6  C7  UNL d   1      -0.128   1.597   1.350  0.00  0.00     0.002 A 
ATOM      7  C8  UNL d   1      -0.705   0.473   0.754  0.00  0.00     0.006 A 
ENDROOT
BRANCH   1   8
ATOM      8  C1  UNL d   1      -0.593  -1.523  -0.785  0.00  0.00     0.054 C 
ATOM      9  C   UNL d   1      -1.443  -1.203  -2.006  0.00  0.00     0.018 C 
ENDBRANCH   1   8
TORSDOF 1
ENDMDL
