MODEL 1
REMARK minimizedAffinity -1.90214407
REMARK minimizedRMSD -1
REMARK  1 active torsions:
REMARK  status: ('A' for Active; 'I' for Inactive)
REMARK    1  A    between atoms: C1_2  and  C2_3 
ROOT
ATOM      1  C2  UNL d   1       0.002   0.562   0.010  0.00  0.00    -0.081 A 
ATOM      2  C3  UNL d   1       0.188  -0.823  -0.080  0.00  0.00     0.006 A 
ATOM      3  C4  UNL d   1      -0.380  -1.547  -1.130  0.00  0.00     0.002 A 
ATOM      4  C5  UNL d   1      -1.136  -0.899  -2.112  0.00  0.00    -0.080 A 
ATOM      5  C6  UNL d   1      -1.726  -1.660  -3.262  0.00  0.00     0.076 C 
ATOM      6  C7  UNL d   1      -1.337   0.482  -2.013  0.00  0.00     0.002 A 
ATOM      7  C8  UNL d   1      -0.770   1.207  -0.963  0.00  0.00     0.006 A 
ENDROOT
BRANCH   1   8
ATOM      8  C1  UNL d   1       0.666   1.356   1.106  0.00  0.00     0.054 C 
ATOM      9  C   UNL d   1       0.392   2.845   0.955  0.00  0.00     0.018 C 
ENDBRANCH   1   8
TORSDOF 1
ENDMDL
