MODEL 1
REMARK minimizedAffinity -5.28056288
REMARK minimizedRMSD -1
REMARK  1 active torsions:
REMARK  status: ('A' for Active; 'I' for Inactive)
REMARK    1  A    between atoms: C1_2  and  C2_3 
ROOT
ATOM      1  C2  UNL d   1       0.028   1.000   0.566  0.00  0.00    -0.081 A 
ATOM      2  C3  UNL d   1      -0.724  -0.112   0.963  0.00  0.00     0.006 A 
ATOM      3  C4  UNL d   1      -1.297  -0.957   0.009  0.00  0.00     0.002 A 
ATOM      4  C5  UNL d   1      -1.121  -0.709  -1.356  0.00  0.00    -0.080 A 
ATOM      5  C6  UNL d   1      -1.705  -1.625  -2.390  0.00  0.00     0.076 C 
ATOM      6  C7  UNL d   1      -0.384   0.412  -1.753  0.00  0.00     0.002 A 
ATOM      7  C8  UNL d   1       0.188   1.258  -0.800  0.00  0.00     0.006 A 
ENDROOT
BRANCH   1   8
ATOM      8  C1  UNL d   1       0.701   1.876   1.591  0.00  0.00     0.054 C 
ATOM      9  C   UNL d   1       2.130   2.206   1.184  0.00  0.00     0.018 C 
ENDBRANCH   1   8
TORSDOF 1
ENDMDL
