MODEL 1
REMARK minimizedAffinity -6.02629852
REMARK minimizedRMSD -1
REMARK  1 active torsions:
REMARK  status: ('A' for Active; 'I' for Inactive)
REMARK    1  A    between atoms: C1_2  and  C2_3 
ROOT
ATOM      1  C2  UNL d   1       1.976   1.803   0.473  0.00  0.00    -0.081 A 
ATOM      2  C3  UNL d   1       1.388   2.924   1.072  0.00  0.00     0.006 A 
ATOM      3  C4  UNL d   1       0.064   2.879   1.512  0.00  0.00     0.002 A 
ATOM      4  C5  UNL d   1      -0.693   1.712   1.368  0.00  0.00    -0.080 A 
ATOM      5  C6  UNL d   1      -2.107   1.641   1.864  0.00  0.00     0.076 C 
ATOM      6  C7  UNL d   1      -0.112   0.597   0.754  0.00  0.00     0.002 A 
ATOM      7  C8  UNL d   1       1.212   0.641   0.313  0.00  0.00     0.006 A 
ENDROOT
BRANCH   1   8
ATOM      8  C1  UNL d   1       3.424   1.827   0.056  0.00  0.00     0.054 C 
ATOM      9  C   UNL d   1       4.003   0.421  -0.016  0.00  0.00     0.018 C 
ENDBRANCH   1   8
TORSDOF 1
ENDMDL
