MODEL 1
REMARK minimizedAffinity -2.57105088
REMARK minimizedRMSD -1
REMARK  1 active torsions:
REMARK  status: ('A' for Active; 'I' for Inactive)
REMARK    1  A    between atoms: C1_2  and  C2_3 
ROOT
ATOM      1  C2  UNL d   1       1.793   1.754   0.858  0.00  0.00    -0.081 A 
ATOM      2  C3  UNL d   1       1.177   2.187   2.039  0.00  0.00     0.006 A 
ATOM      3  C4  UNL d   1      -0.144   1.831   2.321  0.00  0.00     0.002 A 
ATOM      4  C5  UNL d   1      -0.869   1.032   1.430  0.00  0.00    -0.080 A 
ATOM      5  C6  UNL d   1      -2.278   0.618   1.735  0.00  0.00     0.076 C 
ATOM      6  C7  UNL d   1      -0.260   0.614   0.242  0.00  0.00     0.002 A 
ATOM      7  C8  UNL d   1       1.061   0.970  -0.040  0.00  0.00     0.006 A 
ENDROOT
BRANCH   1   8
ATOM      8  C1  UNL d   1       3.238   2.082   0.582  0.00  0.00     0.054 C 
ATOM      9  C   UNL d   1       3.940   0.933  -0.128  0.00  0.00     0.018 C 
ENDBRANCH   1   8
TORSDOF 1
ENDMDL
