MODEL 1
REMARK minimizedAffinity -3.34675241
REMARK minimizedRMSD -1
REMARK  1 active torsions:
REMARK  status: ('A' for Active; 'I' for Inactive)
REMARK    1  A    between atoms: C1_2  and  C2_3 
ROOT
ATOM      1  C2  UNL d   1       1.629   0.916  -0.156  0.00  0.00    -0.081 A 
ATOM      2  C3  UNL d   1       0.326   1.378  -0.380  0.00  0.00     0.006 A 
ATOM      3  C4  UNL d   1      -0.683   0.493  -0.766  0.00  0.00     0.002 A 
ATOM      4  C5  UNL d   1      -0.408  -0.869  -0.927  0.00  0.00    -0.080 A 
ATOM      5  C6  UNL d   1      -1.489  -1.835  -1.312  0.00  0.00     0.076 C 
ATOM      6  C7  UNL d   1       0.897  -1.329  -0.721  0.00  0.00     0.002 A 
ATOM      7  C8  UNL d   1       1.906  -0.444  -0.336  0.00  0.00     0.006 A 
ENDROOT
BRANCH   1   8
ATOM      8  C1  UNL d   1       2.705   1.857   0.323  0.00  0.00     0.054 C 
ATOM      9  C   UNL d   1       2.354   2.454   1.678  0.00  0.00     0.018 C 
ENDBRANCH   1   8
TORSDOF 1
ENDMDL
