MODEL 1
REMARK minimizedAffinity 0.047176268
REMARK minimizedRMSD -1
REMARK  0 active torsions:
REMARK  status: ('A' for Active; 'I' for Inactive)
ROOT
ATOM      1  C2' OXE d   1       1.219  -1.895   0.380  0.00  0.00     0.078 C 
ATOM      2  C1' OXE d   1      -1.241  -0.842   1.228  0.00  0.00     0.078 C 
ATOM      3  C1  OXE d   1      -1.267  -1.976   0.235  0.00  0.00    -0.078 A 
ATOM      4  C2  OXE d   1      -0.058  -2.455  -0.210  0.00  0.00    -0.078 A 
ATOM      5  C3  OXE d   1      -0.024  -3.537  -1.085  0.00  0.00     0.003 A 
ATOM      6  C4  OXE d   1      -1.209  -4.042  -1.633  0.00  0.00    -0.002 A 
ATOM      7  C5  OXE d   1      -2.450  -3.543  -1.224  0.00  0.00    -0.002 A 
ATOM      8  C6  OXE d   1      -2.498  -2.541  -0.261  0.00  0.00     0.003 A 
ENDROOT
TORSDOF 0
ENDMDL
