MODEL 1
REMARK minimizedAffinity 10.8564453
REMARK minimizedRMSD -1
REMARK  0 active torsions:
REMARK  status: ('A' for Active; 'I' for Inactive)
ROOT
ATOM      1  C2' OXE d   1      -0.587  -4.905  -1.041  0.00  0.00     0.078 C 
ATOM      2  C1' OXE d   1       0.316  -3.032   0.846  0.00  0.00     0.078 C 
ATOM      3  C1  OXE d   1      -0.981  -2.743   0.133  0.00  0.00    -0.078 A 
ATOM      4  C2  OXE d   1      -1.392  -3.642  -0.822  0.00  0.00    -0.078 A 
ATOM      5  C3  OXE d   1      -2.609  -3.451  -1.470  0.00  0.00     0.003 A 
ATOM      6  C4  OXE d   1      -3.342  -2.275  -1.270  0.00  0.00    -0.002 A 
ATOM      7  C5  OXE d   1      -2.922  -1.328  -0.330  0.00  0.00    -0.002 A 
ATOM      8  C6  OXE d   1      -1.768  -1.566   0.409  0.00  0.00     0.003 A 
ENDROOT
TORSDOF 0
ENDMDL
