MODEL 1
REMARK minimizedAffinity 4.16739845
REMARK minimizedRMSD -1
REMARK  0 active torsions:
REMARK  status: ('A' for Active; 'I' for Inactive)
ROOT
ATOM      1  C2' OXE d   1       4.262   5.274   3.746  0.00  0.00     0.078 C 
ATOM      2  C1' OXE d   1       1.582   4.464   3.537  0.00  0.00     0.078 C 
ATOM      3  C1  OXE d   1       2.633   3.585   2.908  0.00  0.00    -0.078 A 
ATOM      4  C2  OXE d   1       3.938   4.013   2.974  0.00  0.00    -0.078 A 
ATOM      5  C3  OXE d   1       4.953   3.213   2.458  0.00  0.00     0.003 A 
ATOM      6  C4  OXE d   1       4.644   2.053   1.737  0.00  0.00    -0.002 A 
ATOM      7  C5  OXE d   1       3.318   1.620   1.623  0.00  0.00    -0.002 A 
ATOM      8  C6  OXE d   1       2.308   2.350   2.238  0.00  0.00     0.003 A 
ENDROOT
TORSDOF 0
ENDMDL
