MODEL 1
REMARK minimizedAffinity 10.6210613
REMARK minimizedRMSD -1
REMARK  0 active torsions:
REMARK  status: ('A' for Active; 'I' for Inactive)
ROOT
ATOM      1  C2' OXE d   1       1.423   2.458   2.923  0.00  0.00     0.078 C 
ATOM      2  C1' OXE d   1       4.124   2.426   2.157  0.00  0.00     0.078 C 
ATOM      3  C1  OXE d   1       3.169   1.533   1.405  0.00  0.00    -0.078 A 
ATOM      4  C2  OXE d   1       1.858   1.520   1.817  0.00  0.00    -0.078 A 
ATOM      5  C3  OXE d   1       0.925   0.755   1.123  0.00  0.00     0.003 A 
ATOM      6  C4  OXE d   1       1.337  -0.117   0.109  0.00  0.00    -0.002 A 
ATOM      7  C5  OXE d   1       2.675  -0.149  -0.300  0.00  0.00    -0.002 A 
ATOM      8  C6  OXE d   1       3.593   0.699   0.308  0.00  0.00     0.003 A 
ENDROOT
TORSDOF 0
ENDMDL
