MODEL 1
REMARK minimizedAffinity 0.365957022
REMARK minimizedRMSD -1
REMARK  0 active torsions:
REMARK  status: ('A' for Active; 'I' for Inactive)
ROOT
ATOM      1  C2' OXE d   1       0.714  -5.993  -2.241  0.00  0.00     0.078 C 
ATOM      2  C1' OXE d   1       0.796  -3.288  -1.493  0.00  0.00     0.078 C 
ATOM      3  C1  OXE d   1      -0.542  -3.984  -1.471  0.00  0.00    -0.078 A 
ATOM      4  C2  OXE d   1      -0.580  -5.295  -1.883  0.00  0.00    -0.078 A 
ATOM      5  C3  OXE d   1      -1.779  -6.000  -1.830  0.00  0.00     0.003 A 
ATOM      6  C4  OXE d   1      -2.973  -5.344  -1.508  0.00  0.00    -0.002 A 
ATOM      7  C5  OXE d   1      -2.963  -3.999  -1.124  0.00  0.00    -0.002 A 
ATOM      8  C6  OXE d   1      -1.753  -3.318  -1.059  0.00  0.00     0.003 A 
ENDROOT
TORSDOF 0
ENDMDL
