MODEL 1
REMARK minimizedAffinity 3.93120885
REMARK minimizedRMSD -1
REMARK  0 active torsions:
REMARK  status: ('A' for Active; 'I' for Inactive)
ROOT
ATOM      1  C2' OXE d   1      -3.924  -4.923   0.204  0.00  0.00     0.078 C 
ATOM      2  C1' OXE d   1      -4.405  -2.616   1.729  0.00  0.00     0.078 C 
ATOM      3  C1  OXE d   1      -3.070  -2.736   1.038  0.00  0.00    -0.078 A 
ATOM      4  C2  OXE d   1      -2.826  -3.889   0.332  0.00  0.00    -0.078 A 
ATOM      5  C3  OXE d   1      -1.632  -4.028  -0.370  0.00  0.00     0.003 A 
ATOM      6  C4  OXE d   1      -0.617  -3.072  -0.239  0.00  0.00    -0.002 A 
ATOM      7  C5  OXE d   1      -0.831  -1.908   0.508  0.00  0.00    -0.002 A 
ATOM      8  C6  OXE d   1      -2.064  -1.706   1.116  0.00  0.00     0.003 A 
ENDROOT
TORSDOF 0
ENDMDL
