MODEL 1
REMARK minimizedAffinity 7.36087132
REMARK minimizedRMSD -1
REMARK  0 active torsions:
REMARK  status: ('A' for Active; 'I' for Inactive)
ROOT
ATOM      1  C2' OXE d   1       0.006  -3.780  -0.467  0.00  0.00     0.078 C 
ATOM      2  C1' OXE d   1      -1.355  -1.821   1.013  0.00  0.00     0.078 C 
ATOM      3  C1  OXE d   1       0.039  -1.499   0.535  0.00  0.00    -0.078 A 
ATOM      4  C2  OXE d   1       0.715  -2.481  -0.149  0.00  0.00    -0.078 A 
ATOM      5  C3  OXE d   1       1.983  -2.218  -0.660  0.00  0.00     0.003 A 
ATOM      6  C4  OXE d   1       2.636  -1.018  -0.352  0.00  0.00    -0.002 A 
ATOM      7  C5  OXE d   1       1.980  -0.019   0.376  0.00  0.00    -0.002 A 
ATOM      8  C6  OXE d   1       0.669  -0.227   0.790  0.00  0.00     0.003 A 
ENDROOT
TORSDOF 0
ENDMDL
