MODEL 1
REMARK minimizedAffinity 13.9212751
REMARK minimizedRMSD -1
REMARK  0 active torsions:
REMARK  status: ('A' for Active; 'I' for Inactive)
ROOT
ATOM      1  C2' OXE d   1      -3.420  -1.082   0.475  0.00  0.00     0.078 C 
ATOM      2  C1' OXE d   1      -2.496   1.336   1.562  0.00  0.00     0.078 C 
ATOM      3  C1  OXE d   1      -3.587   1.403   0.523  0.00  0.00    -0.078 A 
ATOM      4  C2  OXE d   1      -4.001   0.219  -0.038  0.00  0.00    -0.078 A 
ATOM      5  C3  OXE d   1      -5.042   0.219  -0.961  0.00  0.00     0.003 A 
ATOM      6  C4  OXE d   1      -5.567   1.427  -1.437  0.00  0.00    -0.002 A 
ATOM      7  C5  OXE d   1      -5.132   2.647  -0.908  0.00  0.00    -0.002 A 
ATOM      8  C6  OXE d   1      -4.175   2.650   0.101  0.00  0.00     0.003 A 
ENDROOT
TORSDOF 0
ENDMDL
