MODEL 1
REMARK minimizedAffinity 10.5756464
REMARK minimizedRMSD -1
REMARK  0 active torsions:
REMARK  status: ('A' for Active; 'I' for Inactive)
ROOT
ATOM      1  C2' OXE d   1      -0.053  -2.833   0.176  0.00  0.00     0.078 C 
ATOM      2  C1' OXE d   1      -2.533  -2.793  -1.139  0.00  0.00     0.078 C 
ATOM      3  C1  OXE d   1      -1.598  -3.939  -1.435  0.00  0.00    -0.078 A 
ATOM      4  C2  OXE d   1      -0.368  -3.925  -0.823  0.00  0.00    -0.078 A 
ATOM      5  C3  OXE d   1       0.512  -4.986  -1.019  0.00  0.00     0.003 A 
ATOM      6  C4  OXE d   1       0.217  -5.988  -1.952  0.00  0.00    -0.002 A 
ATOM      7  C5  OXE d   1      -1.014  -5.999  -2.617  0.00  0.00    -0.002 A 
ATOM      8  C6  OXE d   1      -1.947  -5.007  -2.338  0.00  0.00     0.003 A 
ENDROOT
TORSDOF 0
ENDMDL
