MODEL 1
REMARK minimizedAffinity 9.74075413
REMARK minimizedRMSD -1
REMARK  0 active torsions:
REMARK  status: ('A' for Active; 'I' for Inactive)
ROOT
ATOM      1  C2' OXE d   1       4.372   5.581   3.737  0.00  0.00     0.078 C 
ATOM      2  C1' OXE d   1       1.649   4.902   3.801  0.00  0.00     0.078 C 
ATOM      3  C1  OXE d   1       2.602   3.927   3.156  0.00  0.00    -0.078 A 
ATOM      4  C2  OXE d   1       3.926   4.289   3.087  0.00  0.00    -0.078 A 
ATOM      5  C3  OXE d   1       4.856   3.403   2.551  0.00  0.00     0.003 A 
ATOM      6  C4  OXE d   1       4.434   2.214   1.943  0.00  0.00    -0.002 A 
ATOM      7  C5  OXE d   1       3.084   1.845   1.967  0.00  0.00    -0.002 A 
ATOM      8  C6  OXE d   1       2.164   2.668   2.605  0.00  0.00     0.003 A 
ENDROOT
TORSDOF 0
ENDMDL
