MODEL 1
REMARK minimizedAffinity 9.66588497
REMARK minimizedRMSD -1
REMARK  0 active torsions:
REMARK  status: ('A' for Active; 'I' for Inactive)
ROOT
ATOM      1  C2' OXE d   1      -1.792  -1.171   2.270  0.00  0.00     0.078 C 
ATOM      2  C1' OXE d   1      -3.881  -0.101   0.731  0.00  0.00     0.078 C 
ATOM      3  C1  OXE d   1      -4.239  -1.091   1.811  0.00  0.00    -0.078 A 
ATOM      4  C2  OXE d   1      -3.206  -1.645   2.528  0.00  0.00    -0.078 A 
ATOM      5  C3  OXE d   1      -3.485  -2.522   3.572  0.00  0.00     0.003 A 
ATOM      6  C4  OXE d   1      -4.794  -2.963   3.797  0.00  0.00    -0.002 A 
ATOM      7  C5  OXE d   1      -5.857  -2.441   3.052  0.00  0.00    -0.002 A 
ATOM      8  C6  OXE d   1      -5.602  -1.475   2.086  0.00  0.00     0.003 A 
ENDROOT
TORSDOF 0
ENDMDL
