MODEL 1
REMARK minimizedAffinity 11.6490669
REMARK minimizedRMSD -1
REMARK  0 active torsions:
REMARK  status: ('A' for Active; 'I' for Inactive)
ROOT
ATOM      1  C2' OXE d   1      -0.086  -2.618   0.003  0.00  0.00     0.078 C 
ATOM      2  C1' OXE d   1      -2.841  -2.086   0.085  0.00  0.00     0.078 C 
ATOM      3  C1  OXE d   1      -2.404  -3.476  -0.306  0.00  0.00    -0.078 A 
ATOM      4  C2  OXE d   1      -1.053  -3.714  -0.388  0.00  0.00    -0.078 A 
ATOM      5  C3  OXE d   1      -0.596  -4.994  -0.691  0.00  0.00     0.003 A 
ATOM      6  C4  OXE d   1      -1.497  -5.999  -1.062  0.00  0.00    -0.002 A 
ATOM      7  C5  OXE d   1      -2.876  -5.766  -1.023  0.00  0.00    -0.002 A 
ATOM      8  C6  OXE d   1      -3.346  -4.525  -0.607  0.00  0.00     0.003 A 
ENDROOT
TORSDOF 0
ENDMDL
