MODEL 1
REMARK minimizedAffinity 12.0091696
REMARK minimizedRMSD -1
REMARK  0 active torsions:
REMARK  status: ('A' for Active; 'I' for Inactive)
ROOT
ATOM      1  C2' OXE d   1      -4.853   2.988   0.404  0.00  0.00     0.078 C 
ATOM      2  C1' OXE d   1      -5.974   0.440   0.046  0.00  0.00     0.078 C 
ATOM      3  C1  OXE d   1      -5.716   1.274  -1.184  0.00  0.00    -0.078 A 
ATOM      4  C2  OXE d   1      -5.211   2.538  -0.996  0.00  0.00    -0.078 A 
ATOM      5  C3  OXE d   1      -4.903   3.328  -2.100  0.00  0.00     0.003 A 
ATOM      6  C4  OXE d   1      -5.246   2.908  -3.390  0.00  0.00    -0.002 A 
ATOM      7  C5  OXE d   1      -5.799   1.640  -3.601  0.00  0.00    -0.002 A 
ATOM      8  C6  OXE d   1      -6.000   0.795  -2.514  0.00  0.00     0.003 A 
ENDROOT
TORSDOF 0
ENDMDL
