MODEL 1
REMARK minimizedAffinity 3.08589196
REMARK minimizedRMSD -1
REMARK  0 active torsions:
REMARK  status: ('A' for Active; 'I' for Inactive)
ROOT
ATOM      1  C2' OXE d   1       1.692  -6.000  -2.146  0.00  0.00     0.078 C 
ATOM      2  C1' OXE d   1      -1.025  -5.640  -1.539  0.00  0.00     0.078 C 
ATOM      3  C1  OXE d   1      -0.055  -4.580  -1.081  0.00  0.00    -0.078 A 
ATOM      4  C2  OXE d   1       1.278  -4.787  -1.341  0.00  0.00    -0.078 A 
ATOM      5  C3  OXE d   1       2.208  -3.814  -0.988  0.00  0.00     0.003 A 
ATOM      6  C4  OXE d   1       1.818  -2.699  -0.236  0.00  0.00    -0.002 A 
ATOM      7  C5  OXE d   1       0.471  -2.489   0.075  0.00  0.00    -0.002 A 
ATOM      8  C6  OXE d   1      -0.482  -3.396  -0.376  0.00  0.00     0.003 A 
ENDROOT
TORSDOF 0
ENDMDL
