MODEL 1
REMARK minimizedAffinity 3.55920506
REMARK minimizedRMSD -1
REMARK  0 active torsions:
REMARK  status: ('A' for Active; 'I' for Inactive)
ROOT
ATOM      1  C2' OXE d   1       3.468   3.245  -4.879  0.00  0.00     0.078 C 
ATOM      2  C1' OXE d   1       3.119   0.956  -3.293  0.00  0.00     0.078 C 
ATOM      3  C1  OXE d   1       2.010   1.327  -4.245  0.00  0.00    -0.078 A 
ATOM      4  C2  OXE d   1       2.169   2.475  -4.984  0.00  0.00    -0.078 A 
ATOM      5  C3  OXE d   1       1.201   2.834  -5.917  0.00  0.00     0.003 A 
ATOM      6  C4  OXE d   1      -0.002   2.122  -5.999  0.00  0.00    -0.002 A 
ATOM      7  C5  OXE d   1      -0.201   0.973  -5.227  0.00  0.00    -0.002 A 
ATOM      8  C6  OXE d   1       0.810   0.539  -4.378  0.00  0.00     0.003 A 
ENDROOT
TORSDOF 0
ENDMDL
