MODEL 1
REMARK minimizedAffinity 10.1621284
REMARK minimizedRMSD -1
REMARK  0 active torsions:
REMARK  status: ('A' for Active; 'I' for Inactive)
ROOT
ATOM      1  C2' OXE d   1       2.762   0.360  -3.584  0.00  0.00     0.078 C 
ATOM      2  C1' OXE d   1       2.968   2.611  -5.248  0.00  0.00     0.078 C 
ATOM      3  C1  OXE d   1       1.652   1.873  -5.223  0.00  0.00    -0.078 A 
ATOM      4  C2  OXE d   1       1.575   0.746  -4.441  0.00  0.00    -0.078 A 
ATOM      5  C3  OXE d   1       0.369   0.059  -4.339  0.00  0.00     0.003 A 
ATOM      6  C4  OXE d   1      -0.720   0.416  -5.143  0.00  0.00    -0.002 A 
ATOM      7  C5  OXE d   1      -0.650   1.538  -5.976  0.00  0.00    -0.002 A 
ATOM      8  C6  OXE d   1       0.512   2.301  -5.995  0.00  0.00     0.003 A 
ENDROOT
TORSDOF 0
ENDMDL
