MODEL 1
REMARK minimizedAffinity 10.3575344
REMARK minimizedRMSD -1
REMARK  0 active torsions:
REMARK  status: ('A' for Active; 'I' for Inactive)
ROOT
ATOM      1  C2' OXE d   1       3.615   0.626   1.298  0.00  0.00     0.078 C 
ATOM      2  C1' OXE d   1       5.764   2.260   2.068  0.00  0.00     0.078 C 
ATOM      3  C1  OXE d   1       4.368   2.757   2.346  0.00  0.00    -0.078 A 
ATOM      4  C2  OXE d   1       3.322   1.972   1.924  0.00  0.00    -0.078 A 
ATOM      5  C3  OXE d   1       2.014   2.358   2.205  0.00  0.00     0.003 A 
ATOM      6  C4  OXE d   1       1.751   3.609   2.776  0.00  0.00    -0.002 A 
ATOM      7  C5  OXE d   1       2.801   4.441   3.177  0.00  0.00    -0.002 A 
ATOM      8  C6  OXE d   1       4.113   4.012   3.009  0.00  0.00     0.003 A 
ENDROOT
TORSDOF 0
ENDMDL
