MODEL 1
REMARK minimizedAffinity 7.93713951
REMARK minimizedRMSD -1
REMARK  0 active torsions:
REMARK  status: ('A' for Active; 'I' for Inactive)
ROOT
ATOM      1  C2' OXE d   1      -3.486  -2.682  -1.239  0.00  0.00     0.078 C 
ATOM      2  C1' OXE d   1      -1.515  -1.972   0.630  0.00  0.00     0.078 C 
ATOM      3  C1  OXE d   1      -1.325  -3.255  -0.141  0.00  0.00    -0.078 A 
ATOM      4  C2  OXE d   1      -2.317  -3.618  -1.020  0.00  0.00    -0.078 A 
ATOM      5  C3  OXE d   1      -2.165  -4.763  -1.796  0.00  0.00     0.003 A 
ATOM      6  C4  OXE d   1      -1.086  -5.628  -1.580  0.00  0.00    -0.002 A 
ATOM      7  C5  OXE d   1      -0.084  -5.297  -0.662  0.00  0.00    -0.002 A 
ATOM      8  C6  OXE d   1      -0.166  -4.096   0.034  0.00  0.00     0.003 A 
ENDROOT
TORSDOF 0
ENDMDL
