MODEL 1
REMARK minimizedAffinity 0.260267168
REMARK minimizedRMSD -1
REMARK  0 active torsions:
REMARK  status: ('A' for Active; 'I' for Inactive)
ROOT
ATOM      1  C2' OXE d   1       0.285  -5.467   1.064  0.00  0.00     0.078 C 
ATOM      2  C1' OXE d   1       0.274  -2.821   0.129  0.00  0.00     0.078 C 
ATOM      3  C1  OXE d   1      -0.783  -3.758  -0.399  0.00  0.00    -0.078 A 
ATOM      4  C2  OXE d   1      -0.741  -5.063   0.028  0.00  0.00    -0.078 A 
ATOM      5  C3  OXE d   1      -1.726  -5.956  -0.386  0.00  0.00     0.003 A 
ATOM      6  C4  OXE d   1      -2.666  -5.577  -1.352  0.00  0.00    -0.002 A 
ATOM      7  C5  OXE d   1      -2.701  -4.263  -1.830  0.00  0.00    -0.002 A 
ATOM      8  C6  OXE d   1      -1.795  -3.332  -1.334  0.00  0.00     0.003 A 
ENDROOT
TORSDOF 0
ENDMDL
