MODEL 1
REMARK minimizedAffinity 3.38467669
REMARK minimizedRMSD -1
REMARK  0 active torsions:
REMARK  status: ('A' for Active; 'I' for Inactive)
ROOT
ATOM      1  C2' OXE d   1      -3.088  -1.775   0.133  0.00  0.00     0.078 C 
ATOM      2  C1' OXE d   1      -2.703  -4.067  -1.443  0.00  0.00     0.078 C 
ATOM      3  C1  OXE d   1      -1.492  -3.456  -0.782  0.00  0.00    -0.078 A 
ATOM      4  C2  OXE d   1      -1.683  -2.308  -0.051  0.00  0.00    -0.078 A 
ATOM      5  C3  OXE d   1      -0.610  -1.734   0.624  0.00  0.00     0.003 A 
ATOM      6  C4  OXE d   1       0.688  -2.227   0.441  0.00  0.00    -0.002 A 
ATOM      7  C5  OXE d   1       0.910  -3.372  -0.332  0.00  0.00    -0.002 A 
ATOM      8  C6  OXE d   1      -0.173  -4.022  -0.914  0.00  0.00     0.003 A 
ENDROOT
TORSDOF 0
ENDMDL
