MODEL 1
REMARK minimizedAffinity 12.0254164
REMARK minimizedRMSD -1
REMARK  1 active torsions:
REMARK  status: ('A' for Active; 'I' for Inactive)
REMARK    1  A    between atoms: N_2  and  C1_3 
ROOT
ATOM      1  C1  UNL d   1       3.554   1.920  -5.756  0.00  0.00     0.143 A 
ATOM      2  C2  UNL d   1       4.467   0.889  -5.999  0.00  0.00    -0.057 A 
ATOM      3  C3  UNL d   1       4.182  -0.434  -5.641  0.00  0.00     0.033 A 
ATOM      4  C4  UNL d   1       2.985  -0.745  -5.004  0.00  0.00    -0.042 A 
ATOM      5  C5  UNL d   1       2.073   0.267  -4.729  0.00  0.00     0.033 A 
ATOM      6  C6  UNL d   1       2.361   1.585  -5.096  0.00  0.00    -0.057 A 
ENDROOT
BRANCH   1   7
ATOM      7  N   UNL d   1       3.821   3.270  -5.999  0.00  0.00    -0.732 N 
ATOM      8  C   UNL d   1       5.168   3.786  -5.890  0.00  0.00     0.284 C 
ATOM      9  H3  UNL d   1       3.300   3.631  -6.795  0.00  0.00     0.395 HD
ENDBRANCH   1   7
TORSDOF 1
ENDMDL
