MODEL 1
REMARK minimizedAffinity 10.3262243
REMARK minimizedRMSD -1
REMARK  1 active torsions:
REMARK  status: ('A' for Active; 'I' for Inactive)
REMARK    1  A    between atoms: N_2  and  C1_3 
ROOT
ATOM      1  C1  UNL d   1      -4.822   4.837   4.112  0.00  0.00     0.143 A 
ATOM      2  C2  UNL d   1      -3.652   4.241   3.629  0.00  0.00    -0.057 A 
ATOM      3  C3  UNL d   1      -3.646   3.525   2.426  0.00  0.00     0.033 A 
ATOM      4  C4  UNL d   1      -4.820   3.367   1.697  0.00  0.00    -0.042 A 
ATOM      5  C5  UNL d   1      -6.000   3.929   2.171  0.00  0.00     0.033 A 
ATOM      6  C6  UNL d   1      -5.999   4.649   3.369  0.00  0.00    -0.057 A 
ENDROOT
BRANCH   1   7
ATOM      7  N   UNL d   1      -4.915   5.479   5.350  0.00  0.00    -0.732 N 
ATOM      8  C   UNL d   1      -3.732   6.000   6.000  0.00  0.00     0.284 C 
ATOM      9  H3  UNL d   1      -5.726   6.089   5.411  0.00  0.00     0.395 HD
ENDBRANCH   1   7
TORSDOF 1
ENDMDL
