MODEL 1
REMARK minimizedAffinity 8.41195869
REMARK minimizedRMSD -1
REMARK  1 active torsions:
REMARK  status: ('A' for Active; 'I' for Inactive)
REMARK    1  A    between atoms: N_2  and  C1_3 
ROOT
ATOM      1  C1  UNL d   1      -5.734   4.750   4.268  0.00  0.00     0.143 A 
ATOM      2  C2  UNL d   1      -5.999   4.860   2.899  0.00  0.00    -0.057 A 
ATOM      3  C3  UNL d   1      -5.996   3.735   2.065  0.00  0.00     0.033 A 
ATOM      4  C4  UNL d   1      -5.697   2.479   2.583  0.00  0.00    -0.042 A 
ATOM      5  C5  UNL d   1      -5.405   2.349   3.937  0.00  0.00     0.033 A 
ATOM      6  C6  UNL d   1      -5.417   3.476   4.765  0.00  0.00    -0.057 A 
ENDROOT
BRANCH   1   7
ATOM      7  N   UNL d   1      -5.625   5.844   5.130  0.00  0.00    -0.732 N 
ATOM      8  C   UNL d   1      -4.477   5.986   6.000  0.00  0.00     0.284 C 
ATOM      9  H3  UNL d   1      -5.927   6.713   4.695  0.00  0.00     0.395 HD
ENDBRANCH   1   7
TORSDOF 1
ENDMDL
