MODEL 1
REMARK minimizedAffinity 4.56915236
REMARK minimizedRMSD -1
REMARK  1 active torsions:
REMARK  status: ('A' for Active; 'I' for Inactive)
REMARK    1  A    between atoms: N_2  and  C1_3 
ROOT
ATOM      1  C1  UNL d   1      -2.791  -2.705  -5.668  0.00  0.00     0.143 A 
ATOM      2  C2  UNL d   1      -2.851  -1.523  -4.923  0.00  0.00    -0.057 A 
ATOM      3  C3  UNL d   1      -1.688  -0.832  -4.562  0.00  0.00     0.033 A 
ATOM      4  C4  UNL d   1      -0.438  -1.329  -4.916  0.00  0.00    -0.042 A 
ATOM      5  C5  UNL d   1      -0.354  -2.516  -5.635  0.00  0.00     0.033 A 
ATOM      6  C6  UNL d   1      -1.519  -3.198  -5.999  0.00  0.00    -0.057 A 
ENDROOT
BRANCH   1   7
ATOM      7  N   UNL d   1      -3.906  -3.490  -5.973  0.00  0.00    -0.732 N 
ATOM      8  C   UNL d   1      -5.196  -3.199  -5.383  0.00  0.00     0.284 C 
ATOM      9  H3  UNL d   1      -3.946  -3.741  -6.958  0.00  0.00     0.395 HD
ENDBRANCH   1   7
TORSDOF 1
ENDMDL
