MODEL 1
REMARK minimizedAffinity 11.6224003
REMARK minimizedRMSD -1
REMARK  1 active torsions:
REMARK  status: ('A' for Active; 'I' for Inactive)
REMARK    1  A    between atoms: N_2  and  C1_3 
ROOT
ATOM      1  C1  UNL d   1       4.031   4.076  -5.078  0.00  0.00     0.143 A 
ATOM      2  C2  UNL d   1       3.763   5.117  -4.182  0.00  0.00    -0.057 A 
ATOM      3  C3  UNL d   1       2.523   5.766  -4.173  0.00  0.00     0.033 A 
ATOM      4  C4  UNL d   1       1.535   5.404  -5.083  0.00  0.00    -0.042 A 
ATOM      5  C5  UNL d   1       1.788   4.390  -6.000  0.00  0.00     0.033 A 
ATOM      6  C6  UNL d   1       3.026   3.740  -5.999  0.00  0.00    -0.057 A 
ENDROOT
BRANCH   1   7
ATOM      7  N   UNL d   1       5.278   3.458  -5.202  0.00  0.00    -0.732 N 
ATOM      8  C   UNL d   1       5.412   2.206  -5.916  0.00  0.00     0.284 C 
ATOM      9  H3  UNL d   1       6.025   4.124  -5.386  0.00  0.00     0.395 HD
ENDBRANCH   1   7
TORSDOF 1
ENDMDL
