MODEL 1
REMARK minimizedAffinity 10.8635225
REMARK minimizedRMSD -1
REMARK  1 active torsions:
REMARK  status: ('A' for Active; 'I' for Inactive)
REMARK    1  A    between atoms: N_2  and  C1_3 
ROOT
ATOM      1  C1  UNL d   1      -3.760   1.835   2.296  0.00  0.00     0.143 A 
ATOM      2  C2  UNL d   1      -4.136   0.670   1.618  0.00  0.00    -0.057 A 
ATOM      3  C3  UNL d   1      -3.199  -0.323   1.306  0.00  0.00     0.033 A 
ATOM      4  C4  UNL d   1      -1.860  -0.154   1.642  0.00  0.00    -0.042 A 
ATOM      5  C5  UNL d   1      -1.459   1.007   2.294  0.00  0.00     0.033 A 
ATOM      6  C6  UNL d   1      -2.400   1.991   2.608  0.00  0.00    -0.057 A 
ENDROOT
BRANCH   1   7
ATOM      7  N   UNL d   1      -4.625   2.902   2.547  0.00  0.00    -0.732 N 
ATOM      8  C   UNL d   1      -5.998   2.861   2.091  0.00  0.00     0.284 C 
ATOM      9  H3  UNL d   1      -4.509   3.284   3.483  0.00  0.00     0.395 HD
ENDBRANCH   1   7
TORSDOF 1
ENDMDL
