MODEL 1
REMARK minimizedAffinity 5.97290373
REMARK minimizedRMSD -1
REMARK  1 active torsions:
REMARK  status: ('A' for Active; 'I' for Inactive)
REMARK    1  A    between atoms: N_2  and  C1_3 
ROOT
ATOM      1  C1  UNL d   1      -1.908  -1.616  -5.923  0.00  0.00     0.143 A 
ATOM      2  C2  UNL d   1      -0.704  -0.903  -5.947  0.00  0.00    -0.057 A 
ATOM      3  C3  UNL d   1      -0.689   0.497  -5.969  0.00  0.00     0.033 A 
ATOM      4  C4  UNL d   1      -1.882   1.211  -5.998  0.00  0.00    -0.042 A 
ATOM      5  C5  UNL d   1      -3.091   0.523  -6.000  0.00  0.00     0.033 A 
ATOM      6  C6  UNL d   1      -3.099  -0.875  -5.971  0.00  0.00    -0.057 A 
ENDROOT
BRANCH   1   7
ATOM      7  N   UNL d   1      -1.989  -3.008  -6.000  0.00  0.00    -0.732 N 
ATOM      8  C   UNL d   1      -3.275  -3.673  -6.000  0.00  0.00     0.284 C 
ATOM      9  H3  UNL d   1      -1.318  -3.401  -6.656  0.00  0.00     0.395 HD
ENDBRANCH   1   7
TORSDOF 1
ENDMDL
