MODEL 1
REMARK minimizedAffinity 16.6958885
REMARK minimizedRMSD -1
REMARK  1 active torsions:
REMARK  status: ('A' for Active; 'I' for Inactive)
REMARK    1  A    between atoms: N_2  and  C1_3 
ROOT
ATOM      1  C1  UNL d   1      -1.463  -1.102   1.119  0.00  0.00     0.143 A 
ATOM      2  C2  UNL d   1      -2.103  -0.005   0.531  0.00  0.00    -0.057 A 
ATOM      3  C3  UNL d   1      -2.355   1.164   1.259  0.00  0.00     0.033 A 
ATOM      4  C4  UNL d   1      -1.996   1.247   2.600  0.00  0.00    -0.042 A 
ATOM      5  C5  UNL d   1      -1.382   0.160   3.212  0.00  0.00     0.033 A 
ATOM      6  C6  UNL d   1      -1.127  -1.003   2.479  0.00  0.00    -0.057 A 
ENDROOT
BRANCH   1   7
ATOM      7  N   UNL d   1      -1.273  -2.328   0.477  0.00  0.00    -0.732 N 
ATOM      8  C   UNL d   1      -2.407  -3.121   0.053  0.00  0.00     0.284 C 
ATOM      9  H3  UNL d   1      -0.510  -2.300  -0.195  0.00  0.00     0.395 HD
ENDBRANCH   1   7
TORSDOF 1
ENDMDL
