MODEL 1
REMARK minimizedAffinity 0.216937125
REMARK minimizedRMSD -1
REMARK  1 active torsions:
REMARK  status: ('A' for Active; 'I' for Inactive)
REMARK    1  A    between atoms: N_2  and  C1_3 
ROOT
ATOM      1  C1  UNL d   1       5.221  -3.570   3.012  0.00  0.00     0.143 A 
ATOM      2  C2  UNL d   1       5.237  -4.781   2.313  0.00  0.00    -0.057 A 
ATOM      3  C3  UNL d   1       5.600  -5.978   2.942  0.00  0.00     0.033 A 
ATOM      4  C4  UNL d   1       5.984  -5.980   4.279  0.00  0.00    -0.042 A 
ATOM      5  C5  UNL d   1       6.000  -4.783   4.987  0.00  0.00     0.033 A 
ATOM      6  C6  UNL d   1       5.630  -3.592   4.355  0.00  0.00    -0.057 A 
ENDROOT
BRANCH   1   7
ATOM      7  N   UNL d   1       4.965  -2.332   2.418  0.00  0.00    -0.732 N 
ATOM      8  C   UNL d   1       3.893  -1.489   2.903  0.00  0.00     0.284 C 
ATOM      9  H3  UNL d   1       5.818  -1.828   2.187  0.00  0.00     0.395 HD
ENDBRANCH   1   7
TORSDOF 1
ENDMDL
