MODEL 1
REMARK minimizedAffinity 14.1873674
REMARK minimizedRMSD -1
REMARK  1 active torsions:
REMARK  status: ('A' for Active; 'I' for Inactive)
REMARK    1  A    between atoms: N_2  and  C1_3 
ROOT
ATOM      1  C1  UNL d   1      -5.273  -2.272   3.838  0.00  0.00     0.143 A 
ATOM      2  C2  UNL d   1      -4.825  -2.726   5.083  0.00  0.00    -0.057 A 
ATOM      3  C3  UNL d   1      -4.015  -1.927   5.899  0.00  0.00     0.033 A 
ATOM      4  C4  UNL d   1      -3.613  -0.666   5.469  0.00  0.00    -0.042 A 
ATOM      5  C5  UNL d   1      -4.026  -0.204   4.224  0.00  0.00     0.033 A 
ATOM      6  C6  UNL d   1      -4.841  -1.004   3.417  0.00  0.00    -0.057 A 
ENDROOT
BRANCH   1   7
ATOM      7  N   UNL d   1      -5.999  -3.057   2.939  0.00  0.00    -0.732 N 
ATOM      8  C   UNL d   1      -5.386  -4.199   2.295  0.00  0.00     0.284 C 
ATOM      9  H3  UNL d   1      -6.955  -3.218   3.248  0.00  0.00     0.395 HD
ENDBRANCH   1   7
TORSDOF 1
ENDMDL
