MODEL 1
REMARK minimizedAffinity 8.70807648
REMARK minimizedRMSD -1
REMARK  1 active torsions:
REMARK  status: ('A' for Active; 'I' for Inactive)
REMARK    1  A    between atoms: C1_2  and  C2_3 
ROOT
ATOM      1  C2  UNL d   1       0.790   0.524  -0.318  0.00  0.00    -0.076 A 
ATOM      2  C3  UNL d   1       2.133   0.109  -0.287  0.00  0.00     0.004 A 
ATOM      3  C4  UNL d   1       2.479  -1.220  -0.526  0.00  0.00    -0.003 A 
ATOM      4  C5  UNL d   1       1.487  -2.156  -0.801  0.00  0.00     0.000 A 
ATOM      5  C6  UNL d   1       0.152  -1.758  -0.854  0.00  0.00     0.000 A 
ATOM      6  C7  UNL d   1      -0.213  -0.419  -0.631  0.00  0.00    -0.073 A 
ATOM      7  C8  UNL d   1      -1.669  -0.047  -0.694  0.00  0.00     0.078 C 
ENDROOT
BRANCH   1   8
ATOM      8  C1  UNL d   1       0.473   1.973  -0.024  0.00  0.00     0.053 C 
ATOM      9  C   UNL d   1       0.739   2.344   1.426  0.00  0.00     0.018 C 
ENDBRANCH   1   8
TORSDOF 1
ENDMDL
