MODEL 1
REMARK minimizedAffinity 6.92777824
REMARK minimizedRMSD -1
REMARK  1 active torsions:
REMARK  status: ('A' for Active; 'I' for Inactive)
REMARK    1  A    between atoms: C1_2  and  C2_3 
ROOT
ATOM      1  C2  UNL d   1       2.118  -0.137  -0.604  0.00  0.00    -0.076 A 
ATOM      2  C3  UNL d   1       2.250   1.233  -0.318  0.00  0.00     0.004 A 
ATOM      3  C4  UNL d   1       1.161   1.982   0.126  0.00  0.00    -0.003 A 
ATOM      4  C5  UNL d   1      -0.077   1.372   0.292  0.00  0.00     0.000 A 
ATOM      5  C6  UNL d   1      -0.222   0.010   0.030  0.00  0.00     0.000 A 
ATOM      6  C7  UNL d   1       0.869  -0.762  -0.402  0.00  0.00    -0.073 A 
ATOM      7  C8  UNL d   1       0.654  -2.226  -0.675  0.00  0.00     0.078 C 
ENDROOT
BRANCH   1   8
ATOM      8  C1  UNL d   1       3.327  -0.891  -1.108  0.00  0.00     0.053 C 
ATOM      9  C   UNL d   1       4.601  -0.510  -0.371  0.00  0.00     0.018 C 
ENDBRANCH   1   8
TORSDOF 1
ENDMDL
