MODEL 1
REMARK minimizedAffinity 6.18428802
REMARK minimizedRMSD -1
REMARK  1 active torsions:
REMARK  status: ('A' for Active; 'I' for Inactive)
REMARK    1  A    between atoms: C1_2  and  C2_3 
ROOT
ATOM      1  C2  UNL d   1      -1.438   0.003  -0.434  0.00  0.00    -0.076 A 
ATOM      2  C3  UNL d   1      -1.344  -1.390  -0.596  0.00  0.00     0.004 A 
ATOM      3  C4  UNL d   1      -0.147  -2.062  -0.351  0.00  0.00    -0.003 A 
ATOM      4  C5  UNL d   1       0.975  -1.351   0.060  0.00  0.00     0.000 A 
ATOM      5  C6  UNL d   1       0.895   0.029   0.242  0.00  0.00     0.000 A 
ATOM      6  C7  UNL d   1      -0.308   0.719   0.015  0.00  0.00    -0.073 A 
ATOM      7  C8  UNL d   1      -0.336   2.209   0.222  0.00  0.00     0.078 C 
ENDROOT
BRANCH   1   8
ATOM      8  C1  UNL d   1      -2.755   0.680  -0.741  0.00  0.00     0.053 C 
ATOM      9  C   UNL d   1      -3.953  -0.174  -0.356  0.00  0.00     0.018 C 
ENDBRANCH   1   8
TORSDOF 1
ENDMDL
