MODEL 1
REMARK minimizedAffinity -4.62187576
REMARK minimizedRMSD -1
REMARK  1 active torsions:
REMARK  status: ('A' for Active; 'I' for Inactive)
REMARK    1  A    between atoms: C1_2  and  C2_3 
ROOT
ATOM      1  C2  UNL d   1       0.036  -1.244  -0.599  0.00  0.00    -0.076 A 
ATOM      2  C3  UNL d   1      -0.853  -0.169  -0.777  0.00  0.00     0.004 A 
ATOM      3  C4  UNL d   1      -0.517   1.117  -0.359  0.00  0.00    -0.003 A 
ATOM      4  C5  UNL d   1       0.714   1.350   0.244  0.00  0.00     0.000 A 
ATOM      5  C6  UNL d   1       1.616   0.299   0.413  0.00  0.00     0.000 A 
ATOM      6  C7  UNL d   1       1.299  -1.000  -0.018  0.00  0.00    -0.073 A 
ATOM      7  C8  UNL d   1       2.306  -2.097   0.194  0.00  0.00     0.078 C 
ENDROOT
BRANCH   1   8
ATOM      8  C1  UNL d   1      -0.395  -2.622  -1.049  0.00  0.00     0.053 C 
ATOM      9  C   UNL d   1      -0.932  -2.630  -2.472  0.00  0.00     0.018 C 
ENDBRANCH   1   8
TORSDOF 1
ENDMDL
