MODEL 1
REMARK minimizedAffinity -2.62149453
REMARK minimizedRMSD -1
REMARK  1 active torsions:
REMARK  status: ('A' for Active; 'I' for Inactive)
REMARK    1  A    between atoms: C1_2  and  C2_3 
ROOT
ATOM      1  C2  UNL d   1       1.000  -0.739  -0.166  0.00  0.00    -0.076 A 
ATOM      2  C3  UNL d   1       1.077   0.533   0.428  0.00  0.00     0.004 A 
ATOM      3  C4  UNL d   1       0.046   1.459   0.277  0.00  0.00    -0.003 A 
ATOM      4  C5  UNL d   1      -1.079   1.129  -0.470  0.00  0.00     0.000 A 
ATOM      5  C6  UNL d   1      -1.180  -0.135  -1.052  0.00  0.00     0.000 A 
ATOM      6  C7  UNL d   1      -0.157  -1.086  -0.895  0.00  0.00    -0.073 A 
ATOM      7  C8  UNL d   1      -0.317  -2.431  -1.550  0.00  0.00     0.078 C 
ENDROOT
BRANCH   1   8
ATOM      8  C1  UNL d   1       2.160  -1.692   0.010  0.00  0.00     0.053 C 
ATOM      9  C   UNL d   1       3.477  -1.101  -0.471  0.00  0.00     0.018 C 
ENDBRANCH   1   8
TORSDOF 1
ENDMDL
