MODEL 1
REMARK minimizedAffinity 5.37028217
REMARK minimizedRMSD -1
REMARK  1 active torsions:
REMARK  status: ('A' for Active; 'I' for Inactive)
REMARK    1  A    between atoms: C1_2  and  C2_3 
ROOT
ATOM      1  C2  UNL d   1       1.824  -1.575  -0.900  0.00  0.00    -0.076 A 
ATOM      2  C3  UNL d   1       2.711  -2.341  -1.677  0.00  0.00     0.004 A 
ATOM      3  C4  UNL d   1       3.888  -1.788  -2.177  0.00  0.00    -0.003 A 
ATOM      4  C5  UNL d   1       4.199  -0.460  -1.907  0.00  0.00     0.000 A 
ATOM      5  C6  UNL d   1       3.340   0.310  -1.124  0.00  0.00     0.000 A 
ATOM      6  C7  UNL d   1       2.157  -0.237  -0.599  0.00  0.00    -0.073 A 
ATOM      7  C8  UNL d   1       1.264   0.641   0.235  0.00  0.00     0.078 C 
ENDROOT
BRANCH   1   8
ATOM      8  C1  UNL d   1       0.549  -2.220  -0.408  0.00  0.00     0.053 C 
ATOM      9  C   UNL d   1      -0.563  -2.179  -1.446  0.00  0.00     0.018 C 
ENDBRANCH   1   8
TORSDOF 1
ENDMDL
