MODEL 1
REMARK minimizedAffinity 10.9032955
REMARK minimizedRMSD -1
REMARK  1 active torsions:
REMARK  status: ('A' for Active; 'I' for Inactive)
REMARK    1  A    between atoms: C1_2  and  C2_3 
ROOT
ATOM      1  C2  UNL d   1       1.848  -1.866  -0.805  0.00  0.00    -0.076 A 
ATOM      2  C3  UNL d   1       1.796  -0.750   0.049  0.00  0.00     0.004 A 
ATOM      3  C4  UNL d   1       2.793   0.223   0.019  0.00  0.00    -0.003 A 
ATOM      4  C5  UNL d   1       3.859   0.097  -0.865  0.00  0.00     0.000 A 
ATOM      5  C6  UNL d   1       3.917  -0.994  -1.731  0.00  0.00     0.000 A 
ATOM      6  C7  UNL d   1       2.912  -1.976  -1.726  0.00  0.00    -0.073 A 
ATOM      7  C8  UNL d   1       3.028  -3.135  -2.677  0.00  0.00     0.078 C 
ENDROOT
BRANCH   1   8
ATOM      8  C1  UNL d   1       0.752  -2.903  -0.709  0.00  0.00     0.053 C 
ATOM      9  C   UNL d   1      -0.618  -2.335  -1.046  0.00  0.00     0.018 C 
ENDBRANCH   1   8
TORSDOF 1
ENDMDL
