MODEL 1
REMARK minimizedAffinity 10.6010847
REMARK minimizedRMSD -1
REMARK  1 active torsions:
REMARK  status: ('A' for Active; 'I' for Inactive)
REMARK    1  A    between atoms: C1_2  and  C2_3 
ROOT
ATOM      1  C2  UNL d   1      -3.228  -0.001  -1.085  0.00  0.00    -0.076 A 
ATOM      2  C3  UNL d   1      -3.871  -0.454  -2.250  0.00  0.00     0.004 A 
ATOM      3  C4  UNL d   1      -5.245  -0.685  -2.268  0.00  0.00    -0.003 A 
ATOM      4  C5  UNL d   1      -6.000  -0.466  -1.120  0.00  0.00     0.000 A 
ATOM      5  C6  UNL d   1      -5.381   0.000   0.040  0.00  0.00     0.000 A 
ATOM      6  C7  UNL d   1      -3.999   0.254   0.069  0.00  0.00    -0.073 A 
ATOM      7  C8  UNL d   1      -3.384   0.750   1.349  0.00  0.00     0.078 C 
ENDROOT
BRANCH   1   8
ATOM      8  C1  UNL d   1      -1.731   0.206  -1.118  0.00  0.00     0.053 C 
ATOM      9  C   UNL d   1      -0.976  -1.058  -1.499  0.00  0.00     0.018 C 
ENDBRANCH   1   8
TORSDOF 1
ENDMDL
