MODEL 1
REMARK minimizedAffinity 12.8065147
REMARK minimizedRMSD -1
REMARK  1 active torsions:
REMARK  status: ('A' for Active; 'I' for Inactive)
REMARK    1  A    between atoms: C1_2  and  C2_3 
ROOT
ATOM      1  C2  UNL d   1       1.681  -1.583  -0.729  0.00  0.00    -0.076 A 
ATOM      2  C3  UNL d   1       0.707  -1.616  -1.742  0.00  0.00     0.004 A 
ATOM      3  C4  UNL d   1      -0.234  -2.643  -1.798  0.00  0.00    -0.003 A 
ATOM      4  C5  UNL d   1      -0.217  -3.652  -0.842  0.00  0.00     0.000 A 
ATOM      5  C6  UNL d   1       0.731  -3.625   0.180  0.00  0.00     0.000 A 
ATOM      6  C7  UNL d   1       1.677  -2.589   0.261  0.00  0.00    -0.073 A 
ATOM      7  C8  UNL d   1       2.680  -2.613   1.381  0.00  0.00     0.078 C 
ENDROOT
BRANCH   1   8
ATOM      8  C1  UNL d   1       2.693  -0.460  -0.734  0.00  0.00     0.053 C 
ATOM      9  C   UNL d   1       2.144   0.822  -0.127  0.00  0.00     0.018 C 
ENDBRANCH   1   8
TORSDOF 1
ENDMDL
