MODEL 1
REMARK minimizedAffinity 12.9469891
REMARK minimizedRMSD -1
REMARK  1 active torsions:
REMARK  status: ('A' for Active; 'I' for Inactive)
REMARK    1  A    between atoms: C1_2  and  C2_3 
ROOT
ATOM      1  C2  UNL d   1       1.849   0.101   0.916  0.00  0.00    -0.076 A 
ATOM      2  C3  UNL d   1       1.758   0.451   2.274  0.00  0.00     0.004 A 
ATOM      3  C4  UNL d   1       1.619  -0.526   3.259  0.00  0.00    -0.003 A 
ATOM      4  C5  UNL d   1       1.569  -1.868   2.901  0.00  0.00     0.000 A 
ATOM      5  C6  UNL d   1       1.675  -2.234   1.560  0.00  0.00     0.000 A 
ATOM      6  C7  UNL d   1       1.833  -1.263   0.556  0.00  0.00    -0.073 A 
ATOM      7  C8  UNL d   1       1.937  -1.714  -0.875  0.00  0.00     0.078 C 
ENDROOT
BRANCH   1   8
ATOM      8  C1  UNL d   1       1.972   1.206  -0.110  0.00  0.00     0.053 C 
ATOM      9  C   UNL d   1       3.411   1.650  -0.318  0.00  0.00     0.018 C 
ENDBRANCH   1   8
TORSDOF 1
ENDMDL
