MODEL 1
REMARK minimizedAffinity -4.87855291
REMARK minimizedRMSD -1
REMARK  1 active torsions:
REMARK  status: ('A' for Active; 'I' for Inactive)
REMARK    1  A    between atoms: N_2  and  C1_3 
ROOT
ATOM      1  C1  UNL d   1       0.289  -0.287   0.035  0.00  0.00     0.143 A 
ATOM      2  C2  UNL d   1      -0.690   0.701   0.182  0.00  0.00    -0.057 A 
ATOM      3  C3  UNL d   1      -0.357   1.999   0.589  0.00  0.00     0.033 A 
ATOM      4  C4  UNL d   1       0.963   2.325   0.884  0.00  0.00    -0.042 A 
ATOM      5  C5  UNL d   1       1.949   1.352   0.768  0.00  0.00     0.033 A 
ATOM      6  C6  UNL d   1       1.611   0.059   0.356  0.00  0.00    -0.057 A 
ENDROOT
BRANCH   1   7
ATOM      7  N   UNL d   1       0.008  -1.621  -0.270  0.00  0.00    -0.732 N 
ATOM      8  C   UNL d   1      -0.094  -2.056  -1.647  0.00  0.00     0.284 C 
ATOM      9  H3  UNL d   1       0.504  -2.270   0.335  0.00  0.00     0.395 HD
ENDBRANCH   1   7
TORSDOF 1
ENDMDL
