MODEL 1
REMARK minimizedAffinity -4.96422958
REMARK minimizedRMSD -1
REMARK  1 active torsions:
REMARK  status: ('A' for Active; 'I' for Inactive)
REMARK    1  A    between atoms: N_2  and  C1_3 
ROOT
ATOM      1  C1  UNL d   1       0.122   0.447   0.368  0.00  0.00     0.143 A 
ATOM      2  C2  UNL d   1       1.403   0.998   0.260  0.00  0.00    -0.057 A 
ATOM      3  C3  UNL d   1       1.588   2.363   0.007  0.00  0.00     0.033 A 
ATOM      4  C4  UNL d   1       0.489   3.198  -0.171  0.00  0.00    -0.042 A 
ATOM      5  C5  UNL d   1      -0.793   2.667  -0.093  0.00  0.00     0.033 A 
ATOM      6  C6  UNL d   1      -0.971   1.305   0.166  0.00  0.00    -0.057 A 
ENDROOT
BRANCH   1   7
ATOM      7  N   UNL d   1      -0.127  -0.920   0.520  0.00  0.00    -0.732 N 
ATOM      8  C   UNL d   1      -0.528  -1.726  -0.613  0.00  0.00     0.284 C 
ATOM      9  H3  UNL d   1       0.548  -1.371   1.134  0.00  0.00     0.395 HD
ENDBRANCH   1   7
TORSDOF 1
ENDMDL
