MODEL 1
REMARK minimizedAffinity -5.19985104
REMARK minimizedRMSD -1
REMARK  1 active torsions:
REMARK  status: ('A' for Active; 'I' for Inactive)
REMARK    1  A    between atoms: N_2  and  C1_3 
ROOT
ATOM      1  C1  UNL d   1       0.432   0.595   0.533  0.00  0.00     0.143 A 
ATOM      2  C2  UNL d   1      -0.315   1.770   0.662  0.00  0.00    -0.057 A 
ATOM      3  C3  UNL d   1       0.255   3.024   0.408  0.00  0.00     0.033 A 
ATOM      4  C4  UNL d   1       1.594   3.126   0.049  0.00  0.00    -0.042 A 
ATOM      5  C5  UNL d   1       2.363   1.972  -0.060  0.00  0.00     0.033 A 
ATOM      6  C6  UNL d   1       1.787   0.723   0.188  0.00  0.00    -0.057 A 
ENDROOT
BRANCH   1   7
ATOM      7  N   UNL d   1      -0.050  -0.674   0.867  0.00  0.00    -0.732 N 
ATOM      8  C   UNL d   1      -0.414  -1.619  -0.167  0.00  0.00     0.284 C 
ATOM      9  H3  UNL d   1       0.452  -1.086   1.650  0.00  0.00     0.395 HD
ENDBRANCH   1   7
TORSDOF 1
ENDMDL
