MODEL 1
REMARK minimizedAffinity -4.66287899
REMARK minimizedRMSD -1
REMARK  1 active torsions:
REMARK  status: ('A' for Active; 'I' for Inactive)
REMARK    1  A    between atoms: N_2  and  C1_3 
ROOT
ATOM      1  C1  UNL d   1       0.158   1.288   0.008  0.00  0.00     0.143 A 
ATOM      2  C2  UNL d   1      -0.266   2.363   0.797  0.00  0.00    -0.057 A 
ATOM      3  C3  UNL d   1       0.547   3.485   0.994  0.00  0.00     0.033 A 
ATOM      4  C4  UNL d   1       1.816   3.540   0.427  0.00  0.00    -0.042 A 
ATOM      5  C5  UNL d   1       2.269   2.473  -0.341  0.00  0.00     0.033 A 
ATOM      6  C6  UNL d   1       1.449   1.357  -0.539  0.00  0.00    -0.057 A 
ENDROOT
BRANCH   1   7
ATOM      7  N   UNL d   1      -0.564   0.102  -0.145  0.00  0.00    -0.732 N 
ATOM      8  C   UNL d   1       0.108  -1.179  -0.113  0.00  0.00     0.284 C 
ATOM      9  H3  UNL d   1      -1.450   0.120   0.355  0.00  0.00     0.395 HD
ENDBRANCH   1   7
TORSDOF 1
ENDMDL
