MODEL 1
REMARK minimizedAffinity -3.80729294
REMARK minimizedRMSD -1
REMARK  1 active torsions:
REMARK  status: ('A' for Active; 'I' for Inactive)
REMARK    1  A    between atoms: N_2  and  C1_3 
ROOT
ATOM      1  C1  UNL d   1       1.316   2.249   0.906  0.00  0.00     0.143 A 
ATOM      2  C2  UNL d   1       1.468   0.861   0.835  0.00  0.00    -0.057 A 
ATOM      3  C3  UNL d   1       0.391   0.029   0.502  0.00  0.00     0.033 A 
ATOM      4  C4  UNL d   1      -0.867   0.572   0.263  0.00  0.00    -0.042 A 
ATOM      5  C5  UNL d   1      -1.046   1.948   0.353  0.00  0.00     0.033 A 
ATOM      6  C6  UNL d   1       0.034   2.773   0.679  0.00  0.00    -0.057 A 
ENDROOT
BRANCH   1   7
ATOM      7  N   UNL d   1       2.323   3.121   1.328  0.00  0.00    -0.732 N 
ATOM      8  C   UNL d   1       3.375   2.661   2.210  0.00  0.00     0.284 C 
ATOM      9  H3  UNL d   1       2.645   3.733   0.582  0.00  0.00     0.395 HD
ENDBRANCH   1   7
TORSDOF 1
ENDMDL
