MODEL 1
REMARK minimizedAffinity -2.44642758
REMARK minimizedRMSD -1
REMARK  1 active torsions:
REMARK  status: ('A' for Active; 'I' for Inactive)
REMARK    1  A    between atoms: N_2  and  C1_3 
ROOT
ATOM      1  C1  UNL d   1       0.154  -0.270  -0.005  0.00  0.00     0.143 A 
ATOM      2  C2  UNL d   1      -0.145   1.085  -0.179  0.00  0.00    -0.057 A 
ATOM      3  C3  UNL d   1      -1.317   1.643   0.344  0.00  0.00     0.033 A 
ATOM      4  C4  UNL d   1      -2.229   0.846   1.029  0.00  0.00    -0.042 A 
ATOM      5  C5  UNL d   1      -1.964  -0.509   1.192  0.00  0.00     0.033 A 
ATOM      6  C6  UNL d   1      -0.788  -1.059   0.673  0.00  0.00    -0.057 A 
ENDROOT
BRANCH   1   7
ATOM      7  N   UNL d   1       1.255  -0.905  -0.586  0.00  0.00    -0.732 N 
ATOM      8  C   UNL d   1       1.191  -1.394  -1.947  0.00  0.00     0.284 C 
ATOM      9  H3  UNL d   1       2.135  -0.452  -0.349  0.00  0.00     0.395 HD
ENDBRANCH   1   7
TORSDOF 1
ENDMDL
