MODEL 1
REMARK minimizedAffinity -3.79113579
REMARK minimizedRMSD -1
REMARK  1 active torsions:
REMARK  status: ('A' for Active; 'I' for Inactive)
REMARK    1  A    between atoms: N_2  and  C1_3 
ROOT
ATOM      1  C1  UNL d   1       0.714   0.447   0.432  0.00  0.00     0.143 A 
ATOM      2  C2  UNL d   1      -0.483   1.141   0.643  0.00  0.00    -0.057 A 
ATOM      3  C3  UNL d   1      -0.485   2.507   0.951  0.00  0.00     0.033 A 
ATOM      4  C4  UNL d   1       0.714   3.198   1.084  0.00  0.00    -0.042 A 
ATOM      5  C5  UNL d   1       1.916   2.523   0.903  0.00  0.00     0.033 A 
ATOM      6  C6  UNL d   1       1.912   1.161   0.589  0.00  0.00    -0.057 A 
ENDROOT
BRANCH   1   7
ATOM      7  N   UNL d   1       0.786  -0.932   0.220  0.00  0.00    -0.732 N 
ATOM      8  C   UNL d   1      -0.390  -1.762   0.362  0.00  0.00     0.284 C 
ATOM      9  H3  UNL d   1       1.370  -1.172  -0.578  0.00  0.00     0.395 HD
ENDBRANCH   1   7
TORSDOF 1
ENDMDL
