MODEL 1
REMARK minimizedAffinity -5.22908258
REMARK minimizedRMSD -1
REMARK  1 active torsions:
REMARK  status: ('A' for Active; 'I' for Inactive)
REMARK    1  A    between atoms: N_2  and  C1_3 
ROOT
ATOM      1  C1  UNL d   1       0.091   0.457  -0.249  0.00  0.00     0.143 A 
ATOM      2  C2  UNL d   1      -0.989   1.283   0.078  0.00  0.00    -0.057 A 
ATOM      3  C3  UNL d   1      -0.829   2.667   0.221  0.00  0.00     0.033 A 
ATOM      4  C4  UNL d   1       0.426   3.247   0.066  0.00  0.00    -0.042 A 
ATOM      5  C5  UNL d   1       1.519   2.442  -0.234  0.00  0.00     0.033 A 
ATOM      6  C6  UNL d   1       1.351   1.062  -0.381  0.00  0.00    -0.057 A 
ENDROOT
BRANCH   1   7
ATOM      7  N   UNL d   1       0.015  -0.937  -0.307  0.00  0.00    -0.732 N 
ATOM      8  C   UNL d   1       0.017  -1.622  -1.582  0.00  0.00     0.284 C 
ATOM      9  H3  UNL d   1       0.582  -1.387   0.408  0.00  0.00     0.395 HD
ENDBRANCH   1   7
TORSDOF 1
ENDMDL
