MODEL 1
REMARK minimizedAffinity -3.45833015
REMARK minimizedRMSD -1
REMARK  1 active torsions:
REMARK  status: ('A' for Active; 'I' for Inactive)
REMARK    1  A    between atoms: N_2  and  C1_3 
ROOT
ATOM      1  C1  UNL d   1      -0.320  -1.742  -1.145  0.00  0.00     0.143 A 
ATOM      2  C2  UNL d   1       0.236  -1.517   0.119  0.00  0.00    -0.057 A 
ATOM      3  C3  UNL d   1      -0.053  -0.354   0.843  0.00  0.00     0.033 A 
ATOM      4  C4  UNL d   1      -0.884   0.621   0.301  0.00  0.00    -0.042 A 
ATOM      5  C5  UNL d   1      -1.428   0.430  -0.964  0.00  0.00     0.033 A 
ATOM      6  C6  UNL d   1      -1.141  -0.737  -1.679  0.00  0.00    -0.057 A 
ENDROOT
BRANCH   1   7
ATOM      7  N   UNL d   1       0.006  -2.832  -1.956  0.00  0.00    -0.732 N 
ATOM      8  C   UNL d   1      -0.823  -4.018  -1.965  0.00  0.00     0.284 C 
ATOM      9  H3  UNL d   1       0.335  -2.547  -2.875  0.00  0.00     0.395 HD
ENDBRANCH   1   7
TORSDOF 1
ENDMDL
