MODEL 1
REMARK minimizedAffinity -4.45574331
REMARK minimizedRMSD -1
REMARK  1 active torsions:
REMARK  status: ('A' for Active; 'I' for Inactive)
REMARK    1  A    between atoms: N_2  and  C1_3 
ROOT
ATOM      1  C1  UNL d   1       0.044  -0.550   0.214  0.00  0.00     0.143 A 
ATOM      2  C2  UNL d   1       1.146   0.217  -0.179  0.00  0.00    -0.057 A 
ATOM      3  C3  UNL d   1       1.077   1.615  -0.227  0.00  0.00     0.033 A 
ATOM      4  C4  UNL d   1      -0.108   2.271   0.090  0.00  0.00    -0.042 A 
ATOM      5  C5  UNL d   1      -1.223   1.527   0.460  0.00  0.00     0.033 A 
ATOM      6  C6  UNL d   1      -1.146   0.132   0.512  0.00  0.00    -0.057 A 
ENDROOT
BRANCH   1   7
ATOM      7  N   UNL d   1       0.019  -1.946   0.187  0.00  0.00    -0.732 N 
ATOM      8  C   UNL d   1      -0.083  -2.658  -1.069  0.00  0.00     0.284 C 
ATOM      9  H3  UNL d   1       0.675  -2.359   0.846  0.00  0.00     0.395 HD
ENDBRANCH   1   7
TORSDOF 1
ENDMDL
