MODEL 1
REMARK minimizedAffinity -4.48384953
REMARK minimizedRMSD -1
REMARK  1 active torsions:
REMARK  status: ('A' for Active; 'I' for Inactive)
REMARK    1  A    between atoms: N_2  and  C1_3 
ROOT
ATOM      1  C1  UNL d   1       0.736   2.414   0.758  0.00  0.00     0.143 A 
ATOM      2  C2  UNL d   1      -0.040   1.310   0.389  0.00  0.00    -0.057 A 
ATOM      3  C3  UNL d   1       0.505   0.020   0.350  0.00  0.00     0.033 A 
ATOM      4  C4  UNL d   1       1.847  -0.184   0.653  0.00  0.00    -0.042 A 
ATOM      5  C5  UNL d   1       2.643   0.902   0.999  0.00  0.00     0.033 A 
ATOM      6  C6  UNL d   1       2.092   2.186   1.042  0.00  0.00    -0.057 A 
ENDROOT
BRANCH   1   7
ATOM      7  N   UNL d   1       0.279   3.734   0.720  0.00  0.00    -0.732 N 
ATOM      8  C   UNL d   1       1.173   4.814   0.363  0.00  0.00     0.284 C 
ATOM      9  H3  UNL d   1      -0.650   3.811   0.313  0.00  0.00     0.395 HD
ENDBRANCH   1   7
TORSDOF 1
ENDMDL
