MODEL 1
REMARK minimizedAffinity -5.8088994
REMARK minimizedRMSD -1
REMARK  1 active torsions:
REMARK  status: ('A' for Active; 'I' for Inactive)
REMARK    1  A    between atoms: N_2  and  C1_3 
ROOT
ATOM      1  C1  UNL d   1       1.005   1.270  -0.180  0.00  0.00     0.143 A 
ATOM      2  C2  UNL d   1       0.013   2.248  -0.306  0.00  0.00    -0.057 A 
ATOM      3  C3  UNL d   1       0.315   3.609  -0.177  0.00  0.00     0.033 A 
ATOM      4  C4  UNL d   1       1.614   4.015   0.110  0.00  0.00    -0.042 A 
ATOM      5  C5  UNL d   1       2.611   3.059   0.265  0.00  0.00     0.033 A 
ATOM      6  C6  UNL d   1       2.304   1.702   0.128  0.00  0.00    -0.057 A 
ENDROOT
BRANCH   1   7
ATOM      7  N   UNL d   1       0.750  -0.104  -0.199  0.00  0.00    -0.732 N 
ATOM      8  C   UNL d   1      -0.296  -0.671   0.625  0.00  0.00     0.284 C 
ATOM      9  H3  UNL d   1       0.797  -0.494  -1.138  0.00  0.00     0.395 HD
ENDBRANCH   1   7
TORSDOF 1
ENDMDL
