MODEL 1
REMARK minimizedAffinity -4.43357468
REMARK minimizedRMSD -1
REMARK  1 active torsions:
REMARK  status: ('A' for Active; 'I' for Inactive)
REMARK    1  A    between atoms: N_2  and  C1_3 
ROOT
ATOM      1  C1  UNL d   1      -0.060  -0.522  -0.568  0.00  0.00     0.143 A 
ATOM      2  C2  UNL d   1      -0.740  -0.902   0.594  0.00  0.00    -0.057 A 
ATOM      3  C3  UNL d   1      -0.830  -2.246   0.976  0.00  0.00     0.033 A 
ATOM      4  C4  UNL d   1      -0.264  -3.240   0.184  0.00  0.00    -0.042 A 
ATOM      5  C5  UNL d   1       0.395  -2.888  -0.988  0.00  0.00     0.033 A 
ATOM      6  C6  UNL d   1       0.487  -1.543  -1.361  0.00  0.00    -0.057 A 
ENDROOT
BRANCH   1   7
ATOM      7  N   UNL d   1      -0.020   0.787  -1.053  0.00  0.00    -0.732 N 
ATOM      8  C   UNL d   1       0.258   1.895  -0.164  0.00  0.00     0.284 C 
ATOM      9  H3  UNL d   1       0.443   0.853  -1.957  0.00  0.00     0.395 HD
ENDBRANCH   1   7
TORSDOF 1
ENDMDL
