MODEL 1
REMARK minimizedAffinity 7.42906809
REMARK minimizedRMSD -1
REMARK  1 active torsions:
REMARK  status: ('A' for Active; 'I' for Inactive)
REMARK    1  A    between atoms: N_2  and  C1_3 
ROOT
ATOM      1  C1  UNL d   1       0.852   0.043  -2.430  0.00  0.00     0.143 A 
ATOM      2  C2  UNL d   1       2.022   0.345  -1.726  0.00  0.00    -0.057 A 
ATOM      3  C3  UNL d   1       1.992   0.629  -0.355  0.00  0.00     0.033 A 
ATOM      4  C4  UNL d   1       0.783   0.643   0.332  0.00  0.00    -0.042 A 
ATOM      5  C5  UNL d   1      -0.396   0.369  -0.353  0.00  0.00     0.033 A 
ATOM      6  C6  UNL d   1      -0.359   0.080  -1.720  0.00  0.00    -0.057 A 
ENDROOT
BRANCH   1   7
ATOM      7  N   UNL d   1       0.804  -0.151  -3.813  0.00  0.00    -0.732 N 
ATOM      8  C   UNL d   1       1.519  -1.248  -4.429  0.00  0.00     0.284 C 
ATOM      9  H3  UNL d   1      -0.126   0.007  -4.195  0.00  0.00     0.395 HD
ENDBRANCH   1   7
TORSDOF 1
ENDMDL
