MODEL 1
REMARK minimizedAffinity 3.49612474
REMARK minimizedRMSD -1
REMARK  1 active torsions:
REMARK  status: ('A' for Active; 'I' for Inactive)
REMARK    1  A    between atoms: N_2  and  C1_3 
ROOT
ATOM      1  C1  UNL d   1      -1.152  -0.429  -0.150  0.00  0.00     0.143 A 
ATOM      2  C2  UNL d   1      -1.270  -1.607  -0.895  0.00  0.00    -0.057 A 
ATOM      3  C3  UNL d   1      -1.694  -2.802  -0.301  0.00  0.00     0.033 A 
ATOM      4  C4  UNL d   1      -1.978  -2.847   1.059  0.00  0.00    -0.042 A 
ATOM      5  C5  UNL d   1      -1.843  -1.694   1.825  0.00  0.00     0.033 A 
ATOM      6  C6  UNL d   1      -1.427  -0.502   1.225  0.00  0.00    -0.057 A 
ENDROOT
BRANCH   1   7
ATOM      7  N   UNL d   1      -0.642   0.767  -0.661  0.00  0.00    -0.732 N 
ATOM      8  C   UNL d   1       0.003   1.726   0.210  0.00  0.00     0.284 C 
ATOM      9  H3  UNL d   1      -0.175   0.639  -1.556  0.00  0.00     0.395 HD
ENDBRANCH   1   7
TORSDOF 1
ENDMDL
