MODEL 1
REMARK minimizedAffinity -3.25386858
REMARK minimizedRMSD -1
REMARK  1 active torsions:
REMARK  status: ('A' for Active; 'I' for Inactive)
REMARK    1  A    between atoms: N_2  and  C1_3 
ROOT
ATOM      1  C1  UNL d   1      -0.014  -2.049  -0.884  0.00  0.00     0.143 A 
ATOM      2  C2  UNL d   1      -0.322  -0.708  -0.632  0.00  0.00    -0.057 A 
ATOM      3  C3  UNL d   1      -0.879  -0.308   0.589  0.00  0.00     0.033 A 
ATOM      4  C4  UNL d   1      -1.165  -1.250   1.571  0.00  0.00    -0.042 A 
ATOM      5  C5  UNL d   1      -0.891  -2.592   1.333  0.00  0.00     0.033 A 
ATOM      6  C6  UNL d   1      -0.328  -2.984   0.114  0.00  0.00    -0.057 A 
ENDROOT
BRANCH   1   7
ATOM      7  N   UNL d   1       0.450  -2.522  -2.114  0.00  0.00    -0.732 N 
ATOM      8  C   UNL d   1       0.117  -1.833  -3.342  0.00  0.00     0.284 C 
ATOM      9  H3  UNL d   1       1.413  -2.847  -2.068  0.00  0.00     0.395 HD
ENDBRANCH   1   7
TORSDOF 1
ENDMDL
