MODEL 1
REMARK minimizedAffinity 3.35941434
REMARK minimizedRMSD -1
REMARK  1 active torsions:
REMARK  status: ('A' for Active; 'I' for Inactive)
REMARK    1  A    between atoms: N_2  and  C1_3 
ROOT
ATOM      1  C1  UNL d   1      -1.154  -0.318   0.313  0.00  0.00     0.143 A 
ATOM      2  C2  UNL d   1      -1.143  -1.717   0.331  0.00  0.00    -0.057 A 
ATOM      3  C3  UNL d   1      -1.629  -2.433   1.431  0.00  0.00     0.033 A 
ATOM      4  C4  UNL d   1      -2.111  -1.760   2.549  0.00  0.00    -0.042 A 
ATOM      5  C5  UNL d   1      -2.109  -0.369   2.563  0.00  0.00     0.033 A 
ATOM      6  C6  UNL d   1      -1.627   0.340   1.459  0.00  0.00    -0.057 A 
ENDROOT
BRANCH   1   7
ATOM      7  N   UNL d   1      -0.593   0.451  -0.710  0.00  0.00    -0.732 N 
ATOM      8  C   UNL d   1       0.406  -0.112  -1.592  0.00  0.00     0.284 C 
ATOM      9  H3  UNL d   1      -1.282   1.033  -1.180  0.00  0.00     0.395 HD
ENDBRANCH   1   7
TORSDOF 1
ENDMDL
