MODEL 1
REMARK minimizedAffinity -3.34990954
REMARK minimizedRMSD -1
REMARK  1 active torsions:
REMARK  status: ('A' for Active; 'I' for Inactive)
REMARK    1  A    between atoms: N_2  and  C1_3 
ROOT
ATOM      1  C1  UNL d   1       0.807   3.388   1.973  0.00  0.00     0.143 A 
ATOM      2  C2  UNL d   1      -0.095   2.882   1.030  0.00  0.00    -0.057 A 
ATOM      3  C3  UNL d   1       0.330   2.497  -0.247  0.00  0.00     0.033 A 
ATOM      4  C4  UNL d   1       1.663   2.638  -0.615  0.00  0.00    -0.042 A 
ATOM      5  C5  UNL d   1       2.573   3.162   0.297  0.00  0.00     0.033 A 
ATOM      6  C6  UNL d   1       2.144   3.539   1.573  0.00  0.00    -0.057 A 
ENDROOT
BRANCH   1   7
ATOM      7  N   UNL d   1       0.429   3.881   3.224  0.00  0.00    -0.732 N 
ATOM      8  C   UNL d   1      -0.250   5.153   3.342  0.00  0.00     0.284 C 
ATOM      9  H3  UNL d   1       0.058   3.154   3.832  0.00  0.00     0.395 HD
ENDBRANCH   1   7
TORSDOF 1
ENDMDL
