MODEL 1
REMARK minimizedAffinity -5.0007472
REMARK minimizedRMSD -1
REMARK  1 active torsions:
REMARK  status: ('A' for Active; 'I' for Inactive)
REMARK    1  A    between atoms: N_2  and  C1_3 
ROOT
ATOM      1  C1  UNL d   1       0.429   3.670   2.109  0.00  0.00     0.143 A 
ATOM      2  C2  UNL d   1      -0.307   2.957   1.157  0.00  0.00    -0.057 A 
ATOM      3  C3  UNL d   1       0.244   2.622  -0.086  0.00  0.00     0.033 A 
ATOM      4  C4  UNL d   1       1.536   3.021  -0.411  0.00  0.00    -0.042 A 
ATOM      5  C5  UNL d   1       2.278   3.753   0.510  0.00  0.00     0.033 A 
ATOM      6  C6  UNL d   1       1.724   4.078   1.752  0.00  0.00    -0.057 A 
ENDROOT
BRANCH   1   7
ATOM      7  N   UNL d   1      -0.097   4.118   3.323  0.00  0.00    -0.732 N 
ATOM      8  C   UNL d   1      -0.922   5.306   3.375  0.00  0.00     0.284 C 
ATOM      9  H3  UNL d   1      -0.429   3.355   3.908  0.00  0.00     0.395 HD
ENDBRANCH   1   7
TORSDOF 1
ENDMDL
