MODEL 1
REMARK minimizedAffinity -4.04522085
REMARK minimizedRMSD -1
REMARK  1 active torsions:
REMARK  status: ('A' for Active; 'I' for Inactive)
REMARK    1  A    between atoms: N_2  and  C1_3 
ROOT
ATOM      1  C1  UNL d   1      -0.119  -1.103  -0.814  0.00  0.00     0.143 A 
ATOM      2  C2  UNL d   1      -0.725  -0.072  -0.088  0.00  0.00    -0.057 A 
ATOM      3  C3  UNL d   1      -1.277  -0.302   1.178  0.00  0.00     0.033 A 
ATOM      4  C4  UNL d   1      -1.258  -1.578   1.730  0.00  0.00    -0.042 A 
ATOM      5  C5  UNL d   1      -0.683  -2.624   1.016  0.00  0.00     0.033 A 
ATOM      6  C6  UNL d   1      -0.128  -2.387  -0.245  0.00  0.00    -0.057 A 
ENDROOT
BRANCH   1   7
ATOM      7  N   UNL d   1       0.359  -0.960  -2.119  0.00  0.00    -0.732 N 
ATOM      8  C   UNL d   1       0.390  -2.090  -3.021  0.00  0.00     0.284 C 
ATOM      9  H3  UNL d   1       0.054  -0.091  -2.551  0.00  0.00     0.395 HD
ENDBRANCH   1   7
TORSDOF 1
ENDMDL
