MODEL 1
REMARK minimizedAffinity -2.67076135
REMARK minimizedRMSD -1
REMARK  1 active torsions:
REMARK  status: ('A' for Active; 'I' for Inactive)
REMARK    1  A    between atoms: N_2  and  C1_3 
ROOT
ATOM      1  C1  UNL d   1      -0.730  -0.050  -0.276  0.00  0.00     0.143 A 
ATOM      2  C2  UNL d   1      -1.082  -1.401  -0.353  0.00  0.00    -0.057 A 
ATOM      3  C3  UNL d   1      -1.415  -2.131   0.794  0.00  0.00     0.033 A 
ATOM      4  C4  UNL d   1      -1.372  -1.528   2.047  0.00  0.00    -0.042 A 
ATOM      5  C5  UNL d   1      -1.000  -0.192   2.150  0.00  0.00     0.033 A 
ATOM      6  C6  UNL d   1      -0.676   0.534   1.000  0.00  0.00    -0.057 A 
ENDROOT
BRANCH   1   7
ATOM      7  N   UNL d   1      -0.293   0.704  -1.369  0.00  0.00    -0.732 N 
ATOM      8  C   UNL d   1       0.156   0.053  -2.581  0.00  0.00     0.284 C 
ATOM      9  H3  UNL d   1      -0.870   1.527  -1.528  0.00  0.00     0.395 HD
ENDBRANCH   1   7
TORSDOF 1
ENDMDL
