MODEL 1
REMARK minimizedAffinity -0.669175088
REMARK minimizedRMSD -1
REMARK  1 active torsions:
REMARK  status: ('A' for Active; 'I' for Inactive)
REMARK    1  A    between atoms: N_2  and  C1_3 
ROOT
ATOM      1  C1  UNL d   1      -1.895   0.093   0.930  0.00  0.00     0.143 A 
ATOM      2  C2  UNL d   1      -1.540  -0.361  -0.345  0.00  0.00    -0.057 A 
ATOM      3  C3  UNL d   1      -0.464   0.202  -1.043  0.00  0.00     0.033 A 
ATOM      4  C4  UNL d   1       0.260   1.252  -0.488  0.00  0.00    -0.042 A 
ATOM      5  C5  UNL d   1      -0.091   1.737   0.767  0.00  0.00     0.033 A 
ATOM      6  C6  UNL d   1      -1.162   1.166   1.462  0.00  0.00    -0.057 A 
ENDROOT
BRANCH   1   7
ATOM      7  N   UNL d   1      -3.014  -0.358   1.632  0.00  0.00    -0.732 N 
ATOM      8  C   UNL d   1      -3.650   0.482   2.624  0.00  0.00     0.284 C 
ATOM      9  H3  UNL d   1      -3.666  -0.867   1.039  0.00  0.00     0.395 HD
ENDBRANCH   1   7
TORSDOF 1
ENDMDL
