MODEL 1
REMARK minimizedAffinity -4.94443226
REMARK minimizedRMSD -1
REMARK  1 active torsions:
REMARK  status: ('A' for Active; 'I' for Inactive)
REMARK    1  A    between atoms: N_2  and  C1_3 
ROOT
ATOM      1  C1  UNL d   1      -0.150  -0.410  -0.282  0.00  0.00     0.143 A 
ATOM      2  C2  UNL d   1      -0.460  -1.232   0.807  0.00  0.00    -0.057 A 
ATOM      3  C3  UNL d   1      -0.505  -2.625   0.675  0.00  0.00     0.033 A 
ATOM      4  C4  UNL d   1      -0.267  -3.222  -0.559  0.00  0.00    -0.042 A 
ATOM      5  C5  UNL d   1       0.018  -2.423  -1.660  0.00  0.00     0.033 A 
ATOM      6  C6  UNL d   1       0.068  -1.033  -1.521  0.00  0.00    -0.057 A 
ENDROOT
BRANCH   1   7
ATOM      7  N   UNL d   1      -0.186   0.986  -0.239  0.00  0.00    -0.732 N 
ATOM      8  C   UNL d   1       0.966   1.740   0.206  0.00  0.00     0.284 C 
ATOM      9  H3  UNL d   1      -0.660   1.387  -1.045  0.00  0.00     0.395 HD
ENDBRANCH   1   7
TORSDOF 1
ENDMDL
