MODEL 1
REMARK minimizedAffinity -4.01558971
REMARK minimizedRMSD -1
REMARK  1 active torsions:
REMARK  status: ('A' for Active; 'I' for Inactive)
REMARK    1  A    between atoms: N_2  and  C1_3 
ROOT
ATOM      1  C1  UNL d   1       0.105  -1.968  -0.439  0.00  0.00     0.143 A 
ATOM      2  C2  UNL d   1       0.124  -0.577  -0.580  0.00  0.00    -0.057 A 
ATOM      3  C3  UNL d   1      -0.537   0.254   0.333  0.00  0.00     0.033 A 
ATOM      4  C4  UNL d   1      -1.255  -0.296   1.390  0.00  0.00    -0.042 A 
ATOM      5  C5  UNL d   1      -1.308  -1.678   1.535  0.00  0.00     0.033 A 
ATOM      6  C6  UNL d   1      -0.640  -2.502   0.624  0.00  0.00    -0.057 A 
ENDROOT
BRANCH   1   7
ATOM      7  N   UNL d   1       0.660  -2.851  -1.369  0.00  0.00    -0.732 N 
ATOM      8  C   UNL d   1       0.755  -2.487  -2.766  0.00  0.00     0.284 C 
ATOM      9  H3  UNL d   1       1.482  -3.330  -1.007  0.00  0.00     0.395 HD
ENDBRANCH   1   7
TORSDOF 1
ENDMDL
