MODEL 1
REMARK minimizedAffinity -3.70499444
REMARK minimizedRMSD -1
REMARK  1 active torsions:
REMARK  status: ('A' for Active; 'I' for Inactive)
REMARK    1  A    between atoms: N_2  and  C1_3 
ROOT
ATOM      1  C1  UNL d   1      -0.043  -2.485  -0.648  0.00  0.00     0.143 A 
ATOM      2  C2  UNL d   1       0.473  -1.189  -0.759  0.00  0.00    -0.057 A 
ATOM      3  C3  UNL d   1       0.259  -0.235   0.243  0.00  0.00     0.033 A 
ATOM      4  C4  UNL d   1      -0.502  -0.552   1.363  0.00  0.00    -0.042 A 
ATOM      5  C5  UNL d   1      -1.046  -1.826   1.482  0.00  0.00     0.033 A 
ATOM      6  C6  UNL d   1      -0.823  -2.777   0.482  0.00  0.00    -0.057 A 
ENDROOT
BRANCH   1   7
ATOM      7  N   UNL d   1       0.052  -3.448  -1.656  0.00  0.00    -0.732 N 
ATOM      8  C   UNL d   1       0.499  -3.085  -2.983  0.00  0.00     0.284 C 
ATOM      9  H3  UNL d   1       0.431  -4.329  -1.316  0.00  0.00     0.395 HD
ENDBRANCH   1   7
TORSDOF 1
ENDMDL
