MODEL 1
REMARK minimizedAffinity 2.68202186
REMARK minimizedRMSD -1
REMARK  1 active torsions:
REMARK  status: ('A' for Active; 'I' for Inactive)
REMARK    1  A    between atoms: N_2  and  C1_3 
ROOT
ATOM      1  C1  UNL d   1       0.511   5.258   2.103  0.00  0.00     0.143 A 
ATOM      2  C2  UNL d   1       0.359   5.325   0.714  0.00  0.00    -0.057 A 
ATOM      3  C3  UNL d   1       1.227   4.640  -0.146  0.00  0.00     0.033 A 
ATOM      4  C4  UNL d   1       2.284   3.897   0.371  0.00  0.00    -0.042 A 
ATOM      5  C5  UNL d   1       2.469   3.838   1.747  0.00  0.00     0.033 A 
ATOM      6  C6  UNL d   1       1.595   4.518   2.600  0.00  0.00    -0.057 A 
ENDROOT
BRANCH   1   7
ATOM      7  N   UNL d   1      -0.259   5.996   3.006  0.00  0.00    -0.732 N 
ATOM      8  C   UNL d   1       0.058   5.994   4.418  0.00  0.00     0.284 C 
ATOM      9  H3  UNL d   1      -0.519   6.909   2.639  0.00  0.00     0.395 HD
ENDBRANCH   1   7
TORSDOF 1
ENDMDL
