MODEL 1
REMARK minimizedAffinity -2.10131049
REMARK minimizedRMSD -1
REMARK  1 active torsions:
REMARK  status: ('A' for Active; 'I' for Inactive)
REMARK    1  A    between atoms: N_2  and  C1_3 
ROOT
ATOM      1  C1  UNL d   1      -0.337   0.139   0.120  0.00  0.00     0.143 A 
ATOM      2  C2  UNL d   1      -1.160   0.081   1.249  0.00  0.00    -0.057 A 
ATOM      3  C3  UNL d   1      -1.524  -1.144   1.821  0.00  0.00     0.033 A 
ATOM      4  C4  UNL d   1      -1.093  -2.338   1.253  0.00  0.00    -0.042 A 
ATOM      5  C5  UNL d   1      -0.294  -2.306   0.116  0.00  0.00     0.033 A 
ATOM      6  C6  UNL d   1       0.071  -1.079  -0.447  0.00  0.00    -0.057 A 
ENDROOT
BRANCH   1   7
ATOM      7  N   UNL d   1      -0.021   1.322  -0.553  0.00  0.00    -0.732 N 
ATOM      8  C   UNL d   1       0.174   2.556   0.177  0.00  0.00     0.284 C 
ATOM      9  H3  UNL d   1       0.649   1.174  -1.305  0.00  0.00     0.395 HD
ENDBRANCH   1   7
TORSDOF 1
ENDMDL
