MODEL 1
REMARK minimizedAffinity -4.31183577
REMARK minimizedRMSD -1
REMARK  2 active torsions:
REMARK  status: ('A' for Active; 'I' for Inactive)
REMARK    1  A    between atoms: C2'_3  and  C1'_4 
REMARK    2  A    between atoms: C1'_4  and  C1_5 
ROOT
ATOM      1  C1  I4B d   1       0.715  -0.845  -0.247  0.00  0.00    -0.075 A 
ATOM      2  C2  I4B d   1      -0.050   0.186  -0.732  0.00  0.00     0.003 A 
ATOM      3  C3  I4B d   1      -0.944   0.874   0.124  0.00  0.00     0.002 A 
ATOM      4  C4  I4B d   1      -1.078   0.467   1.436  0.00  0.00    -0.004 A 
ATOM      5  C5  I4B d   1      -0.285  -0.564   1.931  0.00  0.00     0.002 A 
ATOM      6  C6  I4B d   1       0.626  -1.217   1.088  0.00  0.00     0.003 A 
ENDROOT
BRANCH   1   7
ATOM      7  C1' I4B d   1       1.625  -1.571  -1.186  0.00  0.00     0.060 C 
BRANCH   7   8
ATOM      8  C2' I4B d   1       0.945  -2.865  -1.588  0.00  0.00    -0.013 C 
ATOM      9  C4' I4B d   1       0.656  -2.893  -3.066  0.00  0.00     0.013 C 
ATOM     10  C3' I4B d   1       1.839  -4.001  -1.189  0.00  0.00     0.013 C 
ENDBRANCH   7   8
ENDBRANCH   1   7
TORSDOF 2
ENDMDL
