MODEL 1
REMARK minimizedAffinity -4.28385782
REMARK minimizedRMSD -1
REMARK  2 active torsions:
REMARK  status: ('A' for Active; 'I' for Inactive)
REMARK    1  A    between atoms: C2'_3  and  C1'_4 
REMARK    2  A    between atoms: C1'_4  and  C1_5 
ROOT
ATOM      1  C1  I4B d   1       0.678  -0.360  -0.630  0.00  0.00    -0.075 A 
ATOM      2  C2  I4B d   1       0.609   0.887  -1.198  0.00  0.00     0.003 A 
ATOM      3  C3  I4B d   1      -0.146   1.912  -0.577  0.00  0.00     0.002 A 
ATOM      4  C4  I4B d   1      -0.852   1.633   0.575  0.00  0.00    -0.004 A 
ATOM      5  C5  I4B d   1      -0.763   0.374   1.162  0.00  0.00     0.002 A 
ATOM      6  C6  I4B d   1       0.017  -0.626   0.562  0.00  0.00     0.003 A 
ENDROOT
BRANCH   1   7
ATOM      7  C1' I4B d   1       1.457  -1.428  -1.330  0.00  0.00     0.060 C 
BRANCH   7   8
ATOM      8  C2' I4B d   1       0.541  -2.618  -1.533  0.00  0.00    -0.013 C 
ATOM      9  C4' I4B d   1       0.311  -2.884  -2.998  0.00  0.00     0.013 C 
ATOM     10  C3' I4B d   1       1.164  -3.803  -0.859  0.00  0.00     0.013 C 
ENDBRANCH   7   8
ENDBRANCH   1   7
TORSDOF 2
ENDMDL
