MODEL 1
REMARK minimizedAffinity -2.56104302
REMARK minimizedRMSD -1
REMARK  2 active torsions:
REMARK  status: ('A' for Active; 'I' for Inactive)
REMARK    1  A    between atoms: C2'_3  and  C1'_4 
REMARK    2  A    between atoms: C1'_4  and  C1_5 
ROOT
ATOM      1  C1  I4B d   1      -0.602   0.398   0.506  0.00  0.00    -0.075 A 
ATOM      2  C2  I4B d   1       0.415   0.713  -0.361  0.00  0.00     0.003 A 
ATOM      3  C3  I4B d   1       0.438   1.975  -1.004  0.00  0.00     0.002 A 
ATOM      4  C4  I4B d   1      -0.595   2.865  -0.791  0.00  0.00    -0.004 A 
ATOM      5  C5  I4B d   1      -1.613   2.552   0.106  0.00  0.00     0.002 A 
ATOM      6  C6  I4B d   1      -1.610   1.316   0.768  0.00  0.00     0.003 A 
ENDROOT
BRANCH   1   7
ATOM      7  C1' I4B d   1      -0.612  -0.956   1.141  0.00  0.00     0.060 C 
BRANCH   7   8
ATOM      8  C2' I4B d   1       0.145  -0.863   2.450  0.00  0.00    -0.013 C 
ATOM      9  C4' I4B d   1       0.157   0.548   2.974  0.00  0.00     0.013 C 
ATOM     10  C3' I4B d   1      -0.503  -1.798   3.427  0.00  0.00     0.013 C 
ENDBRANCH   7   8
ENDBRANCH   1   7
TORSDOF 2
ENDMDL
