MODEL 1
REMARK minimizedAffinity -2.42480826
REMARK minimizedRMSD -1
REMARK  2 active torsions:
REMARK  status: ('A' for Active; 'I' for Inactive)
REMARK    1  A    between atoms: C2'_3  and  C1'_4 
REMARK    2  A    between atoms: C1'_4  and  C1_5 
ROOT
ATOM      1  C1  I4B d   1       0.399  -0.662  -0.502  0.00  0.00    -0.075 A 
ATOM      2  C2  I4B d   1      -0.326   0.427  -0.918  0.00  0.00     0.003 A 
ATOM      3  C3  I4B d   1      -1.104   1.162   0.010  0.00  0.00     0.002 A 
ATOM      4  C4  I4B d   1      -1.167   0.746   1.324  0.00  0.00    -0.004 A 
ATOM      5  C5  I4B d   1      -0.413  -0.345   1.748  0.00  0.00     0.002 A 
ATOM      6  C6  I4B d   1       0.385  -1.046   0.832  0.00  0.00     0.003 A 
ENDROOT
BRANCH   1   7
ATOM      7  C1' I4B d   1       1.183  -1.435  -1.515  0.00  0.00     0.060 C 
BRANCH   7   8
ATOM      8  C2' I4B d   1       0.930  -2.909  -1.275  0.00  0.00    -0.013 C 
ATOM      9  C4' I4B d   1      -0.157  -3.430  -2.178  0.00  0.00     0.013 C 
ATOM     10  C3' I4B d   1       2.219  -3.642  -1.500  0.00  0.00     0.013 C 
ENDBRANCH   7   8
ENDBRANCH   1   7
TORSDOF 2
ENDMDL
