MODEL 1
REMARK minimizedAffinity -3.69595695
REMARK minimizedRMSD -1
REMARK  2 active torsions:
REMARK  status: ('A' for Active; 'I' for Inactive)
REMARK    1  A    between atoms: C2'_3  and  C1'_4 
REMARK    2  A    between atoms: C1'_4  and  C1_5 
ROOT
ATOM      1  C1  I4B d   1       0.056   0.017  -0.269  0.00  0.00    -0.075 A 
ATOM      2  C2  I4B d   1       0.322  -0.584   0.936  0.00  0.00     0.003 A 
ATOM      3  C3  I4B d   1      -0.315  -0.128   2.116  0.00  0.00     0.002 A 
ATOM      4  C4  I4B d   1      -1.165   0.957   2.054  0.00  0.00    -0.004 A 
ATOM      5  C5  I4B d   1      -1.451   1.550   0.828  0.00  0.00     0.002 A 
ATOM      6  C6  I4B d   1      -0.846   1.070  -0.343  0.00  0.00     0.003 A 
ENDROOT
BRANCH   1   7
ATOM      7  C1' I4B d   1       0.771  -0.468  -1.490  0.00  0.00     0.060 C 
BRANCH   7   8
ATOM      8  C2' I4B d   1       0.323  -1.890  -1.759  0.00  0.00    -0.013 C 
ATOM      9  C4' I4B d   1       0.053  -2.109  -3.224  0.00  0.00     0.013 C 
ATOM     10  C3' I4B d   1       1.394  -2.815  -1.261  0.00  0.00     0.013 C 
ENDBRANCH   7   8
ENDBRANCH   1   7
TORSDOF 2
ENDMDL
