MODEL 1
REMARK minimizedAffinity -4.73351479
REMARK minimizedRMSD -1
REMARK  2 active torsions:
REMARK  status: ('A' for Active; 'I' for Inactive)
REMARK    1  A    between atoms: C2'_3  and  C1'_4 
REMARK    2  A    between atoms: C1'_4  and  C1_5 
ROOT
ATOM      1  C1  I4B d   1      -0.667   0.755  -0.454  0.00  0.00    -0.075 A 
ATOM      2  C2  I4B d   1       0.043   1.737  -1.100  0.00  0.00     0.003 A 
ATOM      3  C3  I4B d   1       1.385   1.507  -1.489  0.00  0.00     0.002 A 
ATOM      4  C4  I4B d   1       1.989   0.309  -1.170  0.00  0.00    -0.004 A 
ATOM      5  C5  I4B d   1       1.262  -0.693  -0.535  0.00  0.00     0.002 A 
ATOM      6  C6  I4B d   1      -0.079  -0.474  -0.186  0.00  0.00     0.003 A 
ENDROOT
BRANCH   1   7
ATOM      7  C1' I4B d   1      -2.071   1.043  -0.028  0.00  0.00     0.060 C 
BRANCH   7   8
ATOM      8  C2' I4B d   1      -2.016   1.786   1.292  0.00  0.00    -0.013 C 
ATOM      9  C4' I4B d   1      -0.970   1.200   2.204  0.00  0.00     0.013 C 
ATOM     10  C3' I4B d   1      -1.733   3.229   1.000  0.00  0.00     0.013 C 
ENDBRANCH   7   8
ENDBRANCH   1   7
TORSDOF 2
ENDMDL
