MODEL 1
REMARK minimizedAffinity -5.31153679
REMARK minimizedRMSD -1
REMARK  2 active torsions:
REMARK  status: ('A' for Active; 'I' for Inactive)
REMARK    1  A    between atoms: C2'_3  and  C1'_4 
REMARK    2  A    between atoms: C1'_4  and  C1_5 
ROOT
ATOM      1  C1  I4B d   1      -0.760   0.708   0.024  0.00  0.00    -0.075 A 
ATOM      2  C2  I4B d   1      -0.977   0.632   1.377  0.00  0.00     0.003 A 
ATOM      3  C3  I4B d   1      -1.204   1.810   2.130  0.00  0.00     0.002 A 
ATOM      4  C4  I4B d   1      -1.154   3.038   1.503  0.00  0.00    -0.004 A 
ATOM      5  C5  I4B d   1      -0.956   3.112   0.127  0.00  0.00     0.002 A 
ATOM      6  C6  I4B d   1      -0.770   1.939  -0.620  0.00  0.00     0.003 A 
ENDROOT
BRANCH   1   7
ATOM      7  C1' I4B d   1      -0.492  -0.552  -0.735  0.00  0.00     0.060 C 
BRANCH   7   8
ATOM      8  C2' I4B d   1       0.958  -0.931  -0.513  0.00  0.00    -0.013 C 
ATOM      9  C4' I4B d   1       1.250  -2.309  -1.048  0.00  0.00     0.013 C 
ATOM     10  C3' I4B d   1       1.814   0.102  -1.184  0.00  0.00     0.013 C 
ENDBRANCH   7   8
ENDBRANCH   1   7
TORSDOF 2
ENDMDL
