MODEL 1
REMARK minimizedAffinity -3.21712208
REMARK minimizedRMSD -1
REMARK  2 active torsions:
REMARK  status: ('A' for Active; 'I' for Inactive)
REMARK    1  A    between atoms: C2'_3  and  C1'_4 
REMARK    2  A    between atoms: C1'_4  and  C1_5 
ROOT
ATOM      1  C1  I4B d   1       0.701  -1.358  -1.215  0.00  0.00    -0.075 A 
ATOM      2  C2  I4B d   1       1.105  -2.646  -0.966  0.00  0.00     0.003 A 
ATOM      3  C3  I4B d   1       0.874  -3.663  -1.924  0.00  0.00     0.002 A 
ATOM      4  C4  I4B d   1       0.195  -3.360  -3.086  0.00  0.00    -0.004 A 
ATOM      5  C5  I4B d   1      -0.194  -2.049  -3.347  0.00  0.00     0.002 A 
ATOM      6  C6  I4B d   1       0.072  -1.039  -2.411  0.00  0.00     0.003 A 
ENDROOT
BRANCH   1   7
ATOM      7  C1' I4B d   1       0.932  -0.315  -0.168  0.00  0.00     0.060 C 
BRANCH   7   8
ATOM      8  C2' I4B d   1      -0.109  -0.504   0.917  0.00  0.00    -0.013 C 
ATOM      9  C4' I4B d   1       0.522  -0.967   2.204  0.00  0.00     0.013 C 
ATOM     10  C3' I4B d   1      -0.825   0.800   1.104  0.00  0.00     0.013 C 
ENDBRANCH   7   8
ENDBRANCH   1   7
TORSDOF 2
ENDMDL
