MODEL 1
REMARK minimizedAffinity -5.41378784
REMARK minimizedRMSD -1
REMARK  2 active torsions:
REMARK  status: ('A' for Active; 'I' for Inactive)
REMARK    1  A    between atoms: C2'_3  and  C1'_4 
REMARK    2  A    between atoms: C1'_4  and  C1_5 
ROOT
ATOM      1  C1  I4B d   1       0.280  -0.708  -0.671  0.00  0.00    -0.075 A 
ATOM      2  C2  I4B d   1      -0.889  -1.232  -0.178  0.00  0.00     0.003 A 
ATOM      3  C3  I4B d   1      -1.848  -0.386   0.429  0.00  0.00     0.002 A 
ATOM      4  C4  I4B d   1      -1.577   0.960   0.566  0.00  0.00    -0.004 A 
ATOM      5  C5  I4B d   1      -0.401   1.493   0.045  0.00  0.00     0.002 A 
ATOM      6  C6  I4B d   1       0.528   0.656  -0.589  0.00  0.00     0.003 A 
ENDROOT
BRANCH   1   7
ATOM      7  C1' I4B d   1       1.286  -1.636  -1.277  0.00  0.00     0.060 C 
BRANCH   7   8
ATOM      8  C2' I4B d   1       0.550  -2.863  -1.774  0.00  0.00    -0.013 C 
ATOM      9  C4' I4B d   1       0.565  -2.936  -3.278  0.00  0.00     0.013 C 
ATOM     10  C3' I4B d   1       1.200  -4.070  -1.167  0.00  0.00     0.013 C 
ENDBRANCH   7   8
ENDBRANCH   1   7
TORSDOF 2
ENDMDL
