MODEL 1
REMARK minimizedAffinity -4.76296759
REMARK minimizedRMSD -1
REMARK  2 active torsions:
REMARK  status: ('A' for Active; 'I' for Inactive)
REMARK    1  A    between atoms: C2'_3  and  C1'_4 
REMARK    2  A    between atoms: C1'_4  and  C1_5 
ROOT
ATOM      1  C1  I4B d   1      -0.506  -0.295   0.778  0.00  0.00    -0.075 A 
ATOM      2  C2  I4B d   1      -0.204   0.022   2.079  0.00  0.00     0.003 A 
ATOM      3  C3  I4B d   1      -0.673   1.232   2.646  0.00  0.00     0.002 A 
ATOM      4  C4  I4B d   1      -1.393   2.113   1.865  0.00  0.00    -0.004 A 
ATOM      5  C5  I4B d   1      -1.717   1.780   0.553  0.00  0.00     0.002 A 
ATOM      6  C6  I4B d   1      -1.282   0.563   0.010  0.00  0.00     0.003 A 
ENDROOT
BRANCH   1   7
ATOM      7  C1' I4B d   1       0.034  -1.566   0.202  0.00  0.00     0.060 C 
BRANCH   7   8
ATOM      8  C2' I4B d   1       0.646  -1.244  -1.146  0.00  0.00    -0.013 C 
ATOM      9  C4' I4B d   1       1.819  -0.311  -1.004  0.00  0.00     0.013 C 
ATOM     10  C3' I4B d   1       1.056  -2.535  -1.788  0.00  0.00     0.013 C 
ENDBRANCH   7   8
ENDBRANCH   1   7
TORSDOF 2
ENDMDL
