MODEL 1
REMARK minimizedAffinity -3.88483596
REMARK minimizedRMSD -1
REMARK  2 active torsions:
REMARK  status: ('A' for Active; 'I' for Inactive)
REMARK    1  A    between atoms: C2'_3  and  C1'_4 
REMARK    2  A    between atoms: C1'_4  and  C1_5 
ROOT
ATOM      1  C1  I4B d   1       0.329   0.069  -0.265  0.00  0.00    -0.075 A 
ATOM      2  C2  I4B d   1       0.669   0.329   1.039  0.00  0.00     0.003 A 
ATOM      3  C3  I4B d   1      -0.190   1.100   1.859  0.00  0.00     0.002 A 
ATOM      4  C4  I4B d   1      -1.346   1.629   1.324  0.00  0.00    -0.004 A 
ATOM      5  C5  I4B d   1      -1.701   1.344   0.008  0.00  0.00     0.002 A 
ATOM      6  C6  I4B d   1      -0.864   0.549  -0.788  0.00  0.00     0.003 A 
ENDROOT
BRANCH   1   7
ATOM      7  C1' I4B d   1       1.276  -0.721  -1.113  0.00  0.00     0.060 C 
BRANCH   7   8
ATOM      8  C2' I4B d   1       0.751  -2.139  -1.201  0.00  0.00    -0.013 C 
ATOM      9  C4' I4B d   1       0.343  -2.483  -2.609  0.00  0.00     0.013 C 
ATOM     10  C3' I4B d   1       1.826  -3.062  -0.708  0.00  0.00     0.013 C 
ENDBRANCH   7   8
ENDBRANCH   1   7
TORSDOF 2
ENDMDL
