MODEL 1
REMARK minimizedAffinity -2.33140254
REMARK minimizedRMSD -1
REMARK  2 active torsions:
REMARK  status: ('A' for Active; 'I' for Inactive)
REMARK    1  A    between atoms: C2'_3  and  C1'_4 
REMARK    2  A    between atoms: C1'_4  and  C1_5 
ROOT
ATOM      1  C1  I4B d   1       0.354  -0.733  -0.415  0.00  0.00    -0.075 A 
ATOM      2  C2  I4B d   1      -0.336   0.333  -0.935  0.00  0.00     0.003 A 
ATOM      3  C3  I4B d   1      -1.059   1.200  -0.080  0.00  0.00     0.002 A 
ATOM      4  C4  I4B d   1      -1.106   0.936   1.273  0.00  0.00    -0.004 A 
ATOM      5  C5  I4B d   1      -0.388  -0.132   1.802  0.00  0.00     0.002 A 
ATOM      6  C6  I4B d   1       0.357  -0.965   0.955  0.00  0.00     0.003 A 
ENDROOT
BRANCH   1   7
ATOM      7  C1' I4B d   1       1.079  -1.648  -1.350  0.00  0.00     0.060 C 
BRANCH   7   8
ATOM      8  C2' I4B d   1       0.060  -2.572  -1.984  0.00  0.00    -0.013 C 
ATOM      9  C4' I4B d   1       0.174  -2.561  -3.486  0.00  0.00     0.013 C 
ATOM     10  C3' I4B d   1       0.278  -3.950  -1.434  0.00  0.00     0.013 C 
ENDBRANCH   7   8
ENDBRANCH   1   7
TORSDOF 2
ENDMDL
