MODEL 1
REMARK minimizedAffinity -5.15074205
REMARK minimizedRMSD -1
REMARK  2 active torsions:
REMARK  status: ('A' for Active; 'I' for Inactive)
REMARK    1  A    between atoms: C2'_3  and  C1'_4 
REMARK    2  A    between atoms: C1'_4  and  C1_5 
ROOT
ATOM      1  C1  I4B d   1      -0.853   0.523  -0.205  0.00  0.00    -0.075 A 
ATOM      2  C2  I4B d   1      -0.426   1.676  -0.814  0.00  0.00     0.003 A 
ATOM      3  C3  I4B d   1       0.866   1.742  -1.391  0.00  0.00     0.002 A 
ATOM      4  C4  I4B d   1       1.711   0.655  -1.291  0.00  0.00    -0.004 A 
ATOM      5  C5  I4B d   1       1.268  -0.521  -0.693  0.00  0.00     0.002 A 
ATOM      6  C6  I4B d   1      -0.026  -0.593  -0.157  0.00  0.00     0.003 A 
ENDROOT
BRANCH   1   7
ATOM      7  C1' I4B d   1      -2.210   0.499   0.422  0.00  0.00     0.060 C 
BRANCH   7   8
ATOM      8  C2' I4B d   1      -2.147   1.305   1.704  0.00  0.00    -0.013 C 
ATOM      9  C4' I4B d   1      -0.913   0.969   2.498  0.00  0.00     0.013 C 
ATOM     10  C3' I4B d   1      -2.176   2.759   1.338  0.00  0.00     0.013 C 
ENDBRANCH   7   8
ENDBRANCH   1   7
TORSDOF 2
ENDMDL
