MODEL 1
REMARK minimizedAffinity 18.4093323
REMARK minimizedRMSD -1
REMARK  3 active torsions:
REMARK  status: ('A' for Active; 'I' for Inactive)
REMARK    1  A    between atoms: C3'_2  and  C2'_3 
REMARK    2  A    between atoms: C2'_3  and  C1'_4 
REMARK    3  A    between atoms: C1'_4  and  C1_5 
ROOT
ATOM      1  C1  N4B d   1       3.711  -0.518  -4.390  0.00  0.00    -0.075 A 
ATOM      2  C2  N4B d   1       4.013   0.815  -4.748  0.00  0.00     0.002 A 
ATOM      3  C3  N4B d   1       5.092   1.082  -5.554  0.00  0.00     0.002 A 
ATOM      4  C4  N4B d   1       5.891   0.039  -5.997  0.00  0.00    -0.004 A 
ATOM      5  C5  N4B d   1       5.578  -1.248  -5.668  0.00  0.00     0.002 A 
ATOM      6  C6  N4B d   1       4.494  -1.531  -4.862  0.00  0.00     0.002 A 
ENDROOT
BRANCH   1   7
ATOM      7  C1' N4B d   1       2.592  -0.851  -3.441  0.00  0.00     0.057 C 
BRANCH   7   8
ATOM      8  C2' N4B d   1       3.178  -1.468  -2.174  0.00  0.00     0.009 C 
BRANCH   8   9
ATOM      9  C3' N4B d   1       4.049  -0.483  -1.413  0.00  0.00     0.004 C 
ATOM     10  C4' N4B d   1       4.037  -0.720   0.067  0.00  0.00     0.003 C 
ENDBRANCH   8   9
ENDBRANCH   7   8
ENDBRANCH   1   7
TORSDOF 3
ENDMDL
