MODEL 1
REMARK minimizedAffinity 1.02427292
REMARK minimizedRMSD -1
REMARK  3 active torsions:
REMARK  status: ('A' for Active; 'I' for Inactive)
REMARK    1  A    between atoms: C3'_2  and  C2'_3 
REMARK    2  A    between atoms: C2'_3  and  C1'_4 
REMARK    3  A    between atoms: C1'_4  and  C1_5 
ROOT
ATOM      1  C1  N4B d   1      -3.701   2.225   0.757  0.00  0.00    -0.075 A 
ATOM      2  C2  N4B d   1      -4.061   3.029  -0.347  0.00  0.00     0.002 A 
ATOM      3  C3  N4B d   1      -5.200   3.796  -0.295  0.00  0.00     0.002 A 
ATOM      4  C4  N4B d   1      -6.000   3.760   0.837  0.00  0.00    -0.004 A 
ATOM      5  C5  N4B d   1      -5.632   2.999   1.909  0.00  0.00     0.002 A 
ATOM      6  C6  N4B d   1      -4.488   2.227   1.872  0.00  0.00     0.002 A 
ENDROOT
BRANCH   1   7
ATOM      7  C1' N4B d   1      -2.513   1.304   0.713  0.00  0.00     0.057 C 
BRANCH   7   8
ATOM      8  C2' N4B d   1      -1.298   2.078   0.211  0.00  0.00     0.009 C 
BRANCH   8   9
ATOM      9  C3' N4B d   1      -0.126   1.984   1.173  0.00  0.00     0.004 C 
ATOM     10  C4' N4B d   1       0.535   0.638   1.154  0.00  0.00     0.003 C 
ENDBRANCH   8   9
ENDBRANCH   7   8
ENDBRANCH   1   7
TORSDOF 3
ENDMDL
