MODEL 1
REMARK minimizedAffinity 11.4036484
REMARK minimizedRMSD -1
REMARK  3 active torsions:
REMARK  status: ('A' for Active; 'I' for Inactive)
REMARK    1  A    between atoms: C3'_2  and  C2'_3 
REMARK    2  A    between atoms: C2'_3  and  C1'_4 
REMARK    3  A    between atoms: C1'_4  and  C1_5 
ROOT
ATOM      1  C1  N4B d   1       2.932  -5.822  -3.669  0.00  0.00    -0.075 A 
ATOM      2  C2  N4B d   1       2.641  -5.980  -5.042  0.00  0.00     0.002 A 
ATOM      3  C3  N4B d   1       3.661  -5.999  -5.962  0.00  0.00     0.002 A 
ATOM      4  C4  N4B d   1       4.971  -5.844  -5.536  0.00  0.00    -0.004 A 
ATOM      5  C5  N4B d   1       5.246  -5.717  -4.206  0.00  0.00     0.002 A 
ATOM      6  C6  N4B d   1       4.231  -5.700  -3.270  0.00  0.00     0.002 A 
ENDROOT
BRANCH   1   7
ATOM      7  C1' N4B d   1       1.845  -5.709  -2.635  0.00  0.00     0.057 C 
BRANCH   7   8
ATOM      8  C2' N4B d   1       2.363  -4.897  -1.451  0.00  0.00     0.009 C 
BRANCH   8   9
ATOM      9  C3' N4B d   1       1.482  -5.057  -0.224  0.00  0.00     0.004 C 
ATOM     10  C4' N4B d   1       2.171  -4.646   1.043  0.00  0.00     0.003 C 
ENDBRANCH   8   9
ENDBRANCH   7   8
ENDBRANCH   1   7
TORSDOF 3
ENDMDL
