MODEL 1
REMARK minimizedAffinity 11.0519676
REMARK minimizedRMSD -1
REMARK  3 active torsions:
REMARK  status: ('A' for Active; 'I' for Inactive)
REMARK    1  A    between atoms: C3'_2  and  C2'_3 
REMARK    2  A    between atoms: C2'_3  and  C1'_4 
REMARK    3  A    between atoms: C1'_4  and  C1_5 
ROOT
ATOM      1  C1  N4B d   1       1.876  -3.909   4.456  0.00  0.00    -0.075 A 
ATOM      2  C2  N4B d   1       0.493  -4.193   4.471  0.00  0.00     0.002 A 
ATOM      3  C3  N4B d   1       0.011  -5.218   5.248  0.00  0.00     0.002 A 
ATOM      4  C4  N4B d   1       0.892  -5.981   6.000  0.00  0.00    -0.004 A 
ATOM      5  C5  N4B d   1       2.223  -5.683   6.000  0.00  0.00     0.002 A 
ATOM      6  C6  N4B d   1       2.721  -4.653   5.227  0.00  0.00     0.002 A 
ENDROOT
BRANCH   1   7
ATOM      7  C1' N4B d   1       2.460  -2.854   3.556  0.00  0.00     0.057 C 
BRANCH   7   8
ATOM      8  C2' N4B d   1       1.445  -1.728   3.381  0.00  0.00     0.009 C 
BRANCH   8   9
ATOM      9  C3' N4B d   1       1.172  -1.433   1.916  0.00  0.00     0.004 C 
ATOM     10  C4' N4B d   1       1.169   0.035   1.609  0.00  0.00     0.003 C 
ENDBRANCH   8   9
ENDBRANCH   7   8
ENDBRANCH   1   7
TORSDOF 3
ENDMDL
