MODEL 1
REMARK minimizedAffinity 1.17775393
REMARK minimizedRMSD -1
REMARK  0 active torsions:
REMARK  status: ('A' for Active; 'I' for Inactive)
ROOT
ATOM      1  C   UNL d   1      -0.359  -0.750  -4.856  0.00  0.00     0.077 C 
ATOM      2  C1  UNL d   1       1.046  -1.142  -5.204  0.00  0.00    -0.074 A 
ATOM      3  C2  UNL d   1       1.339  -2.428  -5.672  0.00  0.00    -0.005 A 
ATOM      4  C3  UNL d   1       2.649  -2.775  -6.000  0.00  0.00     0.006 A 
ATOM      5  C4  UNL d   1       3.678  -1.842  -5.864  0.00  0.00    -0.005 A 
ATOM      6  C5  UNL d   1       3.404  -0.552  -5.399  0.00  0.00    -0.074 A 
ATOM      7  C6  UNL d   1       4.497   0.465  -5.256  0.00  0.00     0.077 C 
ATOM      8  C7  UNL d   1       2.084  -0.209  -5.078  0.00  0.00    -0.001 A 
ENDROOT
TORSDOF 0
ENDMDL
