MODEL 1
REMARK minimizedAffinity 5.81283188
REMARK minimizedRMSD -1
REMARK  0 active torsions:
REMARK  status: ('A' for Active; 'I' for Inactive)
ROOT
ATOM      1  C   UNL d   1      -1.952  -4.202  -5.815  0.00  0.00     0.077 C 
ATOM      2  C1  UNL d   1      -1.396  -3.425  -4.659  0.00  0.00    -0.074 A 
ATOM      3  C2  UNL d   1      -1.619  -3.838  -3.342  0.00  0.00    -0.005 A 
ATOM      4  C3  UNL d   1      -1.088  -3.111  -2.277  0.00  0.00     0.006 A 
ATOM      5  C4  UNL d   1      -0.330  -1.964  -2.518  0.00  0.00    -0.005 A 
ATOM      6  C5  UNL d   1      -0.096  -1.536  -3.829  0.00  0.00    -0.074 A 
ATOM      7  C6  UNL d   1       0.725  -0.312  -4.106  0.00  0.00     0.077 C 
ATOM      8  C7  UNL d   1      -0.627  -2.277  -4.894  0.00  0.00    -0.001 A 
ENDROOT
TORSDOF 0
ENDMDL
