MODEL 1
REMARK minimizedAffinity 7.09304857
REMARK minimizedRMSD -1
REMARK  0 active torsions:
REMARK  status: ('A' for Active; 'I' for Inactive)
ROOT
ATOM      1  C   UNL d   1      -4.950   2.363  -0.692  0.00  0.00     0.077 C 
ATOM      2  C1  UNL d   1      -4.091   1.388   0.057  0.00  0.00    -0.074 A 
ATOM      3  C2  UNL d   1      -3.423   1.768   1.225  0.00  0.00    -0.005 A 
ATOM      4  C3  UNL d   1      -2.635   0.848   1.916  0.00  0.00     0.006 A 
ATOM      5  C4  UNL d   1      -2.508  -0.460   1.447  0.00  0.00    -0.005 A 
ATOM      6  C5  UNL d   1      -3.169  -0.859   0.281  0.00  0.00    -0.074 A 
ATOM      7  C6  UNL d   1      -3.051  -2.264  -0.232  0.00  0.00     0.077 C 
ATOM      8  C7  UNL d   1      -3.964   0.070  -0.404  0.00  0.00    -0.001 A 
ENDROOT
TORSDOF 0
ENDMDL
