MODEL 1
REMARK minimizedAffinity 11.6803856
REMARK minimizedRMSD -1
REMARK  0 active torsions:
REMARK  status: ('A' for Active; 'I' for Inactive)
ROOT
ATOM      1  C   UNL d   1      -0.324  -1.146  -3.128  0.00  0.00     0.077 C 
ATOM      2  C1  UNL d   1      -0.753  -1.279  -1.697  0.00  0.00    -0.074 A 
ATOM      3  C2  UNL d   1      -1.979  -1.866  -1.366  0.00  0.00    -0.005 A 
ATOM      4  C3  UNL d   1      -2.360  -1.992  -0.030  0.00  0.00     0.006 A 
ATOM      5  C4  UNL d   1      -1.521  -1.533   0.986  0.00  0.00    -0.005 A 
ATOM      6  C5  UNL d   1      -0.291  -0.945   0.674  0.00  0.00    -0.074 A 
ATOM      7  C6  UNL d   1       0.627  -0.456   1.755  0.00  0.00     0.077 C 
ATOM      8  C7  UNL d   1       0.088  -0.828  -0.670  0.00  0.00    -0.001 A 
ENDROOT
TORSDOF 0
ENDMDL
