MODEL 1
REMARK minimizedAffinity 13.2602816
REMARK minimizedRMSD -1
REMARK  0 active torsions:
REMARK  status: ('A' for Active; 'I' for Inactive)
ROOT
ATOM      1  C   UNL d   1       3.172   0.089  -4.060  0.00  0.00     0.077 C 
ATOM      2  C1  UNL d   1       1.778  -0.464  -4.044  0.00  0.00    -0.074 A 
ATOM      3  C2  UNL d   1       1.048  -0.606  -5.228  0.00  0.00    -0.005 A 
ATOM      4  C3  UNL d   1      -0.244  -1.130  -5.199  0.00  0.00     0.006 A 
ATOM      5  C4  UNL d   1      -0.818  -1.518  -3.987  0.00  0.00    -0.005 A 
ATOM      6  C5  UNL d   1      -0.102  -1.384  -2.793  0.00  0.00    -0.074 A 
ATOM      7  C6  UNL d   1      -0.700  -1.805  -1.483  0.00  0.00     0.077 C 
ATOM      8  C7  UNL d   1       1.198  -0.863  -2.832  0.00  0.00    -0.001 A 
ENDROOT
TORSDOF 0
ENDMDL
