MODEL 1
REMARK minimizedAffinity 10.2965736
REMARK minimizedRMSD -1
REMARK  0 active torsions:
REMARK  status: ('A' for Active; 'I' for Inactive)
ROOT
ATOM      1  C   UNL d   1      -0.346  -2.176  -0.843  0.00  0.00     0.077 C 
ATOM      2  C1  UNL d   1       0.248  -1.661  -2.120  0.00  0.00    -0.074 A 
ATOM      3  C2  UNL d   1      -0.569  -1.219  -3.166  0.00  0.00    -0.005 A 
ATOM      4  C3  UNL d   1      -0.002  -0.734  -4.345  0.00  0.00     0.006 A 
ATOM      5  C4  UNL d   1       1.385  -0.686  -4.489  0.00  0.00    -0.005 A 
ATOM      6  C5  UNL d   1       2.217  -1.123  -3.454  0.00  0.00    -0.074 A 
ATOM      7  C6  UNL d   1       3.710  -1.068  -3.589  0.00  0.00     0.077 C 
ATOM      8  C7  UNL d   1       1.640  -1.602  -2.270  0.00  0.00    -0.001 A 
ENDROOT
TORSDOF 0
ENDMDL
