MODEL 1
REMARK minimizedAffinity 9.65754223
REMARK minimizedRMSD -1
REMARK  0 active torsions:
REMARK  status: ('A' for Active; 'I' for Inactive)
ROOT
ATOM      1  C   UNL d   1      -2.186  -4.962  -6.000  0.00  0.00     0.077 C 
ATOM      2  C1  UNL d   1      -1.874  -4.086  -4.823  0.00  0.00    -0.074 A 
ATOM      3  C2  UNL d   1      -2.365  -4.391  -3.549  0.00  0.00    -0.005 A 
ATOM      4  C3  UNL d   1      -2.059  -3.572  -2.463  0.00  0.00     0.006 A 
ATOM      5  C4  UNL d   1      -1.260  -2.441  -2.638  0.00  0.00    -0.005 A 
ATOM      6  C5  UNL d   1      -0.759  -2.120  -3.904  0.00  0.00    -0.074 A 
ATOM      7  C6  UNL d   1       0.109  -0.914  -4.108  0.00  0.00     0.077 C 
ATOM      8  C7  UNL d   1      -1.066  -2.952  -4.990  0.00  0.00    -0.001 A 
ENDROOT
TORSDOF 0
ENDMDL
