MODEL 1
REMARK minimizedAffinity 10.9282217
REMARK minimizedRMSD -1
REMARK  0 active torsions:
REMARK  status: ('A' for Active; 'I' for Inactive)
ROOT
ATOM      1  C   UNL d   1       2.252   1.295   0.345  0.00  0.00     0.077 C 
ATOM      2  C1  UNL d   1       3.555   1.918   0.748  0.00  0.00    -0.074 A 
ATOM      3  C2  UNL d   1       4.224   1.502   1.904  0.00  0.00    -0.005 A 
ATOM      4  C3  UNL d   1       5.440   2.084   2.260  0.00  0.00     0.006 A 
ATOM      5  C4  UNL d   1       6.000   3.086   1.466  0.00  0.00    -0.005 A 
ATOM      6  C5  UNL d   1       5.346   3.513   0.306  0.00  0.00    -0.074 A 
ATOM      7  C6  UNL d   1       5.938   4.582  -0.565  0.00  0.00     0.077 C 
ATOM      8  C7  UNL d   1       4.127   2.919  -0.050  0.00  0.00    -0.001 A 
ENDROOT
TORSDOF 0
ENDMDL
