MODEL 1
REMARK minimizedAffinity 10.6724997
REMARK minimizedRMSD -1
REMARK  0 active torsions:
REMARK  status: ('A' for Active; 'I' for Inactive)
ROOT
ATOM      1  C   UNL d   1      -2.680  -5.997  -5.107  0.00  0.00     0.077 C 
ATOM      2  C1  UNL d   1      -1.501  -5.335  -4.458  0.00  0.00    -0.074 A 
ATOM      3  C2  UNL d   1      -1.645  -4.130  -3.764  0.00  0.00    -0.005 A 
ATOM      4  C3  UNL d   1      -0.541  -3.531  -3.157  0.00  0.00     0.006 A 
ATOM      5  C4  UNL d   1       0.716  -4.130  -3.239  0.00  0.00    -0.005 A 
ATOM      6  C5  UNL d   1       0.880  -5.335  -3.929  0.00  0.00    -0.074 A 
ATOM      7  C6  UNL d   1       2.223  -5.998  -4.018  0.00  0.00     0.077 C 
ATOM      8  C7  UNL d   1      -0.236  -5.935  -4.529  0.00  0.00    -0.001 A 
ENDROOT
TORSDOF 0
ENDMDL
