MODEL 1
REMARK minimizedAffinity 9.15530586
REMARK minimizedRMSD -1
REMARK  0 active torsions:
REMARK  status: ('A' for Active; 'I' for Inactive)
ROOT
ATOM      1  C   UNL d   1      -3.057   0.044   0.520  0.00  0.00     0.077 C 
ATOM      2  C1  UNL d   1      -2.247  -0.020   1.780  0.00  0.00    -0.074 A 
ATOM      3  C2  UNL d   1      -2.659   0.654   2.934  0.00  0.00    -0.005 A 
ATOM      4  C3  UNL d   1      -1.900   0.578   4.102  0.00  0.00     0.006 A 
ATOM      5  C4  UNL d   1      -0.724  -0.173   4.128  0.00  0.00    -0.005 A 
ATOM      6  C5  UNL d   1      -0.297  -0.854   2.984  0.00  0.00    -0.074 A 
ATOM      7  C6  UNL d   1       0.959  -1.673   2.998  0.00  0.00     0.077 C 
ATOM      8  C7  UNL d   1      -1.068  -0.778   1.817  0.00  0.00    -0.001 A 
ENDROOT
TORSDOF 0
ENDMDL
