MODEL 1
REMARK minimizedAffinity 12.2168512
REMARK minimizedRMSD -1
REMARK  0 active torsions:
REMARK  status: ('A' for Active; 'I' for Inactive)
ROOT
ATOM      1  C   UNL d   1       6.000  -6.000   1.720  0.00  0.00     0.077 C 
ATOM      2  C1  UNL d   1       5.095  -5.320   0.736  0.00  0.00    -0.074 A 
ATOM      3  C2  UNL d   1       4.009  -5.996   0.171  0.00  0.00    -0.005 A 
ATOM      4  C3  UNL d   1       3.171  -5.348  -0.736  0.00  0.00     0.006 A 
ATOM      5  C4  UNL d   1       3.409  -4.018  -1.086  0.00  0.00    -0.005 A 
ATOM      6  C5  UNL d   1       4.489  -3.325  -0.530  0.00  0.00    -0.074 A 
ATOM      7  C6  UNL d   1       4.754  -1.893  -0.888  0.00  0.00     0.077 C 
ATOM      8  C7  UNL d   1       5.323  -3.981   0.385  0.00  0.00    -0.001 A 
ENDROOT
TORSDOF 0
ENDMDL
