MODEL 1
REMARK minimizedAffinity 11.5874691
REMARK minimizedRMSD -1
REMARK  0 active torsions:
REMARK  status: ('A' for Active; 'I' for Inactive)
ROOT
ATOM      1  C   UNL d   1      -5.259   2.393   5.676  0.00  0.00     0.077 C 
ATOM      2  C1  UNL d   1      -4.656   1.773   4.451  0.00  0.00    -0.074 A 
ATOM      3  C2  UNL d   1      -3.281   1.535   4.368  0.00  0.00    -0.005 A 
ATOM      4  C3  UNL d   1      -2.736   0.948   3.226  0.00  0.00     0.006 A 
ATOM      5  C4  UNL d   1      -3.560   0.594   2.157  0.00  0.00    -0.005 A 
ATOM      6  C5  UNL d   1      -4.938   0.823   2.222  0.00  0.00    -0.074 A 
ATOM      7  C6  UNL d   1      -5.839   0.440   1.086  0.00  0.00     0.077 C 
ATOM      8  C7  UNL d   1      -5.479   1.407   3.376  0.00  0.00    -0.001 A 
ENDROOT
TORSDOF 0
ENDMDL
