MODEL 1
REMARK minimizedAffinity 14.1191339
REMARK minimizedRMSD -1
REMARK  0 active torsions:
REMARK  status: ('A' for Active; 'I' for Inactive)
ROOT
ATOM      1  C   UNL d   1       1.985   1.969  -2.213  0.00  0.00     0.077 C 
ATOM      2  C1  UNL d   1       2.662   2.187  -0.893  0.00  0.00    -0.074 A 
ATOM      3  C2  UNL d   1       2.026   1.848   0.306  0.00  0.00    -0.005 A 
ATOM      4  C3  UNL d   1       2.671   2.047   1.526  0.00  0.00     0.006 A 
ATOM      5  C4  UNL d   1       3.958   2.586   1.560  0.00  0.00    -0.005 A 
ATOM      6  C5  UNL d   1       4.611   2.929   0.372  0.00  0.00    -0.074 A 
ATOM      7  C6  UNL d   1       5.998   3.500   0.390  0.00  0.00     0.077 C 
ATOM      8  C7  UNL d   1       3.958   2.720  -0.850  0.00  0.00    -0.001 A 
ENDROOT
TORSDOF 0
ENDMDL
