MODEL 1
REMARK minimizedAffinity 14.0331154
REMARK minimizedRMSD -1
REMARK  0 active torsions:
REMARK  status: ('A' for Active; 'I' for Inactive)
ROOT
ATOM      1  C   UNL d   1      -3.305   2.326   4.777  0.00  0.00     0.077 C 
ATOM      2  C1  UNL d   1      -2.287   1.270   4.468  0.00  0.00    -0.074 A 
ATOM      3  C2  UNL d   1      -1.464   0.750   5.472  0.00  0.00    -0.005 A 
ATOM      4  C3  UNL d   1      -0.527  -0.240   5.172  0.00  0.00     0.006 A 
ATOM      5  C4  UNL d   1      -0.405  -0.718   3.867  0.00  0.00    -0.005 A 
ATOM      6  C5  UNL d   1      -1.220  -0.211   2.850  0.00  0.00    -0.074 A 
ATOM      7  C6  UNL d   1      -1.108  -0.721   1.444  0.00  0.00     0.077 C 
ATOM      8  C7  UNL d   1      -2.163   0.778   3.161  0.00  0.00    -0.001 A 
ENDROOT
TORSDOF 0
ENDMDL
