MODEL 1
REMARK minimizedAffinity 14.4385633
REMARK minimizedRMSD -1
REMARK  0 active torsions:
REMARK  status: ('A' for Active; 'I' for Inactive)
ROOT
ATOM      1  C   UNL d   1      -1.882   5.233  -5.758  0.00  0.00     0.077 C 
ATOM      2  C1  UNL d   1      -1.933   5.334  -4.262  0.00  0.00    -0.074 A 
ATOM      3  C2  UNL d   1      -0.759   5.331  -3.501  0.00  0.00    -0.005 A 
ATOM      4  C3  UNL d   1      -0.821   5.435  -2.112  0.00  0.00     0.006 A 
ATOM      5  C4  UNL d   1      -2.056   5.542  -1.470  0.00  0.00    -0.005 A 
ATOM      6  C5  UNL d   1      -3.240   5.546  -2.214  0.00  0.00    -0.074 A 
ATOM      7  C6  UNL d   1      -4.574   5.670  -1.540  0.00  0.00     0.077 C 
ATOM      8  C7  UNL d   1      -3.169   5.449  -3.610  0.00  0.00    -0.001 A 
ENDROOT
TORSDOF 0
ENDMDL
