MODEL 1
REMARK minimizedAffinity 15.3888102
REMARK minimizedRMSD -1
REMARK  0 active torsions:
REMARK  status: ('A' for Active; 'I' for Inactive)
ROOT
ATOM      1  C   UNL d   1       2.986   1.083   0.014  0.00  0.00     0.077 C 
ATOM      2  C1  UNL d   1       2.797   1.906  -1.226  0.00  0.00    -0.074 A 
ATOM      3  C2  UNL d   1       1.560   1.955  -1.875  0.00  0.00    -0.005 A 
ATOM      4  C3  UNL d   1       1.397   2.732  -3.022  0.00  0.00     0.006 A 
ATOM      5  C4  UNL d   1       2.469   3.466  -3.531  0.00  0.00    -0.005 A 
ATOM      6  C5  UNL d   1       3.714   3.430  -2.895  0.00  0.00    -0.074 A 
ATOM      7  C6  UNL d   1       4.874   4.221  -3.423  0.00  0.00     0.077 C 
ATOM      8  C7  UNL d   1       3.867   2.653  -1.739  0.00  0.00    -0.001 A 
ENDROOT
TORSDOF 0
ENDMDL
