MODEL 1
REMARK minimizedAffinity 9.42357445
REMARK minimizedRMSD -1
REMARK  0 active torsions:
REMARK  status: ('A' for Active; 'I' for Inactive)
ROOT
ATOM      1  C   UNL d   1      -1.056   0.036   6.000  0.00  0.00     0.077 C 
ATOM      2  C1  UNL d   1      -1.163  -0.160   4.517  0.00  0.00    -0.074 A 
ATOM      3  C2  UNL d   1      -2.100   0.553   3.763  0.00  0.00    -0.005 A 
ATOM      4  C3  UNL d   1      -2.181   0.367   2.383  0.00  0.00     0.006 A 
ATOM      5  C4  UNL d   1      -1.327  -0.534   1.744  0.00  0.00    -0.005 A 
ATOM      6  C5  UNL d   1      -0.383  -1.255   2.482  0.00  0.00    -0.074 A 
ATOM      7  C6  UNL d   1       0.548  -2.220   1.809  0.00  0.00     0.077 C 
ATOM      8  C7  UNL d   1      -0.303  -1.057   3.867  0.00  0.00    -0.001 A 
ENDROOT
TORSDOF 0
ENDMDL
