MODEL 1
REMARK minimizedAffinity 13.1364241
REMARK minimizedRMSD -1
REMARK  0 active torsions:
REMARK  status: ('A' for Active; 'I' for Inactive)
ROOT
ATOM      1  C   UNL d   1       1.015  -1.652   2.618  0.00  0.00     0.077 C 
ATOM      2  C1  UNL d   1      -0.320  -1.006   2.394  0.00  0.00    -0.074 A 
ATOM      3  C2  UNL d   1      -1.047  -1.245   1.223  0.00  0.00    -0.005 A 
ATOM      4  C3  UNL d   1      -2.292  -0.645   1.033  0.00  0.00     0.006 A 
ATOM      5  C4  UNL d   1      -2.821   0.198   2.010  0.00  0.00    -0.005 A 
ATOM      6  C5  UNL d   1      -2.109   0.449   3.188  0.00  0.00    -0.074 A 
ATOM      7  C6  UNL d   1      -2.669   1.345   4.252  0.00  0.00     0.077 C 
ATOM      8  C7  UNL d   1      -0.862  -0.164   3.374  0.00  0.00    -0.001 A 
ENDROOT
TORSDOF 0
ENDMDL
