MODEL 1
REMARK minimizedAffinity 15.5799036
REMARK minimizedRMSD -1
REMARK  0 active torsions:
REMARK  status: ('A' for Active; 'I' for Inactive)
ROOT
ATOM      1  C   UNL d   1       5.849   3.926   1.805  0.00  0.00     0.077 C 
ATOM      2  C1  UNL d   1       5.246   2.842   0.963  0.00  0.00    -0.074 A 
ATOM      3  C2  UNL d   1       5.994   2.205  -0.034  0.00  0.00    -0.005 A 
ATOM      4  C3  UNL d   1       5.422   1.192  -0.802  0.00  0.00     0.006 A 
ATOM      5  C4  UNL d   1       4.100   0.804  -0.583  0.00  0.00    -0.005 A 
ATOM      6  C5  UNL d   1       3.337   1.428   0.410  0.00  0.00    -0.074 A 
ATOM      7  C6  UNL d   1       1.918   1.017   0.665  0.00  0.00     0.077 C 
ATOM      8  C7  UNL d   1       3.921   2.441   1.183  0.00  0.00    -0.001 A 
ENDROOT
TORSDOF 0
ENDMDL
