MODEL 1
REMARK minimizedAffinity 9.9906683
REMARK minimizedRMSD -1
REMARK  0 active torsions:
REMARK  status: ('A' for Active; 'I' for Inactive)
ROOT
ATOM      1  C   UNL d   1       2.170   2.265  -2.866  0.00  0.00     0.077 C 
ATOM      2  C1  UNL d   1       3.506   2.931  -3.005  0.00  0.00    -0.074 A 
ATOM      3  C2  UNL d   1       4.150   3.000  -4.245  0.00  0.00    -0.005 A 
ATOM      4  C3  UNL d   1       5.388   3.632  -4.360  0.00  0.00     0.006 A 
ATOM      5  C4  UNL d   1       5.995   4.199  -3.239  0.00  0.00    -0.005 A 
ATOM      6  C5  UNL d   1       5.366   4.141  -1.991  0.00  0.00    -0.074 A 
ATOM      7  C6  UNL d   1       6.000   4.754  -0.778  0.00  0.00     0.077 C 
ATOM      8  C7  UNL d   1       4.119   3.511  -1.885  0.00  0.00    -0.001 A 
ENDROOT
TORSDOF 0
ENDMDL
