MODEL 1
REMARK minimizedAffinity 17.6221142
REMARK minimizedRMSD -1
REMARK  0 active torsions:
REMARK  status: ('A' for Active; 'I' for Inactive)
ROOT
ATOM      1  C   UNL d   1      -5.991  -5.994  -5.994  0.00  0.00     0.077 C 
ATOM      2  C1  UNL d   1      -4.802  -5.464  -5.250  0.00  0.00    -0.074 A 
ATOM      3  C2  UNL d   1      -4.954  -4.512  -4.236  0.00  0.00    -0.005 A 
ATOM      4  C3  UNL d   1      -3.840  -4.036  -3.546  0.00  0.00     0.006 A 
ATOM      5  C4  UNL d   1      -2.565  -4.505  -3.861  0.00  0.00    -0.005 A 
ATOM      6  C5  UNL d   1      -2.393  -5.458  -4.870  0.00  0.00    -0.074 A 
ATOM      7  C6  UNL d   1      -1.030  -5.981  -5.215  0.00  0.00     0.077 C 
ATOM      8  C7  UNL d   1      -3.518  -5.937  -5.555  0.00  0.00    -0.001 A 
ENDROOT
TORSDOF 0
ENDMDL
