MODEL 1
REMARK minimizedAffinity 12.693656
REMARK minimizedRMSD -1
REMARK  0 active torsions:
REMARK  status: ('A' for Active; 'I' for Inactive)
ROOT
ATOM      1  C   UNL d   1       0.676   1.163   0.896  0.00  0.00     0.077 C 
ATOM      2  C1  UNL d   1      -0.629   0.513   1.250  0.00  0.00    -0.074 A 
ATOM      3  C2  UNL d   1      -0.709  -0.420   2.288  0.00  0.00    -0.005 A 
ATOM      4  C3  UNL d   1      -1.931  -1.010   2.612  0.00  0.00     0.006 A 
ATOM      5  C4  UNL d   1      -3.084  -0.672   1.902  0.00  0.00    -0.005 A 
ATOM      6  C5  UNL d   1      -3.023   0.260   0.861  0.00  0.00    -0.074 A 
ATOM      7  C6  UNL d   1      -4.254   0.641   0.094  0.00  0.00     0.077 C 
ATOM      8  C7  UNL d   1      -1.793   0.853   0.546  0.00  0.00    -0.001 A 
ENDROOT
TORSDOF 0
ENDMDL
