MODEL 1
REMARK minimizedAffinity 5.01302147
REMARK minimizedRMSD -1
REMARK  1 active torsions:
REMARK  status: ('A' for Active; 'I' for Inactive)
REMARK    1  A    between atoms: C1_2  and  C2_3 
ROOT
ATOM      1  C2  UNL d   1       1.547  -1.638   1.694  0.00  0.00    -0.077 A 
ATOM      2  C3  UNL d   1       1.897  -2.965   1.977  0.00  0.00     0.002 A 
ATOM      3  C4  UNL d   1       2.252  -3.342   3.273  0.00  0.00     0.002 A 
ATOM      4  C5  UNL d   1       2.256  -2.398   4.298  0.00  0.00    -0.004 A 
ATOM      5  C6  UNL d   1       1.911  -1.074   4.027  0.00  0.00     0.002 A 
ATOM      6  C7  UNL d   1       1.558  -0.696   2.731  0.00  0.00     0.002 A 
ENDROOT
BRANCH   1   7
ATOM      7  C1  UNL d   1       1.117  -1.240   0.306  0.00  0.00     0.055 C 
ATOM      8  C   UNL d   1       1.577  -2.257  -0.728  0.00  0.00     0.019 C 
ENDBRANCH   1   7
TORSDOF 1
ENDMDL
