MODEL 1
REMARK minimizedAffinity -0.594822764
REMARK minimizedRMSD -1
REMARK  1 active torsions:
REMARK  status: ('A' for Active; 'I' for Inactive)
REMARK    1  A    between atoms: C1_2  and  C2_3 
ROOT
ATOM      1  C2  UNL d   1       5.073   5.772  -3.504  0.00  0.00    -0.077 A 
ATOM      2  C3  UNL d   1       5.586   5.982  -2.216  0.00  0.00     0.002 A 
ATOM      3  C4  UNL d   1       4.741   5.944  -1.105  0.00  0.00     0.002 A 
ATOM      4  C5  UNL d   1       3.381   5.693  -1.270  0.00  0.00    -0.004 A 
ATOM      5  C6  UNL d   1       2.861   5.484  -2.547  0.00  0.00     0.002 A 
ATOM      6  C7  UNL d   1       3.703   5.523  -3.659  0.00  0.00     0.002 A 
ENDROOT
BRANCH   1   7
ATOM      7  C1  UNL d   1       5.990   5.763  -4.699  0.00  0.00     0.055 C 
ATOM      8  C   UNL d   1       5.204   5.694  -6.000  0.00  0.00     0.019 C 
ENDBRANCH   1   7
TORSDOF 1
ENDMDL
