MODEL 1
REMARK minimizedAffinity 2.76412058
REMARK minimizedRMSD -1
REMARK  1 active torsions:
REMARK  status: ('A' for Active; 'I' for Inactive)
REMARK    1  A    between atoms: C1_2  and  C2_3 
ROOT
ATOM      1  C2  UNL d   1       2.372  -3.225   5.258  0.00  0.00    -0.077 A 
ATOM      2  C3  UNL d   1       1.025  -3.122   5.633  0.00  0.00     0.002 A 
ATOM      3  C4  UNL d   1       0.306  -4.261   6.000  0.00  0.00     0.002 A 
ATOM      4  C5  UNL d   1       0.926  -5.509   5.999  0.00  0.00    -0.004 A 
ATOM      5  C6  UNL d   1       2.265  -5.621   5.625  0.00  0.00     0.002 A 
ATOM      6  C7  UNL d   1       2.985  -4.484   5.257  0.00  0.00     0.002 A 
ENDROOT
BRANCH   1   7
ATOM      7  C1  UNL d   1       3.163  -1.991   4.909  0.00  0.00     0.055 C 
ATOM      8  C   UNL d   1       2.322  -0.999   4.120  0.00  0.00     0.019 C 
ENDBRANCH   1   7
TORSDOF 1
ENDMDL
