MODEL 1
REMARK minimizedAffinity 0.0891659707
REMARK minimizedRMSD -1
REMARK  1 active torsions:
REMARK  status: ('A' for Active; 'I' for Inactive)
REMARK    1  A    between atoms: C1_2  and  C2_3 
ROOT
ATOM      1  C2  UNL d   1       1.574  -3.118   4.329  0.00  0.00    -0.077 A 
ATOM      2  C3  UNL d   1       1.489  -1.722   4.235  0.00  0.00     0.002 A 
ATOM      3  C4  UNL d   1       2.056  -1.051   3.149  0.00  0.00     0.002 A 
ATOM      4  C5  UNL d   1       2.708  -1.768   2.148  0.00  0.00    -0.004 A 
ATOM      5  C6  UNL d   1       2.800  -3.157   2.234  0.00  0.00     0.002 A 
ATOM      6  C7  UNL d   1       2.235  -3.829   3.319  0.00  0.00     0.002 A 
ENDROOT
BRANCH   1   7
ATOM      7  C1  UNL d   1       0.920  -3.847   5.473  0.00  0.00     0.055 C 
ATOM      8  C   UNL d   1       0.660  -5.305   5.124  0.00  0.00     0.019 C 
ENDBRANCH   1   7
TORSDOF 1
ENDMDL
