MODEL 1
REMARK minimizedAffinity 5.90404558
REMARK minimizedRMSD -1
REMARK  0 active torsions:
REMARK  status: ('A' for Active; 'I' for Inactive)
ROOT
ATOM      1  C2' OXE d   1       0.059   2.182  -3.122  0.00  0.00     0.078 C 
ATOM      2  C1' OXE d   1       2.814   2.561  -3.501  0.00  0.00     0.078 C 
ATOM      3  C1  OXE d   1       2.357   2.005  -2.176  0.00  0.00    -0.078 A 
ATOM      4  C2  OXE d   1       1.003   1.866  -1.982  0.00  0.00    -0.078 A 
ATOM      5  C3  OXE d   1       0.530   1.306  -0.799  0.00  0.00     0.003 A 
ATOM      6  C4  OXE d   1       1.410   1.026   0.254  0.00  0.00    -0.002 A 
ATOM      7  C5  OXE d   1       2.789   1.197   0.092  0.00  0.00    -0.002 A 
ATOM      8  C6  OXE d   1       3.281   1.644  -1.130  0.00  0.00     0.003 A 
ENDROOT
TORSDOF 0
ENDMDL
