MODEL 1
REMARK minimizedAffinity 10.1550331
REMARK minimizedRMSD -1
REMARK  0 active torsions:
REMARK  status: ('A' for Active; 'I' for Inactive)
ROOT
ATOM      1  C2' OXE d   1      -2.095   5.784  -5.965  0.00  0.00     0.078 C 
ATOM      2  C1' OXE d   1      -2.278   4.363  -3.551  0.00  0.00     0.078 C 
ATOM      3  C1  OXE d   1      -3.560   4.842  -4.184  0.00  0.00    -0.078 A 
ATOM      4  C2  OXE d   1      -3.458   5.577  -5.341  0.00  0.00    -0.078 A 
ATOM      5  C3  OXE d   1      -4.613   5.996  -5.995  0.00  0.00     0.003 A 
ATOM      6  C4  OXE d   1      -5.869   5.809  -5.406  0.00  0.00    -0.002 A 
ATOM      7  C5  OXE d   1      -5.993   5.098  -4.208  0.00  0.00    -0.002 A 
ATOM      8  C6  OXE d   1      -4.854   4.572  -3.607  0.00  0.00     0.003 A 
ENDROOT
TORSDOF 0
ENDMDL
