MODEL 1
REMARK minimizedAffinity 12.4149466
REMARK minimizedRMSD -1
REMARK  0 active torsions:
REMARK  status: ('A' for Active; 'I' for Inactive)
ROOT
ATOM      1  C2' OXE d   1      -4.543   5.353  -3.189  0.00  0.00     0.078 C 
ATOM      2  C1' OXE d   1      -4.563   5.750  -5.968  0.00  0.00     0.078 C 
ATOM      3  C1  OXE d   1      -3.228   5.750  -5.267  0.00  0.00    -0.078 A 
ATOM      4  C2  OXE d   1      -3.231   5.601  -3.901  0.00  0.00    -0.078 A 
ATOM      5  C3  OXE d   1      -2.023   5.539  -3.211  0.00  0.00     0.003 A 
ATOM      6  C4  OXE d   1      -0.814   5.779  -3.876  0.00  0.00    -0.002 A 
ATOM      7  C5  OXE d   1      -0.792   5.972  -5.261  0.00  0.00    -0.002 A 
ATOM      8  C6  OXE d   1      -1.984   5.918  -5.976  0.00  0.00     0.003 A 
ENDROOT
TORSDOF 0
ENDMDL
