MODEL 1
REMARK minimizedAffinity 9.5180006
REMARK minimizedRMSD -1
REMARK  0 active torsions:
REMARK  status: ('A' for Active; 'I' for Inactive)
ROOT
ATOM      1  C2' OXE d   1      -0.407  -1.907   2.219  0.00  0.00     0.078 C 
ATOM      2  C1' OXE d   1      -1.328  -0.010   0.365  0.00  0.00     0.078 C 
ATOM      3  C1  OXE d   1      -1.600   0.244   1.827  0.00  0.00    -0.078 A 
ATOM      4  C2  OXE d   1      -1.187  -0.712   2.723  0.00  0.00    -0.078 A 
ATOM      5  C3  OXE d   1      -1.365  -0.501   4.087  0.00  0.00     0.003 A 
ATOM      6  C4  OXE d   1      -2.096   0.602   4.544  0.00  0.00    -0.002 A 
ATOM      7  C5  OXE d   1      -2.560   1.569   3.645  0.00  0.00    -0.002 A 
ATOM      8  C6  OXE d   1      -2.284   1.426   2.290  0.00  0.00     0.003 A 
ENDROOT
TORSDOF 0
ENDMDL
