MODEL 1
REMARK minimizedAffinity 11.696208
REMARK minimizedRMSD -1
REMARK  0 active torsions:
REMARK  status: ('A' for Active; 'I' for Inactive)
ROOT
ATOM      1  C2' OXE d   1       2.292   2.979  -3.376  0.00  0.00     0.078 C 
ATOM      2  C1' OXE d   1       4.128   3.001  -5.499  0.00  0.00     0.078 C 
ATOM      3  C1  OXE d   1       4.495   3.752  -4.243  0.00  0.00    -0.078 A 
ATOM      4  C2  OXE d   1       3.571   3.775  -3.227  0.00  0.00    -0.078 A 
ATOM      5  C3  OXE d   1       3.881   4.407  -2.027  0.00  0.00     0.003 A 
ATOM      6  C4  OXE d   1       5.062   5.149  -1.901  0.00  0.00    -0.002 A 
ATOM      7  C5  OXE d   1       6.000   5.172  -2.939  0.00  0.00    -0.002 A 
ATOM      8  C6  OXE d   1       5.751   4.445  -4.098  0.00  0.00     0.003 A 
ENDROOT
TORSDOF 0
ENDMDL
