MODEL 1
REMARK minimizedAffinity 14.0199194
REMARK minimizedRMSD -1
REMARK  0 active torsions:
REMARK  status: ('A' for Active; 'I' for Inactive)
ROOT
ATOM      1  C2' OXE d   1       0.379   3.526  -3.825  0.00  0.00     0.078 C 
ATOM      2  C1' OXE d   1       3.137   3.369  -4.321  0.00  0.00     0.078 C 
ATOM      3  C1  OXE d   1       2.616   2.754  -3.047  0.00  0.00    -0.078 A 
ATOM      4  C2  OXE d   1       1.272   2.877  -2.790  0.00  0.00    -0.078 A 
ATOM      5  C3  OXE d   1       0.730   2.280  -1.655  0.00  0.00     0.003 A 
ATOM      6  C4  OXE d   1       1.564   1.690  -0.697  0.00  0.00    -0.002 A 
ATOM      7  C5  OXE d   1       2.941   1.589  -0.921  0.00  0.00    -0.002 A 
ATOM      8  C6  OXE d   1       3.476   2.078  -2.108  0.00  0.00     0.003 A 
ENDROOT
TORSDOF 0
ENDMDL
