MODEL 1
REMARK minimizedAffinity 7.79403639
REMARK minimizedRMSD -1
REMARK  0 active torsions:
REMARK  status: ('A' for Active; 'I' for Inactive)
ROOT
ATOM      1  C2' OXE d   1       0.815   4.548  -3.390  0.00  0.00     0.078 C 
ATOM      2  C1' OXE d   1      -1.339   4.892  -5.157  0.00  0.00     0.078 C 
ATOM      3  C1  OXE d   1      -1.631   4.925  -3.678  0.00  0.00    -0.078 A 
ATOM      4  C2  OXE d   1      -0.579   4.710  -2.821  0.00  0.00    -0.078 A 
ATOM      5  C3  OXE d   1      -0.783   4.785  -1.446  0.00  0.00     0.003 A 
ATOM      6  C4  OXE d   1      -2.076   4.925  -0.928  0.00  0.00    -0.002 A 
ATOM      7  C5  OXE d   1      -3.168   5.106  -1.784  0.00  0.00    -0.002 A 
ATOM      8  C6  OXE d   1      -2.957   5.152  -3.158  0.00  0.00     0.003 A 
ENDROOT
TORSDOF 0
ENDMDL
