MODEL 1
REMARK minimizedAffinity 14.5068369
REMARK minimizedRMSD -1
REMARK  0 active torsions:
REMARK  status: ('A' for Active; 'I' for Inactive)
ROOT
ATOM      1  C2' OXE d   1      -4.512  -1.302   2.776  0.00  0.00     0.078 C 
ATOM      2  C1' OXE d   1      -2.469   0.289   3.858  0.00  0.00     0.078 C 
ATOM      3  C1  OXE d   1      -2.069  -0.848   2.952  0.00  0.00    -0.078 A 
ATOM      4  C2  OXE d   1      -3.073  -1.650   2.464  0.00  0.00    -0.078 A 
ATOM      5  C3  OXE d   1      -2.764  -2.679   1.579  0.00  0.00     0.003 A 
ATOM      6  C4  OXE d   1      -1.429  -3.001   1.304  0.00  0.00    -0.002 A 
ATOM      7  C5  OXE d   1      -0.389  -2.221   1.822  0.00  0.00    -0.002 A 
ATOM      8  C6  OXE d   1      -0.694  -1.117   2.612  0.00  0.00     0.003 A 
ENDROOT
TORSDOF 0
ENDMDL
