MODEL 1
REMARK minimizedAffinity 20.1483536
REMARK minimizedRMSD -1
REMARK  0 active torsions:
REMARK  status: ('A' for Active; 'I' for Inactive)
ROOT
ATOM      1  C2' OXE d   1       4.123   4.411   2.243  0.00  0.00     0.078 C 
ATOM      2  C1' OXE d   1       5.597   3.816  -0.070  0.00  0.00     0.078 C 
ATOM      3  C1  OXE d   1       4.289   3.094   0.135  0.00  0.00    -0.078 A 
ATOM      4  C2  OXE d   1       3.597   3.357   1.293  0.00  0.00    -0.078 A 
ATOM      5  C3  OXE d   1       2.358   2.760   1.506  0.00  0.00     0.003 A 
ATOM      6  C4  OXE d   1       1.884   1.778   0.627  0.00  0.00    -0.002 A 
ATOM      7  C5  OXE d   1       2.592   1.466  -0.538  0.00  0.00    -0.002 A 
ATOM      8  C6  OXE d   1       3.773   2.145  -0.820  0.00  0.00     0.003 A 
ENDROOT
TORSDOF 0
ENDMDL
