MODEL 1
REMARK minimizedAffinity 15.3372478
REMARK minimizedRMSD -1
REMARK  0 active torsions:
REMARK  status: ('A' for Active; 'I' for Inactive)
ROOT
ATOM      1  C2' OXE d   1       5.074  -2.922  -1.010  0.00  0.00     0.078 C 
ATOM      2  C1' OXE d   1       3.324  -5.097  -1.303  0.00  0.00     0.078 C 
ATOM      3  C1  OXE d   1       2.958  -4.029  -0.302  0.00  0.00    -0.078 A 
ATOM      4  C2  OXE d   1       3.843  -2.992  -0.132  0.00  0.00    -0.078 A 
ATOM      5  C3  OXE d   1       3.527  -1.952   0.738  0.00  0.00     0.003 A 
ATOM      6  C4  OXE d   1       2.392  -2.030   1.553  0.00  0.00    -0.002 A 
ATOM      7  C5  OXE d   1       1.498  -3.098   1.424  0.00  0.00    -0.002 A 
ATOM      8  C6  OXE d   1       1.743  -4.082   0.473  0.00  0.00     0.003 A 
ENDROOT
TORSDOF 0
ENDMDL
