MODEL 1
REMARK minimizedAffinity 15.0639143
REMARK minimizedRMSD -1
REMARK  0 active torsions:
REMARK  status: ('A' for Active; 'I' for Inactive)
ROOT
ATOM      1  C2' OXE d   1      -1.462  -0.563   3.374  0.00  0.00     0.078 C 
ATOM      2  C1' OXE d   1       1.183  -1.463   3.639  0.00  0.00     0.078 C 
ATOM      3  C1  OXE d   1       0.318  -2.122   2.594  0.00  0.00    -0.078 A 
ATOM      4  C2  OXE d   1      -0.989  -1.707   2.503  0.00  0.00    -0.078 A 
ATOM      5  C3  OXE d   1      -1.815  -2.242   1.520  0.00  0.00     0.003 A 
ATOM      6  C4  OXE d   1      -1.373  -3.307   0.725  0.00  0.00    -0.002 A 
ATOM      7  C5  OXE d   1      -0.058  -3.772   0.829  0.00  0.00    -0.002 A 
ATOM      8  C6  OXE d   1       0.811  -3.163   1.727  0.00  0.00     0.003 A 
ENDROOT
TORSDOF 0
ENDMDL
