MODEL 1
REMARK minimizedAffinity 13.0680695
REMARK minimizedRMSD -1
REMARK  0 active torsions:
REMARK  status: ('A' for Active; 'I' for Inactive)
ROOT
ATOM      1  C2' OXE d   1       6.000   6.000  -1.510  0.00  0.00     0.078 C 
ATOM      2  C1' OXE d   1       3.838   4.294  -0.964  0.00  0.00     0.078 C 
ATOM      3  C1  OXE d   1       4.386   4.308  -2.370  0.00  0.00    -0.078 A 
ATOM      4  C2  OXE d   1       5.413   5.180  -2.639  0.00  0.00    -0.078 A 
ATOM      5  C3  OXE d   1       5.991   5.194  -3.905  0.00  0.00     0.003 A 
ATOM      6  C4  OXE d   1       5.436   4.440  -4.946  0.00  0.00    -0.002 A 
ATOM      7  C5  OXE d   1       4.364   3.575  -4.703  0.00  0.00    -0.002 A 
ATOM      8  C6  OXE d   1       3.856   3.465  -3.413  0.00  0.00     0.003 A 
ENDROOT
TORSDOF 0
ENDMDL
