MODEL 1
REMARK minimizedAffinity 17.2549782
REMARK minimizedRMSD -1
REMARK  0 active torsions:
REMARK  status: ('A' for Active; 'I' for Inactive)
ROOT
ATOM      1  C2' OXE d   1       1.444   4.424  -4.336  0.00  0.00     0.078 C 
ATOM      2  C1' OXE d   1       4.130   3.632  -4.531  0.00  0.00     0.078 C 
ATOM      3  C1  OXE d   1       3.276   2.970  -3.479  0.00  0.00    -0.078 A 
ATOM      4  C2  OXE d   1       1.976   3.397  -3.359  0.00  0.00    -0.078 A 
ATOM      5  C3  OXE d   1       1.130   2.782  -2.441  0.00  0.00     0.003 A 
ATOM      6  C4  OXE d   1       1.632   1.840  -1.535  0.00  0.00    -0.002 A 
ATOM      7  C5  OXE d   1       2.964   1.419  -1.614  0.00  0.00    -0.002 A 
ATOM      8  C6  OXE d   1       3.786   1.942  -2.605  0.00  0.00     0.003 A 
ENDROOT
TORSDOF 0
ENDMDL
