MODEL 1
REMARK minimizedAffinity 14.141963
REMARK minimizedRMSD -1
REMARK  0 active torsions:
REMARK  status: ('A' for Active; 'I' for Inactive)
ROOT
ATOM      1  C2' OXE d   1       5.793   4.158  -0.019  0.00  0.00     0.078 C 
ATOM      2  C1' OXE d   1       4.215   4.662   2.247  0.00  0.00     0.078 C 
ATOM      3  C1  OXE d   1       3.812   3.519   1.349  0.00  0.00    -0.078 A 
ATOM      4  C2  OXE d   1       4.562   3.310   0.217  0.00  0.00    -0.078 A 
ATOM      5  C3  OXE d   1       4.267   2.235  -0.617  0.00  0.00     0.003 A 
ATOM      6  C4  OXE d   1       3.121   1.461  -0.397  0.00  0.00    -0.002 A 
ATOM      7  C5  OXE d   1       2.320   1.683   0.728  0.00  0.00    -0.002 A 
ATOM      8  C6  OXE d   1       2.675   2.679   1.632  0.00  0.00     0.003 A 
ENDROOT
TORSDOF 0
ENDMDL
