MODEL 1
REMARK minimizedAffinity 11.0552168
REMARK minimizedRMSD -1
REMARK  0 active torsions:
REMARK  status: ('A' for Active; 'I' for Inactive)
ROOT
ATOM      1  C2' OXE d   1       1.102   3.290  -3.253  0.00  0.00     0.078 C 
ATOM      2  C1' OXE d   1      -0.404   5.108  -1.734  0.00  0.00     0.078 C 
ATOM      3  C1  OXE d   1      -0.609   5.100  -3.228  0.00  0.00    -0.078 A 
ATOM      4  C2  OXE d   1       0.166   4.240  -3.968  0.00  0.00    -0.078 A 
ATOM      5  C3  OXE d   1      -0.022   4.153  -5.345  0.00  0.00     0.003 A 
ATOM      6  C4  OXE d   1      -0.882   5.042  -6.000  0.00  0.00    -0.002 A 
ATOM      7  C5  OXE d   1      -1.652   5.954  -5.269  0.00  0.00    -0.002 A 
ATOM      8  C6  OXE d   1      -1.559   5.966  -3.882  0.00  0.00     0.003 A 
ENDROOT
TORSDOF 0
ENDMDL
