MODEL 1
REMARK minimizedAffinity 10.1138334
REMARK minimizedRMSD -1
REMARK  0 active torsions:
REMARK  status: ('A' for Active; 'I' for Inactive)
ROOT
ATOM      1  C2' OXE d   1      -5.619   0.030  -0.131  0.00  0.00     0.078 C 
ATOM      2  C1' OXE d   1      -5.640   2.505  -1.455  0.00  0.00     0.078 C 
ATOM      3  C1  OXE d   1      -5.777   1.257  -2.292  0.00  0.00    -0.078 A 
ATOM      4  C2  OXE d   1      -5.719   0.049  -1.641  0.00  0.00    -0.078 A 
ATOM      5  C3  OXE d   1      -5.895  -1.130  -2.359  0.00  0.00     0.003 A 
ATOM      6  C4  OXE d   1      -5.977  -1.104  -3.756  0.00  0.00    -0.002 A 
ATOM      7  C5  OXE d   1      -5.998   0.114  -4.443  0.00  0.00    -0.002 A 
ATOM      8  C6  OXE d   1      -5.942   1.303  -3.724  0.00  0.00     0.003 A 
ENDROOT
TORSDOF 0
ENDMDL
