MODEL 1
REMARK minimizedAffinity 12.9367676
REMARK minimizedRMSD -1
REMARK  0 active torsions:
REMARK  status: ('A' for Active; 'I' for Inactive)
ROOT
ATOM      1  C2' OXE d   1      -2.073  -1.836   1.473  0.00  0.00     0.078 C 
ATOM      2  C1' OXE d   1      -4.658  -1.029   0.735  0.00  0.00     0.078 C 
ATOM      3  C1  OXE d   1      -4.011  -0.331   1.905  0.00  0.00    -0.078 A 
ATOM      4  C2  OXE d   1      -2.765  -0.765   2.289  0.00  0.00    -0.078 A 
ATOM      5  C3  OXE d   1      -2.100  -0.119   3.327  0.00  0.00     0.003 A 
ATOM      6  C4  OXE d   1      -2.750   0.864   4.082  0.00  0.00    -0.002 A 
ATOM      7  C5  OXE d   1      -4.035   1.293   3.734  0.00  0.00    -0.002 A 
ATOM      8  C6  OXE d   1      -4.661   0.737   2.624  0.00  0.00     0.003 A 
ENDROOT
TORSDOF 0
ENDMDL
