MODEL 1
REMARK minimizedAffinity 7.86936092
REMARK minimizedRMSD -1
REMARK  0 active torsions:
REMARK  status: ('A' for Active; 'I' for Inactive)
ROOT
ATOM      1  C2' OXE d   1      -3.754  -3.126   2.900  0.00  0.00     0.078 C 
ATOM      2  C1' OXE d   1      -5.165  -5.253   1.733  0.00  0.00     0.078 C 
ATOM      3  C1  OXE d   1      -5.226  -5.107   3.233  0.00  0.00    -0.078 A 
ATOM      4  C2  OXE d   1      -4.495  -4.091   3.800  0.00  0.00    -0.078 A 
ATOM      5  C3  OXE d   1      -4.560  -3.878   5.174  0.00  0.00     0.003 A 
ATOM      6  C4  OXE d   1      -5.239  -4.782   6.000  0.00  0.00    -0.002 A 
ATOM      7  C5  OXE d   1      -5.958  -5.847   5.447  0.00  0.00    -0.002 A 
ATOM      8  C6  OXE d   1      -5.997  -5.998   4.065  0.00  0.00     0.003 A 
ENDROOT
TORSDOF 0
ENDMDL
