MODEL 1
REMARK minimizedAffinity -0.0661713555
REMARK minimizedRMSD -1
REMARK  1 active torsions:
REMARK  status: ('A' for Active; 'I' for Inactive)
REMARK    1  A    between atoms: C1_2  and  C2_3 
ROOT
ATOM      1  C2  UNL d   1       0.652  -3.170   4.859  0.00  0.00    -0.077 A 
ATOM      2  C3  UNL d   1       1.470  -4.151   5.435  0.00  0.00     0.002 A 
ATOM      3  C4  UNL d   1       0.907  -5.298   6.000  0.00  0.00     0.002 A 
ATOM      4  C5  UNL d   1      -0.475  -5.475   5.990  0.00  0.00    -0.004 A 
ATOM      5  C6  UNL d   1      -1.297  -4.503   5.422  0.00  0.00     0.002 A 
ATOM      6  C7  UNL d   1      -0.737  -3.356   4.858  0.00  0.00     0.002 A 
ENDROOT
BRANCH   1   7
ATOM      7  C1  UNL d   1       1.260  -1.956   4.206  0.00  0.00     0.055 C 
ATOM      8  C   UNL d   1       0.446  -0.704   4.498  0.00  0.00     0.019 C 
ENDBRANCH   1   7
TORSDOF 1
ENDMDL
