MODEL 1
REMARK minimizedAffinity 4.5127492
REMARK minimizedRMSD -1
REMARK  1 active torsions:
REMARK  status: ('A' for Active; 'I' for Inactive)
REMARK    1  A    between atoms: C1_2  and  C2_3 
ROOT
ATOM      1  C2  UNL d   1       0.123  -4.609   5.494  0.00  0.00    -0.077 A 
ATOM      2  C3  UNL d   1      -0.525  -3.845   4.513  0.00  0.00     0.002 A 
ATOM      3  C4  UNL d   1       0.059  -2.671   4.032  0.00  0.00     0.002 A 
ATOM      4  C5  UNL d   1       1.294  -2.253   4.522  0.00  0.00    -0.004 A 
ATOM      5  C6  UNL d   1       1.946  -3.005   5.499  0.00  0.00     0.002 A 
ATOM      6  C7  UNL d   1       1.363  -4.178   5.982  0.00  0.00     0.002 A 
ENDROOT
BRANCH   1   7
ATOM      7  C1  UNL d   1      -0.481  -5.901   5.978  0.00  0.00     0.055 C 
ATOM      8  C   UNL d   1      -2.001  -5.851   5.936  0.00  0.00     0.019 C 
ENDBRANCH   1   7
TORSDOF 1
ENDMDL
