MODEL 1
REMARK minimizedAffinity 8.01145077
REMARK minimizedRMSD -1
REMARK  1 active torsions:
REMARK  status: ('A' for Active; 'I' for Inactive)
REMARK    1  A    between atoms: C1_2  and  C2_3 
ROOT
ATOM      1  C2  UNL d   1       4.822   3.345   1.670  0.00  0.00    -0.077 A 
ATOM      2  C3  UNL d   1       3.701   3.171   0.846  0.00  0.00     0.002 A 
ATOM      3  C4  UNL d   1       3.724   2.235  -0.189  0.00  0.00     0.002 A 
ATOM      4  C5  UNL d   1       4.863   1.462  -0.407  0.00  0.00    -0.004 A 
ATOM      5  C6  UNL d   1       5.984   1.629   0.406  0.00  0.00     0.002 A 
ATOM      6  C7  UNL d   1       5.963   2.566   1.440  0.00  0.00     0.002 A 
ENDROOT
BRANCH   1   7
ATOM      7  C1  UNL d   1       4.781   4.319   2.818  0.00  0.00     0.055 C 
ATOM      8  C   UNL d   1       5.224   3.663   4.118  0.00  0.00     0.019 C 
ENDBRANCH   1   7
TORSDOF 1
ENDMDL
