MODEL 1
REMARK minimizedAffinity 3.28646398
REMARK minimizedRMSD -1
REMARK  1 active torsions:
REMARK  status: ('A' for Active; 'I' for Inactive)
REMARK    1  A    between atoms: C1_2  and  C2_3 
ROOT
ATOM      1  C2  UNL d   1       0.987  -1.813   5.124  0.00  0.00    -0.077 A 
ATOM      2  C3  UNL d   1       1.720  -0.940   5.940  0.00  0.00     0.002 A 
ATOM      3  C4  UNL d   1       1.625   0.442   5.760  0.00  0.00     0.002 A 
ATOM      4  C5  UNL d   1       0.795   0.962   4.769  0.00  0.00    -0.004 A 
ATOM      5  C6  UNL d   1       0.063   0.101   3.951  0.00  0.00     0.002 A 
ATOM      6  C7  UNL d   1       0.158  -1.280   4.128  0.00  0.00     0.002 A 
ENDROOT
BRANCH   1   7
ATOM      7  C1  UNL d   1       1.050  -3.301   5.348  0.00  0.00     0.055 C 
ATOM      8  C   UNL d   1      -0.111  -4.013   4.669  0.00  0.00     0.019 C 
ENDBRANCH   1   7
TORSDOF 1
ENDMDL
