MODEL 1
REMARK minimizedAffinity 1.41081655
REMARK minimizedRMSD -1
REMARK  1 active torsions:
REMARK  status: ('A' for Active; 'I' for Inactive)
REMARK    1  A    between atoms: C1_2  and  C2_3 
ROOT
ATOM      1  C2  UNL d   1      -3.843   5.726   2.849  0.00  0.00    -0.077 A 
ATOM      2  C3  UNL d   1      -5.244   5.719   2.790  0.00  0.00     0.002 A 
ATOM      3  C4  UNL d   1      -6.000   5.850   3.956  0.00  0.00     0.002 A 
ATOM      4  C5  UNL d   1      -5.365   5.994   5.188  0.00  0.00    -0.004 A 
ATOM      5  C6  UNL d   1      -3.972   6.000   5.257  0.00  0.00     0.002 A 
ATOM      6  C7  UNL d   1      -3.215   5.867   4.093  0.00  0.00     0.002 A 
ENDROOT
BRANCH   1   7
ATOM      7  C1  UNL d   1      -3.026   5.633   1.587  0.00  0.00     0.055 C 
ATOM      8  C   UNL d   1      -3.885   5.227   0.399  0.00  0.00     0.019 C 
ENDBRANCH   1   7
TORSDOF 1
ENDMDL
