MODEL 1
REMARK minimizedAffinity 4.18748093
REMARK minimizedRMSD -1
REMARK  0 active torsions:
REMARK  status: ('A' for Active; 'I' for Inactive)
ROOT
ATOM      1  C1  BNZ d   1      -0.529   2.581  -4.101  0.00  0.00     0.000 A 
ATOM      2  C2  BNZ d   1      -1.807   2.205  -4.417  0.00  0.00     0.000 A 
ATOM      3  C3  BNZ d   1      -2.875   2.973  -4.046  0.00  0.00     0.000 A 
ATOM      4  C4  BNZ d   1      -2.666   4.095  -3.327  0.00  0.00     0.000 A 
ATOM      5  C5  BNZ d   1      -1.384   4.484  -2.994  0.00  0.00     0.000 A 
ATOM      6  C6  BNZ d   1      -0.309   3.728  -3.402  0.00  0.00     0.000 A 
ENDROOT
TORSDOF 0
ENDMDL
