MODEL 1
REMARK minimizedAffinity 3.60379434
REMARK minimizedRMSD -1
REMARK  0 active torsions:
REMARK  status: ('A' for Active; 'I' for Inactive)
ROOT
ATOM      1  C1  BNZ d   1       0.862  -1.914   0.422  0.00  0.00     0.000 A 
ATOM      2  C2  BNZ d   1      -0.358  -2.219   0.965  0.00  0.00     0.000 A 
ATOM      3  C3  BNZ d   1      -0.959  -1.374   1.855  0.00  0.00     0.000 A 
ATOM      4  C4  BNZ d   1      -0.323  -0.246   2.231  0.00  0.00     0.000 A 
ATOM      5  C5  BNZ d   1       0.911   0.072   1.700  0.00  0.00     0.000 A 
ATOM      6  C6  BNZ d   1       1.496  -0.762   0.774  0.00  0.00     0.000 A 
ENDROOT
TORSDOF 0
ENDMDL
