MODEL 1
REMARK minimizedAffinity 1.74406314
REMARK minimizedRMSD -1
REMARK  0 active torsions:
REMARK  status: ('A' for Active; 'I' for Inactive)
ROOT
ATOM      1  C1  BNZ d   1      -0.617  -1.933   0.693  0.00  0.00     0.000 A 
ATOM      2  C2  BNZ d   1       0.511  -1.383   0.145  0.00  0.00     0.000 A 
ATOM      3  C3  BNZ d   1       1.169  -0.363   0.774  0.00  0.00     0.000 A 
ATOM      4  C4  BNZ d   1       0.678   0.130   1.929  0.00  0.00     0.000 A 
ATOM      5  C5  BNZ d   1      -0.464  -0.408   2.490  0.00  0.00     0.000 A 
ATOM      6  C6  BNZ d   1      -1.102  -1.460   1.873  0.00  0.00     0.000 A 
ENDROOT
TORSDOF 0
ENDMDL
