MODEL 1
REMARK minimizedAffinity 2.67892623
REMARK minimizedRMSD -1
REMARK  0 active torsions:
REMARK  status: ('A' for Active; 'I' for Inactive)
ROOT
ATOM      1  C1  BNZ d   1       3.681  -4.188   5.979  0.00  0.00     0.000 A 
ATOM      2  C2  BNZ d   1       3.682  -5.461   5.476  0.00  0.00     0.000 A 
ATOM      3  C3  BNZ d   1       4.815  -5.999   4.934  0.00  0.00     0.000 A 
ATOM      4  C4  BNZ d   1       5.934  -5.249   4.859  0.00  0.00     0.000 A 
ATOM      5  C5  BNZ d   1       5.946  -3.960   5.353  0.00  0.00     0.000 A 
ATOM      6  C6  BNZ d   1       4.814  -3.436   5.933  0.00  0.00     0.000 A 
ENDROOT
TORSDOF 0
ENDMDL
