MODEL 1
REMARK minimizedAffinity 1.65192556
REMARK minimizedRMSD -1
REMARK  0 active torsions:
REMARK  status: ('A' for Active; 'I' for Inactive)
ROOT
ATOM      1  C1  BNZ d   1       0.478  -0.848   0.851  0.00  0.00     0.000 A 
ATOM      2  C2  BNZ d   1       0.267  -0.506   2.160  0.00  0.00     0.000 A 
ATOM      3  C3  BNZ d   1      -0.678  -1.150   2.908  0.00  0.00     0.000 A 
ATOM      4  C4  BNZ d   1      -1.437  -2.106   2.336  0.00  0.00     0.000 A 
ATOM      5  C5  BNZ d   1      -1.243  -2.456   1.015  0.00  0.00     0.000 A 
ATOM      6  C6  BNZ d   1      -0.264  -1.832   0.276  0.00  0.00     0.000 A 
ENDROOT
TORSDOF 0
ENDMDL
