MODEL 1
REMARK minimizedAffinity 6.1027422
REMARK minimizedRMSD -1
REMARK  0 active torsions:
REMARK  status: ('A' for Active; 'I' for Inactive)
ROOT
ATOM      1  C1  BNZ d   1       0.777  -5.985  -3.131  0.00  0.00     0.000 A 
ATOM      2  C2  BNZ d   1      -0.215  -5.579  -2.278  0.00  0.00     0.000 A 
ATOM      3  C3  BNZ d   1      -1.435  -5.190  -2.757  0.00  0.00     0.000 A 
ATOM      4  C4  BNZ d   1      -1.648  -5.170  -4.088  0.00  0.00     0.000 A 
ATOM      5  C5  BNZ d   1      -0.656  -5.567  -4.962  0.00  0.00     0.000 A 
ATOM      6  C6  BNZ d   1       0.558  -5.995  -4.474  0.00  0.00     0.000 A 
ENDROOT
TORSDOF 0
ENDMDL
