MODEL 1
REMARK minimizedAffinity -0.396365404
REMARK minimizedRMSD -1
REMARK  0 active torsions:
REMARK  status: ('A' for Active; 'I' for Inactive)
ROOT
ATOM      1  C1  BNZ d   1       4.377   0.525  -2.201  0.00  0.00     0.000 A 
ATOM      2  C2  BNZ d   1       4.055  -0.702  -1.684  0.00  0.00     0.000 A 
ATOM      3  C3  BNZ d   1       3.031  -0.838  -0.789  0.00  0.00     0.000 A 
ATOM      4  C4  BNZ d   1       2.357   0.257  -0.381  0.00  0.00     0.000 A 
ATOM      5  C5  BNZ d   1       2.676   1.502  -0.885  0.00  0.00     0.000 A 
ATOM      6  C6  BNZ d   1       3.682   1.630  -1.816  0.00  0.00     0.000 A 
ENDROOT
TORSDOF 0
ENDMDL
