MODEL 1
REMARK minimizedAffinity 9.50288296
REMARK minimizedRMSD -1
REMARK  0 active torsions:
REMARK  status: ('A' for Active; 'I' for Inactive)
ROOT
ATOM      1  C1  BNZ d   1      -0.756  -1.039   1.008  0.00  0.00     0.000 A 
ATOM      2  C2  BNZ d   1      -1.497  -1.433   2.090  0.00  0.00     0.000 A 
ATOM      3  C3  BNZ d   1      -1.024  -1.263   3.362  0.00  0.00     0.000 A 
ATOM      4  C4  BNZ d   1       0.204  -0.736   3.548  0.00  0.00     0.000 A 
ATOM      5  C5  BNZ d   1       0.967  -0.343   2.466  0.00  0.00     0.000 A 
ATOM      6  C6  BNZ d   1       0.472  -0.480   1.190  0.00  0.00     0.000 A 
ENDROOT
TORSDOF 0
ENDMDL
