MODEL 1
REMARK minimizedAffinity 0.873918414
REMARK minimizedRMSD -1
REMARK  0 active torsions:
REMARK  status: ('A' for Active; 'I' for Inactive)
ROOT
ATOM      1  C1  BNZ d   1      -1.174  -1.052   1.740  0.00  0.00     0.000 A 
ATOM      2  C2  BNZ d   1      -0.936  -1.382   3.048  0.00  0.00     0.000 A 
ATOM      3  C3  BNZ d   1       0.292  -1.173   3.610  0.00  0.00     0.000 A 
ATOM      4  C4  BNZ d   1       1.291  -0.673   2.855  0.00  0.00     0.000 A 
ATOM      5  C5  BNZ d   1       1.069  -0.344   1.532  0.00  0.00     0.000 A 
ATOM      6  C6  BNZ d   1      -0.179  -0.519   0.980  0.00  0.00     0.000 A 
ENDROOT
TORSDOF 0
ENDMDL
