MODEL 1
REMARK minimizedAffinity 6.46851444
REMARK minimizedRMSD -1
REMARK  0 active torsions:
REMARK  status: ('A' for Active; 'I' for Inactive)
ROOT
ATOM      1  C1  BNZ d   1      -1.511  -2.672  -0.491  0.00  0.00     0.000 A 
ATOM      2  C2  BNZ d   1      -2.853  -2.831  -0.711  0.00  0.00     0.000 A 
ATOM      3  C3  BNZ d   1      -3.768  -2.414   0.214  0.00  0.00     0.000 A 
ATOM      4  C4  BNZ d   1      -3.340  -1.876   1.374  0.00  0.00     0.000 A 
ATOM      5  C5  BNZ d   1      -1.990  -1.717   1.615  0.00  0.00     0.000 A 
ATOM      6  C6  BNZ d   1      -1.073  -2.103   0.665  0.00  0.00     0.000 A 
ENDROOT
TORSDOF 0
ENDMDL
