MODEL 1
REMARK minimizedAffinity 2.09505033
REMARK minimizedRMSD -1
REMARK  0 active torsions:
REMARK  status: ('A' for Active; 'I' for Inactive)
ROOT
ATOM      1  C1  BNZ d   1       0.969  -0.057   1.405  0.00  0.00     0.000 A 
ATOM      2  C2  BNZ d   1      -0.398  -0.059   1.495  0.00  0.00     0.000 A 
ATOM      3  C3  BNZ d   1      -1.093  -1.234   1.566  0.00  0.00     0.000 A 
ATOM      4  C4  BNZ d   1      -0.425  -2.404   1.506  0.00  0.00     0.000 A 
ATOM      5  C5  BNZ d   1       0.952  -2.418   1.405  0.00  0.00     0.000 A 
ATOM      6  C6  BNZ d   1       1.651  -1.233   1.374  0.00  0.00     0.000 A 
ENDROOT
TORSDOF 0
ENDMDL
