MODEL 1
REMARK minimizedAffinity 4.57054472
REMARK minimizedRMSD -1
REMARK  0 active torsions:
REMARK  status: ('A' for Active; 'I' for Inactive)
ROOT
ATOM      1  C1  BNZ d   1      -2.336   2.908  -3.991  0.00  0.00     0.000 A 
ATOM      2  C2  BNZ d   1      -1.921   3.958  -3.217  0.00  0.00     0.000 A 
ATOM      3  C3  BNZ d   1      -0.596   4.283  -3.130  0.00  0.00     0.000 A 
ATOM      4  C4  BNZ d   1       0.315   3.533  -3.783  0.00  0.00     0.000 A 
ATOM      5  C5  BNZ d   1      -0.087   2.465  -4.561  0.00  0.00     0.000 A 
ATOM      6  C6  BNZ d   1      -1.425   2.165  -4.677  0.00  0.00     0.000 A 
ENDROOT
TORSDOF 0
ENDMDL
