MODEL 1
REMARK minimizedAffinity 5.03227758
REMARK minimizedRMSD -1
REMARK  0 active torsions:
REMARK  status: ('A' for Active; 'I' for Inactive)
ROOT
ATOM      1  C1  BNZ d   1      -5.999  -4.837   5.990  0.00  0.00     0.000 A 
ATOM      2  C2  BNZ d   1      -5.693  -3.761   5.200  0.00  0.00     0.000 A 
ATOM      3  C3  BNZ d   1      -4.635  -3.805   4.336  0.00  0.00     0.000 A 
ATOM      4  C4  BNZ d   1      -3.862  -4.910   4.291  0.00  0.00     0.000 A 
ATOM      5  C5  BNZ d   1      -4.152  -5.999   5.087  0.00  0.00     0.000 A 
ATOM      6  C6  BNZ d   1      -5.241  -5.965   5.928  0.00  0.00     0.000 A 
ENDROOT
TORSDOF 0
ENDMDL
