MODEL 1
REMARK minimizedAffinity 1.22437727
REMARK minimizedRMSD -1
REMARK  0 active torsions:
REMARK  status: ('A' for Active; 'I' for Inactive)
ROOT
ATOM      1  C1  BNZ d   1       5.681  -5.999   5.530  0.00  0.00     0.000 A 
ATOM      2  C2  BNZ d   1       5.921  -5.999   4.181  0.00  0.00     0.000 A 
ATOM      3  C3  BNZ d   1       4.892  -5.912   3.287  0.00  0.00     0.000 A 
ATOM      4  C4  BNZ d   1       3.622  -5.865   3.740  0.00  0.00     0.000 A 
ATOM      5  C5  BNZ d   1       3.363  -5.873   5.096  0.00  0.00     0.000 A 
ATOM      6  C6  BNZ d   1       4.404  -5.922   5.994  0.00  0.00     0.000 A 
ENDROOT
TORSDOF 0
ENDMDL
