MODEL 1
REMARK minimizedAffinity 0.408544868
REMARK minimizedRMSD -1
REMARK  0 active torsions:
REMARK  status: ('A' for Active; 'I' for Inactive)
ROOT
ATOM      1  C1  BNZ d   1      -0.399  -0.724   3.018  0.00  0.00     0.000 A 
ATOM      2  C2  BNZ d   1       0.840  -0.224   3.322  0.00  0.00     0.000 A 
ATOM      3  C3  BNZ d   1       1.789  -0.069   2.351  0.00  0.00     0.000 A 
ATOM      4  C4  BNZ d   1       1.514  -0.451   1.087  0.00  0.00     0.000 A 
ATOM      5  C5  BNZ d   1       0.273  -0.966   0.767  0.00  0.00     0.000 A 
ATOM      6  C6  BNZ d   1      -0.693  -1.084   1.739  0.00  0.00     0.000 A 
ENDROOT
TORSDOF 0
ENDMDL
