MODEL 1
REMARK minimizedAffinity 7.36448622
REMARK minimizedRMSD -1
REMARK  0 active torsions:
REMARK  status: ('A' for Active; 'I' for Inactive)
ROOT
ATOM      1  C1  BNZ d   1      -4.277  -3.665   4.776  0.00  0.00     0.000 A 
ATOM      2  C2  BNZ d   1      -5.498  -3.693   5.396  0.00  0.00     0.000 A 
ATOM      3  C3  BNZ d   1      -5.991  -4.856   5.917  0.00  0.00     0.000 A 
ATOM      4  C4  BNZ d   1      -5.283  -5.996   5.782  0.00  0.00     0.000 A 
ATOM      5  C5  BNZ d   1      -4.055  -5.986   5.151  0.00  0.00     0.000 A 
ATOM      6  C6  BNZ d   1      -3.544  -4.805   4.663  0.00  0.00     0.000 A 
ENDROOT
TORSDOF 0
ENDMDL
