MODEL 1
REMARK minimizedAffinity -3.88256407
REMARK minimizedRMSD -1
REMARK  0 active torsions:
REMARK  status: ('A' for Active; 'I' for Inactive)
ROOT
ATOM      1  C   UNL d   1      -0.752   2.318   1.978  0.00  0.00     0.023 A 
ATOM      2  C1  UNL d   1      -1.282   2.326   0.688  0.00  0.00     0.003 A 
ATOM      3  C2  UNL d   1      -1.085   1.231  -0.156  0.00  0.00     0.048 A 
ATOM      4  C3  UNL d   1      -0.356   0.132   0.296  0.00  0.00     0.023 A 
ATOM      5  C4  UNL d   1       0.176   0.119   1.586  0.00  0.00     0.048 A 
ATOM      6  C5  UNL d   1      -0.023   1.217   2.427  0.00  0.00     0.003 A 
ATOM      7  I   UNL d   1      -0.061  -1.499  -0.959  0.00  0.00    -0.146 I 
ENDROOT
TORSDOF 0
ENDMDL
