MODEL 1
REMARK minimizedAffinity -3.44319463
REMARK minimizedRMSD -1
REMARK  0 active torsions:
REMARK  status: ('A' for Active; 'I' for Inactive)
ROOT
ATOM      1  C   UNL d   1      -1.067   2.430   1.590  0.00  0.00     0.023 A 
ATOM      2  C1  UNL d   1      -1.556   2.250   0.296  0.00  0.00     0.003 A 
ATOM      3  C2  UNL d   1      -1.097   1.187  -0.484  0.00  0.00     0.048 A 
ATOM      4  C3  UNL d   1      -0.148   0.307   0.035  0.00  0.00     0.023 A 
ATOM      5  C4  UNL d   1       0.344   0.483   1.329  0.00  0.00     0.048 A 
ATOM      6  C5  UNL d   1      -0.117   1.547   2.106  0.00  0.00     0.003 A 
ATOM      7  I   UNL d   1       0.538  -1.275  -1.125  0.00  0.00    -0.146 I 
ENDROOT
TORSDOF 0
ENDMDL
