MODEL 1
REMARK minimizedAffinity -5.68239069
REMARK minimizedRMSD -1
REMARK  0 active torsions:
REMARK  status: ('A' for Active; 'I' for Inactive)
ROOT
ATOM      1  C   UNL d   1      -1.217   3.637   0.401  0.00  0.00     0.023 A 
ATOM      2  C1  UNL d   1      -1.238   2.748   1.476  0.00  0.00     0.003 A 
ATOM      3  C2  UNL d   1      -0.833   1.424   1.296  0.00  0.00     0.048 A 
ATOM      4  C3  UNL d   1      -0.408   0.995   0.039  0.00  0.00     0.023 A 
ATOM      5  C4  UNL d   1      -0.385   1.882  -1.039  0.00  0.00     0.048 A 
ATOM      6  C5  UNL d   1      -0.791   3.204  -0.855  0.00  0.00     0.003 A 
ATOM      7  I   UNL d   1       0.195  -0.975  -0.230  0.00  0.00    -0.146 I 
ENDROOT
TORSDOF 0
ENDMDL
