MODEL 1
REMARK minimizedAffinity -4.02517843
REMARK minimizedRMSD -1
REMARK  0 active torsions:
REMARK  status: ('A' for Active; 'I' for Inactive)
ROOT
ATOM      1  C   UNL d   1      -0.635   2.114   1.892  0.00  0.00     0.023 A 
ATOM      2  C1  UNL d   1       0.153   1.038   2.300  0.00  0.00     0.003 A 
ATOM      3  C2  UNL d   1       0.366  -0.040   1.438  0.00  0.00     0.048 A 
ATOM      4  C3  UNL d   1      -0.211  -0.035   0.169  0.00  0.00     0.023 A 
ATOM      5  C4  UNL d   1      -0.999   1.040  -0.245  0.00  0.00     0.048 A 
ATOM      6  C5  UNL d   1      -1.210   2.115   0.621  0.00  0.00     0.003 A 
ATOM      7  I   UNL d   1       0.105  -1.638  -1.116  0.00  0.00    -0.146 I 
ENDROOT
TORSDOF 0
ENDMDL
