MODEL 1
REMARK minimizedAffinity -4.48045778
REMARK minimizedRMSD -1
REMARK  0 active torsions:
REMARK  status: ('A' for Active; 'I' for Inactive)
ROOT
ATOM      1  C   UNL d   1      -1.025   2.205   1.982  0.00  0.00     0.023 A 
ATOM      2  C1  UNL d   1      -0.014   1.349   2.419  0.00  0.00     0.003 A 
ATOM      3  C2  UNL d   1       0.473   0.352   1.571  0.00  0.00     0.048 A 
ATOM      4  C3  UNL d   1      -0.054   0.217   0.288  0.00  0.00     0.023 A 
ATOM      5  C4  UNL d   1      -1.065   1.072  -0.154  0.00  0.00     0.048 A 
ATOM      6  C5  UNL d   1      -1.550   2.066   0.697  0.00  0.00     0.003 A 
ATOM      7  I   UNL d   1       0.670  -1.266  -0.976  0.00  0.00    -0.146 I 
ENDROOT
TORSDOF 0
ENDMDL
