MODEL 1
REMARK minimizedAffinity -3.46936417
REMARK minimizedRMSD -1
REMARK  0 active torsions:
REMARK  status: ('A' for Active; 'I' for Inactive)
ROOT
ATOM      1  C   UNL d   1       1.054  -0.083  -1.922  0.00  0.00     0.023 A 
ATOM      2  C1  UNL d   1       0.988  -0.597  -0.627  0.00  0.00     0.003 A 
ATOM      3  C2  UNL d   1       0.332   0.118   0.377  0.00  0.00     0.048 A 
ATOM      4  C3  UNL d   1      -0.256   1.347   0.079  0.00  0.00     0.023 A 
ATOM      5  C4  UNL d   1      -0.193   1.865  -1.215  0.00  0.00     0.048 A 
ATOM      6  C5  UNL d   1       0.464   1.146  -2.216  0.00  0.00     0.003 A 
ATOM      7  I   UNL d   1      -1.232   2.413   1.572  0.00  0.00    -0.146 I 
ENDROOT
TORSDOF 0
ENDMDL
