MODEL 1
REMARK minimizedAffinity 0.775962234
REMARK minimizedRMSD -1
REMARK  0 active torsions:
REMARK  status: ('A' for Active; 'I' for Inactive)
ROOT
ATOM      1  C   UNL d   1       0.035   0.047   2.256  0.00  0.00     0.124 A 
ATOM      2  C1  UNL d   1      -1.005   0.357   1.391  0.00  0.00     0.062 A 
ATOM      3  C2  UNL d   1      -0.840   0.208   0.017  0.00  0.00     0.162 A 
ATOM      4  C3  UNL d   1       0.370  -0.254  -0.501  0.00  0.00    -0.034 A 
ATOM      5  C4  UNL d   1       1.411  -0.563   0.376  0.00  0.00     0.162 A 
ATOM      6  C5  UNL d   1       1.241  -0.413   1.748  0.00  0.00     0.062 A 
ATOM      7  F   UNL d   1       2.247  -0.713   2.583  0.00  0.00    -0.097 F 
ATOM      8  F1  UNL d   1       2.588  -1.011  -0.088  0.00  0.00    -0.096 F 
ATOM      9  I   UNL d   1       0.620  -0.478  -2.555  0.00  0.00    -0.060 I 
ATOM     10  F2  UNL d   1      -1.862   0.516  -0.796  0.00  0.00    -0.096 F 
ATOM     11  F3  UNL d   1      -2.172   0.803   1.879  0.00  0.00    -0.097 F 
ATOM     12  F4  UNL d   1      -0.126   0.192   3.578  0.00  0.00    -0.092 F 
ENDROOT
TORSDOF 0
ENDMDL
