MODEL 1
REMARK minimizedAffinity -2.53948021
REMARK minimizedRMSD -1
REMARK  0 active torsions:
REMARK  status: ('A' for Active; 'I' for Inactive)
ROOT
ATOM      1  C   UNL d   1      -0.728   0.103  -0.157  0.00  0.00     0.124 A 
ATOM      2  C1  UNL d   1       0.300   1.023   0.002  0.00  0.00     0.062 A 
ATOM      3  C2  UNL d   1       1.183   1.272  -1.044  0.00  0.00     0.162 A 
ATOM      4  C3  UNL d   1       1.043   0.602  -2.259  0.00  0.00    -0.034 A 
ATOM      5  C4  UNL d   1       0.008  -0.323  -2.411  0.00  0.00     0.162 A 
ATOM      6  C5  UNL d   1      -0.873  -0.569  -1.362  0.00  0.00     0.062 A 
ATOM      7  F   UNL d   1      -1.865  -1.458  -1.518  0.00  0.00    -0.097 F 
ATOM      8  F1  UNL d   1      -0.156  -0.985  -3.566  0.00  0.00    -0.096 F 
ATOM      9  I   UNL d   1       2.362   0.973  -3.826  0.00  0.00    -0.060 I 
ATOM     10  F2  UNL d   1       2.166   2.166  -0.863  0.00  0.00    -0.096 F 
ATOM     11  F3  UNL d   1       0.442   1.672   1.166  0.00  0.00    -0.097 F 
ATOM     12  F4  UNL d   1      -1.576  -0.136   0.852  0.00  0.00    -0.092 F 
ENDROOT
TORSDOF 0
ENDMDL
