MODEL 1
REMARK minimizedAffinity -2.10325956
REMARK minimizedRMSD -1
REMARK  0 active torsions:
REMARK  status: ('A' for Active; 'I' for Inactive)
ROOT
ATOM      1  C   UNL d   1      -2.265   0.392   1.589  0.00  0.00     0.124 A 
ATOM      2  C1  UNL d   1      -2.069  -0.217   0.357  0.00  0.00     0.062 A 
ATOM      3  C2  UNL d   1      -0.785  -0.340  -0.166  0.00  0.00     0.162 A 
ATOM      4  C3  UNL d   1       0.314   0.148   0.542  0.00  0.00    -0.034 A 
ATOM      5  C4  UNL d   1       0.108   0.760   1.780  0.00  0.00     0.162 A 
ATOM      6  C5  UNL d   1      -1.177   0.880   2.299  0.00  0.00     0.062 A 
ATOM      7  F   UNL d   1      -1.365   1.469   3.489  0.00  0.00    -0.097 F 
ATOM      8  F1  UNL d   1       1.142   1.240   2.487  0.00  0.00    -0.096 F 
ATOM      9  I   UNL d   1       2.235  -0.034  -0.237  0.00  0.00    -0.060 I 
ATOM     10  F2  UNL d   1      -0.624  -0.933  -1.358  0.00  0.00    -0.096 F 
ATOM     11  F3  UNL d   1      -3.118  -0.689  -0.331  0.00  0.00    -0.097 F 
ATOM     12  F4  UNL d   1      -3.502   0.509   2.090  0.00  0.00    -0.092 F 
ENDROOT
TORSDOF 0
ENDMDL
