MODEL 1
REMARK minimizedAffinity -3.17245889
REMARK minimizedRMSD -1
REMARK  0 active torsions:
REMARK  status: ('A' for Active; 'I' for Inactive)
ROOT
ATOM      1  C   UNL d   1      -0.813   0.699   2.619  0.00  0.00     0.124 A 
ATOM      2  C1  UNL d   1       0.497   0.588   2.174  0.00  0.00     0.062 A 
ATOM      3  C2  UNL d   1       0.761   0.324   0.833  0.00  0.00     0.162 A 
ATOM      4  C3  UNL d   1      -0.287   0.170  -0.073  0.00  0.00    -0.034 A 
ATOM      5  C4  UNL d   1      -1.602   0.281   0.381  0.00  0.00     0.162 A 
ATOM      6  C5  UNL d   1      -1.861   0.546   1.722  0.00  0.00     0.062 A 
ATOM      7  F   UNL d   1      -3.128   0.652   2.150  0.00  0.00    -0.097 F 
ATOM      8  F1  UNL d   1      -2.634   0.139  -0.464  0.00  0.00    -0.096 F 
ATOM      9  I   UNL d   1       0.104  -0.226  -2.079  0.00  0.00    -0.060 I 
ATOM     10  F2  UNL d   1       2.037   0.222   0.432  0.00  0.00    -0.096 F 
ATOM     11  F3  UNL d   1       1.512   0.735   3.038  0.00  0.00    -0.097 F 
ATOM     12  F4  UNL d   1      -1.064   0.953   3.909  0.00  0.00    -0.092 F 
ENDROOT
TORSDOF 0
ENDMDL
