MODEL 1
REMARK minimizedAffinity 2.02776313
REMARK minimizedRMSD -1
REMARK  0 active torsions:
REMARK  status: ('A' for Active; 'I' for Inactive)
ROOT
ATOM      1  C   UNL d   1      -0.849   0.395   2.322  0.00  0.00     0.124 A 
ATOM      2  C1  UNL d   1       0.422   0.744   1.888  0.00  0.00     0.062 A 
ATOM      3  C2  UNL d   1       0.779   0.571   0.554  0.00  0.00     0.162 A 
ATOM      4  C3  UNL d   1      -0.139   0.048  -0.357  0.00  0.00    -0.034 A 
ATOM      5  C4  UNL d   1      -1.415  -0.301   0.087  0.00  0.00     0.162 A 
ATOM      6  C5  UNL d   1      -1.767  -0.127   1.421  0.00  0.00     0.062 A 
ATOM      7  F   UNL d   1      -2.996  -0.464   1.838  0.00  0.00    -0.097 F 
ATOM      8  F1  UNL d   1      -2.322  -0.807  -0.763  0.00  0.00    -0.096 F 
ATOM      9  I   UNL d   1       0.390  -0.213  -2.353  0.00  0.00    -0.060 I 
ATOM     10  F2  UNL d   1       2.014   0.916   0.163  0.00  0.00    -0.096 F 
ATOM     11  F3  UNL d   1       1.311   1.247   2.757  0.00  0.00    -0.097 F 
ATOM     12  F4  UNL d   1      -1.189   0.562   3.607  0.00  0.00    -0.092 F 
ENDROOT
TORSDOF 0
ENDMDL
