MODEL 1
REMARK minimizedAffinity 4.50812387
REMARK minimizedRMSD -1
REMARK  0 active torsions:
REMARK  status: ('A' for Active; 'I' for Inactive)
ROOT
ATOM      1  C   UNL d   1      -0.517  -0.318   2.103  0.00  0.00     0.124 A 
ATOM      2  C1  UNL d   1      -1.508   0.182   1.269  0.00  0.00     0.062 A 
ATOM      3  C2  UNL d   1      -1.290   0.271  -0.102  0.00  0.00     0.162 A 
ATOM      4  C3  UNL d   1      -0.075  -0.142  -0.650  0.00  0.00    -0.034 A 
ATOM      5  C4  UNL d   1       0.917  -0.643   0.195  0.00  0.00     0.162 A 
ATOM      6  C5  UNL d   1       0.694  -0.730   1.565  0.00  0.00     0.062 A 
ATOM      7  F   UNL d   1       1.653  -1.213   2.369  0.00  0.00    -0.097 F 
ATOM      8  F1  UNL d   1       2.097  -1.048  -0.298  0.00  0.00    -0.096 F 
ATOM      9  I   UNL d   1       0.255  -0.011  -2.701  0.00  0.00    -0.060 I 
ATOM     10  F2  UNL d   1      -2.265   0.757  -0.884  0.00  0.00    -0.096 F 
ATOM     11  F3  UNL d   1      -2.679   0.581   1.787  0.00  0.00    -0.097 F 
ATOM     12  F4  UNL d   1      -0.729  -0.402   3.423  0.00  0.00    -0.092 F 
ENDROOT
TORSDOF 0
ENDMDL
