MODEL 1
REMARK minimizedAffinity -0.978504539
REMARK minimizedRMSD -1
REMARK  0 active torsions:
REMARK  status: ('A' for Active; 'I' for Inactive)
ROOT
ATOM      1  C   UNL d   1       0.769  -0.447   1.008  0.00  0.00     0.124 A 
ATOM      2  C1  UNL d   1       0.391   0.885   0.902  0.00  0.00     0.062 A 
ATOM      3  C2  UNL d   1       0.231   1.469  -0.350  0.00  0.00     0.162 A 
ATOM      4  C3  UNL d   1       0.448   0.723  -1.509  0.00  0.00    -0.034 A 
ATOM      5  C4  UNL d   1       0.830  -0.615  -1.394  0.00  0.00     0.162 A 
ATOM      6  C5  UNL d   1       0.988  -1.195  -0.140  0.00  0.00     0.062 A 
ATOM      7  F   UNL d   1       1.354  -2.481  -0.040  0.00  0.00    -0.097 F 
ATOM      8  F1  UNL d   1       1.047  -1.362  -2.487  0.00  0.00    -0.096 F 
ATOM      9  I   UNL d   1       0.210   1.594  -3.384  0.00  0.00    -0.060 I 
ATOM     10  F2  UNL d   1      -0.136   2.758  -0.423  0.00  0.00    -0.096 F 
ATOM     11  F3  UNL d   1       0.179   1.610   2.010  0.00  0.00    -0.097 F 
ATOM     12  F4  UNL d   1       0.923  -1.007   2.215  0.00  0.00    -0.092 F 
ENDROOT
TORSDOF 0
ENDMDL
