MODEL 1
REMARK minimizedAffinity 0.559154689
REMARK minimizedRMSD -1
REMARK  1 active torsions:
REMARK  status: ('A' for Active; 'I' for Inactive)
REMARK    1  A    between atoms: N_2  and  C1_3 
ROOT
ATOM      1  C1  UNL d   1      -2.747   1.995  -4.539  0.00  0.00     0.143 A 
ATOM      2  C2  UNL d   1      -2.303   3.312  -4.379  0.00  0.00    -0.057 A 
ATOM      3  C3  UNL d   1      -2.102   3.860  -3.106  0.00  0.00     0.033 A 
ATOM      4  C4  UNL d   1      -2.370   3.107  -1.967  0.00  0.00    -0.042 A 
ATOM      5  C5  UNL d   1      -2.835   1.804  -2.103  0.00  0.00     0.033 A 
ATOM      6  C6  UNL d   1      -3.028   1.260  -3.377  0.00  0.00    -0.057 A 
ENDROOT
BRANCH   1   7
ATOM      7  N   UNL d   1      -3.061   1.425  -5.776  0.00  0.00    -0.732 N 
ATOM      8  C   UNL d   1      -4.274   0.654  -5.946  0.00  0.00     0.284 C 
ATOM      9  H3  UNL d   1      -2.850   2.046  -6.554  0.00  0.00     0.395 HD
ENDBRANCH   1   7
TORSDOF 1
ENDMDL
