MODEL 1
REMARK minimizedAffinity 3.76364207
REMARK minimizedRMSD -1
REMARK  1 active torsions:
REMARK  status: ('A' for Active; 'I' for Inactive)
REMARK    1  A    between atoms: N_2  and  C1_3 
ROOT
ATOM      1  C1  UNL d   1      -3.567  -1.427   1.090  0.00  0.00     0.143 A 
ATOM      2  C2  UNL d   1      -2.755  -1.390  -0.049  0.00  0.00    -0.057 A 
ATOM      3  C3  UNL d   1      -1.512  -0.746  -0.034  0.00  0.00     0.033 A 
ATOM      4  C4  UNL d   1      -1.070  -0.100   1.116  0.00  0.00    -0.042 A 
ATOM      5  C5  UNL d   1      -1.872  -0.103   2.252  0.00  0.00     0.033 A 
ATOM      6  C6  UNL d   1      -3.109  -0.753   2.233  0.00  0.00    -0.057 A 
ENDROOT
BRANCH   1   7
ATOM      7  N   UNL d   1      -4.856  -1.966   1.110  0.00  0.00    -0.732 N 
ATOM      8  C   UNL d   1      -5.991  -1.148   1.480  0.00  0.00     0.284 C 
ATOM      9  H3  UNL d   1      -5.029  -2.586   0.322  0.00  0.00     0.395 HD
ENDBRANCH   1   7
TORSDOF 1
ENDMDL
