MODEL 1
REMARK minimizedAffinity -0.979082227
REMARK minimizedRMSD -1
REMARK  1 active torsions:
REMARK  status: ('A' for Active; 'I' for Inactive)
REMARK    1  A    between atoms: N_2  and  C1_3 
ROOT
ATOM      1  C1  UNL d   1      -0.204  -2.623   2.846  0.00  0.00     0.143 A 
ATOM      2  C2  UNL d   1      -0.789  -3.851   3.170  0.00  0.00    -0.057 A 
ATOM      3  C3  UNL d   1      -0.132  -5.060   2.909  0.00  0.00     0.033 A 
ATOM      4  C4  UNL d   1       1.114  -5.061   2.291  0.00  0.00    -0.042 A 
ATOM      5  C5  UNL d   1       1.704  -3.853   1.938  0.00  0.00     0.033 A 
ATOM      6  C6  UNL d   1       1.045  -2.649   2.207  0.00  0.00    -0.057 A 
ENDROOT
BRANCH   1   7
ATOM      7  N   UNL d   1      -0.849  -1.392   2.991  0.00  0.00    -0.732 N 
ATOM      8  C   UNL d   1      -1.080  -0.541   1.843  0.00  0.00     0.284 C 
ATOM      9  H3  UNL d   1      -1.633  -1.438   3.638  0.00  0.00     0.395 HD
ENDBRANCH   1   7
TORSDOF 1
ENDMDL
