MODEL 1
REMARK minimizedAffinity -3.80888486
REMARK minimizedRMSD -1
REMARK  1 active torsions:
REMARK  status: ('A' for Active; 'I' for Inactive)
REMARK    1  A    between atoms: N_2  and  C1_3 
ROOT
ATOM      1  C1  UNL d   1      -0.005  -0.664   0.431  0.00  0.00     0.143 A 
ATOM      2  C2  UNL d   1      -1.300  -0.277   0.792  0.00  0.00    -0.057 A 
ATOM      3  C3  UNL d   1      -1.860  -0.665   2.015  0.00  0.00     0.033 A 
ATOM      4  C4  UNL d   1      -1.143  -1.475   2.889  0.00  0.00    -0.042 A 
ATOM      5  C5  UNL d   1       0.137  -1.892   2.541  0.00  0.00     0.033 A 
ATOM      6  C6  UNL d   1       0.693  -1.496   1.321  0.00  0.00    -0.057 A 
ENDROOT
BRANCH   1   7
ATOM      7  N   UNL d   1       0.570  -0.393  -0.813  0.00  0.00    -0.732 N 
ATOM      8  C   UNL d   1       1.467  -1.344  -1.433  0.00  0.00     0.284 C 
ATOM      9  H3  UNL d   1      -0.086   0.042  -1.457  0.00  0.00     0.395 HD
ENDBRANCH   1   7
TORSDOF 1
ENDMDL
