MODEL 1
REMARK minimizedAffinity 0.588510513
REMARK minimizedRMSD -1
REMARK  1 active torsions:
REMARK  status: ('A' for Active; 'I' for Inactive)
REMARK    1  A    between atoms: N_2  and  C1_3 
ROOT
ATOM      1  C1  UNL d   1       1.279  -2.581   1.236  0.00  0.00     0.143 A 
ATOM      2  C2  UNL d   1       1.142  -1.841   0.057  0.00  0.00    -0.057 A 
ATOM      3  C3  UNL d   1       0.159  -0.852  -0.070  0.00  0.00     0.033 A 
ATOM      4  C4  UNL d   1      -0.727  -0.605   0.974  0.00  0.00    -0.042 A 
ATOM      5  C5  UNL d   1      -0.625  -1.346   2.146  0.00  0.00     0.033 A 
ATOM      6  C6  UNL d   1       0.363  -2.327   2.269  0.00  0.00    -0.057 A 
ENDROOT
BRANCH   1   7
ATOM      7  N   UNL d   1       2.172  -3.644   1.388  0.00  0.00    -0.732 N 
ATOM      8  C   UNL d   1       1.805  -4.811   2.161  0.00  0.00     0.284 C 
ATOM      9  H3  UNL d   1       2.673  -3.857   0.528  0.00  0.00     0.395 HD
ENDBRANCH   1   7
TORSDOF 1
ENDMDL
