MODEL 1
REMARK minimizedAffinity 4.11034536
REMARK minimizedRMSD -1
REMARK  1 active torsions:
REMARK  status: ('A' for Active; 'I' for Inactive)
REMARK    1  A    between atoms: N_2  and  C1_3 
ROOT
ATOM      1  C1  UNL d   1      -1.412  -0.636   0.333  0.00  0.00     0.143 A 
ATOM      2  C2  UNL d   1      -2.707  -1.134   0.514  0.00  0.00    -0.057 A 
ATOM      3  C3  UNL d   1      -3.392  -0.953   1.722  0.00  0.00     0.033 A 
ATOM      4  C4  UNL d   1      -2.781  -0.293   2.783  0.00  0.00    -0.042 A 
ATOM      5  C5  UNL d   1      -1.485   0.189   2.633  0.00  0.00     0.033 A 
ATOM      6  C6  UNL d   1      -0.809   0.011   1.423  0.00  0.00    -0.057 A 
ENDROOT
BRANCH   1   7
ATOM      7  N   UNL d   1      -0.642  -0.869  -0.809  0.00  0.00    -0.732 N 
ATOM      8  C   UNL d   1       0.802  -0.919  -0.727  0.00  0.00     0.284 C 
ATOM      9  H3  UNL d   1      -1.049  -1.580  -1.413  0.00  0.00     0.395 HD
ENDBRANCH   1   7
TORSDOF 1
ENDMDL
