MODEL 1
REMARK minimizedAffinity 0.806816816
REMARK minimizedRMSD -1
REMARK  1 active torsions:
REMARK  status: ('A' for Active; 'I' for Inactive)
REMARK    1  A    between atoms: C3_4  and  O_7 
ROOT
ATOM      1  C   UNL d   1      -1.391  -4.310   0.381  0.00  0.00    -0.033 A 
ATOM      2  C1  UNL d   1      -1.915  -3.320   1.214  0.00  0.00     0.039 A 
ATOM      3  C2  UNL d   1      -1.059  -2.492   1.943  0.00  0.00    -0.080 A 
ATOM      4  C3  UNL d   1       0.318  -2.664   1.828  0.00  0.00     0.150 A 
ATOM      5  C4  UNL d   1       0.848  -3.645   0.997  0.00  0.00    -0.007 A 
ATOM      6  C5  UNL d   1      -0.009  -4.471   0.271  0.00  0.00     0.039 A 
ENDROOT
BRANCH   4   7
ATOM      7  O   UNL d   1       1.193  -1.883   2.523  0.00  0.00    -0.526 OA
ATOM      8  H5  UNL d   1       0.684  -1.268   3.078  0.00  0.00     0.418 HD
ENDBRANCH   4   7
TORSDOF 1
ENDMDL
