MODEL 1
REMARK minimizedAffinity 4.4195714
REMARK minimizedRMSD -1
REMARK  1 active torsions:
REMARK  status: ('A' for Active; 'I' for Inactive)
REMARK    1  A    between atoms: C3_4  and  O_7 
ROOT
ATOM      1  C   UNL d   1       1.500   4.496  -4.120  0.00  0.00    -0.033 A 
ATOM      2  C1  UNL d   1       1.422   5.233  -5.303  0.00  0.00     0.039 A 
ATOM      3  C2  UNL d   1       0.194   5.393  -5.948  0.00  0.00    -0.080 A 
ATOM      4  C3  UNL d   1      -0.947   4.812  -5.400  0.00  0.00     0.150 A 
ATOM      5  C4  UNL d   1      -0.876   4.079  -4.220  0.00  0.00    -0.007 A 
ATOM      6  C5  UNL d   1       0.351   3.920  -3.578  0.00  0.00     0.039 A 
ENDROOT
BRANCH   4   7
ATOM      7  O   UNL d   1      -2.167   4.937  -5.996  0.00  0.00    -0.526 OA
ATOM      8  H5  UNL d   1      -2.057   5.445  -6.817  0.00  0.00     0.418 HD
ENDBRANCH   4   7
TORSDOF 1
ENDMDL
