MODEL 1
REMARK minimizedAffinity 2.73392725
REMARK minimizedRMSD -1
REMARK  1 active torsions:
REMARK  status: ('A' for Active; 'I' for Inactive)
REMARK    1  A    between atoms: C3_4  and  O_7 
ROOT
ATOM      1  C   UNL d   1      -0.558   5.265  -5.954  0.00  0.00    -0.033 A 
ATOM      2  C1  UNL d   1      -1.276   4.956  -4.798  0.00  0.00     0.039 A 
ATOM      3  C2  UNL d   1      -0.618   4.428  -3.685  0.00  0.00    -0.080 A 
ATOM      4  C3  UNL d   1       0.757   4.216  -3.742  0.00  0.00     0.150 A 
ATOM      5  C4  UNL d   1       1.479   4.525  -4.890  0.00  0.00    -0.007 A 
ATOM      6  C5  UNL d   1       0.820   5.051  -6.000  0.00  0.00     0.039 A 
ENDROOT
BRANCH   4   7
ATOM      7  O   UNL d   1       1.442   3.699  -2.683  0.00  0.00    -0.526 OA
ATOM      8  H5  UNL d   1       0.809   3.507  -1.971  0.00  0.00     0.418 HD
ENDBRANCH   4   7
TORSDOF 1
ENDMDL
