MODEL 1
REMARK minimizedAffinity -2.3240602
REMARK minimizedRMSD -1
REMARK  1 active torsions:
REMARK  status: ('A' for Active; 'I' for Inactive)
REMARK    1  A    between atoms: C3_4  and  O_7 
ROOT
ATOM      1  C   UNL d   1      -1.831  -5.636  -4.604  0.00  0.00    -0.033 A 
ATOM      2  C1  UNL d   1      -2.388  -6.000  -5.832  0.00  0.00     0.039 A 
ATOM      3  C2  UNL d   1      -3.774  -6.000  -5.999  0.00  0.00    -0.080 A 
ATOM      4  C3  UNL d   1      -4.591  -5.633  -4.933  0.00  0.00     0.150 A 
ATOM      5  C4  UNL d   1      -4.043  -5.266  -3.709  0.00  0.00    -0.007 A 
ATOM      6  C5  UNL d   1      -2.659  -5.267  -3.543  0.00  0.00     0.039 A 
ENDROOT
BRANCH   4   7
ATOM      7  O   UNL d   1      -5.949  -5.623  -5.048  0.00  0.00    -0.526 OA
ATOM      8  H5  UNL d   1      -6.185  -5.927  -5.940  0.00  0.00     0.418 HD
ENDBRANCH   4   7
TORSDOF 1
ENDMDL
