MODEL 1
REMARK minimizedAffinity 1.5510217
REMARK minimizedRMSD -1
REMARK  1 active torsions:
REMARK  status: ('A' for Active; 'I' for Inactive)
REMARK    1  A    between atoms: C3_4  and  O_7 
ROOT
ATOM      1  C   UNL d   1      -1.093   5.618  -4.828  0.00  0.00    -0.033 A 
ATOM      2  C1  UNL d   1      -0.338   5.507  -5.997  0.00  0.00     0.039 A 
ATOM      3  C2  UNL d   1       0.972   5.027  -5.940  0.00  0.00    -0.080 A 
ATOM      4  C3  UNL d   1       1.514   4.662  -4.711  0.00  0.00     0.150 A 
ATOM      5  C4  UNL d   1       0.766   4.767  -3.543  0.00  0.00    -0.007 A 
ATOM      6  C5  UNL d   1      -0.542   5.247  -3.601  0.00  0.00     0.039 A 
ENDROOT
BRANCH   4   7
ATOM      7  O   UNL d   1       2.790   4.193  -4.605  0.00  0.00    -0.526 OA
ATOM      8  H5  UNL d   1       3.195   4.203  -5.489  0.00  0.00     0.418 HD
ENDBRANCH   4   7
TORSDOF 1
ENDMDL
