MODEL 1
REMARK minimizedAffinity 2.61855268
REMARK minimizedRMSD -1
REMARK  1 active torsions:
REMARK  status: ('A' for Active; 'I' for Inactive)
REMARK    1  A    between atoms: C3_4  and  O_7 
ROOT
ATOM      1  C   UNL d   1       1.867   4.153  -4.208  0.00  0.00    -0.033 A 
ATOM      2  C1  UNL d   1       1.889   4.718  -5.485  0.00  0.00     0.039 A 
ATOM      3  C2  UNL d   1       0.750   5.345  -5.993  0.00  0.00    -0.080 A 
ATOM      4  C3  UNL d   1      -0.403   5.402  -5.215  0.00  0.00     0.150 A 
ATOM      5  C4  UNL d   1      -0.431   4.845  -3.940  0.00  0.00    -0.007 A 
ATOM      6  C5  UNL d   1       0.707   4.219  -3.435  0.00  0.00     0.039 A 
ENDROOT
BRANCH   4   7
ATOM      7  O   UNL d   1      -1.541   6.000  -5.670  0.00  0.00    -0.526 OA
ATOM      8  H5  UNL d   1      -1.382   6.314  -6.576  0.00  0.00     0.418 HD
ENDBRANCH   4   7
TORSDOF 1
ENDMDL
