MODEL 1
REMARK minimizedAffinity 3.83287978
REMARK minimizedRMSD -1
REMARK  1 active torsions:
REMARK  status: ('A' for Active; 'I' for Inactive)
REMARK    1  A    between atoms: C3_4  and  O_7 
ROOT
ATOM      1  C   UNL d   1      -5.989   2.648  -4.858  0.00  0.00    -0.033 A 
ATOM      2  C1  UNL d   1      -5.984   1.762  -5.937  0.00  0.00     0.039 A 
ATOM      3  C2  UNL d   1      -5.984   0.384  -5.712  0.00  0.00    -0.080 A 
ATOM      4  C3  UNL d   1      -5.990  -0.095  -4.405  0.00  0.00     0.150 A 
ATOM      5  C4  UNL d   1      -6.000   0.782  -3.325  0.00  0.00    -0.007 A 
ATOM      6  C5  UNL d   1      -5.999   2.157  -3.551  0.00  0.00     0.039 A 
ENDROOT
BRANCH   4   7
ATOM      7  O   UNL d   1      -5.985  -1.431  -4.135  0.00  0.00    -0.526 OA
ATOM      8  H5  UNL d   1      -5.950  -1.915  -4.978  0.00  0.00     0.418 HD
ENDBRANCH   4   7
TORSDOF 1
ENDMDL
