MODEL 1
REMARK minimizedAffinity 3.08664227
REMARK minimizedRMSD -1
REMARK  1 active torsions:
REMARK  status: ('A' for Active; 'I' for Inactive)
REMARK    1  A    between atoms: C3_4  and  O_7 
ROOT
ATOM      1  C   UNL d   1      -0.427   5.984  -6.000  0.00  0.00    -0.033 A 
ATOM      2  C1  UNL d   1       0.936   5.680  -6.000  0.00  0.00     0.039 A 
ATOM      3  C2  UNL d   1       1.475   4.880  -4.991  0.00  0.00    -0.080 A 
ATOM      4  C3  UNL d   1       0.641   4.390  -3.989  0.00  0.00     0.150 A 
ATOM      5  C4  UNL d   1      -0.718   4.686  -3.984  0.00  0.00    -0.007 A 
ATOM      6  C5  UNL d   1      -1.254   5.486  -4.993  0.00  0.00     0.039 A 
ENDROOT
BRANCH   4   7
ATOM      7  O   UNL d   1       1.123   3.609  -2.980  0.00  0.00    -0.526 OA
ATOM      8  H5  UNL d   1       2.082   3.513  -3.097  0.00  0.00     0.418 HD
ENDBRANCH   4   7
TORSDOF 1
ENDMDL
