MODEL 1
REMARK minimizedAffinity 0.173889875
REMARK minimizedRMSD -1
REMARK  1 active torsions:
REMARK  status: ('A' for Active; 'I' for Inactive)
REMARK    1  A    between atoms: C3_4  and  O_7 
ROOT
ATOM      1  C   UNL d   1       1.589   4.419  -3.271  0.00  0.00    -0.033 A 
ATOM      2  C1  UNL d   1       0.553   3.538  -2.957  0.00  0.00     0.039 A 
ATOM      3  C2  UNL d   1      -0.594   3.493  -3.752  0.00  0.00    -0.080 A 
ATOM      4  C3  UNL d   1      -0.690   4.333  -4.859  0.00  0.00     0.150 A 
ATOM      5  C4  UNL d   1       0.340   5.210  -5.181  0.00  0.00    -0.007 A 
ATOM      6  C5  UNL d   1       1.484   5.254  -4.384  0.00  0.00     0.039 A 
ENDROOT
BRANCH   4   7
ATOM      7  O   UNL d   1      -1.792   4.328  -5.662  0.00  0.00    -0.526 OA
ATOM      8  H5  UNL d   1      -2.433   3.693  -5.302  0.00  0.00     0.418 HD
ENDBRANCH   4   7
TORSDOF 1
ENDMDL
