MODEL 1
REMARK minimizedAffinity 0.529260933
REMARK minimizedRMSD -1
REMARK  1 active torsions:
REMARK  status: ('A' for Active; 'I' for Inactive)
REMARK    1  A    between atoms: C3_4  and  O_7 
ROOT
ATOM      1  C   UNL d   1      -0.214   6.000  -6.000  0.00  0.00    -0.033 A 
ATOM      2  C1  UNL d   1       1.127   5.611  -6.000  0.00  0.00     0.039 A 
ATOM      3  C2  UNL d   1       1.603   4.738  -5.019  0.00  0.00    -0.080 A 
ATOM      4  C3  UNL d   1       0.728   4.261  -4.047  0.00  0.00     0.150 A 
ATOM      5  C4  UNL d   1      -0.610   4.641  -4.043  0.00  0.00    -0.007 A 
ATOM      6  C5  UNL d   1      -1.083   5.514  -5.022  0.00  0.00     0.039 A 
ENDROOT
BRANCH   4   7
ATOM      7  O   UNL d   1       1.147   3.411  -3.067  0.00  0.00    -0.526 OA
ATOM      8  H5  UNL d   1       2.101   3.259  -3.178  0.00  0.00     0.418 HD
ENDBRANCH   4   7
TORSDOF 1
ENDMDL
