MODEL 1
REMARK minimizedAffinity 0.472806215
REMARK minimizedRMSD -1
REMARK  1 active torsions:
REMARK  status: ('A' for Active; 'I' for Inactive)
REMARK    1  A    between atoms: C3_4  and  O_7 
ROOT
ATOM      1  C   UNL d   1       2.001   3.910  -3.517  0.00  0.00    -0.033 A 
ATOM      2  C1  UNL d   1       2.243   4.881  -4.490  0.00  0.00     0.039 A 
ATOM      3  C2  UNL d   1       1.212   5.298  -5.335  0.00  0.00    -0.080 A 
ATOM      4  C3  UNL d   1      -0.055   4.737  -5.195  0.00  0.00     0.150 A 
ATOM      5  C4  UNL d   1      -0.304   3.772  -4.225  0.00  0.00    -0.007 A 
ATOM      6  C5  UNL d   1       0.727   3.357  -3.383  0.00  0.00     0.039 A 
ENDROOT
BRANCH   4   7
ATOM      7  O   UNL d   1      -1.091   5.108  -5.999  0.00  0.00    -0.526 OA
ATOM      8  H5  UNL d   1      -0.764   5.761  -6.641  0.00  0.00     0.418 HD
ENDBRANCH   4   7
TORSDOF 1
ENDMDL
