MODEL 1
REMARK minimizedAffinity 5.10475349
REMARK minimizedRMSD -1
REMARK  1 active torsions:
REMARK  status: ('A' for Active; 'I' for Inactive)
REMARK    1  A    between atoms: C3_4  and  O_7 
ROOT
ATOM      1  C   UNL d   1      -0.391   5.616  -5.979  0.00  0.00    -0.033 A 
ATOM      2  C1  UNL d   1       0.991   5.419  -5.999  0.00  0.00     0.039 A 
ATOM      3  C2  UNL d   1       1.641   4.903  -4.876  0.00  0.00    -0.080 A 
ATOM      4  C3  UNL d   1       0.898   4.588  -3.742  0.00  0.00     0.150 A 
ATOM      5  C4  UNL d   1      -0.480   4.779  -3.716  0.00  0.00    -0.007 A 
ATOM      6  C5  UNL d   1      -1.126   5.295  -4.838  0.00  0.00     0.039 A 
ENDROOT
BRANCH   4   7
ATOM      7  O   UNL d   1       1.488   4.086  -2.620  0.00  0.00    -0.526 OA
ATOM      8  H5  UNL d   1       2.447   4.035  -2.773  0.00  0.00     0.418 HD
ENDBRANCH   4   7
TORSDOF 1
ENDMDL
