MODEL 1
REMARK minimizedAffinity 1.90083289
REMARK minimizedRMSD -1
REMARK  1 active torsions:
REMARK  status: ('A' for Active; 'I' for Inactive)
REMARK    1  A    between atoms: C3_4  and  O_7 
ROOT
ATOM      1  C   UNL d   1       1.866   4.862  -3.408  0.00  0.00    -0.033 A 
ATOM      2  C1  UNL d   1       0.796   3.970  -3.314  0.00  0.00     0.039 A 
ATOM      3  C2  UNL d   1      -0.295   4.093  -4.176  0.00  0.00    -0.080 A 
ATOM      4  C3  UNL d   1      -0.304   5.110  -5.127  0.00  0.00     0.150 A 
ATOM      5  C4  UNL d   1       0.760   6.000  -5.228  0.00  0.00    -0.007 A 
ATOM      6  C5  UNL d   1       1.848   5.876  -4.366  0.00  0.00     0.039 A 
ENDROOT
BRANCH   4   7
ATOM      7  O   UNL d   1      -1.350   5.272  -5.987  0.00  0.00    -0.526 OA
ATOM      8  H5  UNL d   1      -2.024   4.604  -5.781  0.00  0.00     0.418 HD
ENDBRANCH   4   7
TORSDOF 1
ENDMDL
