MODEL 1
REMARK minimizedAffinity 3.26652908
REMARK minimizedRMSD -1
REMARK  1 active torsions:
REMARK  status: ('A' for Active; 'I' for Inactive)
REMARK    1  A    between atoms: C3_4  and  O_7 
ROOT
ATOM      1  C   UNL d   1      -0.764   6.000  -5.583  0.00  0.00    -0.033 A 
ATOM      2  C1  UNL d   1      -1.304   6.000  -4.295  0.00  0.00     0.039 A 
ATOM      3  C2  UNL d   1      -1.033   4.944  -3.423  0.00  0.00    -0.080 A 
ATOM      4  C3  UNL d   1      -0.222   3.896  -3.849  0.00  0.00     0.150 A 
ATOM      5  C4  UNL d   1       0.322   3.891  -5.130  0.00  0.00    -0.007 A 
ATOM      6  C5  UNL d   1       0.050   4.946  -6.000  0.00  0.00     0.039 A 
ENDROOT
BRANCH   4   7
ATOM      7  O   UNL d   1       0.066   2.841  -3.035  0.00  0.00    -0.526 OA
ATOM      8  H5  UNL d   1      -0.401   2.966  -2.193  0.00  0.00     0.418 HD
ENDBRANCH   4   7
TORSDOF 1
ENDMDL
