MODEL 1
REMARK minimizedAffinity -4.67119646
REMARK minimizedRMSD -1
REMARK  0 active torsions:
REMARK  status: ('A' for Active; 'I' for Inactive)
ROOT
ATOM      1  C   UNL d   1      -0.196  -1.262  -0.595  0.00  0.00     0.020 A 
ATOM      2  C1  UNL d   1      -0.686   0.027  -0.392  0.00  0.00     0.020 A 
ATOM      3  C2  UNL d   1       0.134   1.004   0.178  0.00  0.00     0.034 A 
ATOM      4  C3  UNL d   1       1.448   0.692   0.547  0.00  0.00     0.017 A 
ATOM      5  C4  UNL d   1       1.939  -0.602   0.343  0.00  0.00     0.017 A 
ATOM      6  C5  UNL d   1       1.114  -1.576  -0.229  0.00  0.00     0.034 A 
ATOM      7 Cl   UNL d   1       3.549  -1.062   0.772  0.00  0.00    -0.070 Cl
ATOM      8 Cl1  UNL d   1       2.406   1.949   1.247  0.00  0.00    -0.070 Cl
ENDROOT
TORSDOF 0
ENDMDL
