MODEL 1
REMARK minimizedAffinity -2.46073604
REMARK minimizedRMSD -1
REMARK  0 active torsions:
REMARK  status: ('A' for Active; 'I' for Inactive)
ROOT
ATOM      1  C   UNL d   1      -0.355  -1.354  -1.230  0.00  0.00     0.020 A 
ATOM      2  C1  UNL d   1      -0.822  -0.042  -1.163  0.00  0.00     0.020 A 
ATOM      3  C2  UNL d   1      -0.181   0.885  -0.339  0.00  0.00     0.034 A 
ATOM      4  C3  UNL d   1       0.929   0.502   0.422  0.00  0.00     0.017 A 
ATOM      5  C4  UNL d   1       1.396  -0.815   0.355  0.00  0.00     0.017 A 
ATOM      6  C5  UNL d   1       0.751  -1.740  -0.473  0.00  0.00     0.034 A 
ATOM      7 Cl   UNL d   1       2.760  -1.363   1.264  0.00  0.00    -0.070 Cl
ATOM      8 Cl1  UNL d   1       1.672   1.701   1.420  0.00  0.00    -0.070 Cl
ENDROOT
TORSDOF 0
ENDMDL
