MODEL 1
REMARK minimizedAffinity 5.33721066
REMARK minimizedRMSD -1
REMARK  0 active torsions:
REMARK  status: ('A' for Active; 'I' for Inactive)
ROOT
ATOM      1  C   UNL d   1      -0.876  -2.846  -0.591  0.00  0.00     0.020 A 
ATOM      2  C1  UNL d   1      -1.591  -1.671  -0.364  0.00  0.00     0.020 A 
ATOM      3  C2  UNL d   1      -0.911  -0.484  -0.083  0.00  0.00     0.034 A 
ATOM      4  C3  UNL d   1       0.487  -0.470  -0.028  0.00  0.00     0.017 A 
ATOM      5  C4  UNL d   1       1.204  -1.650  -0.256  0.00  0.00     0.017 A 
ATOM      6  C5  UNL d   1       0.518  -2.836  -0.537  0.00  0.00     0.034 A 
ATOM      7 Cl   UNL d   1       2.930  -1.711  -0.204  0.00  0.00    -0.070 Cl
ATOM      8 Cl1  UNL d   1       1.262   1.034   0.325  0.00  0.00    -0.070 Cl
ENDROOT
TORSDOF 0
ENDMDL
