MODEL 1
REMARK minimizedAffinity 3.84302258
REMARK minimizedRMSD -1
REMARK  0 active torsions:
REMARK  status: ('A' for Active; 'I' for Inactive)
ROOT
ATOM      1  C   UNL d   1       2.316   1.513   0.698  0.00  0.00     0.020 A 
ATOM      2  C1  UNL d   1       3.454   1.510  -0.107  0.00  0.00     0.020 A 
ATOM      3  C2  UNL d   1       3.663   0.472  -1.018  0.00  0.00     0.034 A 
ATOM      4  C3  UNL d   1       2.732  -0.568  -1.125  0.00  0.00     0.017 A 
ATOM      5  C4  UNL d   1       1.590  -0.564  -0.316  0.00  0.00     0.017 A 
ATOM      6  C5  UNL d   1       1.386   0.478   0.594  0.00  0.00     0.034 A 
ATOM      7 Cl   UNL d   1       0.396  -1.812  -0.392  0.00  0.00    -0.070 Cl
ATOM      8 Cl1  UNL d   1       3.053  -1.819  -2.273  0.00  0.00    -0.070 Cl
ENDROOT
TORSDOF 0
ENDMDL
