MODEL 1
REMARK minimizedAffinity 2.46505833
REMARK minimizedRMSD -1
REMARK  0 active torsions:
REMARK  status: ('A' for Active; 'I' for Inactive)
ROOT
ATOM      1  C   UNL d   1      -3.806   1.494   1.887  0.00  0.00     0.020 A 
ATOM      2  C1  UNL d   1      -2.646   1.998   2.473  0.00  0.00     0.020 A 
ATOM      3  C2  UNL d   1      -1.468   2.084   1.729  0.00  0.00     0.034 A 
ATOM      4  C3  UNL d   1      -1.447   1.665   0.393  0.00  0.00     0.017 A 
ATOM      5  C4  UNL d   1      -2.612   1.159  -0.194  0.00  0.00     0.017 A 
ATOM      6  C5  UNL d   1      -3.789   1.075   0.556  0.00  0.00     0.034 A 
ATOM      7 Cl   UNL d   1      -2.664   0.623  -1.837  0.00  0.00    -0.070 Cl
ATOM      8 Cl1  UNL d   1       0.045   1.800  -0.468  0.00  0.00    -0.070 Cl
ENDROOT
TORSDOF 0
ENDMDL
