MODEL 1
REMARK minimizedAffinity -0.739575028
REMARK minimizedRMSD -1
REMARK  0 active torsions:
REMARK  status: ('A' for Active; 'I' for Inactive)
ROOT
ATOM      1  C   UNL d   1      -3.145   0.971   1.547  0.00  0.00     0.020 A 
ATOM      2  C1  UNL d   1      -2.490   1.937   2.310  0.00  0.00     0.020 A 
ATOM      3  C2  UNL d   1      -1.166   2.274   2.023  0.00  0.00     0.034 A 
ATOM      4  C3  UNL d   1      -0.491   1.644   0.971  0.00  0.00     0.017 A 
ATOM      5  C4  UNL d   1      -1.149   0.674   0.205  0.00  0.00     0.017 A 
ATOM      6  C5  UNL d   1      -2.476   0.341   0.497  0.00  0.00     0.034 A 
ATOM      7 Cl   UNL d   1      -0.383  -0.146  -1.109  0.00  0.00    -0.070 Cl
ATOM      8 Cl1  UNL d   1       1.146   2.109   0.672  0.00  0.00    -0.070 Cl
ENDROOT
TORSDOF 0
ENDMDL
