MODEL 1
REMARK minimizedAffinity 1.65017378
REMARK minimizedRMSD -1
REMARK  0 active torsions:
REMARK  status: ('A' for Active; 'I' for Inactive)
ROOT
ATOM      1  C   UNL d   1       0.504   0.820   0.001  0.00  0.00     0.020 A 
ATOM      2  C1  UNL d   1      -0.732   0.878  -0.642  0.00  0.00     0.020 A 
ATOM      3  C2  UNL d   1      -1.163  -0.195  -1.425  0.00  0.00     0.034 A 
ATOM      4  C3  UNL d   1      -0.357  -1.330  -1.568  0.00  0.00     0.017 A 
ATOM      5  C4  UNL d   1       0.883  -1.388  -0.922  0.00  0.00     0.017 A 
ATOM      6  C5  UNL d   1       1.310  -0.311  -0.139  0.00  0.00     0.034 A 
ATOM      7 Cl   UNL d   1       1.933  -2.755  -1.050  0.00  0.00    -0.070 Cl
ATOM      8 Cl1  UNL d   1      -0.953  -2.620  -2.551  0.00  0.00    -0.070 Cl
ENDROOT
TORSDOF 0
ENDMDL
