MODEL 1
REMARK minimizedAffinity 3.0984149
REMARK minimizedRMSD -1
REMARK  0 active torsions:
REMARK  status: ('A' for Active; 'I' for Inactive)
ROOT
ATOM      1  C   UNL d   1       4.911   6.000   4.327  0.00  0.00     0.020 A 
ATOM      2  C1  UNL d   1       5.671   5.667   5.447  0.00  0.00     0.020 A 
ATOM      3  C2  UNL d   1       5.642   4.363   5.948  0.00  0.00     0.034 A 
ATOM      4  C3  UNL d   1       4.852   3.388   5.328  0.00  0.00     0.017 A 
ATOM      5  C4  UNL d   1       4.090   3.724   4.203  0.00  0.00     0.017 A 
ATOM      6  C5  UNL d   1       4.123   5.031   3.706  0.00  0.00     0.034 A 
ATOM      7 Cl   UNL d   1       3.091   2.576   3.384  0.00  0.00    -0.070 Cl
ATOM      8 Cl1  UNL d   1       4.865   1.797   6.000  0.00  0.00    -0.070 Cl
ENDROOT
TORSDOF 0
ENDMDL
