MODEL 1
REMARK minimizedAffinity 7.16595793
REMARK minimizedRMSD -1
REMARK  0 active torsions:
REMARK  status: ('A' for Active; 'I' for Inactive)
ROOT
ATOM      1  C   UNL d   1       2.901   1.030  -0.177  0.00  0.00     0.020 A 
ATOM      2  C1  UNL d   1       1.677   0.427   0.110  0.00  0.00     0.020 A 
ATOM      3  C2  UNL d   1       0.989   0.765   1.277  0.00  0.00     0.034 A 
ATOM      4  C3  UNL d   1       1.524   1.707   2.162  0.00  0.00     0.017 A 
ATOM      5  C4  UNL d   1       2.753   2.312   1.874  0.00  0.00     0.017 A 
ATOM      6  C5  UNL d   1       3.438   1.970   0.703  0.00  0.00     0.034 A 
ATOM      7 Cl   UNL d   1       3.478   3.483   2.917  0.00  0.00    -0.070 Cl
ATOM      8 Cl1  UNL d   1       0.619   2.077   3.587  0.00  0.00    -0.070 Cl
ENDROOT
TORSDOF 0
ENDMDL
