MODEL 1
REMARK minimizedAffinity 14.8090658
REMARK minimizedRMSD -1
REMARK  0 active torsions:
REMARK  status: ('A' for Active; 'I' for Inactive)
ROOT
ATOM      1  C   UNL d   1      -5.990   4.456   5.490  0.00  0.00     0.020 A 
ATOM      2  C1  UNL d   1      -5.202   5.593   5.664  0.00  0.00     0.020 A 
ATOM      3  C2  UNL d   1      -4.330   6.000   4.652  0.00  0.00     0.034 A 
ATOM      4  C3  UNL d   1      -4.244   5.269   3.462  0.00  0.00     0.017 A 
ATOM      5  C4  UNL d   1      -5.035   4.128   3.288  0.00  0.00     0.017 A 
ATOM      6  C5  UNL d   1      -5.907   3.725   4.305  0.00  0.00     0.034 A 
ATOM      7 Cl   UNL d   1      -4.984   3.175   1.847  0.00  0.00    -0.070 Cl
ATOM      8 Cl1  UNL d   1      -3.144   5.829   2.253  0.00  0.00    -0.070 Cl
ENDROOT
TORSDOF 0
ENDMDL
