MODEL 1
REMARK minimizedAffinity 6.91391897
REMARK minimizedRMSD -1
REMARK  0 active torsions:
REMARK  status: ('A' for Active; 'I' for Inactive)
ROOT
ATOM      1  C   UNL d   1      -5.622   1.627   0.680  0.00  0.00     0.020 A 
ATOM      2  C1  UNL d   1      -5.887   0.747  -0.368  0.00  0.00     0.020 A 
ATOM      3  C2  UNL d   1      -5.999   1.229  -1.674  0.00  0.00     0.034 A 
ATOM      4  C3  UNL d   1      -5.846   2.596  -1.935  0.00  0.00     0.017 A 
ATOM      5  C4  UNL d   1      -5.579   3.479  -0.882  0.00  0.00     0.017 A 
ATOM      6  C5  UNL d   1      -5.468   2.990   0.424  0.00  0.00     0.034 A 
ATOM      7 Cl   UNL d   1      -5.377   5.178  -1.126  0.00  0.00    -0.070 Cl
ATOM      8 Cl1  UNL d   1      -5.997   3.122  -3.573  0.00  0.00    -0.070 Cl
ENDROOT
TORSDOF 0
ENDMDL
