MODEL 1
REMARK minimizedAffinity 9.12444782
REMARK minimizedRMSD -1
REMARK  0 active torsions:
REMARK  status: ('A' for Active; 'I' for Inactive)
ROOT
ATOM      1  C   UNL d   1       2.453   0.513  -1.001  0.00  0.00     0.020 A 
ATOM      2  C1  UNL d   1       3.471   1.377  -1.401  0.00  0.00     0.020 A 
ATOM      3  C2  UNL d   1       3.866   2.424  -0.565  0.00  0.00     0.034 A 
ATOM      4  C3  UNL d   1       3.243   2.608   0.675  0.00  0.00     0.017 A 
ATOM      5  C4  UNL d   1       2.222   1.740   1.075  0.00  0.00     0.017 A 
ATOM      6  C5  UNL d   1       1.830   0.693   0.234  0.00  0.00     0.034 A 
ATOM      7 Cl   UNL d   1       1.406   1.904   2.590  0.00  0.00    -0.070 Cl
ATOM      8 Cl1  UNL d   1       3.784   3.923   1.657  0.00  0.00    -0.070 Cl
ENDROOT
TORSDOF 0
ENDMDL
