MODEL 1
REMARK minimizedAffinity 11.5391293
REMARK minimizedRMSD -1
REMARK  0 active torsions:
REMARK  status: ('A' for Active; 'I' for Inactive)
ROOT
ATOM      1  C   UNL d   1       2.464   0.449  -0.185  0.00  0.00     0.020 A 
ATOM      2  C1  UNL d   1       3.188   1.640  -0.222  0.00  0.00     0.020 A 
ATOM      3  C2  UNL d   1       3.129   2.527   0.856  0.00  0.00     0.034 A 
ATOM      4  C3  UNL d   1       2.344   2.224   1.974  0.00  0.00     0.017 A 
ATOM      5  C4  UNL d   1       1.618   1.029   2.010  0.00  0.00     0.017 A 
ATOM      6  C5  UNL d   1       1.680   0.144   0.929  0.00  0.00     0.034 A 
ATOM      7 Cl   UNL d   1       0.627   0.586   3.356  0.00  0.00    -0.070 Cl
ATOM      8 Cl1  UNL d   1       2.318   3.367   3.270  0.00  0.00    -0.070 Cl
ENDROOT
TORSDOF 0
ENDMDL
