MODEL 1
REMARK minimizedAffinity 17.166769
REMARK minimizedRMSD -1
REMARK  0 active torsions:
REMARK  status: ('A' for Active; 'I' for Inactive)
ROOT
ATOM      1  C   UNL d   1       0.575  -1.369   5.439  0.00  0.00     0.020 A 
ATOM      2  C1  UNL d   1       0.159  -1.144   4.127  0.00  0.00     0.020 A 
ATOM      3  C2  UNL d   1      -0.367  -2.194   3.372  0.00  0.00     0.034 A 
ATOM      4  C3  UNL d   1      -0.478  -3.474   3.928  0.00  0.00     0.017 A 
ATOM      5  C4  UNL d   1      -0.060  -3.699   5.245  0.00  0.00     0.017 A 
ATOM      6  C5  UNL d   1       0.466  -2.643   5.996  0.00  0.00     0.034 A 
ATOM      7 Cl   UNL d   1      -0.166  -5.250   5.999  0.00  0.00    -0.070 Cl
ATOM      8 Cl1  UNL d   1      -1.138  -4.726   2.937  0.00  0.00    -0.070 Cl
ENDROOT
TORSDOF 0
ENDMDL
