MODEL 1
REMARK minimizedAffinity 2.65669537
REMARK minimizedRMSD -1
REMARK  0 active torsions:
REMARK  status: ('A' for Active; 'I' for Inactive)
ROOT
ATOM      1  C   UNL d   1       1.185  -1.772   0.848  0.00  0.00     0.020 A 
ATOM      2  C1  UNL d   1       1.577  -2.796  -0.013  0.00  0.00     0.020 A 
ATOM      3  C2  UNL d   1       2.492  -2.536  -1.036  0.00  0.00     0.034 A 
ATOM      4  C3  UNL d   1       3.017  -1.249  -1.200  0.00  0.00     0.017 A 
ATOM      5  C4  UNL d   1       2.622  -0.222  -0.336  0.00  0.00     0.017 A 
ATOM      6  C5  UNL d   1       1.706  -0.487   0.687  0.00  0.00     0.034 A 
ATOM      7 Cl   UNL d   1       3.227   1.392  -0.476  0.00  0.00    -0.070 Cl
ATOM      8 Cl1  UNL d   1       4.144  -0.999  -2.486  0.00  0.00    -0.070 Cl
ENDROOT
TORSDOF 0
ENDMDL
