MODEL 1
REMARK minimizedAffinity 7.61297607
REMARK minimizedRMSD -1
REMARK  0 active torsions:
REMARK  status: ('A' for Active; 'I' for Inactive)
ROOT
ATOM      1  C   UNL d   1      -5.991   5.397   5.515  0.00  0.00     0.020 A 
ATOM      2  C1  UNL d   1      -4.831   5.999   5.999  0.00  0.00     0.020 A 
ATOM      3  C2  UNL d   1      -3.669   6.000   5.225  0.00  0.00     0.034 A 
ATOM      4  C3  UNL d   1      -3.665   5.396   3.962  0.00  0.00     0.017 A 
ATOM      5  C4  UNL d   1      -4.830   4.791   3.477  0.00  0.00     0.017 A 
ATOM      6  C5  UNL d   1      -5.991   4.794   4.256  0.00  0.00     0.034 A 
ATOM      7 Cl   UNL d   1      -4.901   4.027   1.928  0.00  0.00    -0.070 Cl
ATOM      8 Cl1  UNL d   1      -2.192   5.434   3.059  0.00  0.00    -0.070 Cl
ENDROOT
TORSDOF 0
ENDMDL
