MODEL 1
REMARK minimizedAffinity 7.24611664
REMARK minimizedRMSD -1
REMARK  0 active torsions:
REMARK  status: ('A' for Active; 'I' for Inactive)
ROOT
ATOM      1  C   UNL d   1       5.388   2.862  -0.977  0.00  0.00     0.020 A 
ATOM      2  C1  UNL d   1       4.841   1.904  -1.830  0.00  0.00     0.020 A 
ATOM      3  C2  UNL d   1       3.750   1.139  -1.413  0.00  0.00     0.034 A 
ATOM      4  C3  UNL d   1       3.202   1.330  -0.139  0.00  0.00     0.017 A 
ATOM      5  C4  UNL d   1       3.752   2.291   0.717  0.00  0.00     0.017 A 
ATOM      6  C5  UNL d   1       4.844   3.055   0.294  0.00  0.00     0.034 A 
ATOM      7 Cl   UNL d   1       3.130   2.584   2.303  0.00  0.00    -0.070 Cl
ATOM      8 Cl1  UNL d   1       1.853   0.348   0.310  0.00  0.00    -0.070 Cl
ENDROOT
TORSDOF 0
ENDMDL
