MODEL 1
REMARK minimizedAffinity 11.6199999
REMARK minimizedRMSD -1
REMARK  0 active torsions:
REMARK  status: ('A' for Active; 'I' for Inactive)
ROOT
ATOM      1  C   UNL d   1       1.612   0.065  -0.671  0.00  0.00     0.020 A 
ATOM      2  C1  UNL d   1       2.061  -0.826   0.303  0.00  0.00     0.020 A 
ATOM      3  C2  UNL d   1       3.385  -0.769   0.742  0.00  0.00     0.034 A 
ATOM      4  C3  UNL d   1       4.265   0.180   0.208  0.00  0.00     0.017 A 
ATOM      5  C4  UNL d   1       3.812   1.074  -0.769  0.00  0.00     0.017 A 
ATOM      6  C5  UNL d   1       2.485   1.013  -1.206  0.00  0.00     0.034 A 
ATOM      7 Cl   UNL d   1       4.838   2.272  -1.475  0.00  0.00    -0.070 Cl
ATOM      8 Cl1  UNL d   1       5.888   0.193   0.799  0.00  0.00    -0.070 Cl
ENDROOT
TORSDOF 0
ENDMDL
