MODEL 1
REMARK minimizedAffinity 6.07404947
REMARK minimizedRMSD -1
REMARK  0 active torsions:
REMARK  status: ('A' for Active; 'I' for Inactive)
ROOT
ATOM      1  C   UNL d   1      -4.182   1.274  -5.235  0.00  0.00     0.020 A 
ATOM      2  C1  UNL d   1      -5.443   1.272  -4.640  0.00  0.00     0.020 A 
ATOM      3  C2  UNL d   1      -5.572   0.982  -3.280  0.00  0.00     0.034 A 
ATOM      4  C3  UNL d   1      -4.440   0.693  -2.511  0.00  0.00     0.017 A 
ATOM      5  C4  UNL d   1      -3.174   0.695  -3.109  0.00  0.00     0.017 A 
ATOM      6  C5  UNL d   1      -3.050   0.986  -4.471  0.00  0.00     0.034 A 
ATOM      7 Cl   UNL d   1      -1.730   0.349  -2.224  0.00  0.00    -0.070 Cl
ATOM      8 Cl1  UNL d   1      -4.674   0.344  -0.835  0.00  0.00    -0.070 Cl
ENDROOT
TORSDOF 0
ENDMDL
