MODEL 1
REMARK minimizedAffinity -3.20040035
REMARK minimizedRMSD -1
REMARK  1 active torsions:
REMARK  status: ('A' for Active; 'I' for Inactive)
REMARK    1  A    between atoms: N_2  and  C1_3 
ROOT
ATOM      1  C1  UNL d   1       1.933   1.206   0.385  0.00  0.00     0.143 A 
ATOM      2  C2  UNL d   1       2.230   1.260   1.751  0.00  0.00    -0.057 A 
ATOM      3  C3  UNL d   1       3.243   2.094   2.241  0.00  0.00     0.033 A 
ATOM      4  C4  UNL d   1       3.998   2.868   1.367  0.00  0.00    -0.042 A 
ATOM      5  C5  UNL d   1       3.737   2.812   0.002  0.00  0.00     0.033 A 
ATOM      6  C6  UNL d   1       2.720   1.983  -0.480  0.00  0.00    -0.057 A 
ENDROOT
BRANCH   1   7
ATOM      7  N   UNL d   1       1.004   0.325  -0.175  0.00  0.00    -0.732 N 
ATOM      8  C   UNL d   1      -0.388   0.701  -0.297  0.00  0.00     0.284 C 
ATOM      9  H3  UNL d   1       1.375  -0.167  -0.985  0.00  0.00     0.395 HD
ENDBRANCH   1   7
TORSDOF 1
ENDMDL
