MODEL 1
REMARK minimizedAffinity -2.91960883
REMARK minimizedRMSD -1
REMARK  1 active torsions:
REMARK  status: ('A' for Active; 'I' for Inactive)
REMARK    1  A    between atoms: N_2  and  C1_3 
ROOT
ATOM      1  C1  UNL d   1       1.956   0.822   0.063  0.00  0.00     0.143 A 
ATOM      2  C2  UNL d   1       2.739   1.658  -0.740  0.00  0.00    -0.057 A 
ATOM      3  C3  UNL d   1       3.291   2.841  -0.235  0.00  0.00     0.033 A 
ATOM      4  C4  UNL d   1       3.044   3.226   1.078  0.00  0.00    -0.042 A 
ATOM      5  C5  UNL d   1       2.248   2.423   1.888  0.00  0.00     0.033 A 
ATOM      6  C6  UNL d   1       1.705   1.239   1.379  0.00  0.00    -0.057 A 
ENDROOT
BRANCH   1   7
ATOM      7  N   UNL d   1       1.299  -0.317  -0.408  0.00  0.00    -0.732 N 
ATOM      8  C   UNL d   1       0.145  -0.197  -1.274  0.00  0.00     0.284 C 
ATOM      9  H3  UNL d   1       1.945  -1.055  -0.677  0.00  0.00     0.395 HD
ENDBRANCH   1   7
TORSDOF 1
ENDMDL
