MODEL 1
REMARK minimizedAffinity -3.66248059
REMARK minimizedRMSD -1
REMARK  1 active torsions:
REMARK  status: ('A' for Active; 'I' for Inactive)
REMARK    1  A    between atoms: N_2  and  C1_3 
ROOT
ATOM      1  C1  UNL d   1       3.674   3.658  -0.722  0.00  0.00     0.143 A 
ATOM      2  C2  UNL d   1       2.863   4.217   0.272  0.00  0.00    -0.057 A 
ATOM      3  C3  UNL d   1       2.134   3.409   1.153  0.00  0.00     0.033 A 
ATOM      4  C4  UNL d   1       2.180   2.024   1.036  0.00  0.00    -0.042 A 
ATOM      5  C5  UNL d   1       2.959   1.447   0.039  0.00  0.00     0.033 A 
ATOM      6  C6  UNL d   1       3.690   2.259  -0.833  0.00  0.00    -0.057 A 
ENDROOT
BRANCH   1   7
ATOM      7  N   UNL d   1       4.346   4.409  -1.690  0.00  0.00    -0.732 N 
ATOM      8  C   UNL d   1       4.938   3.764  -2.842  0.00  0.00     0.284 C 
ATOM      9  H3  UNL d   1       3.872   5.284  -1.901  0.00  0.00     0.395 HD
ENDBRANCH   1   7
TORSDOF 1
ENDMDL
