MODEL 1
REMARK minimizedAffinity -2.28918743
REMARK minimizedRMSD -1
REMARK  1 active torsions:
REMARK  status: ('A' for Active; 'I' for Inactive)
REMARK    1  A    between atoms: N_2  and  C1_3 
ROOT
ATOM      1  C1  UNL d   1       1.952   1.672   0.285  0.00  0.00     0.143 A 
ATOM      2  C2  UNL d   1       3.220   1.940  -0.242  0.00  0.00    -0.057 A 
ATOM      3  C3  UNL d   1       3.907   3.116   0.081  0.00  0.00     0.033 A 
ATOM      4  C4  UNL d   1       3.324   4.062   0.918  0.00  0.00    -0.042 A 
ATOM      5  C5  UNL d   1       2.054   3.829   1.434  0.00  0.00     0.033 A 
ATOM      6  C6  UNL d   1       1.376   2.649   1.112  0.00  0.00    -0.057 A 
ENDROOT
BRANCH   1   7
ATOM      7  N   UNL d   1       1.176   0.568  -0.076  0.00  0.00    -0.732 N 
ATOM      8  C   UNL d   1      -0.125   0.748  -0.683  0.00  0.00     0.284 C 
ATOM      9  H3  UNL d   1       1.731  -0.176  -0.493  0.00  0.00     0.395 HD
ENDBRANCH   1   7
TORSDOF 1
ENDMDL
