MODEL 1
REMARK minimizedAffinity -2.32624841
REMARK minimizedRMSD -1
REMARK  1 active torsions:
REMARK  status: ('A' for Active; 'I' for Inactive)
REMARK    1  A    between atoms: N_2  and  C1_3 
ROOT
ATOM      1  C1  UNL d   1       0.169   0.366  -0.211  0.00  0.00     0.143 A 
ATOM      2  C2  UNL d   1      -0.288   1.282  -1.164  0.00  0.00    -0.057 A 
ATOM      3  C3  UNL d   1      -1.340   0.963  -2.032  0.00  0.00     0.033 A 
ATOM      4  C4  UNL d   1      -1.936  -0.293  -1.980  0.00  0.00    -0.042 A 
ATOM      5  C5  UNL d   1      -1.481  -1.228  -1.057  0.00  0.00     0.033 A 
ATOM      6  C6  UNL d   1      -0.435  -0.901  -0.189  0.00  0.00    -0.057 A 
ENDROOT
BRANCH   1   7
ATOM      7  N   UNL d   1       1.275   0.588   0.613  0.00  0.00    -0.732 N 
ATOM      8  C   UNL d   1       2.067   1.791   0.476  0.00  0.00     0.284 C 
ATOM      9  H3  UNL d   1       1.104   0.311   1.577  0.00  0.00     0.395 HD
ENDBRANCH   1   7
TORSDOF 1
ENDMDL
