MODEL 1
REMARK minimizedAffinity -2.36300755
REMARK minimizedRMSD -1
REMARK  1 active torsions:
REMARK  status: ('A' for Active; 'I' for Inactive)
REMARK    1  A    between atoms: N_2  and  C1_3 
ROOT
ATOM      1  C1  UNL d   1      -0.958  -0.425  -0.763  0.00  0.00     0.143 A 
ATOM      2  C2  UNL d   1      -1.335  -1.351   0.216  0.00  0.00    -0.057 A 
ATOM      3  C3  UNL d   1      -0.443  -1.753   1.217  0.00  0.00     0.033 A 
ATOM      4  C4  UNL d   1       0.856  -1.256   1.240  0.00  0.00    -0.042 A 
ATOM      5  C5  UNL d   1       1.261  -0.354   0.262  0.00  0.00     0.033 A 
ATOM      6  C6  UNL d   1       0.363   0.049  -0.731  0.00  0.00    -0.057 A 
ENDROOT
BRANCH   1   7
ATOM      7  N   UNL d   1      -1.767  -0.061  -1.842  0.00  0.00    -0.732 N 
ATOM      8  C   UNL d   1      -1.323   0.935  -2.793  0.00  0.00     0.284 C 
ATOM      9  H3  UNL d   1      -2.235  -0.860  -2.264  0.00  0.00     0.395 HD
ENDBRANCH   1   7
TORSDOF 1
ENDMDL
