MODEL 1
REMARK minimizedAffinity 3.40462828
REMARK minimizedRMSD -1
REMARK  1 active torsions:
REMARK  status: ('A' for Active; 'I' for Inactive)
REMARK    1  A    between atoms: N_2  and  C1_3 
ROOT
ATOM      1  C1  UNL d   1      -2.054   0.374  -2.230  0.00  0.00     0.143 A 
ATOM      2  C2  UNL d   1      -2.784   0.044  -1.083  0.00  0.00    -0.057 A 
ATOM      3  C3  UNL d   1      -2.827  -1.271  -0.603  0.00  0.00     0.033 A 
ATOM      4  C4  UNL d   1      -2.161  -2.287  -1.281  0.00  0.00    -0.042 A 
ATOM      5  C5  UNL d   1      -1.450  -1.986  -2.437  0.00  0.00     0.033 A 
ATOM      6  C6  UNL d   1      -1.406  -0.670  -2.907  0.00  0.00    -0.057 A 
ENDROOT
BRANCH   1   7
ATOM      7  N   UNL d   1      -2.053   1.644  -2.813  0.00  0.00    -0.732 N 
ATOM      8  C   UNL d   1      -1.175   1.945  -3.922  0.00  0.00     0.284 C 
ATOM      9  H3  UNL d   1      -2.990   2.028  -2.908  0.00  0.00     0.395 HD
ENDBRANCH   1   7
TORSDOF 1
ENDMDL
