MODEL 1
REMARK minimizedAffinity -3.54239511
REMARK minimizedRMSD -1
REMARK  1 active torsions:
REMARK  status: ('A' for Active; 'I' for Inactive)
REMARK    1  A    between atoms: N_2  and  C1_3 
ROOT
ATOM      1  C1  UNL d   1       1.435   0.673   0.491  0.00  0.00     0.143 A 
ATOM      2  C2  UNL d   1       2.146   1.480  -0.403  0.00  0.00    -0.057 A 
ATOM      3  C3  UNL d   1       3.164   2.334   0.039  0.00  0.00     0.033 A 
ATOM      4  C4  UNL d   1       3.470   2.417   1.394  0.00  0.00    -0.042 A 
ATOM      5  C5  UNL d   1       2.760   1.642   2.304  0.00  0.00     0.033 A 
ATOM      6  C6  UNL d   1       1.749   0.787   1.855  0.00  0.00    -0.057 A 
ENDROOT
BRANCH   1   7
ATOM      7  N   UNL d   1       0.347  -0.122   0.126  0.00  0.00    -0.732 N 
ATOM      8  C   UNL d   1      -0.301   0.059  -1.156  0.00  0.00     0.284 C 
ATOM      9  H3  UNL d   1       0.469  -1.095   0.396  0.00  0.00     0.395 HD
ENDBRANCH   1   7
TORSDOF 1
ENDMDL
