MODEL 1
REMARK minimizedAffinity -3.18683004
REMARK minimizedRMSD -1
REMARK  1 active torsions:
REMARK  status: ('A' for Active; 'I' for Inactive)
REMARK    1  A    between atoms: N_2  and  C1_3 
ROOT
ATOM      1  C1  UNL d   1       3.079   3.096   0.617  0.00  0.00     0.143 A 
ATOM      2  C2  UNL d   1       2.688   3.102   1.961  0.00  0.00    -0.057 A 
ATOM      3  C3  UNL d   1       2.190   1.948   2.577  0.00  0.00     0.033 A 
ATOM      4  C4  UNL d   1       2.045   0.771   1.849  0.00  0.00    -0.042 A 
ATOM      5  C5  UNL d   1       2.404   0.749   0.506  0.00  0.00     0.033 A 
ATOM      6  C6  UNL d   1       2.907   1.903  -0.102  0.00  0.00    -0.057 A 
ENDROOT
BRANCH   1   7
ATOM      7  N   UNL d   1       3.489   4.236  -0.078  0.00  0.00    -0.732 N 
ATOM      8  C   UNL d   1       4.272   4.119  -1.290  0.00  0.00     0.284 C 
ATOM      9  H3  UNL d   1       2.764   4.948  -0.119  0.00  0.00     0.395 HD
ENDBRANCH   1   7
TORSDOF 1
ENDMDL
