MODEL 1
REMARK minimizedAffinity -3.47104335
REMARK minimizedRMSD -1
REMARK  1 active torsions:
REMARK  status: ('A' for Active; 'I' for Inactive)
REMARK    1  A    between atoms: N_2  and  C1_3 
ROOT
ATOM      1  C1  UNL d   1      -0.955  -0.338  -0.145  0.00  0.00     0.143 A 
ATOM      2  C2  UNL d   1      -2.155  -0.273  -0.861  0.00  0.00    -0.057 A 
ATOM      3  C3  UNL d   1      -3.069  -1.334  -0.845  0.00  0.00     0.033 A 
ATOM      4  C4  UNL d   1      -2.783  -2.495  -0.134  0.00  0.00    -0.042 A 
ATOM      5  C5  UNL d   1      -1.584  -2.592   0.564  0.00  0.00     0.033 A 
ATOM      6  C6  UNL d   1      -0.679  -1.526   0.550  0.00  0.00    -0.057 A 
ENDROOT
BRANCH   1   7
ATOM      7  N   UNL d   1       0.038   0.643  -0.201  0.00  0.00    -0.732 N 
ATOM      8  C   UNL d   1       1.427   0.299   0.014  0.00  0.00     0.284 C 
ATOM      9  H3  UNL d   1      -0.114   1.307  -0.957  0.00  0.00     0.395 HD
ENDBRANCH   1   7
TORSDOF 1
ENDMDL
