MODEL 1
REMARK minimizedAffinity -3.46849012
REMARK minimizedRMSD -1
REMARK  1 active torsions:
REMARK  status: ('A' for Active; 'I' for Inactive)
REMARK    1  A    between atoms: N_2  and  C1_3 
ROOT
ATOM      1  C1  UNL d   1       0.464   0.260  -0.148  0.00  0.00     0.143 A 
ATOM      2  C2  UNL d   1      -0.420  -0.639   0.457  0.00  0.00    -0.057 A 
ATOM      3  C3  UNL d   1      -1.688  -0.885  -0.083  0.00  0.00     0.033 A 
ATOM      4  C4  UNL d   1      -2.106  -0.213  -1.226  0.00  0.00    -0.042 A 
ATOM      5  C5  UNL d   1      -1.253   0.704  -1.831  0.00  0.00     0.033 A 
ATOM      6  C6  UNL d   1       0.014   0.940  -1.291  0.00  0.00    -0.057 A 
ENDROOT
BRANCH   1   7
ATOM      7  N   UNL d   1       1.700   0.621   0.395  0.00  0.00    -0.732 N 
ATOM      8  C   UNL d   1       1.905   1.944   0.945  0.00  0.00     0.284 C 
ATOM      9  H3  UNL d   1       2.116  -0.126   0.945  0.00  0.00     0.395 HD
ENDBRANCH   1   7
TORSDOF 1
ENDMDL
