MODEL 1
REMARK minimizedAffinity -0.550593793
REMARK minimizedRMSD -1
REMARK  1 active torsions:
REMARK  status: ('A' for Active; 'I' for Inactive)
REMARK    1  A    between atoms: N_2  and  C1_3 
ROOT
ATOM      1  C1  UNL d   1      -0.874  -0.514  -0.215  0.00  0.00     0.143 A 
ATOM      2  C2  UNL d   1      -2.047  -0.879  -0.885  0.00  0.00    -0.057 A 
ATOM      3  C3  UNL d   1      -2.778  -2.011  -0.505  0.00  0.00     0.033 A 
ATOM      4  C4  UNL d   1      -2.331  -2.818   0.537  0.00  0.00    -0.042 A 
ATOM      5  C5  UNL d   1      -1.155  -2.489   1.200  0.00  0.00     0.033 A 
ATOM      6  C6  UNL d   1      -0.433  -1.353   0.821  0.00  0.00    -0.057 A 
ENDROOT
BRANCH   1   7
ATOM      7  N   UNL d   1      -0.050   0.543  -0.608  0.00  0.00    -0.732 N 
ATOM      8  C   UNL d   1       1.258   0.718  -0.016  0.00  0.00     0.284 C 
ATOM      9  H3  UNL d   1      -0.077   0.703  -1.613  0.00  0.00     0.395 HD
ENDBRANCH   1   7
TORSDOF 1
ENDMDL
