MODEL 1
REMARK minimizedAffinity -2.88673806
REMARK minimizedRMSD -1
REMARK  1 active torsions:
REMARK  status: ('A' for Active; 'I' for Inactive)
REMARK    1  A    between atoms: N_2  and  C1_3 
ROOT
ATOM      1  C1  UNL d   1       3.596   3.671  -0.669  0.00  0.00     0.143 A 
ATOM      2  C2  UNL d   1       3.314   2.307  -0.801  0.00  0.00    -0.057 A 
ATOM      3  C3  UNL d   1       2.749   1.578   0.252  0.00  0.00     0.033 A 
ATOM      4  C4  UNL d   1       2.481   2.195   1.469  0.00  0.00    -0.042 A 
ATOM      5  C5  UNL d   1       2.776   3.544   1.631  0.00  0.00     0.033 A 
ATOM      6  C6  UNL d   1       3.335   4.269   0.574  0.00  0.00    -0.057 A 
ENDROOT
BRANCH   1   7
ATOM      7  N   UNL d   1       4.249   4.428  -1.645  0.00  0.00    -0.732 N 
ATOM      8  C   UNL d   1       4.928   3.782  -2.748  0.00  0.00     0.284 C 
ATOM      9  H3  UNL d   1       3.723   5.258  -1.910  0.00  0.00     0.395 HD
ENDBRANCH   1   7
TORSDOF 1
ENDMDL
