MODEL 1
REMARK minimizedAffinity 3.37956476
REMARK minimizedRMSD -1
REMARK  0 active torsions:
REMARK  status: ('A' for Active; 'I' for Inactive)
ROOT
ATOM      1  C   UNL d   1       3.794   0.530  -0.417  0.00  0.00     0.078 C 
ATOM      2  C1  UNL d   1       3.055  -0.775  -0.436  0.00  0.00    -0.077 A 
ATOM      3  C2  UNL d   1       2.974  -1.575   0.710  0.00  0.00    -0.001 A 
ATOM      4  C3  UNL d   1       2.291  -2.792   0.675  0.00  0.00     0.003 A 
ATOM      5  C4  UNL d   1       1.685  -3.220  -0.504  0.00  0.00    -0.005 A 
ATOM      6  C5  UNL d   1       1.762  -2.431  -1.651  0.00  0.00     0.003 A 
ATOM      7  C6  UNL d   1       2.444  -1.214  -1.617  0.00  0.00    -0.001 A 
ENDROOT
TORSDOF 0
ENDMDL
