MODEL 1
REMARK minimizedAffinity 1.94677317
REMARK minimizedRMSD -1
REMARK  0 active torsions:
REMARK  status: ('A' for Active; 'I' for Inactive)
ROOT
ATOM      1  C   UNL d   1      -1.167   0.643  -2.172  0.00  0.00     0.078 C 
ATOM      2  C1  UNL d   1      -2.324   0.448  -3.105  0.00  0.00    -0.077 A 
ATOM      3  C2  UNL d   1      -3.335  -0.477  -2.817  0.00  0.00    -0.001 A 
ATOM      4  C3  UNL d   1      -4.402  -0.655  -3.700  0.00  0.00     0.003 A 
ATOM      5  C4  UNL d   1      -4.467   0.087  -4.877  0.00  0.00    -0.005 A 
ATOM      6  C5  UNL d   1      -3.464   1.008  -5.174  0.00  0.00     0.003 A 
ATOM      7  C6  UNL d   1      -2.397   1.188  -4.292  0.00  0.00    -0.001 A 
ENDROOT
TORSDOF 0
ENDMDL
