MODEL 1
REMARK minimizedAffinity -0.407605618
REMARK minimizedRMSD -1
REMARK  0 active torsions:
REMARK  status: ('A' for Active; 'I' for Inactive)
ROOT
ATOM      1  C   UNL d   1       4.182   0.516  -0.807  0.00  0.00     0.078 C 
ATOM      2  C1  UNL d   1       4.740   1.877  -0.514  0.00  0.00    -0.077 A 
ATOM      3  C2  UNL d   1       5.495   2.114   0.641  0.00  0.00    -0.001 A 
ATOM      4  C3  UNL d   1       6.000   3.388   0.906  0.00  0.00     0.003 A 
ATOM      5  C4  UNL d   1       5.755   4.435   0.020  0.00  0.00    -0.005 A 
ATOM      6  C5  UNL d   1       5.003   4.210  -1.131  0.00  0.00     0.003 A 
ATOM      7  C6  UNL d   1       4.497   2.937  -1.397  0.00  0.00    -0.001 A 
ENDROOT
TORSDOF 0
ENDMDL
