MODEL 1
REMARK minimizedAffinity 4.81319427
REMARK minimizedRMSD -1
REMARK  0 active torsions:
REMARK  status: ('A' for Active; 'I' for Inactive)
ROOT
ATOM      1  C   UNL d   1       4.453   0.937  -0.501  0.00  0.00     0.078 C 
ATOM      2  C1  UNL d   1       3.941  -0.338  -1.101  0.00  0.00    -0.077 A 
ATOM      3  C2  UNL d   1       4.276  -0.705  -2.410  0.00  0.00    -0.001 A 
ATOM      4  C3  UNL d   1       3.784  -1.890  -2.959  0.00  0.00     0.003 A 
ATOM      5  C4  UNL d   1       2.954  -2.718  -2.207  0.00  0.00    -0.005 A 
ATOM      6  C5  UNL d   1       2.613  -2.361  -0.904  0.00  0.00     0.003 A 
ATOM      7  C6  UNL d   1       3.104  -1.176  -0.353  0.00  0.00    -0.001 A 
ENDROOT
TORSDOF 0
ENDMDL
