MODEL 1
REMARK minimizedAffinity 7.00622272
REMARK minimizedRMSD -1
REMARK  0 active torsions:
REMARK  status: ('A' for Active; 'I' for Inactive)
ROOT
ATOM      1  C   UNL d   1       5.828   3.459  -1.533  0.00  0.00     0.078 C 
ATOM      2  C1  UNL d   1       5.079   2.244  -1.072  0.00  0.00    -0.077 A 
ATOM      3  C2  UNL d   1       4.402   1.425  -1.983  0.00  0.00    -0.001 A 
ATOM      4  C3  UNL d   1       3.701   0.303  -1.538  0.00  0.00     0.003 A 
ATOM      5  C4  UNL d   1       3.669  -0.009  -0.180  0.00  0.00    -0.005 A 
ATOM      6  C5  UNL d   1       4.338   0.802   0.734  0.00  0.00     0.003 A 
ATOM      7  C6  UNL d   1       5.040   1.924   0.291  0.00  0.00    -0.001 A 
ENDROOT
TORSDOF 0
ENDMDL
