MODEL 1
REMARK minimizedAffinity 2.40998745
REMARK minimizedRMSD -1
REMARK  0 active torsions:
REMARK  status: ('A' for Active; 'I' for Inactive)
ROOT
ATOM      1  C   UNL d   1       5.570   2.239  -1.321  0.00  0.00     0.078 C 
ATOM      2  C1  UNL d   1       5.120   0.907  -0.799  0.00  0.00    -0.077 A 
ATOM      3  C2  UNL d   1       5.999   0.071  -0.101  0.00  0.00    -0.001 A 
ATOM      4  C3  UNL d   1       5.569  -1.170   0.370  0.00  0.00     0.003 A 
ATOM      5  C4  UNL d   1       4.258  -1.587   0.147  0.00  0.00    -0.005 A 
ATOM      6  C5  UNL d   1       3.376  -0.763  -0.549  0.00  0.00     0.003 A 
ATOM      7  C6  UNL d   1       3.805   0.479  -1.021  0.00  0.00    -0.001 A 
ENDROOT
TORSDOF 0
ENDMDL
