MODEL 1
REMARK minimizedAffinity 9.62777042
REMARK minimizedRMSD -1
REMARK  0 active torsions:
REMARK  status: ('A' for Active; 'I' for Inactive)
ROOT
ATOM      1  C   UNL d   1       2.586  -1.354  -0.798  0.00  0.00     0.078 C 
ATOM      2  C1  UNL d   1       3.775  -0.442  -0.753  0.00  0.00    -0.077 A 
ATOM      3  C2  UNL d   1       4.904  -0.765   0.010  0.00  0.00    -0.001 A 
ATOM      4  C3  UNL d   1       6.000   0.098   0.051  0.00  0.00     0.003 A 
ATOM      5  C4  UNL d   1       5.978   1.291  -0.670  0.00  0.00    -0.005 A 
ATOM      6  C5  UNL d   1       4.859   1.622  -1.430  0.00  0.00     0.003 A 
ATOM      7  C6  UNL d   1       3.761   0.760  -1.472  0.00  0.00    -0.001 A 
ENDROOT
TORSDOF 0
ENDMDL
