MODEL 1
REMARK minimizedAffinity 0.0342865027
REMARK minimizedRMSD -1
REMARK  0 active torsions:
REMARK  status: ('A' for Active; 'I' for Inactive)
ROOT
ATOM      1  C   UNL d   1       3.033  -0.216  -0.487  0.00  0.00     0.078 C 
ATOM      2  C1  UNL d   1       2.134  -1.415  -0.545  0.00  0.00    -0.077 A 
ATOM      3  C2  UNL d   1       2.383  -2.541   0.249  0.00  0.00    -0.001 A 
ATOM      4  C3  UNL d   1       1.544  -3.654   0.177  0.00  0.00     0.003 A 
ATOM      5  C4  UNL d   1       0.451  -3.653  -0.688  0.00  0.00    -0.005 A 
ATOM      6  C5  UNL d   1       0.197  -2.537  -1.483  0.00  0.00     0.003 A 
ATOM      7  C6  UNL d   1       1.035  -1.423  -1.413  0.00  0.00    -0.001 A 
ENDROOT
TORSDOF 0
ENDMDL
