MODEL 1
REMARK minimizedAffinity 9.00461197
REMARK minimizedRMSD -1
REMARK  0 active torsions:
REMARK  status: ('A' for Active; 'I' for Inactive)
ROOT
ATOM      1  C   UNL d   1      -4.141   1.926   2.128  0.00  0.00     0.078 C 
ATOM      2  C1  UNL d   1      -2.707   2.098   1.726  0.00  0.00    -0.077 A 
ATOM      3  C2  UNL d   1      -2.163   3.372   1.522  0.00  0.00    -0.001 A 
ATOM      4  C3  UNL d   1      -0.828   3.516   1.138  0.00  0.00     0.003 A 
ATOM      5  C4  UNL d   1      -0.028   2.390   0.954  0.00  0.00    -0.005 A 
ATOM      6  C5  UNL d   1      -0.561   1.119   1.153  0.00  0.00     0.003 A 
ATOM      7  C6  UNL d   1      -1.895   0.972   1.536  0.00  0.00    -0.001 A 
ENDROOT
TORSDOF 0
ENDMDL
