MODEL 1
REMARK minimizedAffinity -1.21183968
REMARK minimizedRMSD -1
REMARK  0 active torsions:
REMARK  status: ('A' for Active; 'I' for Inactive)
ROOT
ATOM      1  C   UNL d   1      -0.835  -1.231   2.176  0.00  0.00     0.172 C 
ATOM      2  N   UNL d   1      -0.375  -2.200   3.142  0.00  0.00    -0.070 N 
ATOM      3  C1  UNL d   1      -1.147  -3.162   3.738  0.00  0.00    -0.004 A 
ATOM      4  C2  UNL d   1      -0.340  -3.882   4.592  0.00  0.00    -0.047 A 
ATOM      5  C3  UNL d   1       0.962  -3.333   4.507  0.00  0.00    -0.047 A 
ATOM      6  C4  UNL d   1       0.912  -2.294   3.602  0.00  0.00    -0.004 A 
ENDROOT
TORSDOF 0
ENDMDL
