MODEL 1
REMARK minimizedAffinity 0.576643348
REMARK minimizedRMSD -1
REMARK  0 active torsions:
REMARK  status: ('A' for Active; 'I' for Inactive)
ROOT
ATOM      1  C   UNL d   1      -3.099  -3.565   4.571  0.00  0.00     0.172 C 
ATOM      2  N   UNL d   1      -4.133  -4.551   4.779  0.00  0.00    -0.070 N 
ATOM      3  C1  UNL d   1      -4.915  -5.107   3.802  0.00  0.00    -0.004 A 
ATOM      4  C2  UNL d   1      -5.774  -6.000   4.406  0.00  0.00    -0.047 A 
ATOM      5  C3  UNL d   1      -5.500  -5.979   5.794  0.00  0.00    -0.047 A 
ATOM      6  C4  UNL d   1      -4.480  -5.074   5.997  0.00  0.00    -0.004 A 
ENDROOT
TORSDOF 0
ENDMDL
