MODEL 1
REMARK minimizedAffinity -1.05968428
REMARK minimizedRMSD -1
REMARK  0 active torsions:
REMARK  status: ('A' for Active; 'I' for Inactive)
ROOT
ATOM      1  C   UNL d   1      -4.886  -5.999  -5.975  0.00  0.00     0.172 C 
ATOM      2  N   UNL d   1      -3.668  -5.224  -5.932  0.00  0.00    -0.070 N 
ATOM      3  C1  UNL d   1      -3.593  -3.862  -5.819  0.00  0.00    -0.004 A 
ATOM      4  C2  UNL d   1      -2.260  -3.512  -5.813  0.00  0.00    -0.047 A 
ATOM      5  C3  UNL d   1      -1.508  -4.705  -5.928  0.00  0.00    -0.047 A 
ATOM      6  C4  UNL d   1      -2.405  -5.750  -6.000  0.00  0.00    -0.004 A 
ENDROOT
TORSDOF 0
ENDMDL
