MODEL 1
REMARK minimizedAffinity -1.7415657
REMARK minimizedRMSD -1
REMARK  0 active torsions:
REMARK  status: ('A' for Active; 'I' for Inactive)
ROOT
ATOM      1  C   UNL d   1      -5.576  -5.989  -5.999  0.00  0.00     0.172 C 
ATOM      2  N   UNL d   1      -4.280  -5.353  -5.977  0.00  0.00    -0.070 N 
ATOM      3  C1  UNL d   1      -3.073  -6.000  -5.999  0.00  0.00    -0.004 A 
ATOM      4  C2  UNL d   1      -2.081  -5.043  -5.966  0.00  0.00    -0.047 A 
ATOM      5  C3  UNL d   1      -2.714  -3.778  -5.920  0.00  0.00    -0.047 A 
ATOM      6  C4  UNL d   1      -4.075  -4.000  -5.928  0.00  0.00    -0.004 A 
ENDROOT
TORSDOF 0
ENDMDL
