MODEL 1
REMARK minimizedAffinity 0.727339923
REMARK minimizedRMSD -1
REMARK  0 active torsions:
REMARK  status: ('A' for Active; 'I' for Inactive)
ROOT
ATOM      1  C   UNL d   1      -3.373  -0.723  -1.155  0.00  0.00     0.172 C 
ATOM      2  N   UNL d   1      -2.055  -0.670  -0.567  0.00  0.00    -0.070 N 
ATOM      3  C1  UNL d   1      -1.535   0.386   0.133  0.00  0.00    -0.004 A 
ATOM      4  C2  UNL d   1      -0.259   0.045   0.525  0.00  0.00    -0.047 A 
ATOM      5  C3  UNL d   1      -0.003  -1.261   0.043  0.00  0.00    -0.047 A 
ATOM      6  C4  UNL d   1      -1.132  -1.680  -0.629  0.00  0.00    -0.004 A 
ENDROOT
TORSDOF 0
ENDMDL
