MODEL 1
REMARK minimizedAffinity 3.83994079
REMARK minimizedRMSD -1
REMARK  0 active torsions:
REMARK  status: ('A' for Active; 'I' for Inactive)
ROOT
ATOM      1  C   UNL d   1      -4.026  -2.984   5.945  0.00  0.00     0.172 C 
ATOM      2  N   UNL d   1      -4.601  -4.208   5.439  0.00  0.00    -0.070 N 
ATOM      3  C1  UNL d   1      -5.648  -4.890   6.000  0.00  0.00    -0.004 A 
ATOM      4  C2  UNL d   1      -5.895  -6.000   5.221  0.00  0.00    -0.047 A 
ATOM      5  C3  UNL d   1      -4.963  -5.985   4.157  0.00  0.00    -0.047 A 
ATOM      6  C4  UNL d   1      -4.174  -4.865   4.316  0.00  0.00    -0.004 A 
ENDROOT
TORSDOF 0
ENDMDL
