MODEL 1
REMARK minimizedAffinity 0.855453193
REMARK minimizedRMSD -1
REMARK  0 active torsions:
REMARK  status: ('A' for Active; 'I' for Inactive)
ROOT
ATOM      1  C   UNL d   1      -1.880  -2.322  -0.694  0.00  0.00     0.172 C 
ATOM      2  N   UNL d   1      -0.783  -1.605  -0.088  0.00  0.00    -0.070 N 
ATOM      3  C1  UNL d   1       0.493  -2.078   0.064  0.00  0.00    -0.004 A 
ATOM      4  C2  UNL d   1       1.236  -1.096   0.684  0.00  0.00    -0.047 A 
ATOM      5  C3  UNL d   1       0.376   0.005   0.912  0.00  0.00    -0.047 A 
ATOM      6  C4  UNL d   1      -0.867  -0.337   0.425  0.00  0.00    -0.004 A 
ENDROOT
TORSDOF 0
ENDMDL
