MODEL 1
REMARK minimizedAffinity 2.30054617
REMARK minimizedRMSD -1
REMARK  0 active torsions:
REMARK  status: ('A' for Active; 'I' for Inactive)
ROOT
ATOM      1  C   UNL d   1      -3.026  -2.411  -5.633  0.00  0.00     0.172 C 
ATOM      2  N   UNL d   1      -2.635  -3.796  -5.750  0.00  0.00    -0.070 N 
ATOM      3  C1  UNL d   1      -1.352  -4.271  -5.696  0.00  0.00    -0.004 A 
ATOM      4  C2  UNL d   1      -1.402  -5.640  -5.847  0.00  0.00    -0.047 A 
ATOM      5  C3  UNL d   1      -2.762  -6.000  -5.998  0.00  0.00    -0.047 A 
ATOM      6  C4  UNL d   1      -3.504  -4.839  -5.935  0.00  0.00    -0.004 A 
ENDROOT
TORSDOF 0
ENDMDL
