MODEL 1
REMARK minimizedAffinity 0.0084029818
REMARK minimizedRMSD -1
REMARK  0 active torsions:
REMARK  status: ('A' for Active; 'I' for Inactive)
ROOT
ATOM      1  C   UNL d   1      -4.622  -5.893  -5.745  0.00  0.00     0.172 C 
ATOM      2  N   UNL d   1      -3.305  -5.307  -5.832  0.00  0.00    -0.070 N 
ATOM      3  C1  UNL d   1      -2.129  -6.000  -5.939  0.00  0.00    -0.004 A 
ATOM      4  C2  UNL d   1      -1.102  -5.082  -5.997  0.00  0.00    -0.047 A 
ATOM      5  C3  UNL d   1      -1.681  -3.793  -5.922  0.00  0.00    -0.047 A 
ATOM      6  C4  UNL d   1      -3.046  -3.962  -5.821  0.00  0.00    -0.004 A 
ENDROOT
TORSDOF 0
ENDMDL
