MODEL 1
REMARK minimizedAffinity 3.47096443
REMARK minimizedRMSD -1
REMARK  0 active torsions:
REMARK  status: ('A' for Active; 'I' for Inactive)
ROOT
ATOM      1  C   UNL d   1       0.055  -1.597   1.339  0.00  0.00     0.172 C 
ATOM      2  N   UNL d   1       0.279  -2.266   2.599  0.00  0.00    -0.070 N 
ATOM      3  C1  UNL d   1      -0.552  -2.220   3.687  0.00  0.00    -0.004 A 
ATOM      4  C2  UNL d   1       0.013  -2.986   4.683  0.00  0.00    -0.047 A 
ATOM      5  C3  UNL d   1       1.227  -3.509   4.178  0.00  0.00    -0.047 A 
ATOM      6  C4  UNL d   1       1.367  -3.048   2.886  0.00  0.00    -0.004 A 
ENDROOT
TORSDOF 0
ENDMDL
