MODEL 1
REMARK minimizedAffinity 4.9030962
REMARK minimizedRMSD -1
REMARK  0 active torsions:
REMARK  status: ('A' for Active; 'I' for Inactive)
ROOT
ATOM      1  C   UNL d   1      -4.291   4.369  -1.540  0.00  0.00     0.172 C 
ATOM      2  N   UNL d   1      -3.277   3.753  -2.363  0.00  0.00    -0.070 N 
ATOM      3  C1  UNL d   1      -3.193   3.841  -3.727  0.00  0.00    -0.004 A 
ATOM      4  C2  UNL d   1      -2.090   3.119  -4.129  0.00  0.00    -0.047 A 
ATOM      5  C3  UNL d   1      -1.492   2.577  -2.967  0.00  0.00    -0.047 A 
ATOM      6  C4  UNL d   1      -2.247   2.985  -1.888  0.00  0.00    -0.004 A 
ENDROOT
TORSDOF 0
ENDMDL
