MODEL 1
REMARK minimizedAffinity -1.70994139
REMARK minimizedRMSD -1
REMARK  0 active torsions:
REMARK  status: ('A' for Active; 'I' for Inactive)
ROOT
ATOM      1  C   UNL d   1       0.463   2.972  -3.870  0.00  0.00     0.172 C 
ATOM      2  N   UNL d   1       1.753   2.482  -3.447  0.00  0.00    -0.070 N 
ATOM      3  C1  UNL d   1       2.955   3.096  -3.677  0.00  0.00    -0.004 A 
ATOM      4  C2  UNL d   1       3.943   2.315  -3.116  0.00  0.00    -0.047 A 
ATOM      5  C3  UNL d   1       3.313   1.192  -2.530  0.00  0.00    -0.047 A 
ATOM      6  C4  UNL d   1       1.957   1.321  -2.749  0.00  0.00    -0.004 A 
ENDROOT
TORSDOF 0
ENDMDL
