MODEL 1
REMARK minimizedAffinity -4.05184698
REMARK minimizedRMSD -1
REMARK  0 active torsions:
REMARK  status: ('A' for Active; 'I' for Inactive)
ROOT
ATOM      1  C   UNL d   1      -1.897  -2.375  -0.089  0.00  0.00     0.172 C 
ATOM      2  N   UNL d   1      -1.864  -2.217   1.346  0.00  0.00    -0.070 N 
ATOM      3  C1  UNL d   1      -2.958  -2.129   2.165  0.00  0.00    -0.004 A 
ATOM      4  C2  UNL d   1      -2.506  -1.986   3.459  0.00  0.00    -0.047 A 
ATOM      5  C3  UNL d   1      -1.092  -1.988   3.416  0.00  0.00    -0.047 A 
ATOM      6  C4  UNL d   1      -0.721  -2.132   2.096  0.00  0.00    -0.004 A 
ENDROOT
TORSDOF 0
ENDMDL
