MODEL 1
REMARK minimizedAffinity 4.64633083
REMARK minimizedRMSD -1
REMARK  0 active torsions:
REMARK  status: ('A' for Active; 'I' for Inactive)
ROOT
ATOM      1  C   UNL d   1       2.337   1.148   0.428  0.00  0.00     0.172 C 
ATOM      2  N   UNL d   1       1.123   0.424   0.724  0.00  0.00    -0.070 N 
ATOM      3  C1  UNL d   1       0.996  -0.939   0.761  0.00  0.00    -0.004 A 
ATOM      4  C2  UNL d   1      -0.313  -1.233   1.078  0.00  0.00    -0.047 A 
ATOM      5  C3  UNL d   1      -0.996  -0.003   1.236  0.00  0.00    -0.047 A 
ATOM      6  C4  UNL d   1      -0.083   1.005   1.011  0.00  0.00    -0.004 A 
ENDROOT
TORSDOF 0
ENDMDL
