MODEL 1
REMARK minimizedAffinity -2.42241859
REMARK minimizedRMSD -1
REMARK  0 active torsions:
REMARK  status: ('A' for Active; 'I' for Inactive)
ROOT
ATOM      1  C   UNL d   1      -5.343  -5.999  -6.000  0.00  0.00     0.172 C 
ATOM      2  N   UNL d   1      -4.106  -5.255  -5.969  0.00  0.00    -0.070 N 
ATOM      3  C1  UNL d   1      -2.848  -5.796  -5.951  0.00  0.00    -0.004 A 
ATOM      4  C2  UNL d   1      -1.942  -4.758  -5.923  0.00  0.00    -0.047 A 
ATOM      5  C3  UNL d   1      -2.681  -3.551  -5.924  0.00  0.00    -0.047 A 
ATOM      6  C4  UNL d   1      -4.018  -3.888  -5.952  0.00  0.00    -0.004 A 
ENDROOT
TORSDOF 0
ENDMDL
