MODEL 1
REMARK minimizedAffinity -1.42013538
REMARK minimizedRMSD -1
REMARK  0 active torsions:
REMARK  status: ('A' for Active; 'I' for Inactive)
ROOT
ATOM      1  C   UNL d   1       0.287  -1.113   0.872  0.00  0.00     0.172 C 
ATOM      2  N   UNL d   1       0.339  -1.857   2.108  0.00  0.00    -0.070 N 
ATOM      3  C1  UNL d   1       1.329  -2.728   2.475  0.00  0.00    -0.004 A 
ATOM      4  C2  UNL d   1       1.011  -3.229   3.719  0.00  0.00    -0.047 A 
ATOM      5  C3  UNL d   1      -0.213  -2.639   4.113  0.00  0.00    -0.047 A 
ATOM      6  C4  UNL d   1      -0.607  -1.794   3.097  0.00  0.00    -0.004 A 
ENDROOT
TORSDOF 0
ENDMDL
