MODEL 1
REMARK minimizedAffinity 3.83766699
REMARK minimizedRMSD -1
REMARK  1 active torsions:
REMARK  status: ('A' for Active; 'I' for Inactive)
REMARK    1  A    between atoms: N_2  and  C1_3 
ROOT
ATOM      1  C1  UNL d   1      -0.966   3.583  -2.306  0.00  0.00     0.143 A 
ATOM      2  C2  UNL d   1      -1.228   3.364  -0.950  0.00  0.00    -0.057 A 
ATOM      3  C3  UNL d   1      -0.259   3.624   0.027  0.00  0.00     0.033 A 
ATOM      4  C4  UNL d   1       1.002   4.081  -0.339  0.00  0.00    -0.042 A 
ATOM      5  C5  UNL d   1       1.293   4.282  -1.684  0.00  0.00     0.033 A 
ATOM      6  C6  UNL d   1       0.319   4.027  -2.655  0.00  0.00    -0.057 A 
ENDROOT
BRANCH   1   7
ATOM      7  N   UNL d   1      -1.854   3.251  -3.333  0.00  0.00    -0.732 N 
ATOM      8  C   UNL d   1      -2.901   2.276  -3.115  0.00  0.00     0.284 C 
ATOM      9  H3  UNL d   1      -2.147   4.063  -3.871  0.00  0.00     0.395 HD
ENDBRANCH   1   7
TORSDOF 1
ENDMDL
