MODEL 1
REMARK minimizedAffinity 2.12180519
REMARK minimizedRMSD -1
REMARK  1 active torsions:
REMARK  status: ('A' for Active; 'I' for Inactive)
REMARK    1  A    between atoms: N_2  and  C1_3 
ROOT
ATOM      1  C1  UNL d   1      -0.114   2.989   0.213  0.00  0.00     0.143 A 
ATOM      2  C2  UNL d   1      -0.823   1.808   0.458  0.00  0.00    -0.057 A 
ATOM      3  C3  UNL d   1      -1.052   1.357   1.763  0.00  0.00     0.033 A 
ATOM      4  C4  UNL d   1      -0.550   2.066   2.849  0.00  0.00    -0.042 A 
ATOM      5  C5  UNL d   1       0.179   3.229   2.628  0.00  0.00     0.033 A 
ATOM      6  C6  UNL d   1       0.399   3.678   1.323  0.00  0.00    -0.057 A 
ENDROOT
BRANCH   1   7
ATOM      7  N   UNL d   1       0.231   3.438  -1.064  0.00  0.00    -0.732 N 
ATOM      8  C   UNL d   1      -0.651   3.212  -2.189  0.00  0.00     0.284 C 
ATOM      9  H3  UNL d   1       0.658   4.362  -1.049  0.00  0.00     0.395 HD
ENDBRANCH   1   7
TORSDOF 1
ENDMDL
