MODEL 1
REMARK minimizedAffinity 7.03884459
REMARK minimizedRMSD -1
REMARK  1 active torsions:
REMARK  status: ('A' for Active; 'I' for Inactive)
REMARK    1  A    between atoms: N_2  and  C1_3 
ROOT
ATOM      1  C1  UNL d   1      -3.659  -3.184   5.583  0.00  0.00     0.143 A 
ATOM      2  C2  UNL d   1      -4.949  -2.804   5.966  0.00  0.00    -0.057 A 
ATOM      3  C3  UNL d   1      -6.000  -3.729   5.998  0.00  0.00     0.033 A 
ATOM      4  C4  UNL d   1      -5.783  -5.050   5.618  0.00  0.00    -0.042 A 
ATOM      5  C5  UNL d   1      -4.514  -5.445   5.210  0.00  0.00     0.033 A 
ATOM      6  C6  UNL d   1      -3.468  -4.517   5.186  0.00  0.00    -0.057 A 
ENDROOT
BRANCH   1   7
ATOM      7  N   UNL d   1      -2.596  -2.290   5.436  0.00  0.00    -0.732 N 
ATOM      8  C   UNL d   1      -1.834  -2.247   4.207  0.00  0.00     0.284 C 
ATOM      9  H3  UNL d   1      -2.800  -1.375   5.831  0.00  0.00     0.395 HD
ENDBRANCH   1   7
TORSDOF 1
ENDMDL
