MODEL 1
REMARK minimizedAffinity 10.4082308
REMARK minimizedRMSD -1
REMARK  1 active torsions:
REMARK  status: ('A' for Active; 'I' for Inactive)
REMARK    1  A    between atoms: N_2  and  C1_3 
ROOT
ATOM      1  C1  UNL d   1      -3.847  -3.476   4.946  0.00  0.00     0.143 A 
ATOM      2  C2  UNL d   1      -4.922  -3.126   5.770  0.00  0.00    -0.057 A 
ATOM      3  C3  UNL d   1      -5.981  -4.012   5.998  0.00  0.00     0.033 A 
ATOM      4  C4  UNL d   1      -5.999  -5.258   5.380  0.00  0.00    -0.042 A 
ATOM      5  C5  UNL d   1      -4.953  -5.618   4.536  0.00  0.00     0.033 A 
ATOM      6  C6  UNL d   1      -3.895  -4.731   4.318  0.00  0.00    -0.057 A 
ENDROOT
BRANCH   1   7
ATOM      7  N   UNL d   1      -2.813  -2.601   4.602  0.00  0.00    -0.732 N 
ATOM      8  C   UNL d   1      -2.454  -1.505   5.475  0.00  0.00     0.284 C 
ATOM      9  H3  UNL d   1      -2.017  -3.084   4.191  0.00  0.00     0.395 HD
ENDBRANCH   1   7
TORSDOF 1
ENDMDL
