MODEL 1
REMARK minimizedAffinity 5.31628942
REMARK minimizedRMSD -1
REMARK  1 active torsions:
REMARK  status: ('A' for Active; 'I' for Inactive)
REMARK    1  A    between atoms: N_2  and  C1_3 
ROOT
ATOM      1  C1  UNL d   1      -0.635   3.900  -1.937  0.00  0.00     0.143 A 
ATOM      2  C2  UNL d   1      -1.216   4.927  -1.186  0.00  0.00    -0.057 A 
ATOM      3  C3  UNL d   1      -0.745   5.248   0.093  0.00  0.00     0.033 A 
ATOM      4  C4  UNL d   1       0.300   4.524   0.657  0.00  0.00    -0.042 A 
ATOM      5  C5  UNL d   1       0.876   3.482  -0.061  0.00  0.00     0.033 A 
ATOM      6  C6  UNL d   1       0.406   3.171  -1.341  0.00  0.00    -0.057 A 
ENDROOT
BRANCH   1   7
ATOM      7  N   UNL d   1      -1.122   3.469  -3.174  0.00  0.00    -0.732 N 
ATOM      8  C   UNL d   1      -2.295   2.625  -3.251  0.00  0.00     0.284 C 
ATOM      9  H3  UNL d   1      -1.089   4.201  -3.880  0.00  0.00     0.395 HD
ENDBRANCH   1   7
TORSDOF 1
ENDMDL
