MODEL 1
REMARK minimizedAffinity 7.42307901
REMARK minimizedRMSD -1
REMARK  1 active torsions:
REMARK  status: ('A' for Active; 'I' for Inactive)
REMARK    1  A    between atoms: N_2  and  C1_3 
ROOT
ATOM      1  C1  UNL d   1      -0.106   3.611  -0.430  0.00  0.00     0.143 A 
ATOM      2  C2  UNL d   1      -0.325   3.241  -1.761  0.00  0.00    -0.057 A 
ATOM      3  C3  UNL d   1      -0.759   4.174  -2.712  0.00  0.00     0.033 A 
ATOM      4  C4  UNL d   1      -1.010   5.490  -2.340  0.00  0.00    -0.042 A 
ATOM      5  C5  UNL d   1      -0.823   5.874  -1.016  0.00  0.00     0.033 A 
ATOM      6  C6  UNL d   1      -0.384   4.940  -0.073  0.00  0.00    -0.057 A 
ENDROOT
BRANCH   1   7
ATOM      7  N   UNL d   1       0.229   2.709   0.582  0.00  0.00    -0.732 N 
ATOM      8  C   UNL d   1      -0.751   1.773   1.091  0.00  0.00     0.284 C 
ATOM      9  H3  UNL d   1       1.157   2.311   0.456  0.00  0.00     0.395 HD
ENDBRANCH   1   7
TORSDOF 1
ENDMDL
