MODEL 1
REMARK minimizedAffinity 7.10206556
REMARK minimizedRMSD -1
REMARK  1 active torsions:
REMARK  status: ('A' for Active; 'I' for Inactive)
REMARK    1  A    between atoms: N_2  and  C1_3 
ROOT
ATOM      1  C1  UNL d   1      -1.174   2.768  -1.852  0.00  0.00     0.143 A 
ATOM      2  C2  UNL d   1      -0.349   3.897  -1.891  0.00  0.00    -0.057 A 
ATOM      3  C3  UNL d   1       0.462   4.242  -0.803  0.00  0.00     0.033 A 
ATOM      4  C4  UNL d   1       0.440   3.477   0.359  0.00  0.00    -0.042 A 
ATOM      5  C5  UNL d   1      -0.391   2.365   0.429  0.00  0.00     0.033 A 
ATOM      6  C6  UNL d   1      -1.194   2.022  -0.663  0.00  0.00    -0.057 A 
ENDROOT
BRANCH   1   7
ATOM      7  N   UNL d   1      -2.076   2.429  -2.863  0.00  0.00    -0.732 N 
ATOM      8  C   UNL d   1      -3.057   1.385  -2.657  0.00  0.00     0.284 C 
ATOM      9  H3  UNL d   1      -2.436   3.245  -3.353  0.00  0.00     0.395 HD
ENDBRANCH   1   7
TORSDOF 1
ENDMDL
