MODEL 1
REMARK minimizedAffinity 5.22524023
REMARK minimizedRMSD -1
REMARK  1 active torsions:
REMARK  status: ('A' for Active; 'I' for Inactive)
REMARK    1  A    between atoms: N_2  and  C1_3 
ROOT
ATOM      1  C1  UNL d   1      -1.499  -0.056   3.377  0.00  0.00     0.143 A 
ATOM      2  C2  UNL d   1      -2.498  -0.893   3.886  0.00  0.00    -0.057 A 
ATOM      3  C3  UNL d   1      -2.209  -2.200   4.298  0.00  0.00     0.033 A 
ATOM      4  C4  UNL d   1      -0.918  -2.703   4.182  0.00  0.00    -0.042 A 
ATOM      5  C5  UNL d   1       0.086  -1.897   3.656  0.00  0.00     0.033 A 
ATOM      6  C6  UNL d   1      -0.207  -0.591   3.252  0.00  0.00    -0.057 A 
ENDROOT
BRANCH   1   7
ATOM      7  N   UNL d   1      -1.742   1.218   2.858  0.00  0.00    -0.732 N 
ATOM      8  C   UNL d   1      -2.840   1.445   1.944  0.00  0.00     0.284 C 
ATOM      9  H3  UNL d   1      -1.623   1.950   3.555  0.00  0.00     0.395 HD
ENDBRANCH   1   7
TORSDOF 1
ENDMDL
