MODEL 1
REMARK minimizedAffinity 6.06635523
REMARK minimizedRMSD -1
REMARK  1 active torsions:
REMARK  status: ('A' for Active; 'I' for Inactive)
REMARK    1  A    between atoms: N_2  and  C1_3 
ROOT
ATOM      1  C1  UNL d   1       0.905  -2.815  -3.598  0.00  0.00     0.143 A 
ATOM      2  C2  UNL d   1       0.161  -3.021  -4.765  0.00  0.00    -0.057 A 
ATOM      3  C3  UNL d   1       0.483  -2.364  -5.958  0.00  0.00     0.033 A 
ATOM      4  C4  UNL d   1       1.542  -1.462  -5.998  0.00  0.00    -0.042 A 
ATOM      5  C5  UNL d   1       2.280  -1.222  -4.844  0.00  0.00     0.033 A 
ATOM      6  C6  UNL d   1       1.957  -1.887  -3.657  0.00  0.00    -0.057 A 
ENDROOT
BRANCH   1   7
ATOM      7  N   UNL d   1       0.574  -3.363  -2.357  0.00  0.00    -0.732 N 
ATOM      8  C   UNL d   1       1.609  -3.766  -1.429  0.00  0.00     0.284 C 
ATOM      9  H3  UNL d   1      -0.214  -2.890  -1.920  0.00  0.00     0.395 HD
ENDBRANCH   1   7
TORSDOF 1
ENDMDL
