MODEL 1
REMARK minimizedAffinity -1.4562254
REMARK minimizedRMSD -1
REMARK  1 active torsions:
REMARK  status: ('A' for Active; 'I' for Inactive)
REMARK    1  A    between atoms: N_2  and  C1_3 
ROOT
ATOM      1  C1  UNL d   1      -3.590  -2.640   5.548  0.00  0.00     0.143 A 
ATOM      2  C2  UNL d   1      -2.664  -1.893   4.812  0.00  0.00    -0.057 A 
ATOM      3  C3  UNL d   1      -1.400  -2.409   4.499  0.00  0.00     0.033 A 
ATOM      4  C4  UNL d   1      -1.029  -3.674   4.942  0.00  0.00    -0.042 A 
ATOM      5  C5  UNL d   1      -1.924  -4.424   5.696  0.00  0.00     0.033 A 
ATOM      6  C6  UNL d   1      -3.187  -3.906   6.000  0.00  0.00    -0.057 A 
ENDROOT
BRANCH   1   7
ATOM      7  N   UNL d   1      -4.825  -2.145   5.975  0.00  0.00    -0.732 N 
ATOM      8  C   UNL d   1      -5.999  -2.991   5.971  0.00  0.00     0.284 C 
ATOM      9  H3  UNL d   1      -4.742  -1.553   6.798  0.00  0.00     0.395 HD
ENDBRANCH   1   7
TORSDOF 1
ENDMDL
