MODEL 1
REMARK minimizedAffinity -2.71780491
REMARK minimizedRMSD -1
REMARK  0 active torsions:
REMARK  status: ('A' for Active; 'I' for Inactive)
ROOT
ATOM      1  C   UNL d   1       4.540  -0.876  -2.091  0.00  0.00     0.077 C 
ATOM      2  C1  UNL d   1       3.436  -0.308  -1.250  0.00  0.00    -0.074 A 
ATOM      3  C2  UNL d   1       3.319   1.072  -1.053  0.00  0.00    -0.005 A 
ATOM      4  C3  UNL d   1       2.281   1.586  -0.276  0.00  0.00     0.006 A 
ATOM      5  C4  UNL d   1       1.351   0.727   0.311  0.00  0.00    -0.005 A 
ATOM      6  C5  UNL d   1       1.451  -0.655   0.124  0.00  0.00    -0.074 A 
ATOM      7  C6  UNL d   1       0.454  -1.592   0.740  0.00  0.00     0.077 C 
ATOM      8  C7  UNL d   1       2.493  -1.164  -0.664  0.00  0.00    -0.001 A 
ENDROOT
TORSDOF 0
ENDMDL
