MODEL 1
REMARK minimizedAffinity -4.78606319
REMARK minimizedRMSD -1
REMARK  0 active torsions:
REMARK  status: ('A' for Active; 'I' for Inactive)
ROOT
ATOM      1  C   UNL d   1       1.110  -1.115   1.159  0.00  0.00     0.077 C 
ATOM      2  C1  UNL d   1       1.738  -0.259   0.099  0.00  0.00    -0.074 A 
ATOM      3  C2  UNL d   1       1.266   1.033  -0.154  0.00  0.00    -0.005 A 
ATOM      4  C3  UNL d   1       1.866   1.821  -1.136  0.00  0.00     0.006 A 
ATOM      5  C4  UNL d   1       2.942   1.326  -1.874  0.00  0.00    -0.005 A 
ATOM      6  C5  UNL d   1       3.428   0.037  -1.634  0.00  0.00    -0.074 A 
ATOM      7  C6  UNL d   1       4.590  -0.507  -2.411  0.00  0.00     0.077 C 
ATOM      8  C7  UNL d   1       2.824  -0.747  -0.641  0.00  0.00    -0.001 A 
ENDROOT
TORSDOF 0
ENDMDL
