MODEL 1
REMARK minimizedAffinity -0.897354901
REMARK minimizedRMSD -1
REMARK  0 active torsions:
REMARK  status: ('A' for Active; 'I' for Inactive)
ROOT
ATOM      1  C   UNL d   1       1.544   2.143  -0.106  0.00  0.00     0.077 C 
ATOM      2  C1  UNL d   1       2.090   0.761  -0.302  0.00  0.00    -0.074 A 
ATOM      3  C2  UNL d   1       1.465  -0.348   0.278  0.00  0.00    -0.005 A 
ATOM      4  C3  UNL d   1       1.980  -1.629   0.078  0.00  0.00     0.006 A 
ATOM      5  C4  UNL d   1       3.123  -1.814  -0.701  0.00  0.00    -0.005 A 
ATOM      6  C5  UNL d   1       3.760  -0.717  -1.289  0.00  0.00    -0.074 A 
ATOM      7  C6  UNL d   1       4.983  -0.899  -2.138  0.00  0.00     0.077 C 
ATOM      8  C7  UNL d   1       3.233   0.566  -1.090  0.00  0.00    -0.001 A 
ENDROOT
TORSDOF 0
ENDMDL
