MODEL 1
REMARK minimizedAffinity -3.48380685
REMARK minimizedRMSD -1
REMARK  0 active torsions:
REMARK  status: ('A' for Active; 'I' for Inactive)
ROOT
ATOM      1  C   UNL d   1       0.471  -0.192   3.182  0.00  0.00     0.077 C 
ATOM      2  C1  UNL d   1       1.002  -0.158   1.779  0.00  0.00    -0.074 A 
ATOM      3  C2  UNL d   1       0.933   1.010   1.013  0.00  0.00    -0.005 A 
ATOM      4  C3  UNL d   1       1.439   1.029  -0.287  0.00  0.00     0.006 A 
ATOM      5  C4  UNL d   1       2.018  -0.117  -0.832  0.00  0.00    -0.005 A 
ATOM      6  C5  UNL d   1       2.095  -1.294  -0.081  0.00  0.00    -0.074 A 
ATOM      7  C6  UNL d   1       2.723  -2.533  -0.649  0.00  0.00     0.077 C 
ATOM      8  C7  UNL d   1       1.591  -1.304   1.227  0.00  0.00    -0.001 A 
ENDROOT
TORSDOF 0
ENDMDL
