MODEL 1
REMARK minimizedAffinity -3.74376559
REMARK minimizedRMSD -1
REMARK  0 active torsions:
REMARK  status: ('A' for Active; 'I' for Inactive)
ROOT
ATOM      1  C   UNL d   1       4.167  -0.692  -2.108  0.00  0.00     0.077 C 
ATOM      2  C1  UNL d   1       3.062  -0.417  -1.132  0.00  0.00    -0.074 A 
ATOM      3  C2  UNL d   1       2.562   0.877  -0.958  0.00  0.00    -0.005 A 
ATOM      4  C3  UNL d   1       1.527   1.116  -0.053  0.00  0.00     0.006 A 
ATOM      5  C4  UNL d   1       0.984   0.064   0.686  0.00  0.00    -0.005 A 
ATOM      6  C5  UNL d   1       1.470  -1.237   0.524  0.00  0.00    -0.074 A 
ATOM      7  C6  UNL d   1       0.890  -2.380   1.304  0.00  0.00     0.077 C 
ATOM      8  C7  UNL d   1       2.505  -1.470  -0.392  0.00  0.00    -0.001 A 
ENDROOT
TORSDOF 0
ENDMDL
