MODEL 1
REMARK minimizedAffinity -2.94894576
REMARK minimizedRMSD -1
REMARK  0 active torsions:
REMARK  status: ('A' for Active; 'I' for Inactive)
ROOT
ATOM      1  C   UNL d   1       1.714   2.577  -0.613  0.00  0.00     0.077 C 
ATOM      2  C1  UNL d   1       1.703   1.128  -0.225  0.00  0.00    -0.074 A 
ATOM      3  C2  UNL d   1       2.657   0.241  -0.733  0.00  0.00    -0.005 A 
ATOM      4  C3  UNL d   1       2.640  -1.102  -0.356  0.00  0.00     0.006 A 
ATOM      5  C4  UNL d   1       1.669  -1.571   0.530  0.00  0.00    -0.005 A 
ATOM      6  C5  UNL d   1       0.707  -0.698   1.049  0.00  0.00    -0.074 A 
ATOM      7  C6  UNL d   1      -0.337  -1.183   2.010  0.00  0.00     0.077 C 
ATOM      8  C7  UNL d   1       0.735   0.652   0.671  0.00  0.00    -0.001 A 
ENDROOT
TORSDOF 0
ENDMDL
