MODEL 1
REMARK minimizedAffinity -1.26242018
REMARK minimizedRMSD -1
REMARK  0 active torsions:
REMARK  status: ('A' for Active; 'I' for Inactive)
ROOT
ATOM      1  C   UNL d   1       1.496   0.454   1.878  0.00  0.00     0.077 C 
ATOM      2  C1  UNL d   1       1.819  -0.418   0.702  0.00  0.00    -0.074 A 
ATOM      3  C2  UNL d   1       1.048  -1.548   0.412  0.00  0.00    -0.005 A 
ATOM      4  C3  UNL d   1       1.355  -2.345  -0.691  0.00  0.00     0.006 A 
ATOM      5  C4  UNL d   1       2.435  -2.020  -1.513  0.00  0.00    -0.005 A 
ATOM      6  C5  UNL d   1       3.216  -0.893  -1.239  0.00  0.00    -0.074 A 
ATOM      7  C6  UNL d   1       4.374  -0.525  -2.119  0.00  0.00     0.077 C 
ATOM      8  C7  UNL d   1       2.897  -0.094  -0.133  0.00  0.00    -0.001 A 
ENDROOT
TORSDOF 0
ENDMDL
