MODEL 1
REMARK minimizedAffinity 1.54281008
REMARK minimizedRMSD -1
REMARK  0 active torsions:
REMARK  status: ('A' for Active; 'I' for Inactive)
ROOT
ATOM      1  C   UNL d   1       1.908   2.148   0.703  0.00  0.00     0.077 C 
ATOM      2  C1  UNL d   1       1.864   0.715   0.263  0.00  0.00    -0.074 A 
ATOM      3  C2  UNL d   1       0.842  -0.138   0.694  0.00  0.00    -0.005 A 
ATOM      4  C3  UNL d   1       0.809  -1.466   0.269  0.00  0.00     0.006 A 
ATOM      5  C4  UNL d   1       1.796  -1.954  -0.588  0.00  0.00    -0.005 A 
ATOM      6  C5  UNL d   1       2.825  -1.117  -1.029  0.00  0.00    -0.074 A 
ATOM      7  C6  UNL d   1       3.888  -1.623  -1.959  0.00  0.00     0.077 C 
ATOM      8  C7  UNL d   1       2.848   0.219  -0.604  0.00  0.00    -0.001 A 
ENDROOT
TORSDOF 0
ENDMDL
