MODEL 1
REMARK minimizedAffinity -1.99539304
REMARK minimizedRMSD -1
REMARK  0 active torsions:
REMARK  status: ('A' for Active; 'I' for Inactive)
ROOT
ATOM      1  C   UNL d   1      -1.208  -1.422   1.625  0.00  0.00     0.077 C 
ATOM      2  C1  UNL d   1       0.168  -1.377   1.031  0.00  0.00    -0.074 A 
ATOM      3  C2  UNL d   1       0.945  -2.536   0.927  0.00  0.00    -0.005 A 
ATOM      4  C3  UNL d   1       2.219  -2.480   0.364  0.00  0.00     0.006 A 
ATOM      5  C4  UNL d   1       2.730  -1.267  -0.101  0.00  0.00    -0.005 A 
ATOM      6  C5  UNL d   1       1.967  -0.098  -0.006  0.00  0.00    -0.074 A 
ATOM      7  C6  UNL d   1       2.497   1.212  -0.509  0.00  0.00     0.077 C 
ATOM      8  C7  UNL d   1       0.685  -0.164   0.555  0.00  0.00    -0.001 A 
ENDROOT
TORSDOF 0
ENDMDL
