MODEL 1
REMARK minimizedAffinity -5.02715921
REMARK minimizedRMSD -1
REMARK  0 active torsions:
REMARK  status: ('A' for Active; 'I' for Inactive)
ROOT
ATOM      1  C   UNL d   1       3.185  -2.221  -1.078  0.00  0.00     0.077 C 
ATOM      2  C1  UNL d   1       2.375  -1.130  -0.444  0.00  0.00    -0.074 A 
ATOM      3  C2  UNL d   1       2.503   0.198  -0.863  0.00  0.00    -0.005 A 
ATOM      4  C3  UNL d   1       1.736   1.200  -0.270  0.00  0.00     0.006 A 
ATOM      5  C4  UNL d   1       0.834   0.885   0.747  0.00  0.00    -0.005 A 
ATOM      6  C5  UNL d   1       0.692  -0.437   1.180  0.00  0.00    -0.074 A 
ATOM      7  C6  UNL d   1      -0.280  -0.794   2.265  0.00  0.00     0.077 C 
ATOM      8  C7  UNL d   1       1.461  -1.440   0.574  0.00  0.00    -0.001 A 
ENDROOT
TORSDOF 0
ENDMDL
