MODEL 1
REMARK minimizedAffinity -3.95679641
REMARK minimizedRMSD -1
REMARK  0 active torsions:
REMARK  status: ('A' for Active; 'I' for Inactive)
ROOT
ATOM      1  C   UNL d   1       0.977  -2.066   0.944  0.00  0.00     0.077 C 
ATOM      2  C1  UNL d   1       1.655  -0.993   0.145  0.00  0.00    -0.074 A 
ATOM      3  C2  UNL d   1       1.157   0.313   0.126  0.00  0.00    -0.005 A 
ATOM      4  C3  UNL d   1       1.804   1.302  -0.615  0.00  0.00     0.006 A 
ATOM      5  C4  UNL d   1       2.955   0.995  -1.343  0.00  0.00    -0.005 A 
ATOM      6  C5  UNL d   1       3.468  -0.306  -1.335  0.00  0.00    -0.074 A 
ATOM      7  C6  UNL d   1       4.709  -0.650  -2.103  0.00  0.00     0.077 C 
ATOM      8  C7  UNL d   1       2.816  -1.292  -0.583  0.00  0.00    -0.001 A 
ENDROOT
TORSDOF 0
ENDMDL
