MODEL 1
REMARK minimizedAffinity -4.11014557
REMARK minimizedRMSD -1
REMARK  0 active torsions:
REMARK  status: ('A' for Active; 'I' for Inactive)
ROOT
ATOM      1  C   UNL d   1       4.678  -0.132  -1.640  0.00  0.00     0.077 C 
ATOM      2  C1  UNL d   1       3.430  -0.379  -0.845  0.00  0.00    -0.074 A 
ATOM      3  C2  UNL d   1       2.677   0.686  -0.340  0.00  0.00    -0.005 A 
ATOM      4  C3  UNL d   1       1.514   0.441   0.389  0.00  0.00     0.006 A 
ATOM      5  C4  UNL d   1       1.092  -0.869   0.621  0.00  0.00    -0.005 A 
ATOM      6  C5  UNL d   1       1.832  -1.946   0.123  0.00  0.00    -0.074 A 
ATOM      7  C6  UNL d   1       1.387  -3.360   0.354  0.00  0.00     0.077 C 
ATOM      8  C7  UNL d   1       2.996  -1.692  -0.615  0.00  0.00    -0.001 A 
ENDROOT
TORSDOF 0
ENDMDL
