MODEL 1
REMARK minimizedAffinity -2.76710105
REMARK minimizedRMSD -1
REMARK  0 active torsions:
REMARK  status: ('A' for Active; 'I' for Inactive)
ROOT
ATOM      1  C   UNL d   1       2.245  -1.878   0.007  0.00  0.00     0.077 C 
ATOM      2  C1  UNL d   1       2.929  -0.793  -0.771  0.00  0.00    -0.074 A 
ATOM      3  C2  UNL d   1       2.429   0.513  -0.774  0.00  0.00    -0.005 A 
ATOM      4  C3  UNL d   1       3.081   1.514  -1.494  0.00  0.00     0.006 A 
ATOM      5  C4  UNL d   1       4.237   1.219  -2.218  0.00  0.00    -0.005 A 
ATOM      6  C5  UNL d   1       4.752  -0.081  -2.225  0.00  0.00    -0.074 A 
ATOM      7  C6  UNL d   1       6.000  -0.413  -2.990  0.00  0.00     0.077 C 
ATOM      8  C7  UNL d   1       4.095  -1.080  -1.493  0.00  0.00    -0.001 A 
ENDROOT
TORSDOF 0
ENDMDL
