MODEL 1
REMARK minimizedAffinity -5.86342621
REMARK minimizedRMSD -1
REMARK  0 active torsions:
REMARK  status: ('A' for Active; 'I' for Inactive)
ROOT
ATOM      1  C   UNL d   1       4.891  -0.013  -2.599  0.00  0.00     0.077 C 
ATOM      2  C1  UNL d   1       3.752  -0.185  -1.639  0.00  0.00    -0.074 A 
ATOM      3  C2  UNL d   1       3.457  -1.437  -1.090  0.00  0.00    -0.005 A 
ATOM      4  C3  UNL d   1       2.401  -1.580  -0.191  0.00  0.00     0.006 A 
ATOM      5  C4  UNL d   1       1.629  -0.474   0.168  0.00  0.00    -0.005 A 
ATOM      6  C5  UNL d   1       1.910   0.786  -0.370  0.00  0.00    -0.074 A 
ATOM      7  C6  UNL d   1       1.097   1.987   0.013  0.00  0.00     0.077 C 
ATOM      8  C7  UNL d   1       2.978   0.923  -1.267  0.00  0.00    -0.001 A 
ENDROOT
TORSDOF 0
ENDMDL
