MODEL 1
REMARK minimizedAffinity -4.274827
REMARK minimizedRMSD -1
REMARK  0 active torsions:
REMARK  status: ('A' for Active; 'I' for Inactive)
ROOT
ATOM      1  C   UNL d   1       4.861  -0.396  -2.756  0.00  0.00     0.077 C 
ATOM      2  C1  UNL d   1       3.699  -0.452  -1.810  0.00  0.00    -0.074 A 
ATOM      3  C2  UNL d   1       3.299  -1.662  -1.233  0.00  0.00    -0.005 A 
ATOM      4  C3  UNL d   1       2.222  -1.698  -0.347  0.00  0.00     0.006 A 
ATOM      5  C4  UNL d   1       1.535  -0.525  -0.030  0.00  0.00    -0.005 A 
ATOM      6  C5  UNL d   1       1.920   0.694  -0.596  0.00  0.00    -0.074 A 
ATOM      7  C6  UNL d   1       1.199   1.965  -0.258  0.00  0.00     0.077 C 
ATOM      8  C7  UNL d   1       3.008   0.722  -1.480  0.00  0.00    -0.001 A 
ENDROOT
TORSDOF 0
ENDMDL
