MODEL 1
REMARK minimizedAffinity -3.12100649
REMARK minimizedRMSD -1
REMARK  0 active torsions:
REMARK  status: ('A' for Active; 'I' for Inactive)
ROOT
ATOM      1  C   UNL d   1       1.134  -1.877   1.231  0.00  0.00     0.077 C 
ATOM      2  C1  UNL d   1       1.671  -0.931   0.198  0.00  0.00    -0.074 A 
ATOM      3  C2  UNL d   1       1.021   0.276  -0.078  0.00  0.00    -0.005 A 
ATOM      4  C3  UNL d   1       1.537   1.151  -1.034  0.00  0.00     0.006 A 
ATOM      5  C4  UNL d   1       2.707   0.827  -1.723  0.00  0.00    -0.005 A 
ATOM      6  C5  UNL d   1       3.371  -0.375  -1.460  0.00  0.00    -0.074 A 
ATOM      7  C6  UNL d   1       4.635  -0.733  -2.184  0.00  0.00     0.077 C 
ATOM      8  C7  UNL d   1       2.850  -1.245  -0.492  0.00  0.00    -0.001 A 
ENDROOT
TORSDOF 0
ENDMDL
