MODEL 1
REMARK minimizedAffinity -2.0644021
REMARK minimizedRMSD -1
REMARK  0 active torsions:
REMARK  status: ('A' for Active; 'I' for Inactive)
ROOT
ATOM      1  C   UNL d   1      -0.399  -3.413   0.676  0.00  0.00     0.078 C 
ATOM      2  C1  UNL d   1      -0.317  -1.924   0.521  0.00  0.00    -0.077 A 
ATOM      3  C2  UNL d   1      -0.724  -1.068   1.551  0.00  0.00    -0.001 A 
ATOM      4  C3  UNL d   1      -0.651   0.316   1.389  0.00  0.00     0.003 A 
ATOM      5  C4  UNL d   1      -0.173   0.857   0.197  0.00  0.00    -0.005 A 
ATOM      6  C5  UNL d   1       0.232   0.013  -0.835  0.00  0.00     0.003 A 
ATOM      7  C6  UNL d   1       0.160  -1.371  -0.675  0.00  0.00    -0.001 A 
ENDROOT
TORSDOF 0
ENDMDL
