MODEL 1
REMARK minimizedAffinity -2.10381794
REMARK minimizedRMSD -1
REMARK  0 active torsions:
REMARK  status: ('A' for Active; 'I' for Inactive)
ROOT
ATOM      1  C   UNL d   1       0.021   0.576  -0.338  0.00  0.00     0.078 C 
ATOM      2  C1  UNL d   1       0.760   1.781   0.164  0.00  0.00    -0.077 A 
ATOM      3  C2  UNL d   1       0.080   2.958   0.498  0.00  0.00    -0.001 A 
ATOM      4  C3  UNL d   1       0.782   4.074   0.954  0.00  0.00     0.003 A 
ATOM      5  C4  UNL d   1       2.169   4.025   1.080  0.00  0.00    -0.005 A 
ATOM      6  C5  UNL d   1       2.855   2.859   0.748  0.00  0.00     0.003 A 
ATOM      7  C6  UNL d   1       2.155   1.741   0.291  0.00  0.00    -0.001 A 
ENDROOT
TORSDOF 0
ENDMDL
