MODEL 1
REMARK minimizedAffinity -4.3503437
REMARK minimizedRMSD -1
REMARK  0 active torsions:
REMARK  status: ('A' for Active; 'I' for Inactive)
ROOT
ATOM      1  C   UNL d   1       0.820   1.019   0.304  0.00  0.00     0.078 C 
ATOM      2  C1  UNL d   1       0.353  -0.403   0.215  0.00  0.00    -0.077 A 
ATOM      3  C2  UNL d   1      -0.683  -0.875   1.030  0.00  0.00    -0.001 A 
ATOM      4  C3  UNL d   1      -1.100  -2.204   0.942  0.00  0.00     0.003 A 
ATOM      5  C4  UNL d   1      -0.487  -3.072   0.041  0.00  0.00    -0.005 A 
ATOM      6  C5  UNL d   1       0.546  -2.612  -0.772  0.00  0.00     0.003 A 
ATOM      7  C6  UNL d   1       0.965  -1.283  -0.686  0.00  0.00    -0.001 A 
ENDROOT
TORSDOF 0
ENDMDL
