MODEL 1
REMARK minimizedAffinity -3.55681491
REMARK minimizedRMSD -1
REMARK  0 active torsions:
REMARK  status: ('A' for Active; 'I' for Inactive)
ROOT
ATOM      1  C   UNL d   1      -3.393   1.627   0.655  0.00  0.00     0.078 C 
ATOM      2  C1  UNL d   1      -2.304   0.602   0.536  0.00  0.00    -0.077 A 
ATOM      3  C2  UNL d   1      -2.173  -0.423   1.480  0.00  0.00    -0.001 A 
ATOM      4  C3  UNL d   1      -1.148  -1.364   1.362  0.00  0.00     0.003 A 
ATOM      5  C4  UNL d   1      -0.247  -1.288   0.302  0.00  0.00    -0.005 A 
ATOM      6  C5  UNL d   1      -0.369  -0.270  -0.641  0.00  0.00     0.003 A 
ATOM      7  C6  UNL d   1      -1.392   0.672  -0.525  0.00  0.00    -0.001 A 
ENDROOT
TORSDOF 0
ENDMDL
