MODEL 1
REMARK minimizedAffinity -2.87717938
REMARK minimizedRMSD -1
REMARK  0 active torsions:
REMARK  status: ('A' for Active; 'I' for Inactive)
ROOT
ATOM      1  C   UNL d   1       0.432  -1.128  -1.964  0.00  0.00     0.078 C 
ATOM      2  C1  UNL d   1      -0.164  -1.121  -0.588  0.00  0.00    -0.077 A 
ATOM      3  C2  UNL d   1      -0.318  -2.309   0.137  0.00  0.00    -0.001 A 
ATOM      4  C3  UNL d   1      -0.884  -2.290   1.413  0.00  0.00     0.003 A 
ATOM      5  C4  UNL d   1      -1.302  -1.085   1.974  0.00  0.00    -0.005 A 
ATOM      6  C5  UNL d   1      -1.155   0.102   1.259  0.00  0.00     0.003 A 
ATOM      7  C6  UNL d   1      -0.590   0.084  -0.017  0.00  0.00    -0.001 A 
ENDROOT
TORSDOF 0
ENDMDL
