MODEL 1
REMARK minimizedAffinity -4.02161694
REMARK minimizedRMSD -1
REMARK  0 active torsions:
REMARK  status: ('A' for Active; 'I' for Inactive)
ROOT
ATOM      1  C   UNL d   1      -4.190   1.515   2.502  0.00  0.00     0.078 C 
ATOM      2  C1  UNL d   1      -2.937   1.079   1.803  0.00  0.00    -0.077 A 
ATOM      3  C2  UNL d   1      -2.522   1.694   0.616  0.00  0.00    -0.001 A 
ATOM      4  C3  UNL d   1      -1.358   1.271  -0.029  0.00  0.00     0.003 A 
ATOM      5  C4  UNL d   1      -0.602   0.229   0.504  0.00  0.00    -0.005 A 
ATOM      6  C5  UNL d   1      -1.009  -0.391   1.684  0.00  0.00     0.003 A 
ATOM      7  C6  UNL d   1      -2.171   0.031   2.330  0.00  0.00    -0.001 A 
ENDROOT
TORSDOF 0
ENDMDL
