MODEL 1
REMARK minimizedAffinity -3.25362778
REMARK minimizedRMSD -1
REMARK  0 active torsions:
REMARK  status: ('A' for Active; 'I' for Inactive)
ROOT
ATOM      1  C   UNL d   1      -0.318   0.737  -0.316  0.00  0.00     0.078 C 
ATOM      2  C1  UNL d   1      -1.515   1.454   0.233  0.00  0.00    -0.077 A 
ATOM      3  C2  UNL d   1      -1.569   2.853   0.258  0.00  0.00    -0.001 A 
ATOM      4  C3  UNL d   1      -2.685   3.507   0.781  0.00  0.00     0.003 A 
ATOM      5  C4  UNL d   1      -3.756   2.771   1.283  0.00  0.00    -0.005 A 
ATOM      6  C5  UNL d   1      -3.711   1.378   1.264  0.00  0.00     0.003 A 
ATOM      7  C6  UNL d   1      -2.596   0.722   0.742  0.00  0.00    -0.001 A 
ENDROOT
TORSDOF 0
ENDMDL
