MODEL 1
REMARK minimizedAffinity -2.40834332
REMARK minimizedRMSD -1
REMARK  0 active torsions:
REMARK  status: ('A' for Active; 'I' for Inactive)
ROOT
ATOM      1  C   UNL d   1       0.293  -0.392  -2.454  0.00  0.00     0.078 C 
ATOM      2  C1  UNL d   1      -0.143  -1.075  -1.192  0.00  0.00    -0.077 A 
ATOM      3  C2  UNL d   1      -0.483  -2.434  -1.188  0.00  0.00    -0.001 A 
ATOM      4  C3  UNL d   1      -0.897  -3.054  -0.008  0.00  0.00     0.003 A 
ATOM      5  C4  UNL d   1      -0.975  -2.324   1.176  0.00  0.00    -0.005 A 
ATOM      6  C5  UNL d   1      -0.641  -0.971   1.181  0.00  0.00     0.003 A 
ATOM      7  C6  UNL d   1      -0.227  -0.349   0.002  0.00  0.00    -0.001 A 
ENDROOT
TORSDOF 0
ENDMDL
