MODEL 1
REMARK minimizedAffinity -4.93177176
REMARK minimizedRMSD -1
REMARK  0 active torsions:
REMARK  status: ('A' for Active; 'I' for Inactive)
ROOT
ATOM      1  C   UNL d   1       0.470  -3.535   0.397  0.00  0.00     0.078 C 
ATOM      2  C1  UNL d   1       0.105  -2.105   0.130  0.00  0.00    -0.077 A 
ATOM      3  C2  UNL d   1       0.542  -1.454  -1.030  0.00  0.00    -0.001 A 
ATOM      4  C3  UNL d   1       0.203  -0.120  -1.261  0.00  0.00     0.003 A 
ATOM      5  C4  UNL d   1      -0.574   0.575  -0.336  0.00  0.00    -0.005 A 
ATOM      6  C5  UNL d   1      -1.011  -0.064   0.822  0.00  0.00     0.003 A 
ATOM      7  C6  UNL d   1      -0.673  -1.398   1.055  0.00  0.00    -0.001 A 
ENDROOT
TORSDOF 0
ENDMDL
