MODEL 1
REMARK minimizedAffinity -4.04032087
REMARK minimizedRMSD -1
REMARK  0 active torsions:
REMARK  status: ('A' for Active; 'I' for Inactive)
ROOT
ATOM      1  C   UNL d   1       0.379   1.004  -0.278  0.00  0.00     0.078 C 
ATOM      2  C1  UNL d   1       0.189  -0.461  -0.019  0.00  0.00    -0.077 A 
ATOM      3  C2  UNL d   1       0.869  -1.422  -0.776  0.00  0.00    -0.001 A 
ATOM      4  C3  UNL d   1       0.675  -2.782  -0.530  0.00  0.00     0.003 A 
ATOM      5  C4  UNL d   1      -0.200  -3.194   0.473  0.00  0.00    -0.005 A 
ATOM      6  C5  UNL d   1      -0.883  -2.245   1.230  0.00  0.00     0.003 A 
ATOM      7  C6  UNL d   1      -0.691  -0.885   0.986  0.00  0.00    -0.001 A 
ENDROOT
TORSDOF 0
ENDMDL
