MODEL 1
REMARK minimizedAffinity 2.18806934
REMARK minimizedRMSD -1
REMARK  0 active torsions:
REMARK  status: ('A' for Active; 'I' for Inactive)
ROOT
ATOM      1  C   UNL d   1      -1.929  -5.261  -1.848  0.00  0.00     0.078 C 
ATOM      2  C1  UNL d   1      -1.517  -5.255  -3.290  0.00  0.00    -0.077 A 
ATOM      3  C2  UNL d   1      -0.419  -4.502  -3.723  0.00  0.00    -0.001 A 
ATOM      4  C3  UNL d   1      -0.054  -4.498  -5.070  0.00  0.00     0.003 A 
ATOM      5  C4  UNL d   1      -0.782  -5.245  -5.995  0.00  0.00    -0.005 A 
ATOM      6  C5  UNL d   1      -1.877  -5.995  -5.573  0.00  0.00     0.003 A 
ATOM      7  C6  UNL d   1      -2.244  -6.000  -4.227  0.00  0.00    -0.001 A 
ENDROOT
TORSDOF 0
ENDMDL
