MODEL 1
REMARK minimizedAffinity 4.64104557
REMARK minimizedRMSD -1
REMARK  0 active torsions:
REMARK  status: ('A' for Active; 'I' for Inactive)
ROOT
ATOM      1  C   UNL d   1      -4.538  -3.752  -1.279  0.00  0.00     0.078 C 
ATOM      2  C1  UNL d   1      -3.266  -3.924  -2.053  0.00  0.00    -0.077 A 
ATOM      3  C2  UNL d   1      -2.219  -3.001  -1.934  0.00  0.00    -0.001 A 
ATOM      4  C3  UNL d   1      -1.044  -3.168  -2.669  0.00  0.00     0.003 A 
ATOM      5  C4  UNL d   1      -0.904  -4.256  -3.528  0.00  0.00    -0.005 A 
ATOM      6  C5  UNL d   1      -1.941  -5.178  -3.654  0.00  0.00     0.003 A 
ATOM      7  C6  UNL d   1      -3.117  -5.013  -2.921  0.00  0.00    -0.001 A 
ENDROOT
TORSDOF 0
ENDMDL
