MODEL 1
REMARK minimizedAffinity -5.11400509
REMARK minimizedRMSD -1
REMARK  0 active torsions:
REMARK  status: ('A' for Active; 'I' for Inactive)
ROOT
ATOM      1  C   UNL d   1      -1.626  -3.511  -2.244  0.00  0.00     0.078 C 
ATOM      2  C1  UNL d   1      -0.512  -2.559  -1.928  0.00  0.00    -0.077 A 
ATOM      3  C2  UNL d   1      -0.775  -1.222  -1.605  0.00  0.00    -0.001 A 
ATOM      4  C3  UNL d   1       0.273  -0.345  -1.322  0.00  0.00     0.003 A 
ATOM      5  C4  UNL d   1       1.591  -0.794  -1.360  0.00  0.00    -0.005 A 
ATOM      6  C5  UNL d   1       1.863  -2.122  -1.683  0.00  0.00     0.003 A 
ATOM      7  C6  UNL d   1       0.816  -3.001  -1.966  0.00  0.00    -0.001 A 
ENDROOT
TORSDOF 0
ENDMDL
