MODEL 1
REMARK minimizedAffinity 3.17660165
REMARK minimizedRMSD -1
REMARK  0 active torsions:
REMARK  status: ('A' for Active; 'I' for Inactive)
ROOT
ATOM      1  C   UNL d   1       1.020   3.622   3.011  0.00  0.00     0.078 C 
ATOM      2  C1  UNL d   1       0.191   2.779   2.090  0.00  0.00    -0.077 A 
ATOM      3  C2  UNL d   1      -0.275   3.286   0.871  0.00  0.00    -0.001 A 
ATOM      4  C3  UNL d   1      -1.054   2.493   0.027  0.00  0.00     0.003 A 
ATOM      5  C4  UNL d   1      -1.376   1.188   0.395  0.00  0.00    -0.005 A 
ATOM      6  C5  UNL d   1      -0.920   0.675   1.607  0.00  0.00     0.003 A 
ATOM      7  C6  UNL d   1      -0.140   1.467   2.452  0.00  0.00    -0.001 A 
ENDROOT
TORSDOF 0
ENDMDL
