MODEL 1
REMARK minimizedAffinity 3.58083534
REMARK minimizedRMSD -1
REMARK  0 active torsions:
REMARK  status: ('A' for Active; 'I' for Inactive)
ROOT
ATOM      1  C   UNL d   1       1.118   4.717   2.264  0.00  0.00     0.078 C 
ATOM      2  C1  UNL d   1       2.150   4.142   1.341  0.00  0.00    -0.077 A 
ATOM      3  C2  UNL d   1       3.335   4.835   1.063  0.00  0.00    -0.001 A 
ATOM      4  C3  UNL d   1       4.283   4.292   0.194  0.00  0.00     0.003 A 
ATOM      5  C4  UNL d   1       4.056   3.055  -0.405  0.00  0.00    -0.005 A 
ATOM      6  C5  UNL d   1       2.879   2.359  -0.136  0.00  0.00     0.003 A 
ATOM      7  C6  UNL d   1       1.930   2.900   0.733  0.00  0.00    -0.001 A 
ENDROOT
TORSDOF 0
ENDMDL
