MODEL 1
REMARK minimizedAffinity 19.0858135
REMARK minimizedRMSD -1
REMARK  0 active torsions:
REMARK  status: ('A' for Active; 'I' for Inactive)
ROOT
ATOM      1  C2' OXE d   1       1.075  -3.780   1.783  0.00  0.00     0.078 C 
ATOM      2  C1' OXE d   1       2.107  -2.378   3.985  0.00  0.00     0.078 C 
ATOM      3  C1  OXE d   1       0.812  -1.891   3.384  0.00  0.00    -0.078 A 
ATOM      4  C2  OXE d   1       0.338  -2.554   2.278  0.00  0.00    -0.078 A 
ATOM      5  C3  OXE d   1      -0.880  -2.180   1.718  0.00  0.00     0.003 A 
ATOM      6  C4  OXE d   1      -1.549  -1.039   2.177  0.00  0.00    -0.002 A 
ATOM      7  C5  OXE d   1      -1.064  -0.325   3.277  0.00  0.00    -0.002 A 
ATOM      8  C6  OXE d   1       0.090  -0.762   3.918  0.00  0.00     0.003 A 
ENDROOT
TORSDOF 0
ENDMDL
