MODEL 1
REMARK minimizedAffinity 10.6129446
REMARK minimizedRMSD -1
REMARK  0 active torsions:
REMARK  status: ('A' for Active; 'I' for Inactive)
ROOT
ATOM      1  C2' OXE d   1      -1.183   4.826  -4.331  0.00  0.00     0.078 C 
ATOM      2  C1' OXE d   1       0.277   6.000  -2.240  0.00  0.00     0.078 C 
ATOM      3  C1  OXE d   1       0.738   4.659  -2.754  0.00  0.00    -0.078 A 
ATOM      4  C2  OXE d   1      -0.010   4.070  -3.745  0.00  0.00    -0.078 A 
ATOM      5  C3  OXE d   1       0.403   2.859  -4.293  0.00  0.00     0.003 A 
ATOM      6  C4  OXE d   1       1.484   2.162  -3.739  0.00  0.00    -0.002 A 
ATOM      7  C5  OXE d   1       2.235   2.725  -2.702  0.00  0.00    -0.002 A 
ATOM      8  C6  OXE d   1       1.902   3.989  -2.228  0.00  0.00     0.003 A 
ENDROOT
TORSDOF 0
ENDMDL
