MODEL 1
REMARK minimizedAffinity 8.13113308
REMARK minimizedRMSD -1
REMARK  0 active torsions:
REMARK  status: ('A' for Active; 'I' for Inactive)
ROOT
ATOM      1  C2' OXE d   1       1.910   2.594   1.481  0.00  0.00     0.078 C 
ATOM      2  C1' OXE d   1       3.240   1.092  -0.482  0.00  0.00     0.078 C 
ATOM      3  C1  OXE d   1       4.001   2.211   0.183  0.00  0.00    -0.078 A 
ATOM      4  C2  OXE d   1       3.328   2.970   1.109  0.00  0.00    -0.078 A 
ATOM      5  C3  OXE d   1       4.000   3.980   1.793  0.00  0.00     0.003 A 
ATOM      6  C4  OXE d   1       5.309   4.328   1.436  0.00  0.00    -0.002 A 
ATOM      7  C5  OXE d   1       6.000   3.592   0.467  0.00  0.00    -0.002 A 
ATOM      8  C6  OXE d   1       5.376   2.506  -0.137  0.00  0.00     0.003 A 
ENDROOT
TORSDOF 0
ENDMDL
