MODEL 1
REMARK minimizedAffinity 13.8148184
REMARK minimizedRMSD -1
REMARK  0 active torsions:
REMARK  status: ('A' for Active; 'I' for Inactive)
ROOT
ATOM      1  C2' OXE d   1       4.109   2.820  -5.560  0.00  0.00     0.078 C 
ATOM      2  C1' OXE d   1       5.603   4.796  -4.240  0.00  0.00     0.078 C 
ATOM      3  C1  OXE d   1       4.252   4.439  -3.672  0.00  0.00    -0.078 A 
ATOM      4  C2  OXE d   1       3.508   3.504  -4.351  0.00  0.00    -0.078 A 
ATOM      5  C3  OXE d   1       2.279   3.098  -3.840  0.00  0.00     0.003 A 
ATOM      6  C4  OXE d   1       1.726   3.744  -2.727  0.00  0.00    -0.002 A 
ATOM      7  C5  OXE d   1       2.450   4.726  -2.044  0.00  0.00    -0.002 A 
ATOM      8  C6  OXE d   1       3.730   5.055  -2.477  0.00  0.00     0.003 A 
ENDROOT
TORSDOF 0
ENDMDL
