MODEL 1
REMARK minimizedAffinity 15.7499352
REMARK minimizedRMSD -1
REMARK  0 active torsions:
REMARK  status: ('A' for Active; 'I' for Inactive)
ROOT
ATOM      1  C2' OXE d   1      -2.846   1.304   3.244  0.00  0.00     0.078 C 
ATOM      2  C1' OXE d   1      -4.191  -0.115   1.229  0.00  0.00     0.078 C 
ATOM      3  C1  OXE d   1      -2.795  -0.559   1.590  0.00  0.00    -0.078 A 
ATOM      4  C2  OXE d   1      -2.127   0.170   2.544  0.00  0.00    -0.078 A 
ATOM      5  C3  OXE d   1      -0.858  -0.229   2.953  0.00  0.00     0.003 A 
ATOM      6  C4  OXE d   1      -0.196  -1.272   2.294  0.00  0.00    -0.002 A 
ATOM      7  C5  OXE d   1      -0.843  -2.003   1.293  0.00  0.00    -0.002 A 
ATOM      8  C6  OXE d   1      -2.156  -1.687   0.959  0.00  0.00     0.003 A 
ENDROOT
TORSDOF 0
ENDMDL
