MODEL 1
REMARK minimizedAffinity 12.2849703
REMARK minimizedRMSD -1
REMARK  0 active torsions:
REMARK  status: ('A' for Active; 'I' for Inactive)
ROOT
ATOM      1  C2' OXE d   1      -0.786   4.450  -4.126  0.00  0.00     0.078 C 
ATOM      2  C1' OXE d   1       0.344   6.000  -2.076  0.00  0.00     0.078 C 
ATOM      3  C1  OXE d   1       1.143   4.832  -2.598  0.00  0.00    -0.078 A 
ATOM      4  C2  OXE d   1       0.563   4.051  -3.568  0.00  0.00    -0.078 A 
ATOM      5  C3  OXE d   1       1.279   2.994  -4.122  0.00  0.00     0.003 A 
ATOM      6  C4  OXE d   1       2.523   2.626  -3.594  0.00  0.00    -0.002 A 
ATOM      7  C5  OXE d   1       3.115   3.384  -2.578  0.00  0.00    -0.002 A 
ATOM      8  C6  OXE d   1       2.458   4.513  -2.099  0.00  0.00     0.003 A 
ENDROOT
TORSDOF 0
ENDMDL
