MODEL 1
REMARK minimizedAffinity 14.0791864
REMARK minimizedRMSD -1
REMARK  0 active torsions:
REMARK  status: ('A' for Active; 'I' for Inactive)
ROOT
ATOM      1  C2' OXE d   1       2.773  -1.578   2.743  0.00  0.00     0.078 C 
ATOM      2  C1' OXE d   1       2.634  -3.856   1.109  0.00  0.00     0.078 C 
ATOM      3  C1  OXE d   1       1.349  -3.124   1.405  0.00  0.00    -0.078 A 
ATOM      4  C2  OXE d   1       1.420  -2.037   2.244  0.00  0.00    -0.078 A 
ATOM      5  C3  OXE d   1       0.273  -1.294   2.507  0.00  0.00     0.003 A 
ATOM      6  C4  OXE d   1      -0.976  -1.731   2.049  0.00  0.00    -0.002 A 
ATOM      7  C5  OXE d   1      -1.075  -2.858   1.226  0.00  0.00    -0.002 A 
ATOM      8  C6  OXE d   1       0.080  -3.539   0.861  0.00  0.00     0.003 A 
ENDROOT
TORSDOF 0
ENDMDL
