MODEL 1
REMARK minimizedAffinity 7.50108576
REMARK minimizedRMSD -1
REMARK  0 active torsions:
REMARK  status: ('A' for Active; 'I' for Inactive)
ROOT
ATOM      1  C2' OXE d   1       3.755   2.951  -5.841  0.00  0.00     0.078 C 
ATOM      2  C1' OXE d   1       5.897   4.584  -5.051  0.00  0.00     0.078 C 
ATOM      3  C1  OXE d   1       4.681   4.538  -4.159  0.00  0.00    -0.078 A 
ATOM      4  C2  OXE d   1       3.619   3.773  -4.577  0.00  0.00    -0.078 A 
ATOM      5  C3  OXE d   1       2.495   3.651  -3.765  0.00  0.00     0.003 A 
ATOM      6  C4  OXE d   1       2.374   4.422  -2.603  0.00  0.00    -0.002 A 
ATOM      7  C5  OXE d   1       3.428   5.238  -2.179  0.00  0.00    -0.002 A 
ATOM      8  C6  OXE d   1       4.603   5.275  -2.922  0.00  0.00     0.003 A 
ENDROOT
TORSDOF 0
ENDMDL
