MODEL 1
REMARK minimizedAffinity 13.1015816
REMARK minimizedRMSD -1
REMARK  0 active torsions:
REMARK  status: ('A' for Active; 'I' for Inactive)
ROOT
ATOM      1  C2' OXE d   1      -2.898   1.643   2.689  0.00  0.00     0.078 C 
ATOM      2  C1' OXE d   1      -4.638  -0.174   1.443  0.00  0.00     0.078 C 
ATOM      3  C1  OXE d   1      -3.244  -0.648   1.773  0.00  0.00    -0.078 A 
ATOM      4  C2  OXE d   1      -2.385   0.262   2.340  0.00  0.00    -0.078 A 
ATOM      5  C3  OXE d   1      -1.105  -0.138   2.715  0.00  0.00     0.003 A 
ATOM      6  C4  OXE d   1      -0.635  -1.413   2.379  0.00  0.00    -0.002 A 
ATOM      7  C5  OXE d   1      -1.481  -2.343   1.766  0.00  0.00    -0.002 A 
ATOM      8  C6  OXE d   1      -2.799  -1.991   1.495  0.00  0.00     0.003 A 
ENDROOT
TORSDOF 0
ENDMDL
