MODEL 1
REMARK minimizedAffinity 17.4094028
REMARK minimizedRMSD -1
REMARK  0 active torsions:
REMARK  status: ('A' for Active; 'I' for Inactive)
ROOT
ATOM      1  C2' OXE d   1       0.449   4.045  -3.099  0.00  0.00     0.078 C 
ATOM      2  C1' OXE d   1       2.402   2.269  -2.145  0.00  0.00     0.078 C 
ATOM      3  C1  OXE d   1       2.627   2.902  -3.495  0.00  0.00    -0.078 A 
ATOM      4  C2  OXE d   1       1.643   3.734  -3.975  0.00  0.00    -0.078 A 
ATOM      5  C3  OXE d   1       1.825   4.386  -5.191  0.00  0.00     0.003 A 
ATOM      6  C4  OXE d   1       2.928   4.085  -5.999  0.00  0.00    -0.002 A 
ATOM      7  C5  OXE d   1       3.921   3.210  -5.548  0.00  0.00    -0.002 A 
ATOM      8  C6  OXE d   1       3.807   2.644  -4.283  0.00  0.00     0.003 A 
ENDROOT
TORSDOF 0
ENDMDL
