MODEL 1
REMARK minimizedAffinity 18.9239445
REMARK minimizedRMSD -1
REMARK  0 active torsions:
REMARK  status: ('A' for Active; 'I' for Inactive)
ROOT
ATOM      1  C2' OXE d   1       4.869   5.378  -1.861  0.00  0.00     0.078 C 
ATOM      2  C1' OXE d   1       6.000   5.027  -4.406  0.00  0.00     0.078 C 
ATOM      3  C1  OXE d   1       4.736   4.268  -4.088  0.00  0.00    -0.078 A 
ATOM      4  C2  OXE d   1       4.215   4.409  -2.824  0.00  0.00    -0.078 A 
ATOM      5  C3  OXE d   1       3.021   3.775  -2.495  0.00  0.00     0.003 A 
ATOM      6  C4  OXE d   1       2.429   2.873  -3.388  0.00  0.00    -0.002 A 
ATOM      7  C5  OXE d   1       2.965   2.684  -4.666  0.00  0.00    -0.002 A 
ATOM      8  C6  OXE d   1       4.092   3.404  -5.046  0.00  0.00     0.003 A 
ENDROOT
TORSDOF 0
ENDMDL
