MODEL 1
REMARK minimizedAffinity 10.4558477
REMARK minimizedRMSD -1
REMARK  0 active torsions:
REMARK  status: ('A' for Active; 'I' for Inactive)
ROOT
ATOM      1  C2' OXE d   1      -1.942   0.848   3.740  0.00  0.00     0.078 C 
ATOM      2  C1' OXE d   1      -2.364  -0.641   1.398  0.00  0.00     0.078 C 
ATOM      3  C1  OXE d   1      -1.219  -1.046   2.292  0.00  0.00    -0.078 A 
ATOM      4  C2  OXE d   1      -0.991  -0.283   3.412  0.00  0.00    -0.078 A 
ATOM      5  C3  OXE d   1       0.019  -0.645   4.299  0.00  0.00     0.003 A 
ATOM      6  C4  OXE d   1       0.901  -1.686   3.983  0.00  0.00    -0.002 A 
ATOM      7  C5  OXE d   1       0.710  -2.451   2.828  0.00  0.00    -0.002 A 
ATOM      8  C6  OXE d   1      -0.368  -2.171   1.995  0.00  0.00     0.003 A 
ENDROOT
TORSDOF 0
ENDMDL
