MODEL 1
REMARK minimizedAffinity 13.0567818
REMARK minimizedRMSD -1
REMARK  0 active torsions:
REMARK  status: ('A' for Active; 'I' for Inactive)
ROOT
ATOM      1  C2' OXE d   1      -1.405  -1.947   0.616  0.00  0.00     0.078 C 
ATOM      2  C1' OXE d   1      -3.265   0.056   1.256  0.00  0.00     0.078 C 
ATOM      3  C1  OXE d   1      -2.086  -0.130   2.178  0.00  0.00    -0.078 A 
ATOM      4  C2  OXE d   1      -1.206  -1.144   1.883  0.00  0.00    -0.078 A 
ATOM      5  C3  OXE d   1      -0.073  -1.323   2.671  0.00  0.00     0.003 A 
ATOM      6  C4  OXE d   1       0.098  -0.582   3.847  0.00  0.00    -0.002 A 
ATOM      7  C5  OXE d   1      -0.807   0.428   4.187  0.00  0.00    -0.002 A 
ATOM      8  C6  OXE d   1      -1.880   0.695   3.343  0.00  0.00     0.003 A 
ENDROOT
TORSDOF 0
ENDMDL
