MODEL 1
REMARK minimizedAffinity 11.2906771
REMARK minimizedRMSD -1
REMARK  0 active torsions:
REMARK  status: ('A' for Active; 'I' for Inactive)
ROOT
ATOM      1  C2' OXE d   1      -2.637   1.647   5.117  0.00  0.00     0.078 C 
ATOM      2  C1' OXE d   1      -0.548  -0.007   6.000  0.00  0.00     0.078 C 
ATOM      3  C1  OXE d   1      -0.899  -0.041   4.534  0.00  0.00    -0.078 A 
ATOM      4  C2  OXE d   1      -1.954   0.737   4.119  0.00  0.00    -0.078 A 
ATOM      5  C3  OXE d   1      -2.285   0.785   2.767  0.00  0.00     0.003 A 
ATOM      6  C4  OXE d   1      -1.655  -0.067   1.853  0.00  0.00    -0.002 A 
ATOM      7  C5  OXE d   1      -0.605  -0.897   2.262  0.00  0.00    -0.002 A 
ATOM      8  C6  OXE d   1      -0.188  -0.864   3.588  0.00  0.00     0.003 A 
ENDROOT
TORSDOF 0
ENDMDL
