MODEL 1
REMARK minimizedAffinity 9.8118782
REMARK minimizedRMSD -1
REMARK  0 active torsions:
REMARK  status: ('A' for Active; 'I' for Inactive)
ROOT
ATOM      1  C2' OXE d   1       1.895   0.608   0.753  0.00  0.00     0.078 C 
ATOM      2  C1' OXE d   1       0.807  -1.695   1.933  0.00  0.00     0.078 C 
ATOM      3  C1  OXE d   1       0.079  -0.390   2.135  0.00  0.00    -0.078 A 
ATOM      4  C2  OXE d   1       0.643   0.739   1.593  0.00  0.00    -0.078 A 
ATOM      5  C3  OXE d   1      -0.016   1.960   1.703  0.00  0.00     0.003 A 
ATOM      6  C4  OXE d   1      -1.168   2.075   2.490  0.00  0.00    -0.002 A 
ATOM      7  C5  OXE d   1      -1.738   0.944   3.084  0.00  0.00    -0.002 A 
ATOM      8  C6  OXE d   1      -1.152  -0.300   2.881  0.00  0.00     0.003 A 
ENDROOT
TORSDOF 0
ENDMDL
