MODEL 1
REMARK minimizedAffinity 9.68332386
REMARK minimizedRMSD -1
REMARK  0 active torsions:
REMARK  status: ('A' for Active; 'I' for Inactive)
ROOT
ATOM      1  C2' OXE d   1      -4.173  -0.013   1.389  0.00  0.00     0.078 C 
ATOM      2  C1' OXE d   1      -2.586   1.289   3.304  0.00  0.00     0.078 C 
ATOM      3  C1  OXE d   1      -1.988   0.110   2.579  0.00  0.00    -0.078 A 
ATOM      4  C2  OXE d   1      -2.787  -0.550   1.677  0.00  0.00    -0.078 A 
ATOM      5  C3  OXE d   1      -2.266  -1.610   0.941  0.00  0.00     0.003 A 
ATOM      6  C4  OXE d   1      -0.988  -2.107   1.221  0.00  0.00    -0.002 A 
ATOM      7  C5  OXE d   1      -0.171  -1.474   2.164  0.00  0.00    -0.002 A 
ATOM      8  C6  OXE d   1      -0.639  -0.341   2.820  0.00  0.00     0.003 A 
ENDROOT
TORSDOF 0
ENDMDL
