MODEL 1
REMARK minimizedAffinity 14.0239706
REMARK minimizedRMSD -1
REMARK  0 active torsions:
REMARK  status: ('A' for Active; 'I' for Inactive)
ROOT
ATOM      1  C2' OXE d   1       3.746   3.007  -5.400  0.00  0.00     0.078 C 
ATOM      2  C1' OXE d   1       2.204   3.199  -3.062  0.00  0.00     0.078 C 
ATOM      3  C1  OXE d   1       3.524   3.928  -3.096  0.00  0.00    -0.078 A 
ATOM      4  C2  OXE d   1       4.294   3.790  -4.226  0.00  0.00    -0.078 A 
ATOM      5  C3  OXE d   1       5.495   4.486  -4.332  0.00  0.00     0.003 A 
ATOM      6  C4  OXE d   1       5.999   5.199  -3.238  0.00  0.00    -0.002 A 
ATOM      7  C5  OXE d   1       5.249   5.319  -2.062  0.00  0.00    -0.002 A 
ATOM      8  C6  OXE d   1       3.994   4.726  -1.991  0.00  0.00     0.003 A 
ENDROOT
TORSDOF 0
ENDMDL
