MODEL 1
REMARK minimizedAffinity 12.0406189
REMARK minimizedRMSD -1
REMARK  0 active torsions:
REMARK  status: ('A' for Active; 'I' for Inactive)
ROOT
ATOM      1  C2' OXE d   1       4.814   6.000  -1.487  0.00  0.00     0.078 C 
ATOM      2  C1' OXE d   1       5.992   4.120  -3.207  0.00  0.00     0.078 C 
ATOM      3  C1  OXE d   1       4.506   4.019  -2.966  0.00  0.00    -0.078 A 
ATOM      4  C2  OXE d   1       3.946   4.914  -2.086  0.00  0.00    -0.078 A 
ATOM      5  C3  OXE d   1       2.571   4.900  -1.870  0.00  0.00     0.003 A 
ATOM      6  C4  OXE d   1       1.778   3.886  -2.420  0.00  0.00    -0.002 A 
ATOM      7  C5  OXE d   1       2.335   2.940  -3.287  0.00  0.00    -0.002 A 
ATOM      8  C6  OXE d   1       3.686   3.018  -3.603  0.00  0.00     0.003 A 
ENDROOT
TORSDOF 0
ENDMDL
