MODEL 1
REMARK minimizedAffinity -4.67719078
REMARK minimizedRMSD -1
REMARK  3 active torsions:
REMARK  status: ('A' for Active; 'I' for Inactive)
REMARK    1  A    between atoms: C3'_2  and  C2'_3 
REMARK    2  A    between atoms: C2'_3  and  C1'_4 
REMARK    3  A    between atoms: C1'_4  and  C1_5 
ROOT
ATOM      1  C1  N4B d   1      -0.039  -0.361   0.019  0.00  0.00    -0.075 A 
ATOM      2  C2  N4B d   1      -0.826   0.442  -0.836  0.00  0.00     0.002 A 
ATOM      3  C3  N4B d   1      -1.554   1.485  -0.320  0.00  0.00     0.002 A 
ATOM      4  C4  N4B d   1      -1.527   1.732   1.045  0.00  0.00    -0.004 A 
ATOM      5  C5  N4B d   1      -0.745   0.967   1.860  0.00  0.00     0.002 A 
ATOM      6  C6  N4B d   1      -0.005  -0.082   1.355  0.00  0.00     0.002 A 
ENDROOT
BRANCH   1   7
ATOM      7  C1' N4B d   1       0.706  -1.566  -0.487  0.00  0.00     0.057 C 
BRANCH   7   8
ATOM      8  C2' N4B d   1       0.104  -2.006  -1.818  0.00  0.00     0.009 C 
BRANCH   8   9
ATOM      9  C3' N4B d   1       0.631  -3.359  -2.261  0.00  0.00     0.004 C 
ATOM     10  C4' N4B d   1       0.777  -4.326  -1.124  0.00  0.00     0.003 C 
ENDBRANCH   8   9
ENDBRANCH   7   8
ENDBRANCH   1   7
TORSDOF 3
ENDMDL
