MODEL 1
REMARK minimizedAffinity -6.41355085
REMARK minimizedRMSD -1
REMARK  3 active torsions:
REMARK  status: ('A' for Active; 'I' for Inactive)
REMARK    1  A    between atoms: C3'_2  and  C2'_3 
REMARK    2  A    between atoms: C2'_3  and  C1'_4 
REMARK    3  A    between atoms: C1'_4  and  C1_5 
ROOT
ATOM      1  C1  N4B d   1      -0.505   0.953   0.252  0.00  0.00    -0.075 A 
ATOM      2  C2  N4B d   1      -1.498   1.358   1.171  0.00  0.00     0.002 A 
ATOM      3  C3  N4B d   1      -1.875   2.677   1.238  0.00  0.00     0.002 A 
ATOM      4  C4  N4B d   1      -1.262   3.608   0.413  0.00  0.00    -0.004 A 
ATOM      5  C5  N4B d   1      -0.321   3.204  -0.489  0.00  0.00     0.002 A 
ATOM      6  C6  N4B d   1       0.064   1.882  -0.570  0.00  0.00     0.002 A 
ENDROOT
BRANCH   1   7
ATOM      7  C1' N4B d   1       0.001  -0.463   0.203  0.00  0.00     0.057 C 
BRANCH   7   8
ATOM      8  C2' N4B d   1       0.760  -0.678  -1.104  0.00  0.00     0.009 C 
BRANCH   8   9
ATOM      9  C3' N4B d   1       0.962  -2.153  -1.407  0.00  0.00     0.004 C 
ATOM     10  C4' N4B d   1       0.606  -2.510  -2.819  0.00  0.00     0.003 C 
ENDBRANCH   8   9
ENDBRANCH   7   8
ENDBRANCH   1   7
TORSDOF 3
ENDMDL
