MODEL 1
REMARK minimizedAffinity -6.41197586
REMARK minimizedRMSD -1
REMARK  3 active torsions:
REMARK  status: ('A' for Active; 'I' for Inactive)
REMARK    1  A    between atoms: C3'_2  and  C2'_3 
REMARK    2  A    between atoms: C2'_3  and  C1'_4 
REMARK    3  A    between atoms: C1'_4  and  C1_5 
ROOT
ATOM      1  C1  N4B d   1       0.150   0.017   0.174  0.00  0.00    -0.075 A 
ATOM      2  C2  N4B d   1      -0.101  -0.149   1.554  0.00  0.00     0.002 A 
ATOM      3  C3  N4B d   1      -0.906   0.745   2.217  0.00  0.00     0.002 A 
ATOM      4  C4  N4B d   1      -1.452   1.818   1.529  0.00  0.00    -0.004 A 
ATOM      5  C5  N4B d   1      -1.226   1.957   0.191  0.00  0.00     0.002 A 
ATOM      6  C6  N4B d   1      -0.422   1.064  -0.489  0.00  0.00     0.002 A 
ENDROOT
BRANCH   1   7
ATOM      7  C1' N4B d   1       1.091  -0.885  -0.576  0.00  0.00     0.057 C 
BRANCH   7   8
ATOM      8  C2' N4B d   1       0.306  -1.673  -1.620  0.00  0.00     0.009 C 
BRANCH   8   9
ATOM      9  C3' N4B d   1       0.950  -3.014  -1.924  0.00  0.00     0.004 C 
ATOM     10  C4' N4B d   1      -0.034  -4.145  -1.924  0.00  0.00     0.003 C 
ENDBRANCH   8   9
ENDBRANCH   7   8
ENDBRANCH   1   7
TORSDOF 3
ENDMDL
