MODEL 1
REMARK minimizedAffinity -5.69929218
REMARK minimizedRMSD -1
REMARK  3 active torsions:
REMARK  status: ('A' for Active; 'I' for Inactive)
REMARK    1  A    between atoms: C3'_2  and  C2'_3 
REMARK    2  A    between atoms: C2'_3  and  C1'_4 
REMARK    3  A    between atoms: C1'_4  and  C1_5 
ROOT
ATOM      1  C1  N4B d   1      -0.460   0.469   0.478  0.00  0.00    -0.075 A 
ATOM      2  C2  N4B d   1      -1.355   0.840   1.507  0.00  0.00     0.002 A 
ATOM      3  C3  N4B d   1      -1.779   2.142   1.611  0.00  0.00     0.002 A 
ATOM      4  C4  N4B d   1      -1.310   3.090   0.715  0.00  0.00    -0.004 A 
ATOM      5  C5  N4B d   1      -0.466   2.719  -0.291  0.00  0.00     0.002 A 
ATOM      6  C6  N4B d   1      -0.034   1.414  -0.410  0.00  0.00     0.002 A 
ENDROOT
BRANCH   1   7
ATOM      7  C1' N4B d   1       0.099  -0.923   0.376  0.00  0.00     0.057 C 
BRANCH   7   8
ATOM      8  C2' N4B d   1       0.757  -1.100  -0.990  0.00  0.00     0.009 C 
BRANCH   8   9
ATOM      9  C3' N4B d   1       0.781  -2.555  -1.425  0.00  0.00     0.004 C 
ATOM     10  C4' N4B d   1       0.338  -2.744  -2.845  0.00  0.00     0.003 C 
ENDBRANCH   8   9
ENDBRANCH   7   8
ENDBRANCH   1   7
TORSDOF 3
ENDMDL
