MODEL 1
REMARK minimizedAffinity -5.09742069
REMARK minimizedRMSD -1
REMARK  3 active torsions:
REMARK  status: ('A' for Active; 'I' for Inactive)
REMARK    1  A    between atoms: C3'_2  and  C2'_3 
REMARK    2  A    between atoms: C2'_3  and  C1'_4 
REMARK    3  A    between atoms: C1'_4  and  C1_5 
ROOT
ATOM      1  C1  N4B d   1      -0.440   0.737   0.177  0.00  0.00    -0.075 A 
ATOM      2  C2  N4B d   1      -0.026   1.953  -0.411  0.00  0.00     0.002 A 
ATOM      3  C3  N4B d   1      -0.485   3.148   0.087  0.00  0.00     0.002 A 
ATOM      4  C4  N4B d   1      -1.369   3.151   1.156  0.00  0.00    -0.004 A 
ATOM      5  C5  N4B d   1      -1.744   1.974   1.734  0.00  0.00     0.002 A 
ATOM      6  C6  N4B d   1      -1.287   0.766   1.247  0.00  0.00     0.002 A 
ENDROOT
BRANCH   1   7
ATOM      7  C1' N4B d   1      -0.033  -0.596  -0.387  0.00  0.00     0.057 C 
BRANCH   7   8
ATOM      8  C2' N4B d   1       1.473  -0.598  -0.633  0.00  0.00     0.009 C 
BRANCH   8   9
ATOM      9  C3' N4B d   1       1.972  -1.956  -1.095  0.00  0.00     0.004 C 
ATOM     10  C4' N4B d   1       0.972  -2.684  -1.943  0.00  0.00     0.003 C 
ENDBRANCH   8   9
ENDBRANCH   7   8
ENDBRANCH   1   7
TORSDOF 3
ENDMDL
