MODEL 1
REMARK minimizedAffinity -6.76606941
REMARK minimizedRMSD -1
REMARK  3 active torsions:
REMARK  status: ('A' for Active; 'I' for Inactive)
REMARK    1  A    between atoms: C3'_2  and  C2'_3 
REMARK    2  A    between atoms: C2'_3  and  C1'_4 
REMARK    3  A    between atoms: C1'_4  and  C1_5 
ROOT
ATOM      1  C1  N4B d   1      -0.193   0.359   0.248  0.00  0.00    -0.075 A 
ATOM      2  C2  N4B d   1      -1.092  -0.212   1.175  0.00  0.00     0.002 A 
ATOM      3  C3  N4B d   1      -2.042   0.572   1.782  0.00  0.00     0.002 A 
ATOM      4  C4  N4B d   1      -2.099   1.927   1.493  0.00  0.00    -0.004 A 
ATOM      5  C5  N4B d   1      -1.243   2.466   0.578  0.00  0.00     0.002 A 
ATOM      6  C6  N4B d   1      -0.286   1.689  -0.043  0.00  0.00     0.002 A 
ENDROOT
BRANCH   1   7
ATOM      7  C1' N4B d   1       0.918  -0.441  -0.376  0.00  0.00     0.057 C 
BRANCH   7   8
ATOM      8  C2' N4B d   1       0.319  -1.475  -1.324  0.00  0.00     0.009 C 
BRANCH   8   9
ATOM      9  C3' N4B d   1       1.186  -2.718  -1.431  0.00  0.00     0.004 C 
ATOM     10  C4' N4B d   1       0.406  -3.939  -1.819  0.00  0.00     0.003 C 
ENDBRANCH   8   9
ENDBRANCH   7   8
ENDBRANCH   1   7
TORSDOF 3
ENDMDL
