MODEL 1
REMARK minimizedAffinity -5.53255463
REMARK minimizedRMSD -1
REMARK  3 active torsions:
REMARK  status: ('A' for Active; 'I' for Inactive)
REMARK    1  A    between atoms: C3'_2  and  C2'_3 
REMARK    2  A    between atoms: C2'_3  and  C1'_4 
REMARK    3  A    between atoms: C1'_4  and  C1_5 
ROOT
ATOM      1  C1  N4B d   1       0.214   0.267   0.468  0.00  0.00    -0.075 A 
ATOM      2  C2  N4B d   1      -0.223   0.120   1.802  0.00  0.00     0.002 A 
ATOM      3  C3  N4B d   1      -1.169   0.975   2.313  0.00  0.00     0.002 A 
ATOM      4  C4  N4B d   1      -1.676   1.992   1.517  0.00  0.00    -0.004 A 
ATOM      5  C5  N4B d   1      -1.267   2.111   0.221  0.00  0.00     0.002 A 
ATOM      6  C6  N4B d   1      -0.320   1.256  -0.307  0.00  0.00     0.002 A 
ENDROOT
BRANCH   1   7
ATOM      7  C1' N4B d   1       1.308  -0.590  -0.108  0.00  0.00     0.057 C 
BRANCH   7   8
ATOM      8  C2' N4B d   1       0.729  -1.466  -1.215  0.00  0.00     0.009 C 
BRANCH   8   9
ATOM      9  C3' N4B d   1       1.447  -2.800  -1.318  0.00  0.00     0.004 C 
ATOM     10  C4' N4B d   1       0.754  -3.764  -2.234  0.00  0.00     0.003 C 
ENDBRANCH   8   9
ENDBRANCH   7   8
ENDBRANCH   1   7
TORSDOF 3
ENDMDL
