MODEL 1
REMARK minimizedAffinity -5.56485796
REMARK minimizedRMSD -1
REMARK  3 active torsions:
REMARK  status: ('A' for Active; 'I' for Inactive)
REMARK    1  A    between atoms: C3'_2  and  C2'_3 
REMARK    2  A    between atoms: C2'_3  and  C1'_4 
REMARK    3  A    between atoms: C1'_4  and  C1_5 
ROOT
ATOM      1  C1  N4B d   1       0.229   0.354   0.120  0.00  0.00    -0.075 A 
ATOM      2  C2  N4B d   1      -0.092   0.024   1.454  0.00  0.00     0.002 A 
ATOM      3  C3  N4B d   1      -0.916   0.843   2.186  0.00  0.00     0.002 A 
ATOM      4  C4  N4B d   1      -1.414   2.004   1.612  0.00  0.00    -0.004 A 
ATOM      5  C5  N4B d   1      -1.119   2.303   0.314  0.00  0.00     0.002 A 
ATOM      6  C6  N4B d   1      -0.296   1.486  -0.434  0.00  0.00     0.002 A 
ENDROOT
BRANCH   1   7
ATOM      7  C1' N4B d   1       1.195  -0.466  -0.692  0.00  0.00     0.057 C 
BRANCH   7   8
ATOM      8  C2' N4B d   1       0.412  -1.435  -1.572  0.00  0.00     0.009 C 
BRANCH   8   9
ATOM      9  C3' N4B d   1       1.062  -2.807  -1.625  0.00  0.00     0.004 C 
ATOM     10  C4' N4B d   1       0.338  -3.758  -2.530  0.00  0.00     0.003 C 
ENDBRANCH   8   9
ENDBRANCH   7   8
ENDBRANCH   1   7
TORSDOF 3
ENDMDL
