MODEL 1
REMARK minimizedAffinity -5.20783138
REMARK minimizedRMSD -1
REMARK  3 active torsions:
REMARK  status: ('A' for Active; 'I' for Inactive)
REMARK    1  A    between atoms: C3'_2  and  C2'_3 
REMARK    2  A    between atoms: C2'_3  and  C1'_4 
REMARK    3  A    between atoms: C1'_4  and  C1_5 
ROOT
ATOM      1  C1  N4B d   1       0.161   0.335   0.067  0.00  0.00    -0.075 A 
ATOM      2  C2  N4B d   1      -0.483  -0.018   1.273  0.00  0.00     0.002 A 
ATOM      3  C3  N4B d   1      -1.311   0.882   1.898  0.00  0.00     0.002 A 
ATOM      4  C4  N4B d   1      -1.494   2.142   1.349  0.00  0.00    -0.004 A 
ATOM      5  C5  N4B d   1      -0.889   2.466   0.170  0.00  0.00     0.002 A 
ATOM      6  C6  N4B d   1      -0.057   1.570  -0.471  0.00  0.00     0.002 A 
ENDROOT
BRANCH   1   7
ATOM      7  C1' N4B d   1       1.142  -0.584  -0.608  0.00  0.00     0.057 C 
BRANCH   7   8
ATOM      8  C2' N4B d   1       0.376  -1.618  -1.428  0.00  0.00     0.009 C 
BRANCH   8   9
ATOM      9  C3' N4B d   1       1.150  -2.919  -1.566  0.00  0.00     0.004 C 
ATOM     10  C4' N4B d   1       0.601  -3.809  -2.640  0.00  0.00     0.003 C 
ENDBRANCH   8   9
ENDBRANCH   7   8
ENDBRANCH   1   7
TORSDOF 3
ENDMDL
