MODEL 1
REMARK minimizedAffinity -2.93166518
REMARK minimizedRMSD -1
REMARK  0 active torsions:
REMARK  status: ('A' for Active; 'I' for Inactive)
ROOT
ATOM      1  C   UNL d   1      -1.929  -0.859   0.801  0.00  0.00     0.020 A 
ATOM      2  C1  UNL d   1      -2.669  -0.839  -0.381  0.00  0.00     0.020 A 
ATOM      3  C2  UNL d   1      -2.118  -0.290  -1.540  0.00  0.00     0.034 A 
ATOM      4  C3  UNL d   1      -0.824   0.243  -1.521  0.00  0.00     0.017 A 
ATOM      5  C4  UNL d   1      -0.082   0.223  -0.335  0.00  0.00     0.017 A 
ATOM      6  C5  UNL d   1      -0.638  -0.328   0.824  0.00  0.00     0.034 A 
ATOM      7 Cl   UNL d   1       1.521   0.861  -0.233  0.00  0.00    -0.070 Cl
ATOM      8 Cl1  UNL d   1      -0.206   0.906  -2.992  0.00  0.00    -0.070 Cl
ENDROOT
TORSDOF 0
ENDMDL
