MODEL 1
REMARK minimizedAffinity -4.07843494
REMARK minimizedRMSD -1
REMARK  0 active torsions:
REMARK  status: ('A' for Active; 'I' for Inactive)
ROOT
ATOM      1  C   UNL d   1       1.113   0.202  -0.281  0.00  0.00     0.020 A 
ATOM      2  C1  UNL d   1       0.297   0.618  -1.332  0.00  0.00     0.020 A 
ATOM      3  C2  UNL d   1      -1.055   0.270  -1.346  0.00  0.00     0.034 A 
ATOM      4  C3  UNL d   1      -1.596  -0.495  -0.306  0.00  0.00     0.017 A 
ATOM      5  C4  UNL d   1      -0.776  -0.912   0.749  0.00  0.00     0.017 A 
ATOM      6  C5  UNL d   1       0.577  -0.561   0.758  0.00  0.00     0.034 A 
ATOM      7 Cl   UNL d   1      -1.371  -1.858   2.067  0.00  0.00    -0.070 Cl
ATOM      8 Cl1  UNL d   1      -3.277  -0.888  -0.388  0.00  0.00    -0.070 Cl
ENDROOT
TORSDOF 0
ENDMDL
