MODEL 1
REMARK minimizedAffinity -3.27342582
REMARK minimizedRMSD -1
REMARK  0 active torsions:
REMARK  status: ('A' for Active; 'I' for Inactive)
ROOT
ATOM      1  C   UNL d   1       1.281   0.073  -0.092  0.00  0.00     0.020 A 
ATOM      2  C1  UNL d   1       0.433   0.523  -1.104  0.00  0.00     0.020 A 
ATOM      3  C2  UNL d   1      -0.944   0.312  -1.005  0.00  0.00     0.034 A 
ATOM      4  C3  UNL d   1      -1.477  -0.350   0.107  0.00  0.00     0.017 A 
ATOM      5  C4  UNL d   1      -0.625  -0.802   1.121  0.00  0.00     0.017 A 
ATOM      6  C5  UNL d   1       0.753  -0.588   1.017  0.00  0.00     0.034 A 
ATOM      7 Cl   UNL d   1      -1.209  -1.627   2.523  0.00  0.00    -0.070 Cl
ATOM      8 Cl1  UNL d   1      -3.189  -0.576   0.163  0.00  0.00    -0.070 Cl
ENDROOT
TORSDOF 0
ENDMDL
