MODEL 1
REMARK minimizedAffinity -4.4385972
REMARK minimizedRMSD -1
REMARK  0 active torsions:
REMARK  status: ('A' for Active; 'I' for Inactive)
ROOT
ATOM      1  C   UNL d   1      -1.703   0.283  -1.310  0.00  0.00     0.020 A 
ATOM      2  C1  UNL d   1      -2.548  -0.540  -0.567  0.00  0.00     0.020 A 
ATOM      3  C2  UNL d   1      -2.044  -1.264   0.516  0.00  0.00     0.034 A 
ATOM      4  C3  UNL d   1      -0.690  -1.166   0.858  0.00  0.00     0.017 A 
ATOM      5  C4  UNL d   1       0.158  -0.340   0.112  0.00  0.00     0.017 A 
ATOM      6  C5  UNL d   1      -0.353   0.383  -0.971  0.00  0.00     0.034 A 
ATOM      7 Cl   UNL d   1       1.839  -0.168   0.474  0.00  0.00    -0.070 Cl
ATOM      8 Cl1  UNL d   1      -0.135  -2.089   2.209  0.00  0.00    -0.070 Cl
ENDROOT
TORSDOF 0
ENDMDL
