MODEL 1
REMARK minimizedAffinity -3.83763075
REMARK minimizedRMSD -1
REMARK  0 active torsions:
REMARK  status: ('A' for Active; 'I' for Inactive)
ROOT
ATOM      1  C   UNL d   1      -2.596  -0.728   0.888  0.00  0.00     0.020 A 
ATOM      2  C1  UNL d   1      -3.189  -0.494  -0.351  0.00  0.00     0.020 A 
ATOM      3  C2  UNL d   1      -2.424  -0.000  -1.410  0.00  0.00     0.034 A 
ATOM      4  C3  UNL d   1      -1.061   0.261  -1.230  0.00  0.00     0.017 A 
ATOM      5  C4  UNL d   1      -0.466   0.026   0.015  0.00  0.00     0.017 A 
ATOM      6  C5  UNL d   1      -1.237  -0.468   1.071  0.00  0.00     0.034 A 
ATOM      7 Cl   UNL d   1       1.210   0.325   0.312  0.00  0.00    -0.070 Cl
ATOM      8 Cl1  UNL d   1      -0.175   0.871  -2.583  0.00  0.00    -0.070 Cl
ENDROOT
TORSDOF 0
ENDMDL
