MODEL 1
REMARK minimizedAffinity -3.84932017
REMARK minimizedRMSD -1
REMARK  0 active torsions:
REMARK  status: ('A' for Active; 'I' for Inactive)
ROOT
ATOM      1  C   UNL d   1      -1.795   0.211  -1.670  0.00  0.00     0.020 A 
ATOM      2  C1  UNL d   1      -0.576   0.851  -1.892  0.00  0.00     0.020 A 
ATOM      3  C2  UNL d   1       0.534   0.529  -1.108  0.00  0.00     0.034 A 
ATOM      4  C3  UNL d   1       0.428  -0.436  -0.100  0.00  0.00     0.017 A 
ATOM      5  C4  UNL d   1      -0.795  -1.078   0.122  0.00  0.00     0.017 A 
ATOM      6  C5  UNL d   1      -1.904  -0.752  -0.665  0.00  0.00     0.034 A 
ATOM      7 Cl   UNL d   1      -1.003  -2.279   1.347  0.00  0.00    -0.070 Cl
ATOM      8 Cl1  UNL d   1       1.842  -0.785   0.830  0.00  0.00    -0.070 Cl
ENDROOT
TORSDOF 0
ENDMDL
