MODEL 1
REMARK minimizedAffinity -4.82759523
REMARK minimizedRMSD -1
REMARK  0 active torsions:
REMARK  status: ('A' for Active; 'I' for Inactive)
ROOT
ATOM      1  C   UNL d   1      -3.449  -1.505  -0.007  0.00  0.00     0.020 A 
ATOM      2  C1  UNL d   1      -3.016  -0.347  -0.653  0.00  0.00     0.020 A 
ATOM      3  C2  UNL d   1      -1.707   0.106  -0.472  0.00  0.00     0.034 A 
ATOM      4  C3  UNL d   1      -0.827  -0.600   0.356  0.00  0.00     0.017 A 
ATOM      5  C4  UNL d   1      -1.262  -1.762   1.003  0.00  0.00     0.017 A 
ATOM      6  C5  UNL d   1      -2.573  -2.211   0.819  0.00  0.00     0.034 A 
ATOM      7 Cl   UNL d   1      -0.233  -2.686   2.040  0.00  0.00    -0.070 Cl
ATOM      8 Cl1  UNL d   1       0.778   0.017   0.533  0.00  0.00    -0.070 Cl
ENDROOT
TORSDOF 0
ENDMDL
