MODEL 1
REMARK minimizedAffinity -0.911664665
REMARK minimizedRMSD -1
REMARK  0 active torsions:
REMARK  status: ('A' for Active; 'I' for Inactive)
ROOT
ATOM      1  C   UNL d   1       2.525   3.563   2.080  0.00  0.00     0.020 A 
ATOM      2  C1  UNL d   1       1.967   2.406   2.622  0.00  0.00     0.020 A 
ATOM      3  C2  UNL d   1       1.794   1.274   1.823  0.00  0.00     0.034 A 
ATOM      4  C3  UNL d   1       2.179   1.296   0.478  0.00  0.00     0.017 A 
ATOM      5  C4  UNL d   1       2.740   2.458  -0.065  0.00  0.00     0.017 A 
ATOM      6  C5  UNL d   1       2.910   3.589   0.740  0.00  0.00     0.034 A 
ATOM      7 Cl   UNL d   1       3.240   2.562  -1.716  0.00  0.00    -0.070 Cl
ATOM      8 Cl1  UNL d   1       1.937  -0.140  -0.452  0.00  0.00    -0.070 Cl
ENDROOT
TORSDOF 0
ENDMDL
