MODEL 1
REMARK minimizedAffinity -1.5348115
REMARK minimizedRMSD -1
REMARK  0 active torsions:
REMARK  status: ('A' for Active; 'I' for Inactive)
ROOT
ATOM      1  C   UNL d   1      -0.118   0.615  -1.232  0.00  0.00     0.020 A 
ATOM      2  C1  UNL d   1      -1.320   0.257  -1.840  0.00  0.00     0.020 A 
ATOM      3  C2  UNL d   1      -2.093  -0.776  -1.305  0.00  0.00     0.034 A 
ATOM      4  C3  UNL d   1      -1.664  -1.454  -0.158  0.00  0.00     0.017 A 
ATOM      5  C4  UNL d   1      -0.457  -1.093   0.452  0.00  0.00     0.017 A 
ATOM      6  C5  UNL d   1       0.313  -0.058  -0.088  0.00  0.00     0.034 A 
ATOM      7 Cl   UNL d   1       0.138  -1.884   1.870  0.00  0.00    -0.070 Cl
ATOM      8 Cl1  UNL d   1      -2.669  -2.721   0.450  0.00  0.00    -0.070 Cl
ENDROOT
TORSDOF 0
ENDMDL
