MODEL 1
REMARK minimizedAffinity -2.27714396
REMARK minimizedRMSD -1
REMARK  0 active torsions:
REMARK  status: ('A' for Active; 'I' for Inactive)
ROOT
ATOM      1  C   UNL d   1       1.009   0.032  -0.239  0.00  0.00     0.020 A 
ATOM      2  C1  UNL d   1       0.162   0.363  -1.296  0.00  0.00     0.020 A 
ATOM      3  C2  UNL d   1      -1.196   0.047  -1.228  0.00  0.00     0.034 A 
ATOM      4  C3  UNL d   1      -1.712  -0.603  -0.101  0.00  0.00     0.017 A 
ATOM      5  C4  UNL d   1      -0.861  -0.935   0.960  0.00  0.00     0.017 A 
ATOM      6  C5  UNL d   1       0.498  -0.616   0.886  0.00  0.00     0.034 A 
ATOM      7 Cl   UNL d   1      -1.424  -1.737   2.383  0.00  0.00    -0.070 Cl
ATOM      8 Cl1  UNL d   1      -3.401  -0.964  -0.084  0.00  0.00    -0.070 Cl
ENDROOT
TORSDOF 0
ENDMDL
