MODEL 1
REMARK minimizedAffinity -5.00570726
REMARK minimizedRMSD -1
REMARK  0 active torsions:
REMARK  status: ('A' for Active; 'I' for Inactive)
ROOT
ATOM      1  C   UNL d   1      -2.511  -1.033   0.822  0.00  0.00     0.020 A 
ATOM      2  C1  UNL d   1      -3.030  -1.151  -0.466  0.00  0.00     0.020 A 
ATOM      3  C2  UNL d   1      -2.268  -0.748  -1.565  0.00  0.00     0.034 A 
ATOM      4  C3  UNL d   1      -0.984  -0.224  -1.377  0.00  0.00     0.017 A 
ATOM      5  C4  UNL d   1      -0.464  -0.106  -0.083  0.00  0.00     0.017 A 
ATOM      6  C5  UNL d   1      -1.231  -0.511   1.014  0.00  0.00     0.034 A 
ATOM      7 Cl   UNL d   1       1.112   0.531   0.228  0.00  0.00    -0.070 Cl
ATOM      8 Cl1  UNL d   1      -0.098   0.255  -2.781  0.00  0.00    -0.070 Cl
ENDROOT
TORSDOF 0
ENDMDL
