MODEL 1
REMARK minimizedAffinity -3.75755286
REMARK minimizedRMSD -1
REMARK  0 active torsions:
REMARK  status: ('A' for Active; 'I' for Inactive)
ROOT
ATOM      1  C   UNL d   1       0.134   0.674  -0.762  0.00  0.00     0.020 A 
ATOM      2  C1  UNL d   1       0.992   0.134   0.194  0.00  0.00     0.020 A 
ATOM      3  C2  UNL d   1       0.583  -0.959   0.961  0.00  0.00     0.034 A 
ATOM      4  C3  UNL d   1      -0.687  -1.515   0.773  0.00  0.00     0.017 A 
ATOM      5  C4  UNL d   1      -1.548  -0.972  -0.187  0.00  0.00     0.017 A 
ATOM      6  C5  UNL d   1      -1.134   0.122  -0.953  0.00  0.00     0.034 A 
ATOM      7 Cl   UNL d   1      -3.130  -1.604  -0.477  0.00  0.00    -0.070 Cl
ATOM      8 Cl1  UNL d   1      -1.126  -2.866   1.757  0.00  0.00    -0.070 Cl
ENDROOT
TORSDOF 0
ENDMDL
