MODEL 1
REMARK minimizedAffinity 1.36415005
REMARK minimizedRMSD -1
REMARK  0 active torsions:
REMARK  status: ('A' for Active; 'I' for Inactive)
ROOT
ATOM      1  C   UNL d   1       1.226   0.115   0.649  0.00  0.00     0.020 A 
ATOM      2  C1  UNL d   1       0.362  -0.683   1.398  0.00  0.00     0.020 A 
ATOM      3  C2  UNL d   1      -0.898  -1.013   0.893  0.00  0.00     0.034 A 
ATOM      4  C3  UNL d   1      -1.297  -0.544  -0.365  0.00  0.00     0.017 A 
ATOM      5  C4  UNL d   1      -0.429   0.257  -1.115  0.00  0.00     0.017 A 
ATOM      6  C5  UNL d   1       0.831   0.584  -0.605  0.00  0.00     0.034 A 
ATOM      7 Cl   UNL d   1      -0.850   0.872  -2.674  0.00  0.00    -0.070 Cl
ATOM      8 Cl1  UNL d   1      -2.868  -0.991  -0.927  0.00  0.00    -0.070 Cl
ENDROOT
TORSDOF 0
ENDMDL
