MODEL 1
REMARK minimizedAffinity -3.81212378
REMARK minimizedRMSD -1
REMARK  0 active torsions:
REMARK  status: ('A' for Active; 'I' for Inactive)
ROOT
ATOM      1  C   UNL d   1      -2.508   0.006  -0.994  0.00  0.00     0.020 A 
ATOM      2  C1  UNL d   1      -1.472   0.717  -1.598  0.00  0.00     0.020 A 
ATOM      3  C2  UNL d   1      -0.163   0.573  -1.134  0.00  0.00     0.034 A 
ATOM      4  C3  UNL d   1       0.114  -0.285  -0.063  0.00  0.00     0.017 A 
ATOM      5  C4  UNL d   1      -0.927  -0.999   0.542  0.00  0.00     0.017 A 
ATOM      6  C5  UNL d   1      -2.236  -0.850   0.074  0.00  0.00     0.034 A 
ATOM      7 Cl   UNL d   1      -0.663  -2.076   1.868  0.00  0.00    -0.070 Cl
ATOM      8 Cl1  UNL d   1       1.756  -0.415   0.458  0.00  0.00    -0.070 Cl
ENDROOT
TORSDOF 0
ENDMDL
