MODEL 1
REMARK minimizedAffinity -1.51555538
REMARK minimizedRMSD -1
REMARK  0 active torsions:
REMARK  status: ('A' for Active; 'I' for Inactive)
ROOT
ATOM      1  C   UNL d   1      -2.743  -0.891  -0.421  0.00  0.00     0.020 A 
ATOM      2  C1  UNL d   1      -1.800  -1.411   0.465  0.00  0.00     0.020 A 
ATOM      3  C2  UNL d   1      -0.526  -0.844   0.541  0.00  0.00     0.034 A 
ATOM      4  C3  UNL d   1      -0.192   0.246  -0.270  0.00  0.00     0.017 A 
ATOM      5  C4  UNL d   1      -1.139   0.767  -1.159  0.00  0.00     0.017 A 
ATOM      6  C5  UNL d   1      -2.413   0.196  -1.231  0.00  0.00     0.034 A 
ATOM      7 Cl   UNL d   1      -0.800   2.111  -2.192  0.00  0.00    -0.070 Cl
ATOM      8 Cl1  UNL d   1       1.402   0.897  -0.124  0.00  0.00    -0.070 Cl
ENDROOT
TORSDOF 0
ENDMDL
