MODEL 1
REMARK minimizedAffinity -1.99583793
REMARK minimizedRMSD -1
REMARK  0 active torsions:
REMARK  status: ('A' for Active; 'I' for Inactive)
ROOT
ATOM      1  N1  IND d   1      -0.233   0.067   1.203  0.00  0.00    -0.196 N 
ATOM      2  C2  IND d   1       0.230   0.337  -0.054  0.00  0.00     0.054 A 
ATOM      3  C3  IND d   1       1.422  -0.267  -0.256  0.00  0.00    -0.031 A 
ATOM      4  C4  IND d   1       2.748  -1.831   1.301  0.00  0.00     0.051 A 
ATOM      5  C5  IND d   1       2.745  -2.346   2.567  0.00  0.00    -0.031 A 
ATOM      6  C6  IND d   1       1.728  -2.079   3.460  0.00  0.00     0.015 A 
ATOM      7  C7  IND d   1       0.665  -1.294   3.115  0.00  0.00    -0.016 A 
ATOM      8  C8  IND d   1       0.667  -0.764   1.833  0.00  0.00    -0.047 A 
ATOM      9  C9  IND d   1       1.718  -0.996   0.936  0.00  0.00    -0.096 A 
ATOM     10  HN1 IND d   1      -0.964   0.365   1.544  0.00  0.00     0.298 HD
ENDROOT
TORSDOF 0
ENDMDL
