MODEL 1
REMARK minimizedAffinity -2.32752395
REMARK minimizedRMSD -1
REMARK  0 active torsions:
REMARK  status: ('A' for Active; 'I' for Inactive)
ROOT
ATOM      1  N1  IND d   1      -3.073   1.818  -4.378  0.00  0.00    -0.196 N 
ATOM      2  C2  IND d   1      -3.419   1.049  -3.301  0.00  0.00     0.054 A 
ATOM      3  C3  IND d   1      -2.485   1.153  -2.329  0.00  0.00    -0.031 A 
ATOM      4  C4  IND d   1      -0.361   2.607  -2.251  0.00  0.00     0.051 A 
ATOM      5  C5  IND d   1       0.395   3.451  -3.015  0.00  0.00    -0.031 A 
ATOM      6  C6  IND d   1       0.025   3.803  -4.297  0.00  0.00     0.015 A 
ATOM      7  C7  IND d   1      -1.126   3.331  -4.861  0.00  0.00    -0.016 A 
ATOM      8  C8  IND d   1      -1.893   2.468  -4.091  0.00  0.00    -0.047 A 
ATOM      9  C9  IND d   1      -1.501   2.073  -2.805  0.00  0.00    -0.096 A 
ATOM     10  HN1 IND d   1      -3.518   1.884  -5.110  0.00  0.00     0.298 HD
ENDROOT
TORSDOF 0
ENDMDL
