MODEL 1
REMARK minimizedAffinity -1.41678071
REMARK minimizedRMSD -1
REMARK  0 active torsions:
REMARK  status: ('A' for Active; 'I' for Inactive)
ROOT
ATOM      1  N1  IND d   1       4.439  -0.856   2.250  0.00  0.00    -0.196 N 
ATOM      2  C2  IND d   1       4.763  -0.762   3.575  0.00  0.00     0.054 A 
ATOM      3  C3  IND d   1       3.656  -0.883   4.340  0.00  0.00    -0.031 A 
ATOM      4  C4  IND d   1       1.223  -1.343   3.635  0.00  0.00     0.051 A 
ATOM      5  C5  IND d   1       0.427  -1.470   2.532  0.00  0.00    -0.031 A 
ATOM      6  C6  IND d   1       0.938  -1.401   1.252  0.00  0.00     0.015 A 
ATOM      7  C7  IND d   1       2.273  -1.212   1.027  0.00  0.00    -0.016 A 
ATOM      8  C8  IND d   1       3.083  -1.075   2.146  0.00  0.00    -0.047 A 
ATOM      9  C9  IND d   1       2.563  -1.102   3.446  0.00  0.00    -0.096 A 
ATOM     10  HN1 IND d   1       4.989  -0.790   1.593  0.00  0.00     0.298 HD
ENDROOT
TORSDOF 0
ENDMDL
