MODEL 1
REMARK minimizedAffinity 2.70113945
REMARK minimizedRMSD -1
REMARK  0 active torsions:
REMARK  status: ('A' for Active; 'I' for Inactive)
ROOT
ATOM      1  N1  IND d   1       1.194  -5.877  -6.000  0.00  0.00    -0.196 N 
ATOM      2  C2  IND d   1       2.109  -5.382  -5.113  0.00  0.00     0.054 A 
ATOM      3  C3  IND d   1       1.483  -4.855  -4.037  0.00  0.00    -0.031 A 
ATOM      4  C4  IND d   1      -1.029  -4.787  -3.477  0.00  0.00     0.051 A 
ATOM      5  C5  IND d   1      -2.257  -5.082  -3.998  0.00  0.00    -0.031 A 
ATOM      6  C6  IND d   1      -2.401  -5.672  -5.238  0.00  0.00     0.015 A 
ATOM      7  C7  IND d   1      -1.316  -6.000  -6.000  0.00  0.00    -0.016 A 
ATOM      8  C8  IND d   1      -0.067  -5.695  -5.477  0.00  0.00    -0.047 A 
ATOM      9  C9  IND d   1       0.083  -5.058  -4.238  0.00  0.00    -0.096 A 
ATOM     10  HN1 IND d   1       1.376  -6.241  -6.757  0.00  0.00     0.298 HD
ENDROOT
TORSDOF 0
ENDMDL
