MODEL 1
REMARK minimizedAffinity 3.48461509
REMARK minimizedRMSD -1
REMARK  0 active torsions:
REMARK  status: ('A' for Active; 'I' for Inactive)
ROOT
ATOM      1  N1  IND d   1       0.635  -4.943  -3.977  0.00  0.00    -0.196 N 
ATOM      2  C2  IND d   1       1.327  -5.371  -5.076  0.00  0.00     0.054 A 
ATOM      3  C3  IND d   1       0.478  -5.874  -6.000  0.00  0.00    -0.031 A 
ATOM      4  C4  IND d   1      -2.093  -5.999  -5.963  0.00  0.00     0.051 A 
ATOM      5  C5  IND d   1      -3.171  -5.766  -5.157  0.00  0.00    -0.031 A 
ATOM      6  C6  IND d   1      -3.033  -5.232  -3.892  0.00  0.00     0.015 A 
ATOM      7  C7  IND d   1      -1.808  -4.901  -3.388  0.00  0.00    -0.016 A 
ATOM      8  C8  IND d   1      -0.710  -5.143  -4.201  0.00  0.00    -0.047 A 
ATOM      9  C9  IND d   1      -0.839  -5.724  -5.469  0.00  0.00    -0.096 A 
ATOM     10  HN1 IND d   1       0.981  -4.605  -3.267  0.00  0.00     0.298 HD
ENDROOT
TORSDOF 0
ENDMDL
