MODEL 1
REMARK minimizedAffinity -0.150640935
REMARK minimizedRMSD -1
REMARK  0 active torsions:
REMARK  status: ('A' for Active; 'I' for Inactive)
ROOT
ATOM      1  N1  IND d   1       0.483  -4.923  -4.837  0.00  0.00    -0.196 N 
ATOM      2  C2  IND d   1       0.125  -5.549  -5.999  0.00  0.00     0.054 A 
ATOM      3  C3  IND d   1      -1.161  -5.961  -5.934  0.00  0.00    -0.031 A 
ATOM      4  C4  IND d   1      -2.894  -5.625  -4.060  0.00  0.00     0.051 A 
ATOM      5  C5  IND d   1      -3.025  -5.144  -2.788  0.00  0.00    -0.031 A 
ATOM      6  C6  IND d   1      -1.973  -4.550  -2.121  0.00  0.00     0.015 A 
ATOM      7  C7  IND d   1      -0.748  -4.405  -2.709  0.00  0.00    -0.016 A 
ATOM      8  C8  IND d   1      -0.609  -4.898  -3.998  0.00  0.00    -0.047 A 
ATOM      9  C9  IND d   1      -1.661  -5.540  -4.664  0.00  0.00    -0.096 A 
ATOM     10  HN1 IND d   1       1.260  -4.600  -4.660  0.00  0.00     0.298 HD
ENDROOT
TORSDOF 0
ENDMDL
