MODEL 1
REMARK minimizedAffinity 5.92625523
REMARK minimizedRMSD -1
REMARK  0 active torsions:
REMARK  status: ('A' for Active; 'I' for Inactive)
ROOT
ATOM      1  N1  IND d   1      -3.849   0.850  -3.654  0.00  0.00    -0.196 N 
ATOM      2  C2  IND d   1      -2.848   1.727  -3.343  0.00  0.00     0.054 A 
ATOM      3  C3  IND d   1      -2.685   1.799  -2.003  0.00  0.00    -0.031 A 
ATOM      4  C4  IND d   1      -3.881   0.488  -0.137  0.00  0.00     0.051 A 
ATOM      5  C5  IND d   1      -4.897  -0.402   0.073  0.00  0.00    -0.031 A 
ATOM      6  C6  IND d   1      -5.628  -0.933  -0.970  0.00  0.00     0.015 A 
ATOM      7  C7  IND d   1      -5.362  -0.601  -2.268  0.00  0.00    -0.016 A 
ATOM      8  C8  IND d   1      -4.336   0.308  -2.485  0.00  0.00    -0.047 A 
ATOM      9  C9  IND d   1      -3.619   0.883  -1.428  0.00  0.00    -0.096 A 
ATOM     10  HN1 IND d   1      -4.128   0.667  -4.447  0.00  0.00     0.298 HD
ENDROOT
TORSDOF 0
ENDMDL
