MODEL 1
REMARK minimizedAffinity 0.538629889
REMARK minimizedRMSD -1
REMARK  0 active torsions:
REMARK  status: ('A' for Active; 'I' for Inactive)
ROOT
ATOM      1  N1  IND d   1      -0.113  -0.459   1.062  0.00  0.00    -0.196 N 
ATOM      2  C2  IND d   1       0.011   0.008  -0.217  0.00  0.00     0.054 A 
ATOM      3  C3  IND d   1       1.288  -0.120  -0.642  0.00  0.00    -0.031 A 
ATOM      4  C4  IND d   1       3.314  -1.162   0.556  0.00  0.00     0.051 A 
ATOM      5  C5  IND d   1       3.702  -1.691   1.755  0.00  0.00    -0.031 A 
ATOM      6  C6  IND d   1       2.819  -1.842   2.804  0.00  0.00     0.015 A 
ATOM      7  C7  IND d   1       1.507  -1.478   2.690  0.00  0.00    -0.016 A 
ATOM      8  C8  IND d   1       1.111  -0.934   1.476  0.00  0.00    -0.047 A 
ATOM      9  C9  IND d   1       2.013  -0.739   0.422  0.00  0.00    -0.096 A 
ATOM     10  HN1 IND d   1      -0.835  -0.456   1.529  0.00  0.00     0.298 HD
ENDROOT
TORSDOF 0
ENDMDL
