MODEL 1
REMARK minimizedAffinity 9.56142044
REMARK minimizedRMSD -1
REMARK  0 active torsions:
REMARK  status: ('A' for Active; 'I' for Inactive)
ROOT
ATOM      1  N1  IND d   1       3.891  -3.014   2.586  0.00  0.00    -0.196 N 
ATOM      2  C2  IND d   1       3.837  -1.766   3.139  0.00  0.00     0.054 A 
ATOM      3  C3  IND d   1       3.790  -1.851   4.488  0.00  0.00    -0.031 A 
ATOM      4  C4  IND d   1       3.895  -3.932   6.000  0.00  0.00     0.051 A 
ATOM      5  C5  IND d   1       3.912  -5.298   5.953  0.00  0.00    -0.031 A 
ATOM      6  C6  IND d   1       3.926  -5.986   4.757  0.00  0.00     0.015 A 
ATOM      7  C7  IND d   1       3.935  -5.331   3.558  0.00  0.00    -0.016 A 
ATOM      8  C8  IND d   1       3.910  -3.944   3.602  0.00  0.00    -0.047 A 
ATOM      9  C9  IND d   1       3.854  -3.241   4.812  0.00  0.00    -0.096 A 
ATOM     10  HN1 IND d   1       3.909  -3.190   1.744  0.00  0.00     0.298 HD
ENDROOT
TORSDOF 0
ENDMDL
