MODEL 1
REMARK minimizedAffinity 5.3717494
REMARK minimizedRMSD -1
REMARK  0 active torsions:
REMARK  status: ('A' for Active; 'I' for Inactive)
ROOT
ATOM      1  N1  IND d   1       0.966  -1.199   1.949  0.00  0.00    -0.196 N 
ATOM      2  C2  IND d   1       0.716  -0.784   0.670  0.00  0.00     0.054 A 
ATOM      3  C3  IND d   1       1.854  -0.348   0.086  0.00  0.00    -0.031 A 
ATOM      4  C4  IND d   1       4.258  -0.322   1.007  0.00  0.00     0.051 A 
ATOM      5  C5  IND d   1       4.980  -0.568   2.141  0.00  0.00    -0.031 A 
ATOM      6  C6  IND d   1       4.389  -1.049   3.291  0.00  0.00     0.015 A 
ATOM      7  C7  IND d   1       3.050  -1.315   3.347  0.00  0.00    -0.016 A 
ATOM      8  C8  IND d   1       2.313  -1.059   2.200  0.00  0.00    -0.047 A 
ATOM      9  C9  IND d   1       2.900  -0.530   1.043  0.00  0.00    -0.096 A 
ATOM     10  HN1 IND d   1       0.380  -1.498   2.503  0.00  0.00     0.298 HD
ENDROOT
TORSDOF 0
ENDMDL
