MODEL 1
REMARK minimizedAffinity 8.04427242
REMARK minimizedRMSD -1
REMARK  0 active torsions:
REMARK  status: ('A' for Active; 'I' for Inactive)
ROOT
ATOM      1  N1  IND d   1      -0.434   0.682   0.795  0.00  0.00    -0.196 N 
ATOM      2  C2  IND d   1       0.860   0.846   0.385  0.00  0.00     0.054 A 
ATOM      3  C3  IND d   1       1.365  -0.328  -0.058  0.00  0.00    -0.031 A 
ATOM      4  C4  IND d   1       0.213  -2.618  -0.296  0.00  0.00     0.051 A 
ATOM      5  C5  IND d   1      -0.956  -3.270  -0.017  0.00  0.00    -0.031 A 
ATOM      6  C6  IND d   1      -2.032  -2.624   0.556  0.00  0.00     0.015 A 
ATOM      7  C7  IND d   1      -1.984  -1.294   0.862  0.00  0.00    -0.016 A 
ATOM      8  C8  IND d   1      -0.797  -0.630   0.587  0.00  0.00    -0.047 A 
ATOM      9  C9  IND d   1       0.313  -1.289   0.045  0.00  0.00    -0.096 A 
ATOM     10  HN1 IND d   1      -0.936   1.296   1.127  0.00  0.00     0.298 HD
ENDROOT
TORSDOF 0
ENDMDL
