MODEL 1
REMARK minimizedAffinity 7.04343081
REMARK minimizedRMSD -1
REMARK  0 active torsions:
REMARK  status: ('A' for Active; 'I' for Inactive)
ROOT
ATOM      1  N1  IND d   1      -5.147   0.287  -2.664  0.00  0.00    -0.196 N 
ATOM      2  C2  IND d   1      -4.957  -0.534  -1.588  0.00  0.00     0.054 A 
ATOM      3  C3  IND d   1      -3.662  -0.513  -1.203  0.00  0.00    -0.031 A 
ATOM      4  C4  IND d   1      -1.702   0.875  -2.130  0.00  0.00     0.051 A 
ATOM      5  C5  IND d   1      -1.377   1.742  -3.135  0.00  0.00    -0.031 A 
ATOM      6  C6  IND d   1      -2.311   2.180  -4.052  0.00  0.00     0.015 A 
ATOM      7  C7  IND d   1      -3.614   1.773  -3.990  0.00  0.00    -0.016 A 
ATOM      8  C8  IND d   1      -3.946   0.887  -2.975  0.00  0.00    -0.047 A 
ATOM      9  C9  IND d   1      -2.993   0.406  -2.068  0.00  0.00    -0.096 A 
ATOM     10  HN1 IND d   1      -5.891   0.409  -3.078  0.00  0.00     0.298 HD
ENDROOT
TORSDOF 0
ENDMDL
