MODEL 1
REMARK minimizedAffinity 6.35788822
REMARK minimizedRMSD -1
REMARK  0 active torsions:
REMARK  status: ('A' for Active; 'I' for Inactive)
ROOT
ATOM      1  N1  IND d   1      -0.634   0.044   0.539  0.00  0.00    -0.196 N 
ATOM      2  C2  IND d   1       0.678  -0.335   0.599  0.00  0.00     0.054 A 
ATOM      3  C3  IND d   1       0.785  -1.678   0.487  0.00  0.00    -0.031 A 
ATOM      4  C4  IND d   1      -1.052  -3.438   0.095  0.00  0.00     0.051 A 
ATOM      5  C5  IND d   1      -2.409  -3.578   0.008  0.00  0.00    -0.031 A 
ATOM      6  C6  IND d   1      -3.260  -2.496   0.093  0.00  0.00     0.015 A 
ATOM      7  C7  IND d   1      -2.784  -1.226   0.257  0.00  0.00    -0.016 A 
ATOM      8  C8  IND d   1      -1.407  -1.081   0.353  0.00  0.00    -0.047 A 
ATOM      9  C9  IND d   1      -0.541  -2.181   0.310  0.00  0.00    -0.096 A 
ATOM     10  HN1 IND d   1      -0.927   0.849   0.607  0.00  0.00     0.298 HD
ENDROOT
TORSDOF 0
ENDMDL
