MODEL 1
REMARK minimizedAffinity 6.6408453
REMARK minimizedRMSD -1
REMARK  0 active torsions:
REMARK  status: ('A' for Active; 'I' for Inactive)
ROOT
ATOM      1  N1  IND d   1      -1.814  -4.511  -2.653  0.00  0.00    -0.196 N 
ATOM      2  C2  IND d   1      -0.822  -3.873  -1.961  0.00  0.00     0.054 A 
ATOM      3  C3  IND d   1       0.337  -3.914  -2.655  0.00  0.00    -0.031 A 
ATOM      4  C4  IND d   1       0.812  -4.887  -4.991  0.00  0.00     0.051 A 
ATOM      5  C5  IND d   1       0.229  -5.603  -5.998  0.00  0.00    -0.031 A 
ATOM      6  C6  IND d   1      -1.093  -5.998  -5.942  0.00  0.00     0.015 A 
ATOM      7  C7  IND d   1      -1.886  -5.679  -4.877  0.00  0.00    -0.016 A 
ATOM      8  C8  IND d   1      -1.296  -4.958  -3.849  0.00  0.00    -0.047 A 
ATOM      9  C9  IND d   1       0.056  -4.592  -3.881  0.00  0.00    -0.096 A 
ATOM     10  HN1 IND d   1      -2.624  -4.616  -2.386  0.00  0.00     0.298 HD
ENDROOT
TORSDOF 0
ENDMDL
