MODEL 1
REMARK minimizedAffinity 4.02344894
REMARK minimizedRMSD -1
REMARK  0 active torsions:
REMARK  status: ('A' for Active; 'I' for Inactive)
ROOT
ATOM      1  N1  IND d   1       0.402  -5.171  -4.326  0.00  0.00    -0.196 N 
ATOM      2  C2  IND d   1       0.274  -5.400  -5.667  0.00  0.00     0.054 A 
ATOM      3  C3  IND d   1      -1.029  -5.542  -5.999  0.00  0.00    -0.031 A 
ATOM      4  C4  IND d   1      -3.125  -5.334  -4.518  0.00  0.00     0.051 A 
ATOM      5  C5  IND d   1      -3.513  -5.169  -3.218  0.00  0.00    -0.031 A 
ATOM      6  C6  IND d   1      -2.598  -4.989  -2.201  0.00  0.00     0.015 A 
ATOM      7  C7  IND d   1      -1.255  -4.957  -2.449  0.00  0.00    -0.016 A 
ATOM      8  C8  IND d   1      -0.857  -5.132  -3.766  0.00  0.00    -0.047 A 
ATOM      9  C9  IND d   1      -1.779  -5.357  -4.797  0.00  0.00    -0.096 A 
ATOM     10  HN1 IND d   1       1.143  -5.069  -3.903  0.00  0.00     0.298 HD
ENDROOT
TORSDOF 0
ENDMDL
