MODEL 1
REMARK minimizedAffinity 0.866738439
REMARK minimizedRMSD -1
REMARK  0 active torsions:
REMARK  status: ('A' for Active; 'I' for Inactive)
ROOT
ATOM      1  N1  IND d   1      -1.495  -4.722  -3.952  0.00  0.00    -0.196 N 
ATOM      2  C2  IND d   1      -2.263  -5.300  -4.924  0.00  0.00     0.054 A 
ATOM      3  C3  IND d   1      -1.478  -5.847  -5.880  0.00  0.00    -0.031 A 
ATOM      4  C4  IND d   1       1.089  -5.998  -6.000  0.00  0.00     0.051 A 
ATOM      5  C5  IND d   1       2.223  -5.583  -5.361  0.00  0.00    -0.031 A 
ATOM      6  C6  IND d   1       2.175  -4.847  -4.195  0.00  0.00     0.015 A 
ATOM      7  C7  IND d   1       0.986  -4.507  -3.615  0.00  0.00    -0.016 A 
ATOM      8  C8  IND d   1      -0.168  -4.921  -4.265  0.00  0.00    -0.047 A 
ATOM      9  C9  IND d   1      -0.126  -5.631  -5.472  0.00  0.00    -0.096 A 
ATOM     10  HN1 IND d   1      -1.791  -4.303  -3.262  0.00  0.00     0.298 HD
ENDROOT
TORSDOF 0
ENDMDL
