MODEL 1
REMARK minimizedAffinity 4.7531352
REMARK minimizedRMSD -1
REMARK  0 active torsions:
REMARK  status: ('A' for Active; 'I' for Inactive)
ROOT
ATOM      1  N1  IND d   1      -4.703   1.175  -3.927  0.00  0.00    -0.196 N 
ATOM      2  C2  IND d   1      -3.513   1.846  -3.974  0.00  0.00     0.054 A 
ATOM      3  C3  IND d   1      -2.952   1.895  -2.745  0.00  0.00    -0.031 A 
ATOM      4  C4  IND d   1      -3.763   0.853  -0.534  0.00  0.00     0.051 A 
ATOM      5  C5  IND d   1      -4.816   0.177   0.015  0.00  0.00    -0.031 A 
ATOM      6  C6  IND d   1      -5.905  -0.212  -0.737  0.00  0.00     0.015 A 
ATOM      7  C7  IND d   1      -5.978   0.053  -2.075  0.00  0.00    -0.016 A 
ATOM      8  C8  IND d   1      -4.914   0.746  -2.635  0.00  0.00    -0.047 A 
ATOM      9  C9  IND d   1      -3.825   1.180  -1.868  0.00  0.00    -0.096 A 
ATOM     10  HN1 IND d   1      -5.231   1.043  -4.593  0.00  0.00     0.298 HD
ENDROOT
TORSDOF 0
ENDMDL
