MODEL 1
REMARK minimizedAffinity 6.44230556
REMARK minimizedRMSD -1
REMARK  0 active torsions:
REMARK  status: ('A' for Active; 'I' for Inactive)
ROOT
ATOM      1  N1  IND d   1      -4.280   1.752  -3.861  0.00  0.00    -0.196 N 
ATOM      2  C2  IND d   1      -2.962   2.099  -3.971  0.00  0.00     0.054 A 
ATOM      3  C3  IND d   1      -2.228   1.459  -3.033  0.00  0.00    -0.031 A 
ATOM      4  C4  IND d   1      -2.966  -0.277  -1.282  0.00  0.00     0.051 A 
ATOM      5  C5  IND d   1      -4.078  -0.888  -0.772  0.00  0.00    -0.031 A 
ATOM      6  C6  IND d   1      -5.339  -0.647  -1.278  0.00  0.00     0.015 A 
ATOM      7  C7  IND d   1      -5.534   0.209  -2.325  0.00  0.00    -0.016 A 
ATOM      8  C8  IND d   1      -4.409   0.836  -2.840  0.00  0.00    -0.047 A 
ATOM      9  C9  IND d   1      -3.132   0.628  -2.303  0.00  0.00    -0.096 A 
ATOM     10  HN1 IND d   1      -4.920   2.056  -4.348  0.00  0.00     0.298 HD
ENDROOT
TORSDOF 0
ENDMDL
