MODEL 1
REMARK minimizedAffinity 10.0009985
REMARK minimizedRMSD -1
REMARK  0 active torsions:
REMARK  status: ('A' for Active; 'I' for Inactive)
ROOT
ATOM      1  N1  IND d   1      -4.038   2.812  -4.450  0.00  0.00    -0.196 N 
ATOM      2  C2  IND d   1      -4.353   1.604  -3.892  0.00  0.00     0.054 A 
ATOM      3  C3  IND d   1      -3.265   1.058  -3.306  0.00  0.00    -0.031 A 
ATOM      4  C4  IND d   1      -0.889   2.017  -3.053  0.00  0.00     0.051 A 
ATOM      5  C5  IND d   1      -0.108   3.073  -3.430  0.00  0.00    -0.031 A 
ATOM      6  C6  IND d   1      -0.608   4.119  -4.179  0.00  0.00     0.015 A 
ATOM      7  C7  IND d   1      -1.916   4.153  -4.571  0.00  0.00    -0.016 A 
ATOM      8  C8  IND d   1      -2.710   3.078  -4.196  0.00  0.00    -0.047 A 
ATOM      9  C9  IND d   1      -2.198   1.994  -3.472  0.00  0.00    -0.096 A 
ATOM     10  HN1 IND d   1      -4.578   3.319  -4.886  0.00  0.00     0.298 HD
ENDROOT
TORSDOF 0
ENDMDL
