MODEL 1
REMARK minimizedAffinity 12.81001
REMARK minimizedRMSD -1
REMARK  0 active torsions:
REMARK  status: ('A' for Active; 'I' for Inactive)
ROOT
ATOM      1  N1  IND d   1       5.103  -2.632   4.152  0.00  0.00    -0.196 N 
ATOM      2  C2  IND d   1       6.000  -2.264   3.188  0.00  0.00     0.054 A 
ATOM      3  C3  IND d   1       5.399  -1.487   2.259  0.00  0.00    -0.031 A 
ATOM      4  C4  IND d   1       2.981  -0.608   2.178  0.00  0.00     0.051 A 
ATOM      5  C5  IND d   1       1.778  -0.704   2.819  0.00  0.00    -0.031 A 
ATOM      6  C6  IND d   1       1.619  -1.460   3.962  0.00  0.00     0.015 A 
ATOM      7  C7  IND d   1       2.665  -2.143   4.515  0.00  0.00    -0.016 A 
ATOM      8  C8  IND d   1       3.887  -2.054   3.863  0.00  0.00    -0.047 A 
ATOM      9  C9  IND d   1       4.044  -1.322   2.679  0.00  0.00    -0.096 A 
ATOM     10  HN1 IND d   1       5.271  -3.139   4.826  0.00  0.00     0.298 HD
ENDROOT
TORSDOF 0
ENDMDL
