MODEL 1
REMARK minimizedAffinity 4.96317959
REMARK minimizedRMSD -1
REMARK  0 active torsions:
REMARK  status: ('A' for Active; 'I' for Inactive)
ROOT
ATOM      1  N1  IND d   1       5.704  -1.983   4.008  0.00  0.00    -0.196 N 
ATOM      2  C2  IND d   1       6.000  -2.393   5.278  0.00  0.00     0.054 A 
ATOM      3  C3  IND d   1       4.867  -2.542   6.000  0.00  0.00    -0.031 A 
ATOM      4  C4  IND d   1       2.413  -2.268   5.270  0.00  0.00     0.051 A 
ATOM      5  C5  IND d   1       1.642  -1.870   4.214  0.00  0.00    -0.031 A 
ATOM      6  C6  IND d   1       2.196  -1.485   3.010  0.00  0.00     0.015 A 
ATOM      7  C7  IND d   1       3.548  -1.494   2.813  0.00  0.00    -0.016 A 
ATOM      8  C8  IND d   1       4.335  -1.890   3.885  0.00  0.00    -0.047 A 
ATOM      9  C9  IND d   1       3.780  -2.241   5.123  0.00  0.00    -0.096 A 
ATOM     10  HN1 IND d   1       6.276  -1.813   3.389  0.00  0.00     0.298 HD
ENDROOT
TORSDOF 0
ENDMDL
