MODEL 1
REMARK minimizedAffinity 6.38233662
REMARK minimizedRMSD -1
REMARK  0 active torsions:
REMARK  status: ('A' for Active; 'I' for Inactive)
ROOT
ATOM      1  N1  IND d   1       4.860  -2.043   6.000  0.00  0.00    -0.196 N 
ATOM      2  C2  IND d   1       6.000  -2.269   5.281  0.00  0.00     0.054 A 
ATOM      3  C3  IND d   1       5.755  -2.138   3.957  0.00  0.00    -0.031 A 
ATOM      4  C4  IND d   1       3.583  -1.458   2.755  0.00  0.00     0.051 A 
ATOM      5  C5  IND d   1       2.264  -1.186   2.987  0.00  0.00    -0.031 A 
ATOM      6  C6  IND d   1       1.732  -1.183   4.260  0.00  0.00     0.015 A 
ATOM      7  C7  IND d   1       2.506  -1.442   5.356  0.00  0.00    -0.016 A 
ATOM      8  C8  IND d   1       3.845  -1.726   5.124  0.00  0.00    -0.047 A 
ATOM      9  C9  IND d   1       4.380  -1.772   3.830  0.00  0.00    -0.096 A 
ATOM     10  HN1 IND d   1       4.788  -2.092   6.855  0.00  0.00     0.298 HD
ENDROOT
TORSDOF 0
ENDMDL
