MODEL 1
REMARK minimizedAffinity 5.00098467
REMARK minimizedRMSD -1
REMARK  0 active torsions:
REMARK  status: ('A' for Active; 'I' for Inactive)
ROOT
ATOM      1  N1  IND d   1       3.092  -1.607   2.674  0.00  0.00    -0.196 N 
ATOM      2  C2  IND d   1       1.889  -1.405   3.291  0.00  0.00     0.054 A 
ATOM      3  C3  IND d   1       1.986  -1.682   4.611  0.00  0.00    -0.031 A 
ATOM      4  C4  IND d   1       4.044  -2.384   5.989  0.00  0.00     0.051 A 
ATOM      5  C5  IND d   1       5.359  -2.732   5.859  0.00  0.00    -0.031 A 
ATOM      6  C6  IND d   1       6.000  -2.721   4.637  0.00  0.00     0.015 A 
ATOM      7  C7  IND d   1       5.349  -2.347   3.495  0.00  0.00    -0.016 A 
ATOM      8  C8  IND d   1       4.011  -2.000   3.622  0.00  0.00    -0.047 A 
ATOM      9  C9  IND d   1       3.345  -2.051   4.853  0.00  0.00    -0.096 A 
ATOM     10  HN1 IND d   1       3.248  -1.506   1.834  0.00  0.00     0.298 HD
ENDROOT
TORSDOF 0
ENDMDL
