MODEL 1
REMARK minimizedAffinity 5.24081469
REMARK minimizedRMSD -1
REMARK  0 active torsions:
REMARK  status: ('A' for Active; 'I' for Inactive)
ROOT
ATOM      1  N1  IND d   1       0.615  -1.051   2.713  0.00  0.00    -0.196 N 
ATOM      2  C2  IND d   1       1.271  -0.265   1.808  0.00  0.00     0.054 A 
ATOM      3  C3  IND d   1       2.591  -0.215   2.097  0.00  0.00    -0.031 A 
ATOM      4  C4  IND d   1       3.907  -1.430   3.947  0.00  0.00     0.051 A 
ATOM      5  C5  IND d   1       3.737  -2.231   5.041  0.00  0.00    -0.031 A 
ATOM      6  C6  IND d   1       2.493  -2.691   5.421  0.00  0.00     0.015 A 
ATOM      7  C7  IND d   1       1.369  -2.376   4.712  0.00  0.00    -0.016 A 
ATOM      8  C8  IND d   1       1.537  -1.556   3.604  0.00  0.00    -0.047 A 
ATOM      9  C9  IND d   1       2.791  -1.052   3.238  0.00  0.00    -0.096 A 
ATOM     10  HN1 IND d   1      -0.231  -1.205   2.725  0.00  0.00     0.298 HD
ENDROOT
TORSDOF 0
ENDMDL
