MODEL 1
REMARK minimizedAffinity 10.773241
REMARK minimizedRMSD -1
REMARK  0 active torsions:
REMARK  status: ('A' for Active; 'I' for Inactive)
ROOT
ATOM      1  N1  IND d   1       5.442  -1.130   5.263  0.00  0.00    -0.196 N 
ATOM      2  C2  IND d   1       5.997  -2.139   6.000  0.00  0.00     0.054 A 
ATOM      3  C3  IND d   1       5.219  -3.243   5.947  0.00  0.00    -0.031 A 
ATOM      4  C4  IND d   1       3.044  -3.649   4.630  0.00  0.00     0.051 A 
ATOM      5  C5  IND d   1       2.127  -3.012   3.841  0.00  0.00    -0.031 A 
ATOM      6  C6  IND d   1       2.273  -1.689   3.477  0.00  0.00     0.015 A 
ATOM      7  C7  IND d   1       3.352  -0.954   3.880  0.00  0.00    -0.016 A 
ATOM      8  C8  IND d   1       4.281  -1.596   4.687  0.00  0.00    -0.047 A 
ATOM      9  C9  IND d   1       4.117  -2.926   5.095  0.00  0.00    -0.096 A 
ATOM     10  HN1 IND d   1       5.764  -0.338   5.175  0.00  0.00     0.298 HD
ENDROOT
TORSDOF 0
ENDMDL
