MODEL 1
REMARK minimizedAffinity 18.6666756
REMARK minimizedRMSD -1
REMARK  0 active torsions:
REMARK  status: ('A' for Active; 'I' for Inactive)
ROOT
ATOM      1  N1  IND d   1       1.314   0.846   2.130  0.00  0.00    -0.196 N 
ATOM      2  C2  IND d   1       2.622   0.451   2.158  0.00  0.00     0.054 A 
ATOM      3  C3  IND d   1       2.870  -0.429   1.162  0.00  0.00    -0.031 A 
ATOM      4  C4  IND d   1       1.301  -1.284  -0.692  0.00  0.00     0.051 A 
ATOM      5  C5  IND d   1       0.001  -1.235  -1.110  0.00  0.00    -0.031 A 
ATOM      6  C6  IND d   1      -0.946  -0.472  -0.459  0.00  0.00     0.015 A 
ATOM      7  C7  IND d   1      -0.625   0.282   0.634  0.00  0.00    -0.016 A 
ATOM      8  C8  IND d   1       0.693   0.229   1.066  0.00  0.00    -0.047 A 
ATOM      9  C9  IND d   1       1.649  -0.576   0.434  0.00  0.00    -0.096 A 
ATOM     10  HN1 IND d   1       0.942   1.388   2.683  0.00  0.00     0.298 HD
ENDROOT
TORSDOF 0
ENDMDL
