MODEL 1
REMARK minimizedAffinity 3.79391456
REMARK minimizedRMSD -1
REMARK  0 active torsions:
REMARK  status: ('A' for Active; 'I' for Inactive)
ROOT
ATOM      1  N1  IND d   1       5.319  -2.216   3.918  0.00  0.00    -0.196 N 
ATOM      2  C2  IND d   1       5.998  -2.669   5.015  0.00  0.00     0.054 A 
ATOM      3  C3  IND d   1       5.133  -3.001   5.999  0.00  0.00    -0.031 A 
ATOM      4  C4  IND d   1       2.559  -2.976   5.992  0.00  0.00     0.051 A 
ATOM      5  C5  IND d   1       1.488  -2.607   5.229  0.00  0.00    -0.031 A 
ATOM      6  C6  IND d   1       1.641  -2.080   3.963  0.00  0.00     0.015 A 
ATOM      7  C7  IND d   1       2.878  -1.913   3.406  0.00  0.00    -0.016 A 
ATOM      8  C8  IND d   1       3.969  -2.280   4.181  0.00  0.00    -0.047 A 
ATOM      9  C9  IND d   1       3.821  -2.776   5.483  0.00  0.00    -0.096 A 
ATOM     10  HN1 IND d   1       5.676  -1.937   3.187  0.00  0.00     0.298 HD
ENDROOT
TORSDOF 0
ENDMDL
