MODEL 1
REMARK minimizedAffinity 14.3299561
REMARK minimizedRMSD -1
REMARK  0 active torsions:
REMARK  status: ('A' for Active; 'I' for Inactive)
ROOT
ATOM      1  N1  IND d   1       1.578  -1.872   4.463  0.00  0.00    -0.196 N 
ATOM      2  C2  IND d   1       1.465  -1.511   3.150  0.00  0.00     0.054 A 
ATOM      3  C3  IND d   1       2.678  -1.521   2.553  0.00  0.00    -0.031 A 
ATOM      4  C4  IND d   1       4.969  -2.196   3.515  0.00  0.00     0.051 A 
ATOM      5  C5  IND d   1       5.582  -2.564   4.680  0.00  0.00    -0.031 A 
ATOM      6  C6  IND d   1       4.877  -2.726   5.855  0.00  0.00     0.015 A 
ATOM      7  C7  IND d   1       3.525  -2.536   5.907  0.00  0.00    -0.016 A 
ATOM      8  C8  IND d   1       2.900  -2.156   4.727  0.00  0.00    -0.047 A 
ATOM      9  C9  IND d   1       3.616  -1.948   3.542  0.00  0.00    -0.096 A 
ATOM     10  HN1 IND d   1       0.932  -1.915   5.029  0.00  0.00     0.298 HD
ENDROOT
TORSDOF 0
ENDMDL
