MODEL 1
REMARK minimizedAffinity 4.19413424
REMARK minimizedRMSD -1
REMARK  0 active torsions:
REMARK  status: ('A' for Active; 'I' for Inactive)
ROOT
ATOM      1  N1  IND d   1       1.760  -1.004   3.756  0.00  0.00    -0.196 N 
ATOM      2  C2  IND d   1       2.038  -0.318   2.606  0.00  0.00     0.054 A 
ATOM      3  C3  IND d   1       2.580  -1.145   1.684  0.00  0.00    -0.031 A 
ATOM      4  C4  IND d   1       3.009  -3.680   1.813  0.00  0.00     0.051 A 
ATOM      5  C5  IND d   1       2.952  -4.740   2.674  0.00  0.00    -0.031 A 
ATOM      6  C6  IND d   1       2.484  -4.606   3.965  0.00  0.00     0.015 A 
ATOM      7  C7  IND d   1       2.041  -3.405   4.441  0.00  0.00    -0.016 A 
ATOM      8  C8  IND d   1       2.104  -2.325   3.572  0.00  0.00    -0.047 A 
ATOM      9  C9  IND d   1       2.618  -2.446   2.274  0.00  0.00    -0.096 A 
ATOM     10  HN1 IND d   1       1.428  -0.666   4.473  0.00  0.00     0.298 HD
ENDROOT
TORSDOF 0
ENDMDL
