MODEL 1
REMARK minimizedAffinity 13.8675098
REMARK minimizedRMSD -1
REMARK  1 active torsions:
REMARK  status: ('A' for Active; 'I' for Inactive)
REMARK    1  A    between atoms: C1_2  and  C2_3 
ROOT
ATOM      1  C2  UNL d   1      -2.104   2.058  -2.605  0.00  0.00    -0.073 A 
ATOM      2  C3  UNL d   1      -1.396   2.713  -3.619  0.00  0.00    -0.002 A 
ATOM      3  C4  UNL d   1      -0.206   3.382  -3.329  0.00  0.00     0.004 A 
ATOM      4  C5  UNL d   1       0.291   3.397  -2.026  0.00  0.00    -0.004 A 
ATOM      5  C6  UNL d   1      -0.395   2.738  -1.002  0.00  0.00    -0.075 A 
ATOM      6  C7  UNL d   1       0.126   2.747   0.406  0.00  0.00     0.076 C 
ATOM      7  C8  UNL d   1      -1.591   2.071  -1.300  0.00  0.00     0.001 A 
ENDROOT
BRANCH   1   8
ATOM      8  C1  UNL d   1      -3.385   1.328  -2.914  0.00  0.00     0.053 C 
ATOM      9  C   UNL d   1      -3.632   0.176  -1.953  0.00  0.00     0.018 C 
ENDBRANCH   1   8
TORSDOF 1
ENDMDL
