MODEL 1
REMARK minimizedAffinity 14.4305363
REMARK minimizedRMSD -1
REMARK  1 active torsions:
REMARK  status: ('A' for Active; 'I' for Inactive)
REMARK    1  A    between atoms: C1_2  and  C2_3 
ROOT
ATOM      1  C2  UNL d   1       0.148   3.068  -1.400  0.00  0.00    -0.073 A 
ATOM      2  C3  UNL d   1      -1.054   2.756  -2.045  0.00  0.00    -0.002 A 
ATOM      3  C4  UNL d   1      -1.354   3.319  -3.286  0.00  0.00     0.004 A 
ATOM      4  C5  UNL d   1      -0.455   4.192  -3.897  0.00  0.00    -0.004 A 
ATOM      5  C6  UNL d   1       0.757   4.506  -3.274  0.00  0.00    -0.075 A 
ATOM      6  C7  UNL d   1       1.735   5.446  -3.917  0.00  0.00     0.076 C 
ATOM      7  C8  UNL d   1       1.050   3.939  -2.026  0.00  0.00     0.001 A 
ENDROOT
BRANCH   1   8
ATOM      8  C1  UNL d   1       0.480   2.458  -0.062  0.00  0.00     0.053 C 
ATOM      9  C   UNL d   1      -0.658   1.603   0.472  0.00  0.00     0.018 C 
ENDBRANCH   1   8
TORSDOF 1
ENDMDL
