MODEL 1
REMARK minimizedAffinity 11.3711615
REMARK minimizedRMSD -1
REMARK  1 active torsions:
REMARK  status: ('A' for Active; 'I' for Inactive)
REMARK    1  A    between atoms: C1_2  and  C2_3 
ROOT
ATOM      1  C2  UNL d   1      -4.168  -3.005   5.454  0.00  0.00    -0.073 A 
ATOM      2  C3  UNL d   1      -3.815  -1.766   6.000  0.00  0.00    -0.002 A 
ATOM      3  C4  UNL d   1      -2.483  -1.350   6.000  0.00  0.00     0.004 A 
ATOM      4  C5  UNL d   1      -1.493  -2.164   5.449  0.00  0.00    -0.004 A 
ATOM      5  C6  UNL d   1      -1.828  -3.400   4.888  0.00  0.00    -0.075 A 
ATOM      6  C7  UNL d   1      -0.775  -4.289   4.294  0.00  0.00     0.076 C 
ATOM      7  C8  UNL d   1      -3.167  -3.812   4.894  0.00  0.00     0.001 A 
ENDROOT
BRANCH   1   8
ATOM      8  C1  UNL d   1      -5.606  -3.455   5.445  0.00  0.00     0.053 C 
ATOM      9  C   UNL d   1      -5.928  -4.311   4.230  0.00  0.00     0.018 C 
ENDBRANCH   1   8
TORSDOF 1
ENDMDL
