MODEL 1
REMARK minimizedAffinity 17.2184143
REMARK minimizedRMSD -1
REMARK  1 active torsions:
REMARK  status: ('A' for Active; 'I' for Inactive)
REMARK    1  A    between atoms: C1_2  and  C2_3 
ROOT
ATOM      1  C2  UNL d   1       0.374   3.666  -1.945  0.00  0.00    -0.073 A 
ATOM      2  C3  UNL d   1      -0.752   3.396  -2.730  0.00  0.00    -0.002 A 
ATOM      3  C4  UNL d   1      -0.885   3.972  -3.994  0.00  0.00     0.004 A 
ATOM      4  C5  UNL d   1       0.109   4.818  -4.487  0.00  0.00    -0.004 A 
ATOM      5  C6  UNL d   1       1.247   5.090  -3.722  0.00  0.00    -0.075 A 
ATOM      6  C7  UNL d   1       2.324   6.000  -4.238  0.00  0.00     0.076 C 
ATOM      7  C8  UNL d   1       1.372   4.510  -2.453  0.00  0.00     0.001 A 
ENDROOT
BRANCH   1   8
ATOM      8  C1  UNL d   1       0.524   3.040  -0.582  0.00  0.00     0.053 C 
ATOM      9  C   UNL d   1      -0.802   2.535  -0.037  0.00  0.00     0.018 C 
ENDBRANCH   1   8
TORSDOF 1
ENDMDL
