MODEL 1
REMARK minimizedAffinity 20.5578537
REMARK minimizedRMSD -1
REMARK  1 active torsions:
REMARK  status: ('A' for Active; 'I' for Inactive)
REMARK    1  A    between atoms: C1_2  and  C2_3 
ROOT
ATOM      1  C2  UNL d   1       1.442  -3.280  -0.598  0.00  0.00    -0.073 A 
ATOM      2  C3  UNL d   1       2.196  -2.108  -0.476  0.00  0.00    -0.002 A 
ATOM      3  C4  UNL d   1       2.442  -1.556   0.782  0.00  0.00     0.004 A 
ATOM      4  C5  UNL d   1       1.943  -2.173   1.929  0.00  0.00    -0.004 A 
ATOM      5  C6  UNL d   1       1.197  -3.352   1.828  0.00  0.00    -0.075 A 
ATOM      6  C7  UNL d   1       0.651  -4.026   3.052  0.00  0.00     0.076 C 
ATOM      7  C8  UNL d   1       0.953  -3.898   0.561  0.00  0.00     0.001 A 
ENDROOT
BRANCH   1   8
ATOM      8  C1  UNL d   1       1.180  -3.884  -1.954  0.00  0.00     0.053 C 
ATOM      9  C   UNL d   1       1.859  -5.234  -2.118  0.00  0.00     0.018 C 
ENDBRANCH   1   8
TORSDOF 1
ENDMDL
