MODEL 1
REMARK minimizedAffinity 17.7004776
REMARK minimizedRMSD -1
REMARK  1 active torsions:
REMARK  status: ('A' for Active; 'I' for Inactive)
REMARK    1  A    between atoms: C1_2  and  C2_3 
ROOT
ATOM      1  C2  UNL d   1       3.014  -3.360  -4.048  0.00  0.00    -0.073 A 
ATOM      2  C3  UNL d   1       1.690  -3.375  -3.596  0.00  0.00    -0.002 A 
ATOM      3  C4  UNL d   1       1.337  -4.123  -2.472  0.00  0.00     0.004 A 
ATOM      4  C5  UNL d   1       2.305  -4.856  -1.784  0.00  0.00    -0.004 A 
ATOM      5  C6  UNL d   1       3.636  -4.843  -2.213  0.00  0.00    -0.075 A 
ATOM      6  C7  UNL d   1       4.688  -5.628  -1.486  0.00  0.00     0.076 C 
ATOM      7  C8  UNL d   1       3.981  -4.092  -3.345  0.00  0.00     0.001 A 
ENDROOT
BRANCH   1   8
ATOM      8  C1  UNL d   1       3.401  -2.549  -5.258  0.00  0.00     0.053 C 
ATOM      9  C   UNL d   1       2.185  -2.014  -5.998  0.00  0.00     0.018 C 
ENDBRANCH   1   8
TORSDOF 1
ENDMDL
