MODEL 1
REMARK minimizedAffinity 16.3044872
REMARK minimizedRMSD -1
REMARK  1 active torsions:
REMARK  status: ('A' for Active; 'I' for Inactive)
REMARK    1  A    between atoms: C1_2  and  C2_3 
ROOT
ATOM      1  C2  UNL d   1      -5.147   5.867   2.452  0.00  0.00    -0.073 A 
ATOM      2  C3  UNL d   1      -3.750   5.948   2.475  0.00  0.00    -0.002 A 
ATOM      3  C4  UNL d   1      -3.017   5.830   1.294  0.00  0.00     0.004 A 
ATOM      4  C5  UNL d   1      -3.672   5.638   0.077  0.00  0.00    -0.004 A 
ATOM      5  C6  UNL d   1      -5.068   5.566   0.032  0.00  0.00    -0.075 A 
ATOM      6  C7  UNL d   1      -5.788   5.357  -1.268  0.00  0.00     0.076 C 
ATOM      7  C8  UNL d   1      -5.797   5.683   1.223  0.00  0.00     0.001 A 
ENDROOT
BRANCH   1   8
ATOM      8  C1  UNL d   1      -5.943   6.000   3.724  0.00  0.00     0.053 C 
ATOM      9  C   UNL d   1      -5.055   5.967   4.958  0.00  0.00     0.018 C 
ENDBRANCH   1   8
TORSDOF 1
ENDMDL
