MODEL 1
REMARK minimizedAffinity 15.5188046
REMARK minimizedRMSD -1
REMARK  1 active torsions:
REMARK  status: ('A' for Active; 'I' for Inactive)
REMARK    1  A    between atoms: C1_2  and  C2_3 
ROOT
ATOM      1  C2  UNL d   1      -5.121   5.927  -0.270  0.00  0.00    -0.073 A 
ATOM      2  C3  UNL d   1      -3.725   5.940  -0.370  0.00  0.00    -0.002 A 
ATOM      3  C4  UNL d   1      -2.936   5.979   0.781  0.00  0.00     0.004 A 
ATOM      4  C5  UNL d   1      -3.533   5.999   2.041  0.00  0.00    -0.004 A 
ATOM      5  C6  UNL d   1      -4.926   5.976   2.162  0.00  0.00    -0.075 A 
ATOM      6  C7  UNL d   1      -5.584   6.000   3.510  0.00  0.00     0.076 C 
ATOM      7  C8  UNL d   1      -5.712   5.939   1.002  0.00  0.00     0.001 A 
ENDROOT
BRANCH   1   8
ATOM      8  C1  UNL d   1      -5.977   5.878  -1.509  0.00  0.00     0.053 C 
ATOM      9  C   UNL d   1      -5.315   5.090  -2.628  0.00  0.00     0.018 C 
ENDBRANCH   1   8
TORSDOF 1
ENDMDL
