MODEL 1
REMARK minimizedAffinity 7.29286671
REMARK minimizedRMSD -1
REMARK  1 active torsions:
REMARK  status: ('A' for Active; 'I' for Inactive)
REMARK    1  A    between atoms: C1_2  and  C2_3 
ROOT
ATOM      1  C2  UNL d   1       2.584  -3.784  -3.273  0.00  0.00    -0.073 A 
ATOM      2  C3  UNL d   1       3.906  -4.105  -3.599  0.00  0.00    -0.002 A 
ATOM      3  C4  UNL d   1       4.524  -3.512  -4.701  0.00  0.00     0.004 A 
ATOM      4  C5  UNL d   1       3.830  -2.590  -5.484  0.00  0.00    -0.004 A 
ATOM      5  C6  UNL d   1       2.511  -2.247  -5.167  0.00  0.00    -0.075 A 
ATOM      6  C7  UNL d   1       1.750  -1.258  -6.000  0.00  0.00     0.076 C 
ATOM      7  C8  UNL d   1       1.897  -2.848  -4.060  0.00  0.00     0.001 A 
ENDROOT
BRANCH   1   8
ATOM      8  C1  UNL d   1       1.914  -4.416  -2.080  0.00  0.00     0.053 C 
ATOM      9  C   UNL d   1       1.197  -3.389  -1.219  0.00  0.00     0.018 C 
ENDBRANCH   1   8
TORSDOF 1
ENDMDL
