MODEL 1
REMARK minimizedAffinity -0.838071108
REMARK minimizedRMSD -1
REMARK  0 active torsions:
REMARK  status: ('A' for Active; 'I' for Inactive)
ROOT
ATOM      1  C   UNL d   1       2.003  -2.091  -3.239  0.00  0.00     0.023 A 
ATOM      2  C1  UNL d   1       2.026  -0.894  -3.954  0.00  0.00     0.003 A 
ATOM      3  C2  UNL d   1       0.895  -0.479  -4.660  0.00  0.00     0.048 A 
ATOM      4  C3  UNL d   1      -0.256  -1.265  -4.645  0.00  0.00     0.023 A 
ATOM      5  C4  UNL d   1      -0.284  -2.464  -3.930  0.00  0.00     0.048 A 
ATOM      6  C5  UNL d   1       0.849  -2.875  -3.227  0.00  0.00     0.003 A 
ATOM      7  I   UNL d   1      -1.941  -0.650  -5.695  0.00  0.00    -0.146 I 
ENDROOT
TORSDOF 0
ENDMDL
