MODEL 1
REMARK minimizedAffinity -1.96719754
REMARK minimizedRMSD -1
REMARK  0 active torsions:
REMARK  status: ('A' for Active; 'I' for Inactive)
ROOT
ATOM      1  C   UNL d   1       1.131  -0.575   1.574  0.00  0.00     0.023 A 
ATOM      2  C1  UNL d   1       2.400  -0.011   1.705  0.00  0.00     0.003 A 
ATOM      3  C2  UNL d   1       2.738   1.129   0.975  0.00  0.00     0.048 A 
ATOM      4  C3  UNL d   1       1.802   1.703   0.115  0.00  0.00     0.023 A 
ATOM      5  C4  UNL d   1       0.530   1.143  -0.019  0.00  0.00     0.048 A 
ATOM      6  C5  UNL d   1       0.197   0.001   0.713  0.00  0.00     0.003 A 
ATOM      7  I   UNL d   1       2.302   3.401  -0.973  0.00  0.00    -0.146 I 
ENDROOT
TORSDOF 0
ENDMDL
