MODEL 1
REMARK minimizedAffinity -1.37925076
REMARK minimizedRMSD -1
REMARK  0 active torsions:
REMARK  status: ('A' for Active; 'I' for Inactive)
ROOT
ATOM      1  C   UNL d   1       3.285   4.360  -0.316  0.00  0.00     0.023 A 
ATOM      2  C1  UNL d   1       2.144   4.151  -1.090  0.00  0.00     0.003 A 
ATOM      3  C2  UNL d   1       1.415   2.968  -0.956  0.00  0.00     0.048 A 
ATOM      4  C3  UNL d   1       1.833   1.997  -0.046  0.00  0.00     0.023 A 
ATOM      5  C4  UNL d   1       2.974   2.202   0.731  0.00  0.00     0.048 A 
ATOM      6  C5  UNL d   1       3.700   3.386   0.593  0.00  0.00     0.003 A 
ATOM      7  I   UNL d   1       0.749   0.235   0.154  0.00  0.00    -0.146 I 
ENDROOT
TORSDOF 0
ENDMDL
