MODEL 1
REMARK minimizedAffinity -2.59100485
REMARK minimizedRMSD -1
REMARK  0 active torsions:
REMARK  status: ('A' for Active; 'I' for Inactive)
ROOT
ATOM      1  C   UNL d   1       1.261  -0.058   2.868  0.00  0.00     0.023 A 
ATOM      2  C1  UNL d   1       1.623   0.543   1.662  0.00  0.00     0.003 A 
ATOM      3  C2  UNL d   1       0.716   0.587   0.602  0.00  0.00     0.048 A 
ATOM      4  C3  UNL d   1      -0.553   0.028   0.754  0.00  0.00     0.023 A 
ATOM      5  C4  UNL d   1      -0.920  -0.574   1.958  0.00  0.00     0.048 A 
ATOM      6  C5  UNL d   1      -0.009  -0.616   3.015  0.00  0.00     0.003 A 
ATOM      7  I   UNL d   1      -1.905   0.093  -0.823  0.00  0.00    -0.146 I 
ENDROOT
TORSDOF 0
ENDMDL
