MODEL 1
REMARK minimizedAffinity 0.239121273
REMARK minimizedRMSD -1
REMARK  0 active torsions:
REMARK  status: ('A' for Active; 'I' for Inactive)
ROOT
ATOM      1  C   UNL d   1      -1.843  -1.002   0.867  0.00  0.00     0.023 A 
ATOM      2  C1  UNL d   1      -0.501  -0.943   1.242  0.00  0.00     0.003 A 
ATOM      3  C2  UNL d   1       0.396  -0.164   0.510  0.00  0.00     0.048 A 
ATOM      4  C3  UNL d   1      -0.055   0.556  -0.596  0.00  0.00     0.023 A 
ATOM      5  C4  UNL d   1      -1.397   0.501  -0.975  0.00  0.00     0.048 A 
ATOM      6  C5  UNL d   1      -2.291  -0.280  -0.240  0.00  0.00     0.003 A 
ATOM      7  I   UNL d   1       1.279   1.718  -1.687  0.00  0.00    -0.146 I 
ENDROOT
TORSDOF 0
ENDMDL
