MODEL 1
REMARK minimizedAffinity -2.70495272
REMARK minimizedRMSD -1
REMARK  0 active torsions:
REMARK  status: ('A' for Active; 'I' for Inactive)
ROOT
ATOM      1  C   UNL d   1      -0.456  -0.870   1.661  0.00  0.00     0.023 A 
ATOM      2  C1  UNL d   1       0.750  -0.489   2.250  0.00  0.00     0.003 A 
ATOM      3  C2  UNL d   1       1.528   0.512   1.665  0.00  0.00     0.048 A 
ATOM      4  C3  UNL d   1       1.094   1.128   0.491  0.00  0.00     0.023 A 
ATOM      5  C4  UNL d   1      -0.113   0.750  -0.100  0.00  0.00     0.048 A 
ATOM      6  C5  UNL d   1      -0.887  -0.252   0.488  0.00  0.00     0.003 A 
ATOM      7  I   UNL d   1       2.250   2.618  -0.382  0.00  0.00    -0.146 I 
ENDROOT
TORSDOF 0
ENDMDL
