MODEL 1
REMARK minimizedAffinity 8.43643951
REMARK minimizedRMSD -1
REMARK  0 active torsions:
REMARK  status: ('A' for Active; 'I' for Inactive)
ROOT
ATOM      1  C   UNL d   1      -3.101  -5.757   0.016  0.00  0.00     0.023 A 
ATOM      2  C1  UNL d   1      -4.345  -5.998   0.599  0.00  0.00     0.003 A 
ATOM      3  C2  UNL d   1      -5.178  -4.930   0.939  0.00  0.00     0.048 A 
ATOM      4  C3  UNL d   1      -4.761  -3.623   0.692  0.00  0.00     0.023 A 
ATOM      5  C4  UNL d   1      -3.517  -3.376   0.108  0.00  0.00     0.048 A 
ATOM      6  C5  UNL d   1      -2.687  -4.447  -0.229  0.00  0.00     0.003 A 
ATOM      7  I   UNL d   1      -5.999  -2.032   1.196  0.00  0.00    -0.146 I 
ENDROOT
TORSDOF 0
ENDMDL
