MODEL 1
REMARK minimizedAffinity 0.110881828
REMARK minimizedRMSD -1
REMARK  0 active torsions:
REMARK  status: ('A' for Active; 'I' for Inactive)
ROOT
ATOM      1  C   UNL d   1      -3.633  -5.998   0.852  0.00  0.00     0.023 A 
ATOM      2  C1  UNL d   1      -5.024  -5.944   0.761  0.00  0.00     0.003 A 
ATOM      3  C2  UNL d   1      -5.705  -4.783   1.132  0.00  0.00     0.048 A 
ATOM      4  C3  UNL d   1      -4.989  -3.679   1.592  0.00  0.00     0.023 A 
ATOM      5  C4  UNL d   1      -3.597  -3.728   1.684  0.00  0.00     0.048 A 
ATOM      6  C5  UNL d   1      -2.920  -4.892   1.313  0.00  0.00     0.003 A 
ATOM      7  I   UNL d   1      -5.999  -1.949   2.145  0.00  0.00    -0.146 I 
ENDROOT
TORSDOF 0
ENDMDL
