MODEL 1
REMARK minimizedAffinity 0.876715302
REMARK minimizedRMSD -1
REMARK  0 active torsions:
REMARK  status: ('A' for Active; 'I' for Inactive)
ROOT
ATOM      1  C   UNL d   1       2.608  -3.135  -3.404  0.00  0.00     0.023 A 
ATOM      2  C1  UNL d   1       1.324  -2.705  -3.068  0.00  0.00     0.003 A 
ATOM      3  C2  UNL d   1       1.144  -1.497  -2.391  0.00  0.00     0.048 A 
ATOM      4  C3  UNL d   1       2.254  -0.723  -2.053  0.00  0.00     0.023 A 
ATOM      5  C4  UNL d   1       3.541  -1.148  -2.388  0.00  0.00     0.048 A 
ATOM      6  C5  UNL d   1       3.715  -2.357  -3.064  0.00  0.00     0.003 A 
ATOM      7  I   UNL d   1       1.990   1.075  -1.046  0.00  0.00    -0.146 I 
ENDROOT
TORSDOF 0
ENDMDL
