MODEL 1
REMARK minimizedAffinity 1.90739775
REMARK minimizedRMSD -1
REMARK  0 active torsions:
REMARK  status: ('A' for Active; 'I' for Inactive)
ROOT
ATOM      1  C   UNL d   1       1.199  -3.281  -2.506  0.00  0.00     0.023 A 
ATOM      2  C1  UNL d   1       2.294  -2.705  -3.151  0.00  0.00     0.003 A 
ATOM      3  C2  UNL d   1       2.567  -1.345  -2.985  0.00  0.00     0.048 A 
ATOM      4  C3  UNL d   1       1.743  -0.569  -2.171  0.00  0.00     0.023 A 
ATOM      5  C4  UNL d   1       0.647  -1.141  -1.523  0.00  0.00     0.048 A 
ATOM      6  C5  UNL d   1       0.377  -2.500  -1.693  0.00  0.00     0.003 A 
ATOM      7  I   UNL d   1       2.148   1.455  -1.922  0.00  0.00    -0.146 I 
ENDROOT
TORSDOF 0
ENDMDL
