MODEL 1
REMARK minimizedAffinity 0.447463989
REMARK minimizedRMSD -1
REMARK  0 active torsions:
REMARK  status: ('A' for Active; 'I' for Inactive)
ROOT
ATOM      1  C   UNL d   1      -6.000   2.314   4.850  0.00  0.00     0.023 A 
ATOM      2  C1  UNL d   1      -4.961   1.882   5.675  0.00  0.00     0.003 A 
ATOM      3  C2  UNL d   1      -3.674   1.725   5.156  0.00  0.00     0.048 A 
ATOM      4  C3  UNL d   1      -3.432   2.003   3.811  0.00  0.00     0.023 A 
ATOM      5  C4  UNL d   1      -4.468   2.437   2.982  0.00  0.00     0.048 A 
ATOM      6  C5  UNL d   1      -5.753   2.591   3.505  0.00  0.00     0.003 A 
ATOM      7  I   UNL d   1      -1.518   1.771   3.037  0.00  0.00    -0.146 I 
ENDROOT
TORSDOF 0
ENDMDL
