MODEL 1
REMARK minimizedAffinity 1.96840966
REMARK minimizedRMSD -1
REMARK  0 active torsions:
REMARK  status: ('A' for Active; 'I' for Inactive)
ROOT
ATOM      1  C   UNL d   1       2.047  -2.593  -3.072  0.00  0.00     0.023 A 
ATOM      2  C1  UNL d   1       0.854  -2.030  -2.618  0.00  0.00     0.003 A 
ATOM      3  C2  UNL d   1       0.853  -0.753  -2.054  0.00  0.00     0.048 A 
ATOM      4  C3  UNL d   1       2.049  -0.043  -1.947  0.00  0.00     0.023 A 
ATOM      5  C4  UNL d   1       3.245  -0.602  -2.400  0.00  0.00     0.048 A 
ATOM      6  C5  UNL d   1       3.241  -1.879  -2.963  0.00  0.00     0.003 A 
ATOM      7  I   UNL d   1       2.050   1.858  -1.107  0.00  0.00    -0.146 I 
ENDROOT
TORSDOF 0
ENDMDL
