MODEL 1
REMARK minimizedAffinity 1.35054541
REMARK minimizedRMSD -1
REMARK  0 active torsions:
REMARK  status: ('A' for Active; 'I' for Inactive)
ROOT
ATOM      1  C   UNL d   1      -6.000  -5.045   0.701  0.00  0.00     0.023 A 
ATOM      2  C1  UNL d   1      -5.191  -5.727  -0.209  0.00  0.00     0.003 A 
ATOM      3  C2  UNL d   1      -3.859  -6.000   0.107  0.00  0.00     0.048 A 
ATOM      4  C3  UNL d   1      -3.341  -5.589   1.335  0.00  0.00     0.023 A 
ATOM      5  C4  UNL d   1      -4.146  -4.907   2.249  0.00  0.00     0.048 A 
ATOM      6  C5  UNL d   1      -5.478  -4.636   1.928  0.00  0.00     0.003 A 
ATOM      7  I   UNL d   1      -1.358  -5.993   1.807  0.00  0.00    -0.146 I 
ENDROOT
TORSDOF 0
ENDMDL
