MODEL 1
REMARK minimizedAffinity 1.55852067
REMARK minimizedRMSD -1
REMARK  0 active torsions:
REMARK  status: ('A' for Active; 'I' for Inactive)
ROOT
ATOM      1  C   UNL d   1      -5.620  -4.142   0.393  0.00  0.00     0.023 A 
ATOM      2  C1  UNL d   1      -5.418  -5.465   0.000  0.00  0.00     0.003 A 
ATOM      3  C2  UNL d   1      -4.129  -5.999  -0.023  0.00  0.00     0.048 A 
ATOM      4  C3  UNL d   1      -3.044  -5.205   0.349  0.00  0.00     0.023 A 
ATOM      5  C4  UNL d   1      -3.241  -3.881   0.744  0.00  0.00     0.048 A 
ATOM      6  C5  UNL d   1      -4.532  -3.351   0.764  0.00  0.00     0.003 A 
ATOM      7  I   UNL d   1      -1.124  -5.998   0.315  0.00  0.00    -0.146 I 
ENDROOT
TORSDOF 0
ENDMDL
