MODEL 1
REMARK minimizedAffinity 3.2981956
REMARK minimizedRMSD -1
REMARK  0 active torsions:
REMARK  status: ('A' for Active; 'I' for Inactive)
ROOT
ATOM      1  C   UNL d   1       0.100   2.980   4.706  0.00  0.00     0.023 A 
ATOM      2  C1  UNL d   1       1.322   2.560   4.180  0.00  0.00     0.003 A 
ATOM      3  C2  UNL d   1       1.350   1.661   3.112  0.00  0.00     0.048 A 
ATOM      4  C3  UNL d   1       0.154   1.187   2.574  0.00  0.00     0.023 A 
ATOM      5  C4  UNL d   1      -1.070   1.606   3.097  0.00  0.00     0.048 A 
ATOM      6  C5  UNL d   1      -1.094   2.504   4.166  0.00  0.00     0.003 A 
ATOM      7  I   UNL d   1       0.195  -0.151   0.984  0.00  0.00    -0.146 I 
ENDROOT
TORSDOF 0
ENDMDL
