MODEL 1
REMARK minimizedAffinity -3.92859912
REMARK minimizedRMSD -1
REMARK  0 active torsions:
REMARK  status: ('A' for Active; 'I' for Inactive)
ROOT
ATOM      1  C1  BNZ d   1       0.220   1.069  -0.382  0.00  0.00     0.000 A 
ATOM      2  C2  BNZ d   1       1.288   1.924  -0.446  0.00  0.00     0.000 A 
ATOM      3  C3  BNZ d   1       2.500   1.570   0.076  0.00  0.00     0.000 A 
ATOM      4  C4  BNZ d   1       2.633   0.379   0.696  0.00  0.00     0.000 A 
ATOM      5  C5  BNZ d   1       1.564  -0.490   0.776  0.00  0.00     0.000 A 
ATOM      6  C6  BNZ d   1       0.355  -0.146   0.215  0.00  0.00     0.000 A 
ENDROOT
TORSDOF 0
ENDMDL
