MODEL 1
REMARK minimizedAffinity -4.93689919
REMARK minimizedRMSD -1
REMARK  0 active torsions:
REMARK  status: ('A' for Active; 'I' for Inactive)
ROOT
ATOM      1  C1  BNZ d   1       3.080  -1.199   1.043  0.00  0.00     0.000 A 
ATOM      2  C2  BNZ d   1       2.881  -0.509  -0.123  0.00  0.00     0.000 A 
ATOM      3  C3  BNZ d   1       1.617  -0.253  -0.577  0.00  0.00     0.000 A 
ATOM      4  C4  BNZ d   1       0.557  -0.721   0.113  0.00  0.00     0.000 A 
ATOM      5  C5  BNZ d   1       0.742  -1.426   1.286  0.00  0.00     0.000 A 
ATOM      6  C6  BNZ d   1       2.015  -1.648   1.760  0.00  0.00     0.000 A 
ENDROOT
TORSDOF 0
ENDMDL
