MODEL 1
REMARK minimizedAffinity -4.30132484
REMARK minimizedRMSD -1
REMARK  0 active torsions:
REMARK  status: ('A' for Active; 'I' for Inactive)
ROOT
ATOM      1  C1  BNZ d   1       2.980   0.881   0.295  0.00  0.00     0.000 A 
ATOM      2  C2  BNZ d   1       2.082   1.134  -0.708  0.00  0.00     0.000 A 
ATOM      3  C3  BNZ d   1       0.774   0.754  -0.589  0.00  0.00     0.000 A 
ATOM      4  C4  BNZ d   1       0.375   0.086   0.513  0.00  0.00     0.000 A 
ATOM      5  C5  BNZ d   1       1.270  -0.185   1.528  0.00  0.00     0.000 A 
ATOM      6  C6  BNZ d   1       2.577   0.234   1.423  0.00  0.00     0.000 A 
ENDROOT
TORSDOF 0
ENDMDL
