MODEL 1
REMARK minimizedAffinity -3.24052906
REMARK minimizedRMSD -1
REMARK  0 active torsions:
REMARK  status: ('A' for Active; 'I' for Inactive)
ROOT
ATOM      1  C1  BNZ d   1       2.285   0.375   1.442  0.00  0.00     0.000 A 
ATOM      2  C2  BNZ d   1       1.512   0.925   0.455  0.00  0.00     0.000 A 
ATOM      3  C3  BNZ d   1       0.326   0.350   0.092  0.00  0.00     0.000 A 
ATOM      4  C4  BNZ d   1      -0.064  -0.796   0.687  0.00  0.00     0.000 A 
ATOM      5  C5  BNZ d   1       0.709  -1.368   1.678  0.00  0.00     0.000 A 
ATOM      6  C6  BNZ d   1       1.882  -0.764   2.068  0.00  0.00     0.000 A 
ENDROOT
TORSDOF 0
ENDMDL
