MODEL 1
REMARK minimizedAffinity -3.30071855
REMARK minimizedRMSD -1
REMARK  0 active torsions:
REMARK  status: ('A' for Active; 'I' for Inactive)
ROOT
ATOM      1  C1  BNZ d   1       2.381   0.809   1.063  0.00  0.00     0.000 A 
ATOM      2  C2  BNZ d   1       1.218   0.752   0.342  0.00  0.00     0.000 A 
ATOM      3  C3  BNZ d   1       0.337  -0.279   0.515  0.00  0.00     0.000 A 
ATOM      4  C4  BNZ d   1       0.638  -1.270   1.379  0.00  0.00     0.000 A 
ATOM      5  C5  BNZ d   1       1.811  -1.232   2.106  0.00  0.00     0.000 A 
ATOM      6  C6  BNZ d   1       2.677  -0.173   1.957  0.00  0.00     0.000 A 
ENDROOT
TORSDOF 0
ENDMDL
