MODEL 1
REMARK minimizedAffinity -4.84056044
REMARK minimizedRMSD -1
REMARK  0 active torsions:
REMARK  status: ('A' for Active; 'I' for Inactive)
ROOT
ATOM      1  C1  BNZ d   1       2.122  -1.199   1.245  0.00  0.00     0.000 A 
ATOM      2  C2  BNZ d   1       0.999  -0.991   0.489  0.00  0.00     0.000 A 
ATOM      3  C3  BNZ d   1       0.644   0.269   0.095  0.00  0.00     0.000 A 
ATOM      4  C4  BNZ d   1       1.389   1.322   0.490  0.00  0.00     0.000 A 
ATOM      5  C5  BNZ d   1       2.519   1.129   1.259  0.00  0.00     0.000 A 
ATOM      6  C6  BNZ d   1       2.895  -0.144   1.621  0.00  0.00     0.000 A 
ENDROOT
TORSDOF 0
ENDMDL
