MODEL 1
REMARK minimizedAffinity -4.00605059
REMARK minimizedRMSD -1
REMARK  0 active torsions:
REMARK  status: ('A' for Active; 'I' for Inactive)
ROOT
ATOM      1  C1  BNZ d   1       2.200   1.058   0.098  0.00  0.00     0.000 A 
ATOM      2  C2  BNZ d   1       1.122   1.612  -0.539  0.00  0.00     0.000 A 
ATOM      3  C3  BNZ d   1      -0.094   0.989  -0.527  0.00  0.00     0.000 A 
ATOM      4  C4  BNZ d   1      -0.221  -0.206   0.086  0.00  0.00     0.000 A 
ATOM      5  C5  BNZ d   1       0.859  -0.781   0.725  0.00  0.00     0.000 A 
ATOM      6  C6  BNZ d   1       2.072  -0.132   0.745  0.00  0.00     0.000 A 
ENDROOT
TORSDOF 0
ENDMDL
