MODEL 1
REMARK minimizedAffinity -2.61742926
REMARK minimizedRMSD -1
REMARK  0 active torsions:
REMARK  status: ('A' for Active; 'I' for Inactive)
ROOT
ATOM      1  C1  BNZ d   1       1.730   1.294   1.526  0.00  0.00     0.000 A 
ATOM      2  C2  BNZ d   1       0.381   1.526   1.469  0.00  0.00     0.000 A 
ATOM      3  C3  BNZ d   1      -0.327   1.263   0.330  0.00  0.00     0.000 A 
ATOM      4  C4  BNZ d   1       0.320   0.806  -0.762  0.00  0.00     0.000 A 
ATOM      5  C5  BNZ d   1       1.681   0.576  -0.723  0.00  0.00     0.000 A 
ATOM      6  C6  BNZ d   1       2.384   0.806   0.437  0.00  0.00     0.000 A 
ENDROOT
TORSDOF 0
ENDMDL
