MODEL 1
REMARK minimizedAffinity -6.32541323
REMARK minimizedRMSD -1
REMARK  0 active torsions:
REMARK  status: ('A' for Active; 'I' for Inactive)
ROOT
ATOM      1  C1  DEN d   1      -1.518  -0.267   3.227  0.00  0.00     0.130 A 
ATOM      2  C2  DEN d   1      -2.897  -0.139   2.764  0.00  0.00    -0.031 A 
ATOM      3  C3  DEN d   1      -2.869   0.113   1.309  0.00  0.00     0.027 A 
ATOM      4  C4  DEN d   1      -0.835   0.311  -0.264  0.00  0.00     0.027 A 
ATOM      5  C5  DEN d   1       0.540   0.286  -0.329  0.00  0.00    -0.003 A 
ATOM      6  C6  DEN d   1       1.321   0.110   0.783  0.00  0.00     0.001 A 
ATOM      7  C7  DEN d   1       0.730  -0.093   2.002  0.00  0.00     0.017 A 
ATOM      8  C8  DEN d   1      -0.657  -0.061   2.076  0.00  0.00    -0.094 A 
ATOM      9  C9  DEN d   1      -1.428   0.106   0.939  0.00  0.00    -0.072 A 
ENDROOT
TORSDOF 0
ENDMDL
