MODEL 1
REMARK minimizedAffinity -2.43757653
REMARK minimizedRMSD -1
REMARK  0 active torsions:
REMARK  status: ('A' for Active; 'I' for Inactive)
ROOT
ATOM      1  C1  DEN d   1       1.504   1.085   1.354  0.00  0.00     0.130 A 
ATOM      2  C2  DEN d   1       1.038   0.551   2.631  0.00  0.00    -0.031 A 
ATOM      3  C3  DEN d   1       0.133  -0.582   2.349  0.00  0.00     0.027 A 
ATOM      4  C4  DEN d   1      -0.584  -1.558   0.072  0.00  0.00     0.027 A 
ATOM      5  C5  DEN d   1      -0.458  -1.431  -1.294  0.00  0.00    -0.003 A 
ATOM      6  C6  DEN d   1       0.298  -0.443  -1.869  0.00  0.00     0.001 A 
ATOM      7  C7  DEN d   1       0.993   0.429  -1.073  0.00  0.00     0.017 A 
ATOM      8  C8  DEN d   1       0.865   0.312   0.304  0.00  0.00    -0.094 A 
ATOM      9  C9  DEN d   1       0.106  -0.701   0.866  0.00  0.00    -0.072 A 
ENDROOT
TORSDOF 0
ENDMDL
