MODEL 1
REMARK minimizedAffinity -6.48002434
REMARK minimizedRMSD -1
REMARK  0 active torsions:
REMARK  status: ('A' for Active; 'I' for Inactive)
ROOT
ATOM      1  C1  DEN d   1       1.628  -0.109   0.723  0.00  0.00     0.130 A 
ATOM      2  C2  DEN d   1       1.356   0.111  -0.694  0.00  0.00    -0.031 A 
ATOM      3  C3  DEN d   1      -0.105   0.247  -0.863  0.00  0.00     0.027 A 
ATOM      4  C4  DEN d   1      -1.961   0.146   0.925  0.00  0.00     0.027 A 
ATOM      5  C5  DEN d   1      -2.219  -0.032   2.267  0.00  0.00    -0.003 A 
ATOM      6  C6  DEN d   1      -1.224  -0.281   3.175  0.00  0.00     0.001 A 
ATOM      7  C7  DEN d   1       0.081  -0.312   2.760  0.00  0.00     0.017 A 
ATOM      8  C8  DEN d   1       0.348  -0.141   1.408  0.00  0.00    -0.094 A 
ATOM      9  C9  DEN d   1      -0.670   0.121   0.508  0.00  0.00    -0.072 A 
ENDROOT
TORSDOF 0
ENDMDL
