MODEL 1
REMARK minimizedAffinity -4.41114187
REMARK minimizedRMSD -1
REMARK  0 active torsions:
REMARK  status: ('A' for Active; 'I' for Inactive)
ROOT
ATOM      1  C1  DEN d   1      -1.656  -0.536   1.527  0.00  0.00     0.130 A 
ATOM      2  C2  DEN d   1      -1.077  -0.397   2.861  0.00  0.00    -0.031 A 
ATOM      3  C3  DEN d   1       0.346  -0.036   2.705  0.00  0.00     0.027 A 
ATOM      4  C4  DEN d   1       1.702   0.323   0.541  0.00  0.00     0.027 A 
ATOM      5  C5  DEN d   1       1.645   0.304  -0.836  0.00  0.00    -0.003 A 
ATOM      6  C6  DEN d   1       0.503  -0.026  -1.515  0.00  0.00     0.001 A 
ATOM      7  C7  DEN d   1      -0.643  -0.307  -0.819  0.00  0.00     0.017 A 
ATOM      8  C8  DEN d   1      -0.592  -0.298   0.568  0.00  0.00    -0.094 A 
ATOM      9  C9  DEN d   1       0.569   0.050   1.237  0.00  0.00    -0.072 A 
ENDROOT
TORSDOF 0
ENDMDL
