MODEL 1
REMARK minimizedAffinity -7.06381416
REMARK minimizedRMSD -1
REMARK  0 active torsions:
REMARK  status: ('A' for Active; 'I' for Inactive)
ROOT
ATOM      1  C1  DEN d   1       0.171   1.080   0.333  0.00  0.00     0.130 A 
ATOM      2  C2  DEN d   1       1.307   0.646   1.141  0.00  0.00    -0.031 A 
ATOM      3  C3  DEN d   1       0.800  -0.258   2.194  0.00  0.00     0.027 A 
ATOM      4  C4  DEN d   1      -1.620  -1.028   2.644  0.00  0.00     0.027 A 
ATOM      5  C5  DEN d   1      -2.929  -0.916   2.230  0.00  0.00    -0.003 A 
ATOM      6  C6  DEN d   1      -3.298  -0.111   1.184  0.00  0.00     0.001 A 
ATOM      7  C7  DEN d   1      -2.341   0.579   0.488  0.00  0.00     0.017 A 
ATOM      8  C8  DEN d   1      -1.020   0.477   0.904  0.00  0.00    -0.094 A 
ATOM      9  C9  DEN d   1      -0.665  -0.351   1.956  0.00  0.00    -0.072 A 
ENDROOT
TORSDOF 0
ENDMDL
