MODEL 1
REMARK minimizedAffinity -5.21721983
REMARK minimizedRMSD -1
REMARK  0 active torsions:
REMARK  status: ('A' for Active; 'I' for Inactive)
ROOT
ATOM      1  C1  DEN d   1      -0.180  -0.114  -0.011  0.00  0.00     0.130 A 
ATOM      2  C2  DEN d   1       1.277  -0.081   0.085  0.00  0.00    -0.031 A 
ATOM      3  C3  DEN d   1       1.653  -0.485   1.455  0.00  0.00     0.027 A 
ATOM      4  C4  DEN d   1       0.129  -1.160   3.424  0.00  0.00     0.027 A 
ATOM      5  C5  DEN d   1      -1.178  -1.328   3.825  0.00  0.00    -0.003 A 
ATOM      6  C6  DEN d   1      -2.236  -1.073   2.994  0.00  0.00     0.001 A 
ATOM      7  C7  DEN d   1      -2.004  -0.679   1.703  0.00  0.00     0.017 A 
ATOM      8  C8  DEN d   1      -0.690  -0.500   1.293  0.00  0.00    -0.094 A 
ATOM      9  C9  DEN d   1       0.366  -0.775   2.144  0.00  0.00    -0.072 A 
ENDROOT
TORSDOF 0
ENDMDL
