MODEL 1
REMARK minimizedAffinity 0.418905556
REMARK minimizedRMSD -1
REMARK  0 active torsions:
REMARK  status: ('A' for Active; 'I' for Inactive)
ROOT
ATOM      1  C1  DEN d   1      -2.624   0.921   2.404  0.00  0.00     0.130 A 
ATOM      2  C2  DEN d   1      -3.479   0.854   1.222  0.00  0.00    -0.031 A 
ATOM      3  C3  DEN d   1      -2.647   0.423   0.080  0.00  0.00     0.027 A 
ATOM      4  C4  DEN d   1      -0.133  -0.151   0.029  0.00  0.00     0.027 A 
ATOM      5  C5  DEN d   1       1.015  -0.230   0.785  0.00  0.00    -0.003 A 
ATOM      6  C6  DEN d   1       1.039   0.098   2.115  0.00  0.00     0.001 A 
ATOM      7  C7  DEN d   1      -0.119   0.479   2.741  0.00  0.00     0.017 A 
ATOM      8  C8  DEN d   1      -1.280   0.568   1.983  0.00  0.00    -0.094 A 
ATOM      9  C9  DEN d   1      -1.285   0.220   0.643  0.00  0.00    -0.072 A 
ENDROOT
TORSDOF 0
ENDMDL
