MODEL 1
REMARK minimizedAffinity -5.22293997
REMARK minimizedRMSD -1
REMARK  0 active torsions:
REMARK  status: ('A' for Active; 'I' for Inactive)
ROOT
ATOM      1  C1  DEN d   1      -0.933   0.107  -0.725  0.00  0.00     0.130 A 
ATOM      2  C2  DEN d   1       0.505   0.304  -0.889  0.00  0.00    -0.031 A 
ATOM      3  C3  DEN d   1       1.128   0.262   0.449  0.00  0.00     0.027 A 
ATOM      4  C4  DEN d   1       0.012  -0.091   2.747  0.00  0.00     0.027 A 
ATOM      5  C5  DEN d   1      -1.187  -0.290   3.394  0.00  0.00    -0.003 A 
ATOM      6  C6  DEN d   1      -2.380  -0.337   2.723  0.00  0.00     0.001 A 
ATOM      7  C7  DEN d   1      -2.395  -0.227   1.357  0.00  0.00     0.017 A 
ATOM      8  C8  DEN d   1      -1.190  -0.019   0.699  0.00  0.00    -0.094 A 
ATOM      9  C9  DEN d   1       0.006   0.013   1.394  0.00  0.00    -0.072 A 
ENDROOT
TORSDOF 0
ENDMDL
