MODEL 1
REMARK minimizedAffinity -4.95175123
REMARK minimizedRMSD -1
REMARK  0 active torsions:
REMARK  status: ('A' for Active; 'I' for Inactive)
ROOT
ATOM      1  C1  DEN d   1      -2.235   0.819   2.913  0.00  0.00     0.130 A 
ATOM      2  C2  DEN d   1      -3.216   1.210   1.905  0.00  0.00    -0.031 A 
ATOM      3  C3  DEN d   1      -2.626   0.962   0.574  0.00  0.00     0.027 A 
ATOM      4  C4  DEN d   1      -0.303   0.010  -0.019  0.00  0.00     0.027 A 
ATOM      5  C5  DEN d   1       0.884  -0.457   0.499  0.00  0.00    -0.003 A 
ATOM      6  C6  DEN d   1       1.126  -0.498   1.847  0.00  0.00     0.001 A 
ATOM      7  C7  DEN d   1       0.150  -0.108   2.724  0.00  0.00     0.017 A 
ATOM      8  C8  DEN d   1      -1.048   0.370   2.209  0.00  0.00    -0.094 A 
ATOM      9  C9  DEN d   1      -1.278   0.393   0.844  0.00  0.00    -0.072 A 
ENDROOT
TORSDOF 0
ENDMDL
