MODEL 1
REMARK minimizedAffinity -1.85953116
REMARK minimizedRMSD -1
REMARK  0 active torsions:
REMARK  status: ('A' for Active; 'I' for Inactive)
ROOT
ATOM      1  C1  DEN d   1       1.176   0.198  -3.275  0.00  0.00     0.130 A 
ATOM      2  C2  DEN d   1       1.341  -1.179  -3.732  0.00  0.00    -0.031 A 
ATOM      3  C3  DEN d   1       0.934  -2.077  -2.633  0.00  0.00     0.027 A 
ATOM      4  C4  DEN d   1       0.064  -1.471  -0.282  0.00  0.00     0.027 A 
ATOM      5  C5  DEN d   1      -0.236  -0.432   0.571  0.00  0.00    -0.003 A 
ATOM      6  C6  DEN d   1      -0.056   0.879   0.217  0.00  0.00     0.001 A 
ATOM      7  C7  DEN d   1       0.396   1.186  -1.040  0.00  0.00     0.017 A 
ATOM      8  C8  DEN d   1       0.707   0.143  -1.902  0.00  0.00    -0.094 A 
ATOM      9  C9  DEN d   1       0.507  -1.175  -1.530  0.00  0.00    -0.072 A 
ENDROOT
TORSDOF 0
ENDMDL
