MODEL 1
REMARK minimizedAffinity -2.60249949
REMARK minimizedRMSD -1
REMARK  0 active torsions:
REMARK  status: ('A' for Active; 'I' for Inactive)
ROOT
ATOM      1  C1  DEN d   1      -0.622  -0.724  -0.385  0.00  0.00     0.130 A 
ATOM      2  C2  DEN d   1       0.046   0.314   0.396  0.00  0.00    -0.031 A 
ATOM      3  C3  DEN d   1       1.119   0.893  -0.437  0.00  0.00     0.027 A 
ATOM      4  C4  DEN d   1       1.803   0.292  -2.850  0.00  0.00     0.027 A 
ATOM      5  C5  DEN d   1       1.536  -0.534  -3.920  0.00  0.00    -0.003 A 
ATOM      6  C6  DEN d   1       0.561  -1.495  -3.875  0.00  0.00     0.001 A 
ATOM      7  C7  DEN d   1      -0.213  -1.625  -2.752  0.00  0.00     0.017 A 
ATOM      8  C8  DEN d   1       0.056  -0.802  -1.666  0.00  0.00    -0.094 A 
ATOM      9  C9  DEN d   1       1.037   0.172  -1.736  0.00  0.00    -0.072 A 
ENDROOT
TORSDOF 0
ENDMDL
