MODEL 1
REMARK minimizedAffinity -7.00518274
REMARK minimizedRMSD -1
REMARK  0 active torsions:
REMARK  status: ('A' for Active; 'I' for Inactive)
ROOT
ATOM      1  C1  DEN d   1      -0.531   0.099  -0.640  0.00  0.00     0.130 A 
ATOM      2  C2  DEN d   1       0.908   0.313  -0.769  0.00  0.00    -0.031 A 
ATOM      3  C3  DEN d   1       1.497   0.286   0.585  0.00  0.00     0.027 A 
ATOM      4  C4  DEN d   1       0.328  -0.070   2.856  0.00  0.00     0.027 A 
ATOM      5  C5  DEN d   1      -0.885  -0.281   3.473  0.00  0.00    -0.003 A 
ATOM      6  C6  DEN d   1      -2.059  -0.346   2.772  0.00  0.00     0.001 A 
ATOM      7  C7  DEN d   1      -2.041  -0.243   1.406  0.00  0.00     0.017 A 
ATOM      8  C8  DEN d   1      -0.823  -0.023   0.777  0.00  0.00    -0.094 A 
ATOM      9  C9  DEN d   1       0.356   0.027   1.503  0.00  0.00    -0.072 A 
ENDROOT
TORSDOF 0
ENDMDL
