MODEL 1
REMARK minimizedAffinity -7.10195589
REMARK minimizedRMSD -1
REMARK  0 active torsions:
REMARK  status: ('A' for Active; 'I' for Inactive)
ROOT
ATOM      1  C1  DEN d   1      -0.967   0.729  -0.451  0.00  0.00     0.130 A 
ATOM      2  C2  DEN d   1       0.485   0.778  -0.304  0.00  0.00    -0.031 A 
ATOM      3  C3  DEN d   1       0.817   0.399   1.084  0.00  0.00     0.027 A 
ATOM      4  C4  DEN d   1      -0.768  -0.259   3.009  0.00  0.00     0.027 A 
ATOM      5  C5  DEN d   1      -2.087  -0.434   3.368  0.00  0.00    -0.003 A 
ATOM      6  C6  DEN d   1      -3.118  -0.202   2.496  0.00  0.00     0.001 A 
ATOM      7  C7  DEN d   1      -2.845   0.174   1.208  0.00  0.00     0.017 A 
ATOM      8  C8  DEN d   1      -1.519   0.359   0.841  0.00  0.00    -0.094 A 
ATOM      9  C9  DEN d   1      -0.490   0.108   1.733  0.00  0.00    -0.072 A 
ENDROOT
TORSDOF 0
ENDMDL
