MODEL 1
REMARK minimizedAffinity -6.01421547
REMARK minimizedRMSD -1
REMARK  0 active torsions:
REMARK  status: ('A' for Active; 'I' for Inactive)
ROOT
ATOM      1  C1  DEN d   1       0.727  -0.191   0.743  0.00  0.00     0.130 A 
ATOM      2  C2  DEN d   1       0.331   0.339  -0.559  0.00  0.00    -0.031 A 
ATOM      3  C3  DEN d   1      -1.107   0.669  -0.500  0.00  0.00     0.027 A 
ATOM      4  C4  DEN d   1      -2.750   0.415   1.473  0.00  0.00     0.027 A 
ATOM      5  C5  DEN d   1      -2.879  -0.001   2.779  0.00  0.00    -0.003 A 
ATOM      6  C6  DEN d   1      -1.833  -0.537   3.482  0.00  0.00     0.001 A 
ATOM      7  C7  DEN d   1      -0.598  -0.629   2.896  0.00  0.00     0.017 A 
ATOM      8  C8  DEN d   1      -0.461  -0.218   1.577  0.00  0.00    -0.094 A 
ATOM      9  C9  DEN d   1      -1.528   0.332   0.887  0.00  0.00    -0.072 A 
ENDROOT
TORSDOF 0
ENDMDL
