MODEL 1
REMARK minimizedAffinity -3.3997736
REMARK minimizedRMSD -1
REMARK  0 active torsions:
REMARK  status: ('A' for Active; 'I' for Inactive)
ROOT
ATOM      1  C   UNL d   1       0.727  -0.382  -1.222  0.00  0.00     0.078 C 
ATOM      2  C1  UNL d   1       0.707  -1.706  -0.517  0.00  0.00    -0.077 A 
ATOM      3  C2  UNL d   1       1.860  -2.495  -0.433  0.00  0.00    -0.001 A 
ATOM      4  C3  UNL d   1       1.825  -3.730   0.218  0.00  0.00     0.003 A 
ATOM      5  C4  UNL d   1       0.638  -4.186   0.788  0.00  0.00    -0.005 A 
ATOM      6  C5  UNL d   1      -0.515  -3.409   0.707  0.00  0.00     0.003 A 
ATOM      7  C6  UNL d   1      -0.482  -2.174   0.057  0.00  0.00    -0.001 A 
ENDROOT
TORSDOF 0
ENDMDL
