MODEL 1
REMARK minimizedAffinity -4.3996582
REMARK minimizedRMSD -1
REMARK  0 active torsions:
REMARK  status: ('A' for Active; 'I' for Inactive)
ROOT
ATOM      1  C   UNL d   1       1.480  -0.556  -1.331  0.00  0.00     0.078 C 
ATOM      2  C1  UNL d   1       1.178  -1.891  -0.717  0.00  0.00    -0.077 A 
ATOM      3  C2  UNL d   1      -0.142  -2.292  -0.476  0.00  0.00    -0.001 A 
ATOM      4  C3  UNL d   1      -0.408  -3.533   0.105  0.00  0.00     0.003 A 
ATOM      5  C4  UNL d   1       0.641  -4.382   0.452  0.00  0.00    -0.005 A 
ATOM      6  C5  UNL d   1       1.957  -3.990   0.219  0.00  0.00     0.003 A 
ATOM      7  C6  UNL d   1       2.225  -2.750  -0.363  0.00  0.00    -0.001 A 
ENDROOT
TORSDOF 0
ENDMDL
