MODEL 1
REMARK minimizedAffinity 0.902708113
REMARK minimizedRMSD -1
REMARK  0 active torsions:
REMARK  status: ('A' for Active; 'I' for Inactive)
ROOT
ATOM      1  C   UNL d   1      -0.358  -1.050  -3.921  0.00  0.00     0.078 C 
ATOM      2  C1  UNL d   1       0.396  -1.183  -2.632  0.00  0.00    -0.077 A 
ATOM      3  C2  UNL d   1       0.529  -0.096  -1.759  0.00  0.00    -0.001 A 
ATOM      4  C3  UNL d   1       1.242  -0.231  -0.567  0.00  0.00     0.003 A 
ATOM      5  C4  UNL d   1       1.829  -1.451  -0.237  0.00  0.00    -0.005 A 
ATOM      6  C5  UNL d   1       1.704  -2.537  -1.100  0.00  0.00     0.003 A 
ATOM      7  C6  UNL d   1       0.992  -2.404  -2.293  0.00  0.00    -0.001 A 
ENDROOT
TORSDOF 0
ENDMDL
