MODEL 1
REMARK minimizedAffinity -5.41141415
REMARK minimizedRMSD -1
REMARK  0 active torsions:
REMARK  status: ('A' for Active; 'I' for Inactive)
ROOT
ATOM      1  C   UNL d   1       3.004  -0.390  -2.244  0.00  0.00     0.078 C 
ATOM      2  C1  UNL d   1       2.108  -1.191  -1.348  0.00  0.00    -0.077 A 
ATOM      3  C2  UNL d   1       2.550  -2.387  -0.768  0.00  0.00    -0.001 A 
ATOM      4  C3  UNL d   1       1.702  -3.127   0.057  0.00  0.00     0.003 A 
ATOM      5  C4  UNL d   1       0.406  -2.681   0.309  0.00  0.00    -0.005 A 
ATOM      6  C5  UNL d   1      -0.044  -1.494  -0.266  0.00  0.00     0.003 A 
ATOM      7  C6  UNL d   1       0.803  -0.752  -1.091  0.00  0.00    -0.001 A 
ENDROOT
TORSDOF 0
ENDMDL
