MODEL 1
REMARK minimizedAffinity -0.281014889
REMARK minimizedRMSD -1
REMARK  0 active torsions:
REMARK  status: ('A' for Active; 'I' for Inactive)
ROOT
ATOM      1  C   UNL d   1      -5.999  -0.284   2.616  0.00  0.00     0.078 C 
ATOM      2  C1  UNL d   1      -4.692   0.017   3.287  0.00  0.00    -0.077 A 
ATOM      3  C2  UNL d   1      -4.440   1.276   3.844  0.00  0.00    -0.001 A 
ATOM      4  C3  UNL d   1      -3.215   1.545   4.457  0.00  0.00     0.003 A 
ATOM      5  C4  UNL d   1      -2.232   0.559   4.517  0.00  0.00    -0.005 A 
ATOM      6  C5  UNL d   1      -2.472  -0.696   3.963  0.00  0.00     0.003 A 
ATOM      7  C6  UNL d   1      -3.697  -0.967   3.350  0.00  0.00    -0.001 A 
ENDROOT
TORSDOF 0
ENDMDL
