MODEL 1
REMARK minimizedAffinity -4.58287048
REMARK minimizedRMSD -1
REMARK  0 active torsions:
REMARK  status: ('A' for Active; 'I' for Inactive)
ROOT
ATOM      1  C   UNL d   1       0.978  -4.673   1.189  0.00  0.00     0.078 C 
ATOM      2  C1  UNL d   1       0.863  -3.401   0.402  0.00  0.00    -0.077 A 
ATOM      3  C2  UNL d   1      -0.308  -2.634   0.439  0.00  0.00    -0.001 A 
ATOM      4  C3  UNL d   1      -0.405  -1.458  -0.306  0.00  0.00     0.003 A 
ATOM      5  C4  UNL d   1       0.665  -1.039  -1.095  0.00  0.00    -0.005 A 
ATOM      6  C5  UNL d   1       1.833  -1.798  -1.140  0.00  0.00     0.003 A 
ATOM      7  C6  UNL d   1       1.932  -2.974  -0.395  0.00  0.00    -0.001 A 
ENDROOT
TORSDOF 0
ENDMDL
