MODEL 1
REMARK minimizedAffinity 4.25414753
REMARK minimizedRMSD -1
REMARK  0 active torsions:
REMARK  status: ('A' for Active; 'I' for Inactive)
ROOT
ATOM      1  C   UNL d   1       0.931  -6.000   0.961  0.00  0.00     0.078 C 
ATOM      2  C1  UNL d   1       1.521  -4.635   0.771  0.00  0.00    -0.077 A 
ATOM      3  C2  UNL d   1       1.161  -3.839  -0.324  0.00  0.00    -0.001 A 
ATOM      4  C3  UNL d   1       1.726  -2.574  -0.494  0.00  0.00     0.003 A 
ATOM      5  C4  UNL d   1       2.655  -2.094   0.426  0.00  0.00    -0.005 A 
ATOM      6  C5  UNL d   1       3.022  -2.879   1.517  0.00  0.00     0.003 A 
ATOM      7  C6  UNL d   1       2.458  -4.144   1.689  0.00  0.00    -0.001 A 
ENDROOT
TORSDOF 0
ENDMDL
