MODEL 1
REMARK minimizedAffinity -6.6220789
REMARK minimizedRMSD -1
REMARK  0 active torsions:
REMARK  status: ('A' for Active; 'I' for Inactive)
ROOT
ATOM      1  C   UNL d   1       1.199  -4.705   0.515  0.00  0.00     0.078 C 
ATOM      2  C1  UNL d   1       0.972  -3.275   0.125  0.00  0.00    -0.077 A 
ATOM      3  C2  UNL d   1       2.045  -2.440  -0.212  0.00  0.00    -0.001 A 
ATOM      4  C3  UNL d   1       1.820  -1.109  -0.565  0.00  0.00     0.003 A 
ATOM      5  C4  UNL d   1       0.523  -0.599  -0.582  0.00  0.00    -0.005 A 
ATOM      6  C5  UNL d   1      -0.550  -1.421  -0.247  0.00  0.00     0.003 A 
ATOM      7  C6  UNL d   1      -0.327  -2.753   0.106  0.00  0.00    -0.001 A 
ENDROOT
TORSDOF 0
ENDMDL
