MODEL 1
REMARK minimizedAffinity 1.84269214
REMARK minimizedRMSD -1
REMARK  0 active torsions:
REMARK  status: ('A' for Active; 'I' for Inactive)
ROOT
ATOM      1  C   UNL d   1       0.381   0.338  -1.788  0.00  0.00     0.078 C 
ATOM      2  C1  UNL d   1       0.719  -0.931  -1.063  0.00  0.00    -0.077 A 
ATOM      3  C2  UNL d   1       2.009  -1.473  -1.124  0.00  0.00    -0.001 A 
ATOM      4  C3  UNL d   1       2.308  -2.660  -0.452  0.00  0.00     0.003 A 
ATOM      5  C4  UNL d   1       1.322  -3.315   0.283  0.00  0.00    -0.005 A 
ATOM      6  C5  UNL d   1       0.035  -2.784   0.347  0.00  0.00     0.003 A 
ATOM      7  C6  UNL d   1      -0.265  -1.598  -0.324  0.00  0.00    -0.001 A 
ENDROOT
TORSDOF 0
ENDMDL
