MODEL 1
REMARK minimizedAffinity -2.86965966
REMARK minimizedRMSD -1
REMARK  0 active torsions:
REMARK  status: ('A' for Active; 'I' for Inactive)
ROOT
ATOM      1  C   UNL d   1       1.040  -4.501   0.866  0.00  0.00     0.078 C 
ATOM      2  C1  UNL d   1       0.755  -3.159   0.261  0.00  0.00    -0.077 A 
ATOM      3  C2  UNL d   1      -0.558  -2.688   0.136  0.00  0.00    -0.001 A 
ATOM      4  C3  UNL d   1      -0.809  -1.441  -0.437  0.00  0.00     0.003 A 
ATOM      5  C4  UNL d   1       0.247  -0.654  -0.892  0.00  0.00    -0.005 A 
ATOM      6  C5  UNL d   1       1.557  -1.115  -0.774  0.00  0.00     0.003 A 
ATOM      7  C6  UNL d   1       1.810  -2.362  -0.201  0.00  0.00    -0.001 A 
ENDROOT
TORSDOF 0
ENDMDL
