MODEL 1
REMARK minimizedAffinity 0.196827769
REMARK minimizedRMSD -1
REMARK  0 active torsions:
REMARK  status: ('A' for Active; 'I' for Inactive)
ROOT
ATOM      1  C   UNL d   1       0.754  -0.042  -1.307  0.00  0.00     0.078 C 
ATOM      2  C1  UNL d   1       0.924  -1.347  -0.588  0.00  0.00    -0.077 A 
ATOM      3  C2  UNL d   1       2.173  -1.977  -0.522  0.00  0.00    -0.001 A 
ATOM      4  C3  UNL d   1       2.314  -3.196   0.142  0.00  0.00     0.003 A 
ATOM      5  C4  UNL d   1       1.211  -3.797   0.744  0.00  0.00    -0.005 A 
ATOM      6  C5  UNL d   1      -0.037  -3.180   0.681  0.00  0.00     0.003 A 
ATOM      7  C6  UNL d   1      -0.180  -1.960   0.018  0.00  0.00    -0.001 A 
ENDROOT
TORSDOF 0
ENDMDL
