MODEL 1
REMARK minimizedAffinity -4.47018433
REMARK minimizedRMSD -1
REMARK  0 active torsions:
REMARK  status: ('A' for Active; 'I' for Inactive)
ROOT
ATOM      1  C   UNL d   1       1.388  -5.396   1.146  0.00  0.00     0.078 C 
ATOM      2  C1  UNL d   1       1.247  -4.015   0.578  0.00  0.00    -0.077 A 
ATOM      3  C2  UNL d   1       0.006  -3.366   0.560  0.00  0.00    -0.001 A 
ATOM      4  C3  UNL d   1      -0.112  -2.085   0.018  0.00  0.00     0.003 A 
ATOM      5  C4  UNL d   1       1.006  -1.443  -0.511  0.00  0.00    -0.005 A 
ATOM      6  C5  UNL d   1       2.244  -2.082  -0.499  0.00  0.00     0.003 A 
ATOM      7  C6  UNL d   1       2.364  -3.363   0.042  0.00  0.00    -0.001 A 
ENDROOT
TORSDOF 0
ENDMDL
