MODEL 1
REMARK minimizedAffinity -4.56615448
REMARK minimizedRMSD -1
REMARK  0 active torsions:
REMARK  status: ('A' for Active; 'I' for Inactive)
ROOT
ATOM      1  C   UNL d   1       0.675  -4.534   0.580  0.00  0.00     0.078 C 
ATOM      2  C1  UNL d   1       0.551  -3.116   0.109  0.00  0.00    -0.077 A 
ATOM      3  C2  UNL d   1       1.660  -2.262   0.091  0.00  0.00    -0.001 A 
ATOM      4  C3  UNL d   1       1.528  -0.942  -0.341  0.00  0.00     0.003 A 
ATOM      5  C4  UNL d   1       0.287  -0.463  -0.757  0.00  0.00    -0.005 A 
ATOM      6  C5  UNL d   1      -0.823  -1.305  -0.741  0.00  0.00     0.003 A 
ATOM      7  C6  UNL d   1      -0.692  -2.625  -0.309  0.00  0.00    -0.001 A 
ENDROOT
TORSDOF 0
ENDMDL
