MODEL 1
REMARK minimizedAffinity -3.75840425
REMARK minimizedRMSD -1
REMARK  0 active torsions:
REMARK  status: ('A' for Active; 'I' for Inactive)
ROOT
ATOM      1  C   UNL d   1      -6.000  -0.733   2.330  0.00  0.00     0.078 C 
ATOM      2  C1  UNL d   1      -4.859  -0.330   3.217  0.00  0.00    -0.077 A 
ATOM      3  C2  UNL d   1      -5.036   0.615   4.235  0.00  0.00    -0.001 A 
ATOM      4  C3  UNL d   1      -3.964   0.987   5.047  0.00  0.00     0.003 A 
ATOM      5  C4  UNL d   1      -2.706   0.421   4.847  0.00  0.00    -0.005 A 
ATOM      6  C5  UNL d   1      -2.520  -0.518   3.835  0.00  0.00     0.003 A 
ATOM      7  C6  UNL d   1      -3.591  -0.892   3.023  0.00  0.00    -0.001 A 
ENDROOT
TORSDOF 0
ENDMDL
