MODEL 1
REMARK minimizedAffinity -1.83726835
REMARK minimizedRMSD -1
REMARK  0 active torsions:
REMARK  status: ('A' for Active; 'I' for Inactive)
ROOT
ATOM      1  C   UNL d   1      -3.376   2.830  -0.235  0.00  0.00     0.078 C 
ATOM      2  C1  UNL d   1      -3.829   1.735   0.684  0.00  0.00    -0.077 A 
ATOM      3  C2  UNL d   1      -4.613   0.675   0.212  0.00  0.00    -0.001 A 
ATOM      4  C3  UNL d   1      -5.036  -0.331   1.082  0.00  0.00     0.003 A 
ATOM      5  C4  UNL d   1      -4.681  -0.288   2.428  0.00  0.00    -0.005 A 
ATOM      6  C5  UNL d   1      -3.903   0.764   2.907  0.00  0.00     0.003 A 
ATOM      7  C6  UNL d   1      -3.479   1.771   2.040  0.00  0.00    -0.001 A 
ENDROOT
TORSDOF 0
ENDMDL
