MODEL 1
REMARK minimizedAffinity -1.0387435
REMARK minimizedRMSD -1
REMARK  0 active torsions:
REMARK  status: ('A' for Active; 'I' for Inactive)
ROOT
ATOM      1  C   UNL d   1       1.312  -6.000   1.132  0.00  0.00     0.078 C 
ATOM      2  C1  UNL d   1       1.776  -4.637   0.711  0.00  0.00    -0.077 A 
ATOM      3  C2  UNL d   1       1.378  -4.086  -0.513  0.00  0.00    -0.001 A 
ATOM      4  C3  UNL d   1       1.826  -2.821  -0.896  0.00  0.00     0.003 A 
ATOM      5  C4  UNL d   1       2.674  -2.096  -0.062  0.00  0.00    -0.005 A 
ATOM      6  C5  UNL d   1       3.077  -2.637   1.158  0.00  0.00     0.003 A 
ATOM      7  C6  UNL d   1       2.631  -3.902   1.543  0.00  0.00    -0.001 A 
ENDROOT
TORSDOF 0
ENDMDL
