MODEL 1
REMARK minimizedAffinity -5.58460522
REMARK minimizedRMSD -1
REMARK  0 active torsions:
REMARK  status: ('A' for Active; 'I' for Inactive)
ROOT
ATOM      1  C   UNL d   1       1.089  -5.094   0.859  0.00  0.00     0.078 C 
ATOM      2  C1  UNL d   1       1.108  -3.667   0.399  0.00  0.00    -0.077 A 
ATOM      3  C2  UNL d   1       2.302  -3.053   0.001  0.00  0.00    -0.001 A 
ATOM      4  C3  UNL d   1       2.307  -1.721  -0.415  0.00  0.00     0.003 A 
ATOM      5  C4  UNL d   1       1.120  -0.990  -0.437  0.00  0.00    -0.005 A 
ATOM      6  C5  UNL d   1      -0.073  -1.592  -0.041  0.00  0.00     0.003 A 
ATOM      7  C6  UNL d   1      -0.079  -2.924   0.376  0.00  0.00    -0.001 A 
ENDROOT
TORSDOF 0
ENDMDL
