MODEL 1
REMARK minimizedAffinity 20.4675789
REMARK minimizedRMSD -1
REMARK  0 active torsions:
REMARK  status: ('A' for Active; 'I' for Inactive)
ROOT
ATOM      1  C   UNL d   1      -4.577   4.448   5.073  0.00  0.00    -0.002 A 
ATOM      2  C1  UNL d   1      -5.527   4.041   5.999  0.00  0.00     0.010 A 
ATOM      3  C2  UNL d   1      -6.000   2.727   6.000  0.00  0.00     0.041 A 
ATOM      4  C3  UNL d   1      -5.496   1.821   5.046  0.00  0.00    -0.075 A 
ATOM      5  S   UNL d   1      -5.928   0.162   4.859  0.00  0.00     0.015 SA
ATOM      6  C4  UNL d   1      -4.861  -0.045   3.547  0.00  0.00     0.022 A 
ATOM      7  C5  UNL d   1      -4.184   1.113   3.245  0.00  0.00     0.026 A 
ATOM      8  C6  UNL d   1      -4.538   2.207   4.105  0.00  0.00    -0.082 A 
ATOM      9  C7  UNL d   1      -4.079   3.546   4.129  0.00  0.00     0.045 A 
ENDROOT
TORSDOF 0
ENDMDL
