MODEL 1
REMARK minimizedAffinity 23.476881
REMARK minimizedRMSD -1
REMARK  0 active torsions:
REMARK  status: ('A' for Active; 'I' for Inactive)
ROOT
ATOM      1  C   UNL d   1       0.659   0.971   3.892  0.00  0.00    -0.002 A 
ATOM      2  C1  UNL d   1       0.115  -0.303   3.820  0.00  0.00     0.010 A 
ATOM      3  C2  UNL d   1      -1.266  -0.480   3.717  0.00  0.00     0.041 A 
ATOM      4  C3  UNL d   1      -2.099   0.656   3.687  0.00  0.00    -0.075 A 
ATOM      5  S   UNL d   1      -3.818   0.681   3.564  0.00  0.00     0.015 SA
ATOM      6  C4  UNL d   1      -3.871   2.384   3.605  0.00  0.00     0.022 A 
ATOM      7  C5  UNL d   1      -2.616   2.936   3.709  0.00  0.00     0.026 A 
ATOM      8  C6  UNL d   1      -1.574   1.949   3.758  0.00  0.00    -0.082 A 
ATOM      9  C7  UNL d   1      -0.170   2.096   3.862  0.00  0.00     0.045 A 
ENDROOT
TORSDOF 0
ENDMDL
