MODEL 1
REMARK minimizedAffinity 11.6267138
REMARK minimizedRMSD -1
REMARK  0 active torsions:
REMARK  status: ('A' for Active; 'I' for Inactive)
ROOT
ATOM      1  C   UNL d   1      -4.951   3.403   5.116  0.00  0.00    -0.002 A 
ATOM      2  C1  UNL d   1      -5.663   2.604   5.999  0.00  0.00     0.010 A 
ATOM      3  C2  UNL d   1      -5.999   1.292   5.657  0.00  0.00     0.041 A 
ATOM      4  C3  UNL d   1      -5.600   0.792   4.402  0.00  0.00    -0.075 A 
ATOM      5  S   UNL d   1      -5.898  -0.784   3.769  0.00  0.00     0.015 SA
ATOM      6  C4  UNL d   1      -5.086  -0.433   2.312  0.00  0.00     0.022 A 
ATOM      7  C5  UNL d   1      -4.594   0.850   2.292  0.00  0.00     0.026 A 
ATOM      8  C6  UNL d   1      -4.882   1.578   3.496  0.00  0.00    -0.082 A 
ATOM      9  C7  UNL d   1      -4.558   2.904   3.872  0.00  0.00     0.045 A 
ENDROOT
TORSDOF 0
ENDMDL
