MODEL 1
REMARK minimizedAffinity 20.8657207
REMARK minimizedRMSD -1
REMARK  0 active torsions:
REMARK  status: ('A' for Active; 'I' for Inactive)
ROOT
ATOM      1  C   UNL d   1      -0.348  -4.471  -3.863  0.00  0.00    -0.002 A 
ATOM      2  C1  UNL d   1      -0.760  -5.715  -3.406  0.00  0.00     0.010 A 
ATOM      3  C2  UNL d   1      -1.981  -5.859  -2.745  0.00  0.00     0.041 A 
ATOM      4  C3  UNL d   1      -2.790  -4.722  -2.551  0.00  0.00    -0.075 A 
ATOM      5  S   UNL d   1      -4.326  -4.659  -1.770  0.00  0.00     0.015 SA
ATOM      6  C4  UNL d   1      -4.471  -2.980  -2.026  0.00  0.00     0.022 A 
ATOM      7  C5  UNL d   1      -3.383  -2.464  -2.690  0.00  0.00     0.026 A 
ATOM      8  C6  UNL d   1      -2.397  -3.459  -3.004  0.00  0.00    -0.082 A 
ATOM      9  C7  UNL d   1      -1.153  -3.345  -3.670  0.00  0.00     0.045 A 
ENDROOT
TORSDOF 0
ENDMDL
