MODEL 1
REMARK minimizedAffinity 27.9870415
REMARK minimizedRMSD -1
REMARK  0 active torsions:
REMARK  status: ('A' for Active; 'I' for Inactive)
ROOT
ATOM      1  C   UNL d   1      -2.039  -2.163   0.672  0.00  0.00    -0.002 A 
ATOM      2  C1  UNL d   1      -2.137  -3.470   1.129  0.00  0.00     0.010 A 
ATOM      3  C2  UNL d   1      -2.726  -4.457   0.336  0.00  0.00     0.041 A 
ATOM      4  C3  UNL d   1      -3.218  -4.105  -0.937  0.00  0.00    -0.075 A 
ATOM      5  S   UNL d   1      -3.978  -5.146  -2.082  0.00  0.00     0.015 SA
ATOM      6  C4  UNL d   1      -4.190  -3.881  -3.204  0.00  0.00     0.022 A 
ATOM      7  C5  UNL d   1      -3.699  -2.687  -2.732  0.00  0.00     0.026 A 
ATOM      8  C6  UNL d   1      -3.130  -2.796  -1.418  0.00  0.00    -0.082 A 
ATOM      9  C7  UNL d   1      -2.529  -1.818  -0.590  0.00  0.00     0.045 A 
ENDROOT
TORSDOF 0
ENDMDL
