MODEL 1
REMARK minimizedAffinity 17.8622856
REMARK minimizedRMSD -1
REMARK  0 active torsions:
REMARK  status: ('A' for Active; 'I' for Inactive)
ROOT
ATOM      1  C   UNL d   1       4.121   1.882  -3.398  0.00  0.00    -0.002 A 
ATOM      2  C1  UNL d   1       3.380   1.318  -4.428  0.00  0.00     0.010 A 
ATOM      3  C2  UNL d   1       2.622   2.123  -5.280  0.00  0.00     0.041 A 
ATOM      4  C3  UNL d   1       2.622   3.518  -5.080  0.00  0.00    -0.075 A 
ATOM      5  S   UNL d   1       1.769   4.700  -6.000  0.00  0.00     0.015 SA
ATOM      6  C4  UNL d   1       2.368   5.981  -5.049  0.00  0.00     0.022 A 
ATOM      7  C5  UNL d   1       3.200   5.536  -4.049  0.00  0.00     0.026 A 
ATOM      8  C6  UNL d   1       3.360   4.109  -4.051  0.00  0.00    -0.082 A 
ATOM      9  C7  UNL d   1       4.118   3.266  -3.203  0.00  0.00     0.045 A 
ENDROOT
TORSDOF 0
ENDMDL
