MODEL 1
REMARK minimizedAffinity 16.250843
REMARK minimizedRMSD -1
REMARK  0 active torsions:
REMARK  status: ('A' for Active; 'I' for Inactive)
ROOT
ATOM      1  C   UNL d   1      -1.913  -2.958   0.935  0.00  0.00    -0.002 A 
ATOM      2  C1  UNL d   1      -1.916  -3.348   2.266  0.00  0.00     0.010 A 
ATOM      3  C2  UNL d   1      -1.267  -2.579   3.234  0.00  0.00     0.041 A 
ATOM      4  C3  UNL d   1      -0.610  -1.398   2.837  0.00  0.00    -0.075 A 
ATOM      5  S   UNL d   1       0.251  -0.297   3.847  0.00  0.00     0.015 SA
ATOM      6  C4  UNL d   1       0.642   0.718   2.536  0.00  0.00     0.022 A 
ATOM      7  C5  UNL d   1       0.136   0.244   1.348  0.00  0.00     0.026 A 
ATOM      8  C6  UNL d   1      -0.593  -0.983   1.502  0.00  0.00    -0.082 A 
ATOM      9  C7  UNL d   1      -1.260  -1.785   0.545  0.00  0.00     0.045 A 
ENDROOT
TORSDOF 0
ENDMDL
