MODEL 1
REMARK minimizedAffinity 19.2317715
REMARK minimizedRMSD -1
REMARK  0 active torsions:
REMARK  status: ('A' for Active; 'I' for Inactive)
ROOT
ATOM      1  C   UNL d   1       2.578   0.155   1.136  0.00  0.00    -0.002 A 
ATOM      2  C1  UNL d   1       1.594   1.133   1.134  0.00  0.00     0.010 A 
ATOM      3  C2  UNL d   1       1.451   1.994   0.044  0.00  0.00     0.041 A 
ATOM      4  C3  UNL d   1       2.321   1.854  -1.054  0.00  0.00    -0.075 A 
ATOM      5  S   UNL d   1       2.332   2.795  -2.499  0.00  0.00     0.015 SA
ATOM      6  C4  UNL d   1       3.644   1.921  -3.147  0.00  0.00     0.022 A 
ATOM      7  C5  UNL d   1       4.075   0.932  -2.296  0.00  0.00     0.026 A 
ATOM      8  C6  UNL d   1       3.320   0.876  -1.076  0.00  0.00    -0.082 A 
ATOM      9  C7  UNL d   1       3.440   0.019   0.044  0.00  0.00     0.045 A 
ENDROOT
TORSDOF 0
ENDMDL
