MODEL 1
REMARK minimizedAffinity 17.9311028
REMARK minimizedRMSD -1
REMARK  0 active torsions:
REMARK  status: ('A' for Active; 'I' for Inactive)
ROOT
ATOM      1  C   UNL d   1      -4.000   2.535   2.263  0.00  0.00    -0.002 A 
ATOM      2  C1  UNL d   1      -3.307   2.225   3.425  0.00  0.00     0.010 A 
ATOM      3  C2  UNL d   1      -3.496   2.976   4.587  0.00  0.00     0.041 A 
ATOM      4  C3  UNL d   1      -4.404   4.053   4.561  0.00  0.00    -0.075 A 
ATOM      5  S   UNL d   1      -4.798   5.112   5.864  0.00  0.00     0.015 SA
ATOM      6  C4  UNL d   1      -5.896   5.999   4.910  0.00  0.00     0.022 A 
ATOM      7  C5  UNL d   1      -5.972   5.514   3.626  0.00  0.00     0.026 A 
ATOM      8  C6  UNL d   1      -5.114   4.384   3.404  0.00  0.00    -0.082 A 
ATOM      9  C7  UNL d   1      -4.899   3.604   2.242  0.00  0.00     0.045 A 
ENDROOT
TORSDOF 0
ENDMDL
