MODEL 1
REMARK minimizedAffinity 22.709177
REMARK minimizedRMSD -1
REMARK  0 active torsions:
REMARK  status: ('A' for Active; 'I' for Inactive)
ROOT
ATOM      1  C   UNL d   1      -1.340  -5.100  -3.321  0.00  0.00    -0.002 A 
ATOM      2  C1  UNL d   1      -1.588  -3.800  -3.739  0.00  0.00     0.010 A 
ATOM      3  C2  UNL d   1      -2.877  -3.268  -3.677  0.00  0.00     0.041 A 
ATOM      4  C3  UNL d   1      -3.923  -4.071  -3.182  0.00  0.00    -0.075 A 
ATOM      5  S   UNL d   1      -5.582  -3.631  -3.013  0.00  0.00     0.015 SA
ATOM      6  C4  UNL d   1      -6.000  -5.158  -2.382  0.00  0.00     0.022 A 
ATOM      7  C5  UNL d   1      -4.913  -5.996  -2.295  0.00  0.00     0.026 A 
ATOM      8  C6  UNL d   1      -3.698  -5.383  -2.754  0.00  0.00    -0.082 A 
ATOM      9  C7  UNL d   1      -2.380  -5.894  -2.830  0.00  0.00     0.045 A 
ENDROOT
TORSDOF 0
ENDMDL
