MODEL 1
REMARK minimizedAffinity 14.7335873
REMARK minimizedRMSD -1
REMARK  0 active torsions:
REMARK  status: ('A' for Active; 'I' for Inactive)
ROOT
ATOM      1  C   UNL d   1       2.524   4.627  -5.493  0.00  0.00    -0.002 A 
ATOM      2  C1  UNL d   1       1.515   4.102  -4.698  0.00  0.00     0.010 A 
ATOM      3  C2  UNL d   1       1.807   3.159  -3.710  0.00  0.00     0.041 A 
ATOM      4  C3  UNL d   1       3.143   2.750  -3.532  0.00  0.00    -0.075 A 
ATOM      5  S   UNL d   1       3.737   1.608  -2.385  0.00  0.00     0.015 SA
ATOM      6  C4  UNL d   1       5.344   1.792  -2.922  0.00  0.00     0.022 A 
ATOM      7  C5  UNL d   1       5.443   2.697  -3.952  0.00  0.00     0.026 A 
ATOM      8  C6  UNL d   1       4.177   3.265  -4.320  0.00  0.00    -0.082 A 
ATOM      9  C7  UNL d   1       3.848   4.219  -5.313  0.00  0.00     0.045 A 
ENDROOT
TORSDOF 0
ENDMDL
