MODEL 1
REMARK minimizedAffinity 12.9813032
REMARK minimizedRMSD -1
REMARK  0 active torsions:
REMARK  status: ('A' for Active; 'I' for Inactive)
ROOT
ATOM      1  C   UNL d   1       0.365   2.437   2.345  0.00  0.00    -0.002 A 
ATOM      2  C1  UNL d   1       0.361   1.128   2.808  0.00  0.00     0.010 A 
ATOM      3  C2  UNL d   1       1.103   0.142   2.155  0.00  0.00     0.041 A 
ATOM      4  C3  UNL d   1       1.857   0.496   1.019  0.00  0.00    -0.075 A 
ATOM      5  S   UNL d   1       2.842  -0.544   0.060  0.00  0.00     0.015 SA
ATOM      6  C4  UNL d   1       3.292   0.724  -0.986  0.00  0.00     0.022 A 
ATOM      7  C5  UNL d   1       2.714   1.918  -0.627  0.00  0.00     0.026 A 
ATOM      8  C6  UNL d   1       1.878   1.807   0.535  0.00  0.00    -0.082 A 
ATOM      9  C7  UNL d   1       1.115   2.784   1.218  0.00  0.00     0.045 A 
ENDROOT
TORSDOF 0
ENDMDL
