MODEL 1
REMARK minimizedAffinity 16.4237537
REMARK minimizedRMSD -1
REMARK  0 active torsions:
REMARK  status: ('A' for Active; 'I' for Inactive)
ROOT
ATOM      1  C   UNL d   1       4.687   1.863  -2.639  0.00  0.00    -0.002 A 
ATOM      2  C1  UNL d   1       5.643   2.215  -3.581  0.00  0.00     0.010 A 
ATOM      3  C2  UNL d   1       5.311   3.042  -4.656  0.00  0.00     0.041 A 
ATOM      4  C3  UNL d   1       3.990   3.517  -4.768  0.00  0.00    -0.075 A 
ATOM      5  S   UNL d   1       3.354   4.543  -5.999  0.00  0.00     0.015 SA
ATOM      6  C4  UNL d   1       1.798   4.539  -5.303  0.00  0.00     0.022 A 
ATOM      7  C5  UNL d   1       1.747   3.778  -4.159  0.00  0.00     0.026 A 
ATOM      8  C6  UNL d   1       3.009   3.177  -3.831  0.00  0.00    -0.082 A 
ATOM      9  C7  UNL d   1       3.377   2.335  -2.754  0.00  0.00     0.045 A 
ENDROOT
TORSDOF 0
ENDMDL
