MODEL 1
REMARK minimizedAffinity 3.86998987
REMARK minimizedRMSD -1
REMARK  0 active torsions:
REMARK  status: ('A' for Active; 'I' for Inactive)
ROOT
ATOM      1  C   UNL d   1       1.512   4.089  -5.643  0.00  0.00    -0.002 A 
ATOM      2  C1  UNL d   1       2.094   5.298  -6.000  0.00  0.00     0.010 A 
ATOM      3  C2  UNL d   1       3.480   5.460  -5.953  0.00  0.00     0.041 A 
ATOM      4  C3  UNL d   1       4.279   4.376  -5.540  0.00  0.00    -0.075 A 
ATOM      5  S   UNL d   1       5.998   4.343  -5.406  0.00  0.00     0.015 SA
ATOM      6  C4  UNL d   1       6.000   2.724  -4.874  0.00  0.00     0.022 A 
ATOM      7  C5  UNL d   1       4.729   2.205  -4.794  0.00  0.00     0.026 A 
ATOM      8  C6  UNL d   1       3.716   3.149  -5.177  0.00  0.00    -0.082 A 
ATOM      9  C7  UNL d   1       2.308   3.016  -5.234  0.00  0.00     0.045 A 
ENDROOT
TORSDOF 0
ENDMDL
