MODEL 1
REMARK minimizedAffinity -1.97923183
REMARK minimizedRMSD -1
REMARK  0 active torsions:
REMARK  status: ('A' for Active; 'I' for Inactive)
ROOT
ATOM      1  C2' OXE d   1       1.089  -1.037  -0.628  0.00  0.00     0.078 C 
ATOM      2  C1' OXE d   1       0.462  -1.232   2.101  0.00  0.00     0.078 C 
ATOM      3  C1  OXE d   1      -0.020  -0.014   1.354  0.00  0.00    -0.078 A 
ATOM      4  C2  OXE d   1       0.331   0.096   0.030  0.00  0.00    -0.078 A 
ATOM      5  C3  OXE d   1      -0.133   1.173  -0.720  0.00  0.00     0.003 A 
ATOM      6  C4  OXE d   1      -0.825   2.221  -0.101  0.00  0.00    -0.002 A 
ATOM      7  C5  OXE d   1      -1.159   2.149   1.255  0.00  0.00    -0.002 A 
ATOM      8  C6  OXE d   1      -0.802   1.021   1.986  0.00  0.00     0.003 A 
ENDROOT
TORSDOF 0
ENDMDL
