MODEL 1
REMARK minimizedAffinity -3.73915434
REMARK minimizedRMSD -1
REMARK  0 active torsions:
REMARK  status: ('A' for Active; 'I' for Inactive)
ROOT
ATOM      1  C2' OXE d   1       1.215   1.549  -1.689  0.00  0.00     0.078 C 
ATOM      2  C1' OXE d   1       0.871  -1.087  -0.786  0.00  0.00     0.078 C 
ATOM      3  C1  OXE d   1       0.282   0.024   0.046  0.00  0.00    -0.078 A 
ATOM      4  C2  OXE d   1       0.496   1.313  -0.378  0.00  0.00    -0.078 A 
ATOM      5  C3  OXE d   1      -0.072   2.373   0.323  0.00  0.00     0.003 A 
ATOM      6  C4  OXE d   1      -0.728   2.147   1.540  0.00  0.00    -0.002 A 
ATOM      7  C5  OXE d   1      -0.922   0.845   2.011  0.00  0.00    -0.002 A 
ATOM      8  C6  OXE d   1      -0.461  -0.229   1.256  0.00  0.00     0.003 A 
ENDROOT
TORSDOF 0
ENDMDL
