MODEL 1
REMARK minimizedAffinity -4.03050137
REMARK minimizedRMSD -1
REMARK  0 active torsions:
REMARK  status: ('A' for Active; 'I' for Inactive)
ROOT
ATOM      1  C2' OXE d   1      -1.492   1.888   1.475  0.00  0.00     0.078 C 
ATOM      2  C1' OXE d   1      -0.564  -0.650   2.236  0.00  0.00     0.078 C 
ATOM      3  C1  OXE d   1      -0.104  -0.101   0.908  0.00  0.00    -0.078 A 
ATOM      4  C2  OXE d   1      -0.600   1.121   0.523  0.00  0.00    -0.078 A 
ATOM      5  C3  OXE d   1      -0.165   1.698  -0.667  0.00  0.00     0.003 A 
ATOM      6  C4  OXE d   1       0.653   0.977  -1.546  0.00  0.00    -0.002 A 
ATOM      7  C5  OXE d   1       1.137  -0.286  -1.191  0.00  0.00    -0.002 A 
ATOM      8  C6  OXE d   1       0.803  -0.820   0.048  0.00  0.00     0.003 A 
ENDROOT
TORSDOF 0
ENDMDL
