MODEL 1
REMARK minimizedAffinity 0.466249377
REMARK minimizedRMSD -1
REMARK  0 active torsions:
REMARK  status: ('A' for Active; 'I' for Inactive)
ROOT
ATOM      1  C2' OXE d   1       0.765   0.558  -1.479  0.00  0.00     0.078 C 
ATOM      2  C1' OXE d   1       1.612  -0.881   0.777  0.00  0.00     0.078 C 
ATOM      3  C1  OXE d   1       1.318  -1.657  -0.482  0.00  0.00    -0.078 A 
ATOM      4  C2  OXE d   1       0.859  -0.950  -1.568  0.00  0.00    -0.078 A 
ATOM      5  C3  OXE d   1       0.625  -1.609  -2.771  0.00  0.00     0.003 A 
ATOM      6  C4  OXE d   1       0.705  -3.005  -2.841  0.00  0.00    -0.002 A 
ATOM      7  C5  OXE d   1       1.132  -3.749  -1.736  0.00  0.00    -0.002 A 
ATOM      8  C6  OXE d   1       1.482  -3.087  -0.564  0.00  0.00     0.003 A 
ENDROOT
TORSDOF 0
ENDMDL
