MODEL 1
REMARK minimizedAffinity 0.268029332
REMARK minimizedRMSD -1
REMARK  0 active torsions:
REMARK  status: ('A' for Active; 'I' for Inactive)
ROOT
ATOM      1  C2' OXE d   1       0.178   0.943  -1.108  0.00  0.00     0.078 C 
ATOM      2  C1' OXE d   1       1.016  -0.999   0.737  0.00  0.00     0.078 C 
ATOM      3  C1  OXE d   1       0.721  -1.448  -0.672  0.00  0.00    -0.078 A 
ATOM      4  C2  OXE d   1       0.266  -0.499  -1.556  0.00  0.00    -0.078 A 
ATOM      5  C3  OXE d   1       0.032  -0.849  -2.883  0.00  0.00     0.003 A 
ATOM      6  C4  OXE d   1       0.107  -2.188  -3.286  0.00  0.00    -0.002 A 
ATOM      7  C5  OXE d   1       0.529  -3.177  -2.392  0.00  0.00    -0.002 A 
ATOM      8  C6  OXE d   1       0.880  -2.818  -1.095  0.00  0.00     0.003 A 
ENDROOT
TORSDOF 0
ENDMDL
