MODEL 1
REMARK minimizedAffinity -1.86510623
REMARK minimizedRMSD -1
REMARK  0 active torsions:
REMARK  status: ('A' for Active; 'I' for Inactive)
ROOT
ATOM      1  C2' OXE d   1       0.980  -0.577  -1.162  0.00  0.00     0.078 C 
ATOM      2  C1' OXE d   1       0.357   2.147  -1.431  0.00  0.00     0.078 C 
ATOM      3  C1  OXE d   1      -0.128   1.433  -0.194  0.00  0.00    -0.078 A 
ATOM      4  C2  OXE d   1       0.141   0.089  -0.093  0.00  0.00    -0.078 A 
ATOM      5  C3  OXE d   1      -0.237  -0.605   1.052  0.00  0.00     0.003 A 
ATOM      6  C4  OXE d   1      -1.021   0.016   2.032  0.00  0.00    -0.002 A 
ATOM      7  C5  OXE d   1      -1.341   1.374   1.929  0.00  0.00    -0.002 A 
ATOM      8  C6  OXE d   1      -0.867   2.106   0.846  0.00  0.00     0.003 A 
ENDROOT
TORSDOF 0
ENDMDL
