MODEL 1
REMARK minimizedAffinity -1.28266895
REMARK minimizedRMSD -1
REMARK  0 active torsions:
REMARK  status: ('A' for Active; 'I' for Inactive)
ROOT
ATOM      1  C2' OXE d   1       1.487  -0.037  -1.248  0.00  0.00     0.078 C 
ATOM      2  C1' OXE d   1       0.003   2.298  -0.772  0.00  0.00     0.078 C 
ATOM      3  C1  OXE d   1      -0.201   1.132   0.163  0.00  0.00    -0.078 A 
ATOM      4  C2  OXE d   1       0.494  -0.022  -0.105  0.00  0.00    -0.078 A 
ATOM      5  C3  OXE d   1       0.384  -1.110   0.757  0.00  0.00     0.003 A 
ATOM      6  C4  OXE d   1      -0.543  -1.092   1.805  0.00  0.00    -0.002 A 
ATOM      7  C5  OXE d   1      -1.291   0.060   2.072  0.00  0.00    -0.002 A 
ATOM      8  C6  OXE d   1      -1.101   1.193   1.288  0.00  0.00     0.003 A 
ENDROOT
TORSDOF 0
ENDMDL
