MODEL 1
REMARK minimizedAffinity 3.75686812
REMARK minimizedRMSD -1
REMARK  0 active torsions:
REMARK  status: ('A' for Active; 'I' for Inactive)
ROOT
ATOM      1  C2' OXE d   1       1.484   1.687  -2.175  0.00  0.00     0.078 C 
ATOM      2  C1' OXE d   1      -0.958   2.123  -0.861  0.00  0.00     0.078 C 
ATOM      3  C1  OXE d   1      -0.054   1.041  -0.325  0.00  0.00    -0.078 A 
ATOM      4  C2  OXE d   1       1.118   0.803  -1.003  0.00  0.00    -0.078 A 
ATOM      5  C3  OXE d   1       2.013  -0.146  -0.519  0.00  0.00     0.003 A 
ATOM      6  C4  OXE d   1       1.662  -0.966   0.560  0.00  0.00    -0.002 A 
ATOM      7  C5  OXE d   1       0.456  -0.768   1.240  0.00  0.00    -0.002 A 
ATOM      8  C6  OXE d   1      -0.392   0.258   0.837  0.00  0.00     0.003 A 
ENDROOT
TORSDOF 0
ENDMDL
