MODEL 1
REMARK minimizedAffinity -0.544825554
REMARK minimizedRMSD -1
REMARK  0 active torsions:
REMARK  status: ('A' for Active; 'I' for Inactive)
ROOT
ATOM      1  C2' OXE d   1      -1.182   1.477   2.262  0.00  0.00     0.078 C 
ATOM      2  C1' OXE d   1       0.520  -0.740   2.531  0.00  0.00     0.078 C 
ATOM      3  C1  OXE d   1       0.279  -0.201   1.143  0.00  0.00    -0.078 A 
ATOM      4  C2  OXE d   1      -0.591   0.854   1.016  0.00  0.00    -0.078 A 
ATOM      5  C3  OXE d   1      -0.806   1.424  -0.236  0.00  0.00     0.003 A 
ATOM      6  C4  OXE d   1      -0.264   0.835  -1.385  0.00  0.00    -0.002 A 
ATOM      7  C5  OXE d   1       0.594  -0.265  -1.282  0.00  0.00    -0.002 A 
ATOM      8  C6  OXE d   1       0.909  -0.768  -0.025  0.00  0.00     0.003 A 
ENDROOT
TORSDOF 0
ENDMDL
