MODEL 1
REMARK minimizedAffinity -2.67787147
REMARK minimizedRMSD -1
REMARK  0 active torsions:
REMARK  status: ('A' for Active; 'I' for Inactive)
ROOT
ATOM      1  C2' OXE d   1       1.679   0.083  -1.186  0.00  0.00     0.078 C 
ATOM      2  C1' OXE d   1       0.358   2.534  -0.831  0.00  0.00     0.078 C 
ATOM      3  C1  OXE d   1      -0.002   1.400   0.096  0.00  0.00    -0.078 A 
ATOM      4  C2  OXE d   1       0.615   0.191  -0.114  0.00  0.00    -0.078 A 
ATOM      5  C3  OXE d   1       0.360  -0.873   0.747  0.00  0.00     0.003 A 
ATOM      6  C4  OXE d   1      -0.633  -0.768   1.729  0.00  0.00    -0.002 A 
ATOM      7  C5  OXE d   1      -1.302   0.443   1.934  0.00  0.00    -0.002 A 
ATOM      8  C6  OXE d   1      -0.969   1.547   1.156  0.00  0.00     0.003 A 
ENDROOT
TORSDOF 0
ENDMDL
