MODEL 1
REMARK minimizedAffinity -2.06210876
REMARK minimizedRMSD -1
REMARK  0 active torsions:
REMARK  status: ('A' for Active; 'I' for Inactive)
ROOT
ATOM      1  C2' OXE d   1       1.280   0.420  -1.339  0.00  0.00     0.078 C 
ATOM      2  C1' OXE d   1      -0.054  -2.030  -1.023  0.00  0.00     0.078 C 
ATOM      3  C1  OXE d   1      -0.349  -0.935  -0.029  0.00  0.00    -0.078 A 
ATOM      4  C2  OXE d   1       0.343   0.245  -0.164  0.00  0.00    -0.078 A 
ATOM      5  C3  OXE d   1       0.069   1.307   0.694  0.00  0.00     0.003 A 
ATOM      6  C4  OXE d   1      -0.791   1.133   1.784  0.00  0.00    -0.002 A 
ATOM      7  C5  OXE d   1      -1.477  -0.073   1.963  0.00  0.00    -0.002 A 
ATOM      8  C6  OXE d   1      -1.300  -1.100   1.043  0.00  0.00     0.003 A 
ENDROOT
TORSDOF 0
ENDMDL
