MODEL 1
REMARK minimizedAffinity -2.25326419
REMARK minimizedRMSD -1
REMARK  0 active torsions:
REMARK  status: ('A' for Active; 'I' for Inactive)
ROOT
ATOM      1  C2' OXE d   1       0.602  -1.778  -0.444  0.00  0.00     0.078 C 
ATOM      2  C1' OXE d   1      -0.486  -1.686   2.142  0.00  0.00     0.078 C 
ATOM      3  C1  OXE d   1      -0.489  -0.414   1.332  0.00  0.00    -0.078 A 
ATOM      4  C2  OXE d   1       0.088  -0.457   0.086  0.00  0.00    -0.078 A 
ATOM      5  C3  OXE d   1       0.063   0.675  -0.725  0.00  0.00     0.003 A 
ATOM      6  C4  OXE d   1      -0.405   1.896  -0.224  0.00  0.00    -0.002 A 
ATOM      7  C5  OXE d   1      -0.960   1.971   1.058  0.00  0.00    -0.002 A 
ATOM      8  C6  OXE d   1      -1.048   0.818   1.831  0.00  0.00     0.003 A 
ENDROOT
TORSDOF 0
ENDMDL
