MODEL 1
REMARK minimizedAffinity -1.61759508
REMARK minimizedRMSD -1
REMARK  0 active torsions:
REMARK  status: ('A' for Active; 'I' for Inactive)
ROOT
ATOM      1  C2' OXE d   1       0.643  -1.119  -0.639  0.00  0.00     0.078 C 
ATOM      2  C1' OXE d   1       0.479   1.569  -1.430  0.00  0.00     0.078 C 
ATOM      3  C1  OXE d   1      -0.042   1.205  -0.062  0.00  0.00    -0.078 A 
ATOM      4  C2  OXE d   1      -0.000  -0.120   0.298  0.00  0.00    -0.078 A 
ATOM      5  C3  OXE d   1      -0.417  -0.502   1.570  0.00  0.00     0.003 A 
ATOM      6  C4  OXE d   1      -1.020   0.427   2.427  0.00  0.00    -0.002 A 
ATOM      7  C5  OXE d   1      -1.109   1.775   2.064  0.00  0.00    -0.002 A 
ATOM      8  C6  OXE d   1      -0.587   2.187   0.843  0.00  0.00     0.003 A 
ENDROOT
TORSDOF 0
ENDMDL
