MODEL 1
REMARK minimizedAffinity -0.306464672
REMARK minimizedRMSD -1
REMARK  0 active torsions:
REMARK  status: ('A' for Active; 'I' for Inactive)
ROOT
ATOM      1  C2' OXE d   1       1.027  -1.751  -0.643  0.00  0.00     0.078 C 
ATOM      2  C1' OXE d   1       0.902   0.997  -1.203  0.00  0.00     0.078 C 
ATOM      3  C1  OXE d   1       0.221   0.502   0.049  0.00  0.00    -0.078 A 
ATOM      4  C2  OXE d   1       0.248  -0.850   0.291  0.00  0.00    -0.078 A 
ATOM      5  C3  OXE d   1      -0.318  -1.353   1.459  0.00  0.00     0.003 A 
ATOM      6  C4  OXE d   1      -1.046  -0.514   2.312  0.00  0.00    -0.002 A 
ATOM      7  C5  OXE d   1      -1.119   0.860   2.063  0.00  0.00    -0.002 A 
ATOM      8  C6  OXE d   1      -0.457   1.390   0.961  0.00  0.00     0.003 A 
ENDROOT
TORSDOF 0
ENDMDL
