MODEL 1
REMARK minimizedAffinity -4.57085943
REMARK minimizedRMSD -1
REMARK  0 active torsions:
REMARK  status: ('A' for Active; 'I' for Inactive)
ROOT
ATOM      1  C2' OXE d   1      -1.107  -0.118   1.783  0.00  0.00     0.078 C 
ATOM      2  C1' OXE d   1       0.557  -0.726  -0.395  0.00  0.00     0.078 C 
ATOM      3  C1  OXE d   1       0.238   0.725  -0.138  0.00  0.00    -0.078 A 
ATOM      4  C2  OXE d   1      -0.615   1.010   0.902  0.00  0.00    -0.078 A 
ATOM      5  C3  OXE d   1      -0.899   2.336   1.217  0.00  0.00     0.003 A 
ATOM      6  C4  OXE d   1      -0.448   3.373   0.391  0.00  0.00    -0.002 A 
ATOM      7  C5  OXE d   1       0.389   3.101  -0.696  0.00  0.00    -0.002 A 
ATOM      8  C6  OXE d   1       0.775   1.790  -0.949  0.00  0.00     0.003 A 
ENDROOT
TORSDOF 0
ENDMDL
