MODEL 1
REMARK minimizedAffinity -6.01267242
REMARK minimizedRMSD -1
REMARK  0 active torsions:
REMARK  status: ('A' for Active; 'I' for Inactive)
ROOT
ATOM      1  C2' OXE d   1       1.143   0.739  -0.813  0.00  0.00     0.078 C 
ATOM      2  C1' OXE d   1      -0.275  -0.495   1.271  0.00  0.00     0.078 C 
ATOM      3  C1  OXE d   1      -0.631   0.929   0.926  0.00  0.00    -0.078 A 
ATOM      4  C2  OXE d   1       0.100   1.541  -0.064  0.00  0.00    -0.078 A 
ATOM      5  C3  OXE d   1      -0.224   2.836  -0.460  0.00  0.00     0.003 A 
ATOM      6  C4  OXE d   1      -1.183   3.573   0.245  0.00  0.00    -0.002 A 
ATOM      7  C5  OXE d   1      -1.911   2.982   1.283  0.00  0.00    -0.002 A 
ATOM      8  C6  OXE d   1      -1.678   1.650   1.607  0.00  0.00     0.003 A 
ENDROOT
TORSDOF 0
ENDMDL
