MODEL 1
REMARK minimizedAffinity -4.2369709
REMARK minimizedRMSD -1
REMARK  0 active torsions:
REMARK  status: ('A' for Active; 'I' for Inactive)
ROOT
ATOM      1  C2' OXE d   1      -0.112  -1.421   2.232  0.00  0.00     0.078 C 
ATOM      2  C1' OXE d   1      -1.346   1.083   1.942  0.00  0.00     0.078 C 
ATOM      3  C1  OXE d   1      -0.400   0.636   0.856  0.00  0.00    -0.078 A 
ATOM      4  C2  OXE d   1       0.235  -0.571   1.029  0.00  0.00    -0.078 A 
ATOM      5  C3  OXE d   1       1.076  -1.056   0.031  0.00  0.00     0.003 A 
ATOM      6  C4  OXE d   1       1.399  -0.258  -1.073  0.00  0.00    -0.002 A 
ATOM      7  C5  OXE d   1       0.794   0.991  -1.249  0.00  0.00    -0.002 A 
ATOM      8  C6  OXE d   1      -0.139   1.433  -0.317  0.00  0.00     0.003 A 
ENDROOT
TORSDOF 0
ENDMDL
