MODEL 1
REMARK minimizedAffinity -1.07179999
REMARK minimizedRMSD -1
REMARK  0 active torsions:
REMARK  status: ('A' for Active; 'I' for Inactive)
ROOT
ATOM      1  C2' OXE d   1       0.711  -1.631  -1.013  0.00  0.00     0.078 C 
ATOM      2  C1' OXE d   1       0.781   1.118  -1.579  0.00  0.00     0.078 C 
ATOM      3  C1  OXE d   1       0.175   0.685  -0.268  0.00  0.00    -0.078 A 
ATOM      4  C2  OXE d   1       0.103  -0.664  -0.019  0.00  0.00    -0.078 A 
ATOM      5  C3  OXE d   1      -0.397  -1.115   1.199  0.00  0.00     0.003 A 
ATOM      6  C4  OXE d   1      -0.967  -0.215   2.108  0.00  0.00    -0.002 A 
ATOM      7  C5  OXE d   1      -0.939   1.161   1.857  0.00  0.00    -0.002 A 
ATOM      8  C6  OXE d   1      -0.335   1.629   0.696  0.00  0.00     0.003 A 
ENDROOT
TORSDOF 0
ENDMDL
