MODEL 1
REMARK minimizedAffinity -3.91903543
REMARK minimizedRMSD -1
REMARK  0 active torsions:
REMARK  status: ('A' for Active; 'I' for Inactive)
ROOT
ATOM      1  C2' OXE d   1       0.588  -1.142  -0.413  0.00  0.00     0.078 C 
ATOM      2  C1' OXE d   1      -0.590  -1.235   2.133  0.00  0.00     0.078 C 
ATOM      3  C1  OXE d   1      -0.626   0.076   1.389  0.00  0.00    -0.078 A 
ATOM      4  C2  OXE d   1      -0.006   0.125   0.164  0.00  0.00    -0.078 A 
ATOM      5  C3  OXE d   1      -0.057   1.295  -0.589  0.00  0.00     0.003 A 
ATOM      6  C4  OXE d   1      -0.600   2.465  -0.044  0.00  0.00    -0.002 A 
ATOM      7  C5  OXE d   1      -1.201   2.447   1.219  0.00  0.00    -0.002 A 
ATOM      8  C6  OXE d   1      -1.260   1.253   1.929  0.00  0.00     0.003 A 
ENDROOT
TORSDOF 0
ENDMDL
