MODEL 1
REMARK minimizedAffinity -0.761834145
REMARK minimizedRMSD -1
REMARK  1 active torsions:
REMARK  status: ('A' for Active; 'I' for Inactive)
REMARK    1  A    between atoms: C1_2  and  C2_3 
ROOT
ATOM      1  C2  UNL d   1      -0.557   0.817  -1.168  0.00  0.00    -0.076 A 
ATOM      2  C3  UNL d   1      -0.532   0.577  -2.553  0.00  0.00     0.004 A 
ATOM      3  C4  UNL d   1      -1.416   1.229  -3.410  0.00  0.00    -0.003 A 
ATOM      4  C5  UNL d   1      -2.340   2.133  -2.897  0.00  0.00     0.000 A 
ATOM      5  C6  UNL d   1      -2.367   2.397  -1.528  0.00  0.00     0.000 A 
ATOM      6  C7  UNL d   1      -1.472   1.760  -0.652  0.00  0.00    -0.073 A 
ATOM      7  C8  UNL d   1      -1.550   2.079   0.816  0.00  0.00     0.078 C 
ENDROOT
BRANCH   1   8
ATOM      8  C1  UNL d   1       0.407   0.060  -0.283  0.00  0.00     0.053 C 
ATOM      9  C   UNL d   1       1.623  -0.444  -1.045  0.00  0.00     0.018 C 
ENDBRANCH   1   8
TORSDOF 1
ENDMDL
