MODEL 1
REMARK minimizedAffinity -3.25462699
REMARK minimizedRMSD -1
REMARK  1 active torsions:
REMARK  status: ('A' for Active; 'I' for Inactive)
REMARK    1  A    between atoms: C1_2  and  C2_3 
ROOT
ATOM      1  C2  UNL d   1       0.229  -0.924   1.435  0.00  0.00    -0.076 A 
ATOM      2  C3  UNL d   1       1.181  -1.955   1.354  0.00  0.00     0.004 A 
ATOM      3  C4  UNL d   1       2.021  -2.071   0.247  0.00  0.00    -0.003 A 
ATOM      4  C5  UNL d   1       1.922  -1.157  -0.796  0.00  0.00     0.000 A 
ATOM      5  C6  UNL d   1       0.995  -0.117  -0.724  0.00  0.00     0.000 A 
ATOM      6  C7  UNL d   1       0.153   0.023   0.392  0.00  0.00    -0.073 A 
ATOM      7  C8  UNL d   1      -0.833   1.160   0.414  0.00  0.00     0.078 C 
ENDROOT
BRANCH   1   8
ATOM      8  C1  UNL d   1      -0.672  -0.865   2.648  0.00  0.00     0.053 C 
ATOM      9  C   UNL d   1      -0.117  -1.651   3.825  0.00  0.00     0.018 C 
ENDBRANCH   1   8
TORSDOF 1
ENDMDL
