MODEL 1
REMARK minimizedAffinity -3.55498385
REMARK minimizedRMSD -1
REMARK  1 active torsions:
REMARK  status: ('A' for Active; 'I' for Inactive)
REMARK    1  A    between atoms: C1_2  and  C2_3 
ROOT
ATOM      1  C2  UNL d   1       0.057   0.472   0.095  0.00  0.00    -0.076 A 
ATOM      2  C3  UNL d   1       1.148   0.545  -0.788  0.00  0.00     0.004 A 
ATOM      3  C4  UNL d   1       2.264  -0.273  -0.618  0.00  0.00    -0.003 A 
ATOM      4  C5  UNL d   1       2.307  -1.177   0.437  0.00  0.00     0.000 A 
ATOM      5  C6  UNL d   1       1.226  -1.275   1.313  0.00  0.00     0.000 A 
ATOM      6  C7  UNL d   1       0.086  -0.469   1.146  0.00  0.00    -0.073 A 
ATOM      7  C8  UNL d   1      -1.048  -0.612   2.124  0.00  0.00     0.078 C 
ENDROOT
BRANCH   1   8
ATOM      8  C1  UNL d   1      -1.114   1.403  -0.123  0.00  0.00     0.053 C 
ATOM      9  C   UNL d   1      -1.760   1.218  -1.487  0.00  0.00     0.018 C 
ENDBRANCH   1   8
TORSDOF 1
ENDMDL
