MODEL 1
REMARK minimizedAffinity -1.73506141
REMARK minimizedRMSD -1
REMARK  1 active torsions:
REMARK  status: ('A' for Active; 'I' for Inactive)
REMARK    1  A    between atoms: C1_2  and  C2_3 
ROOT
ATOM      1  C2  UNL d   1      -0.326  -0.393   1.392  0.00  0.00    -0.076 A 
ATOM      2  C3  UNL d   1      -1.117   0.729   1.088  0.00  0.00     0.004 A 
ATOM      3  C4  UNL d   1      -0.772   1.588   0.046  0.00  0.00    -0.003 A 
ATOM      4  C5  UNL d   1       0.369   1.339  -0.709  0.00  0.00     0.000 A 
ATOM      5  C6  UNL d   1       1.155   0.221  -0.432  0.00  0.00     0.000 A 
ATOM      6  C7  UNL d   1       0.812  -0.664   0.604  0.00  0.00    -0.073 A 
ATOM      7  C8  UNL d   1       1.699  -1.851   0.863  0.00  0.00     0.078 C 
ENDROOT
BRANCH   1   8
ATOM      8  C1  UNL d   1      -0.735  -1.273   2.551  0.00  0.00     0.053 C 
ATOM      9  C   UNL d   1       0.424  -1.580   3.487  0.00  0.00     0.018 C 
ENDBRANCH   1   8
TORSDOF 1
ENDMDL
