MODEL 1
REMARK minimizedAffinity -1.81905639
REMARK minimizedRMSD -1
REMARK  1 active torsions:
REMARK  status: ('A' for Active; 'I' for Inactive)
REMARK    1  A    between atoms: C1_2  and  C2_3 
ROOT
ATOM      1  C2  UNL d   1      -0.124   0.109  -0.037  0.00  0.00    -0.076 A 
ATOM      2  C3  UNL d   1       1.049  -0.202  -0.746  0.00  0.00     0.004 A 
ATOM      3  C4  UNL d   1       2.016  -1.044  -0.199  0.00  0.00    -0.003 A 
ATOM      4  C5  UNL d   1       1.825  -1.588   1.066  0.00  0.00     0.000 A 
ATOM      5  C6  UNL d   1       0.659  -1.304   1.776  0.00  0.00     0.000 A 
ATOM      6  C7  UNL d   1      -0.333  -0.471   1.232  0.00  0.00    -0.073 A 
ATOM      7  C8  UNL d   1      -1.568  -0.193   2.045  0.00  0.00     0.078 C 
ENDROOT
BRANCH   1   8
ATOM      8  C1  UNL d   1      -1.125   1.050  -0.670  0.00  0.00     0.053 C 
ATOM      9  C   UNL d   1      -0.750   1.427  -2.095  0.00  0.00     0.018 C 
ENDBRANCH   1   8
TORSDOF 1
ENDMDL
