MODEL 1
REMARK minimizedAffinity 4.47963238
REMARK minimizedRMSD -1
REMARK  1 active torsions:
REMARK  status: ('A' for Active; 'I' for Inactive)
REMARK    1  A    between atoms: C1_2  and  C2_3 
ROOT
ATOM      1  C2  UNL d   1      -0.014  -0.124   1.159  0.00  0.00    -0.076 A 
ATOM      2  C3  UNL d   1      -0.490  -1.371   1.600  0.00  0.00     0.004 A 
ATOM      3  C4  UNL d   1       0.338  -2.492   1.613  0.00  0.00    -0.003 A 
ATOM      4  C5  UNL d   1       1.656  -2.384   1.184  0.00  0.00     0.000 A 
ATOM      5  C6  UNL d   1       2.151  -1.152   0.760  0.00  0.00     0.000 A 
ATOM      6  C7  UNL d   1       1.334  -0.008   0.756  0.00  0.00    -0.073 A 
ATOM      7  C8  UNL d   1       1.918   1.295   0.282  0.00  0.00     0.078 C 
ENDROOT
BRANCH   1   8
ATOM      8  C1  UNL d   1      -0.966   1.051   1.142  0.00  0.00     0.053 C 
ATOM      9  C   UNL d   1      -2.192   0.794   0.280  0.00  0.00     0.018 C 
ENDBRANCH   1   8
TORSDOF 1
ENDMDL
