MODEL 1
REMARK minimizedAffinity -2.1392653
REMARK minimizedRMSD -1
REMARK  1 active torsions:
REMARK  status: ('A' for Active; 'I' for Inactive)
REMARK    1  A    between atoms: C1_2  and  C2_3 
ROOT
ATOM      1  C2  UNL d   1      -0.727   0.780  -0.974  0.00  0.00    -0.076 A 
ATOM      2  C3  UNL d   1      -0.595   0.656  -2.368  0.00  0.00     0.004 A 
ATOM      3  C4  UNL d   1      -1.570   1.155  -3.229  0.00  0.00    -0.003 A 
ATOM      4  C5  UNL d   1      -2.695   1.787  -2.710  0.00  0.00     0.000 A 
ATOM      5  C6  UNL d   1      -2.834   1.936  -1.331  0.00  0.00     0.000 A 
ATOM      6  C7  UNL d   1      -1.852   1.452  -0.450  0.00  0.00    -0.073 A 
ATOM      7  C8  UNL d   1      -2.056   1.634   1.029  0.00  0.00     0.078 C 
ENDROOT
BRANCH   1   8
ATOM      8  C1  UNL d   1       0.350   0.195  -0.089  0.00  0.00     0.053 C 
ATOM      9  C   UNL d   1       1.288  -0.731  -0.848  0.00  0.00     0.018 C 
ENDBRANCH   1   8
TORSDOF 1
ENDMDL
