MODEL 1
REMARK minimizedAffinity -4.19438887
REMARK minimizedRMSD -1
REMARK  1 active torsions:
REMARK  status: ('A' for Active; 'I' for Inactive)
REMARK    1  A    between atoms: C1_2  and  C2_3 
ROOT
ATOM      1  C2  UNL d   1      -0.155  -0.452   1.010  0.00  0.00    -0.076 A 
ATOM      2  C3  UNL d   1      -0.797  -0.717   2.232  0.00  0.00     0.004 A 
ATOM      3  C4  UNL d   1      -0.207  -1.543   3.187  0.00  0.00    -0.003 A 
ATOM      4  C5  UNL d   1       1.035  -2.117   2.936  0.00  0.00     0.000 A 
ATOM      5  C6  UNL d   1       1.693  -1.850   1.736  0.00  0.00     0.000 A 
ATOM      6  C7  UNL d   1       1.120  -1.007   0.769  0.00  0.00    -0.073 A 
ATOM      7  C8  UNL d   1       1.872  -0.759  -0.510  0.00  0.00     0.078 C 
ENDROOT
BRANCH   1   8
ATOM      8  C1  UNL d   1      -0.856   0.430   0.001  0.00  0.00     0.053 C 
ATOM      9  C   UNL d   1      -0.663   1.911   0.288  0.00  0.00     0.018 C 
ENDBRANCH   1   8
TORSDOF 1
ENDMDL
