MODEL 1
REMARK minimizedAffinity -4.24550819
REMARK minimizedRMSD -1
REMARK  1 active torsions:
REMARK  status: ('A' for Active; 'I' for Inactive)
REMARK    1  A    between atoms: C1_2  and  C2_3 
ROOT
ATOM      1  C2  UNL d   1       1.144  -1.163   0.785  0.00  0.00    -0.076 A 
ATOM      2  C3  UNL d   1       1.628  -1.841   1.918  0.00  0.00     0.004 A 
ATOM      3  C4  UNL d   1       0.806  -2.077   3.018  0.00  0.00    -0.003 A 
ATOM      4  C5  UNL d   1      -0.514  -1.640   3.004  0.00  0.00     0.000 A 
ATOM      5  C6  UNL d   1      -1.016  -0.981   1.882  0.00  0.00     0.000 A 
ATOM      6  C7  UNL d   1      -0.205  -0.750   0.758  0.00  0.00    -0.073 A 
ATOM      7  C8  UNL d   1      -0.797  -0.029  -0.423  0.00  0.00     0.078 C 
ENDROOT
BRANCH   1   8
ATOM      8  C1  UNL d   1       2.089  -0.912  -0.367  0.00  0.00     0.053 C 
ATOM      9  C   UNL d   1       2.330   0.570  -0.611  0.00  0.00     0.018 C 
ENDBRANCH   1   8
TORSDOF 1
ENDMDL
