MODEL 1
REMARK minimizedAffinity 1.5836122
REMARK minimizedRMSD -1
REMARK  1 active torsions:
REMARK  status: ('A' for Active; 'I' for Inactive)
REMARK    1  A    between atoms: C1_2  and  C2_3 
ROOT
ATOM      1  C2  UNL d   1       0.127   1.068  -0.832  0.00  0.00    -0.076 A 
ATOM      2  C3  UNL d   1       0.116   1.885  -1.976  0.00  0.00     0.004 A 
ATOM      3  C4  UNL d   1      -1.085   2.271  -2.570  0.00  0.00    -0.003 A 
ATOM      4  C5  UNL d   1      -2.293   1.846  -2.030  0.00  0.00     0.000 A 
ATOM      5  C6  UNL d   1      -2.302   1.050  -0.885  0.00  0.00     0.000 A 
ATOM      6  C7  UNL d   1      -1.101   0.665  -0.264  0.00  0.00    -0.073 A 
ATOM      7  C8  UNL d   1      -1.168  -0.199   0.965  0.00  0.00     0.078 C 
ENDROOT
BRANCH   1   8
ATOM      8  C1  UNL d   1       1.460   0.659  -0.247  0.00  0.00     0.053 C 
ATOM      9  C   UNL d   1       1.909  -0.713  -0.724  0.00  0.00     0.018 C 
ENDBRANCH   1   8
TORSDOF 1
ENDMDL
