MODEL 1
REMARK minimizedAffinity -3.85320115
REMARK minimizedRMSD -1
REMARK  1 active torsions:
REMARK  status: ('A' for Active; 'I' for Inactive)
REMARK    1  A    between atoms: C1_2  and  C2_3 
ROOT
ATOM      1  C2  UNL d   1      -0.016   0.243  -0.198  0.00  0.00    -0.076 A 
ATOM      2  C3  UNL d   1       1.154   0.045  -0.953  0.00  0.00     0.004 A 
ATOM      3  C4  UNL d   1       2.203  -0.728  -0.460  0.00  0.00    -0.003 A 
ATOM      4  C5  UNL d   1       2.100  -1.318   0.796  0.00  0.00     0.000 A 
ATOM      5  C6  UNL d   1       0.940  -1.147   1.550  0.00  0.00     0.000 A 
ATOM      6  C7  UNL d   1      -0.134  -0.383   1.061  0.00  0.00    -0.073 A 
ATOM      7  C8  UNL d   1      -1.359  -0.227   1.920  0.00  0.00     0.078 C 
ENDROOT
BRANCH   1   8
ATOM      8  C1  UNL d   1      -1.110   1.114  -0.773  0.00  0.00     0.053 C 
ATOM      9  C   UNL d   1      -1.779   0.485  -1.985  0.00  0.00     0.018 C 
ENDBRANCH   1   8
TORSDOF 1
ENDMDL
