MODEL 1
REMARK minimizedAffinity -5.70692015
REMARK minimizedRMSD -1
REMARK  1 active torsions:
REMARK  status: ('A' for Active; 'I' for Inactive)
REMARK    1  A    between atoms: C1_2  and  C2_3 
ROOT
ATOM      1  C2  UNL d   1       1.217  -0.711   0.344  0.00  0.00    -0.076 A 
ATOM      2  C3  UNL d   1       2.002  -1.581   1.120  0.00  0.00     0.004 A 
ATOM      3  C4  UNL d   1       1.512  -2.125   2.306  0.00  0.00    -0.003 A 
ATOM      4  C5  UNL d   1       0.228  -1.809   2.735  0.00  0.00     0.000 A 
ATOM      5  C6  UNL d   1      -0.572  -0.962   1.969  0.00  0.00     0.000 A 
ATOM      6  C7  UNL d   1      -0.099  -0.417   0.762  0.00  0.00    -0.073 A 
ATOM      7  C8  UNL d   1      -1.002   0.495  -0.021  0.00  0.00     0.078 C 
ENDROOT
BRANCH   1   8
ATOM      8  C1  UNL d   1       1.811  -0.130  -0.919  0.00  0.00     0.053 C 
ATOM      9  C   UNL d   1       2.294   1.300  -0.731  0.00  0.00     0.018 C 
ENDBRANCH   1   8
TORSDOF 1
ENDMDL
