MODEL 1
REMARK minimizedAffinity 12.0661535
REMARK minimizedRMSD -1
REMARK  1 active torsions:
REMARK  status: ('A' for Active; 'I' for Inactive)
REMARK    1  A    between atoms: C1_2  and  C2_3 
ROOT
ATOM      1  C2  UNL d   1      -3.480  -4.257  -4.489  0.00  0.00    -0.073 A 
ATOM      2  C3  UNL d   1      -4.017  -5.484  -4.895  0.00  0.00    -0.002 A 
ATOM      3  C4  UNL d   1      -5.194  -5.525  -5.643  0.00  0.00     0.004 A 
ATOM      4  C5  UNL d   1      -5.841  -4.342  -6.000  0.00  0.00    -0.004 A 
ATOM      5  C6  UNL d   1      -5.313  -3.106  -5.615  0.00  0.00    -0.075 A 
ATOM      6  C7  UNL d   1      -5.999  -1.824  -5.988  0.00  0.00     0.076 C 
ATOM      7  C8  UNL d   1      -4.133  -3.072  -4.860  0.00  0.00     0.001 A 
ENDROOT
BRANCH   1   8
ATOM      8  C1  UNL d   1      -2.206  -4.207  -3.686  0.00  0.00     0.053 C 
ATOM      9  C   UNL d   1      -2.184  -5.256  -2.586  0.00  0.00     0.018 C 
ENDBRANCH   1   8
TORSDOF 1
ENDMDL
