MODEL 1
REMARK minimizedAffinity 8.46384716
REMARK minimizedRMSD -1
REMARK  1 active torsions:
REMARK  status: ('A' for Active; 'I' for Inactive)
REMARK    1  A    between atoms: C1_2  and  C2_3 
ROOT
ATOM      1  C2  UNL d   1       1.151   0.708   0.304  0.00  0.00    -0.073 A 
ATOM      2  C3  UNL d   1       2.417   1.299   0.387  0.00  0.00    -0.002 A 
ATOM      3  C4  UNL d   1       3.329   1.161  -0.661  0.00  0.00     0.004 A 
ATOM      4  C5  UNL d   1       2.983   0.438  -1.802  0.00  0.00    -0.004 A 
ATOM      5  C6  UNL d   1       1.719  -0.150  -1.909  0.00  0.00    -0.075 A 
ATOM      6  C7  UNL d   1       1.332  -0.932  -3.130  0.00  0.00     0.076 C 
ATOM      7  C8  UNL d   1       0.809  -0.009  -0.852  0.00  0.00     0.001 A 
ENDROOT
BRANCH   1   8
ATOM      8  C1  UNL d   1       0.160   0.859   1.429  0.00  0.00     0.053 C 
ATOM      9  C   UNL d   1       0.792   1.479   2.665  0.00  0.00     0.018 C 
ENDBRANCH   1   8
TORSDOF 1
ENDMDL
