MODEL 1
REMARK minimizedAffinity 10.6027393
REMARK minimizedRMSD -1
REMARK  1 active torsions:
REMARK  status: ('A' for Active; 'I' for Inactive)
REMARK    1  A    between atoms: C1_2  and  C2_3 
ROOT
ATOM      1  C2  UNL d   1      -0.417  -4.005  -2.989  0.00  0.00    -0.073 A 
ATOM      2  C3  UNL d   1      -1.299  -4.639  -2.107  0.00  0.00    -0.002 A 
ATOM      3  C4  UNL d   1      -2.623  -4.872  -2.481  0.00  0.00     0.004 A 
ATOM      4  C5  UNL d   1      -3.076  -4.481  -3.741  0.00  0.00    -0.004 A 
ATOM      5  C6  UNL d   1      -2.206  -3.856  -4.641  0.00  0.00    -0.075 A 
ATOM      6  C7  UNL d   1      -2.678  -3.427  -5.999  0.00  0.00     0.076 C 
ATOM      7  C8  UNL d   1      -0.879  -3.623  -4.257  0.00  0.00     0.001 A 
ENDROOT
BRANCH   1   8
ATOM      8  C1  UNL d   1       1.016  -3.756  -2.591  0.00  0.00     0.053 C 
ATOM      9  C   UNL d   1       1.153  -2.545  -1.683  0.00  0.00     0.018 C 
ENDBRANCH   1   8
TORSDOF 1
ENDMDL
