MODEL 1
REMARK minimizedAffinity 17.423254
REMARK minimizedRMSD -1
REMARK  1 active torsions:
REMARK  status: ('A' for Active; 'I' for Inactive)
REMARK    1  A    between atoms: C1_2  and  C2_3 
ROOT
ATOM      1  C2  UNL d   1       1.868  -1.074  -1.378  0.00  0.00    -0.073 A 
ATOM      2  C3  UNL d   1       2.896  -1.567  -0.567  0.00  0.00    -0.002 A 
ATOM      3  C4  UNL d   1       3.031  -2.940  -0.355  0.00  0.00     0.004 A 
ATOM      4  C5  UNL d   1       2.145  -3.833  -0.957  0.00  0.00    -0.004 A 
ATOM      5  C6  UNL d   1       1.118  -3.361  -1.781  0.00  0.00    -0.075 A 
ATOM      6  C7  UNL d   1       0.155  -4.308  -2.433  0.00  0.00     0.076 C 
ATOM      7  C8  UNL d   1       0.988  -1.981  -1.986  0.00  0.00     0.001 A 
ENDROOT
BRANCH   1   8
ATOM      8  C1  UNL d   1       1.723   0.407  -1.615  0.00  0.00     0.053 C 
ATOM      9  C   UNL d   1       2.560   1.224  -0.645  0.00  0.00     0.018 C 
ENDBRANCH   1   8
TORSDOF 1
ENDMDL
