MODEL 1
REMARK minimizedAffinity 6.06748009
REMARK minimizedRMSD -1
REMARK  1 active torsions:
REMARK  status: ('A' for Active; 'I' for Inactive)
REMARK    1  A    between atoms: C1_2  and  C2_3 
ROOT
ATOM      1  C2  UNL d   1       0.694  -3.772  -2.250  0.00  0.00    -0.073 A 
ATOM      2  C3  UNL d   1       1.631  -4.300  -1.354  0.00  0.00    -0.002 A 
ATOM      3  C4  UNL d   1       2.628  -3.486  -0.815  0.00  0.00     0.004 A 
ATOM      4  C5  UNL d   1       2.695  -2.136  -1.161  0.00  0.00    -0.004 A 
ATOM      5  C6  UNL d   1       1.761  -1.587  -2.045  0.00  0.00    -0.075 A 
ATOM      6  C7  UNL d   1       1.820  -0.138  -2.429  0.00  0.00     0.076 C 
ATOM      7  C8  UNL d   1       0.764  -2.412  -2.584  0.00  0.00     0.001 A 
ENDROOT
BRANCH   1   8
ATOM      8  C1  UNL d   1      -0.388  -4.646  -2.829  0.00  0.00     0.053 C 
ATOM      9  C   UNL d   1      -1.726  -3.927  -2.896  0.00  0.00     0.018 C 
ENDBRANCH   1   8
TORSDOF 1
ENDMDL
