MODEL 1
REMARK minimizedAffinity 16.7650738
REMARK minimizedRMSD -1
REMARK  1 active torsions:
REMARK  status: ('A' for Active; 'I' for Inactive)
REMARK    1  A    between atoms: C1_2  and  C2_3 
ROOT
ATOM      1  C2  UNL d   1      -4.945  -1.581   2.746  0.00  0.00    -0.073 A 
ATOM      2  C3  UNL d   1      -4.632  -2.115   4.001  0.00  0.00    -0.002 A 
ATOM      3  C4  UNL d   1      -3.659  -1.514   4.800  0.00  0.00     0.004 A 
ATOM      4  C5  UNL d   1      -2.994  -0.370   4.356  0.00  0.00    -0.004 A 
ATOM      5  C6  UNL d   1      -3.301   0.185   3.109  0.00  0.00    -0.075 A 
ATOM      6  C7  UNL d   1      -2.594   1.413   2.616  0.00  0.00     0.076 C 
ATOM      7  C8  UNL d   1      -4.278  -0.426   2.312  0.00  0.00     0.001 A 
ENDROOT
BRANCH   1   8
ATOM      8  C1  UNL d   1      -6.000  -2.223   1.882  0.00  0.00     0.053 C 
ATOM      9  C   UNL d   1      -5.999  -3.738   2.013  0.00  0.00     0.018 C 
ENDBRANCH   1   8
TORSDOF 1
ENDMDL
