MODEL 1
REMARK minimizedAffinity 9.2943573
REMARK minimizedRMSD -1
REMARK  1 active torsions:
REMARK  status: ('A' for Active; 'I' for Inactive)
REMARK    1  A    between atoms: C1_2  and  C2_3 
ROOT
ATOM      1  C2  UNL d   1       1.144  -3.404  -2.274  0.00  0.00    -0.073 A 
ATOM      2  C3  UNL d   1       1.979  -3.735  -1.200  0.00  0.00    -0.002 A 
ATOM      3  C4  UNL d   1       2.761  -2.755  -0.588  0.00  0.00     0.004 A 
ATOM      4  C5  UNL d   1       2.711  -1.435  -1.036  0.00  0.00    -0.004 A 
ATOM      5  C6  UNL d   1       1.875  -1.082  -2.100  0.00  0.00    -0.075 A 
ATOM      6  C7  UNL d   1       1.812   0.332  -2.596  0.00  0.00     0.076 C 
ATOM      7  C8  UNL d   1       1.095  -2.073  -2.712  0.00  0.00     0.001 A 
ENDROOT
BRANCH   1   8
ATOM      8  C1  UNL d   1       0.294  -4.458  -2.935  0.00  0.00     0.053 C 
ATOM      9  C   UNL d   1      -1.152  -4.399  -2.466  0.00  0.00     0.018 C 
ENDBRANCH   1   8
TORSDOF 1
ENDMDL
