MODEL 1
REMARK minimizedAffinity 15.2952175
REMARK minimizedRMSD -1
REMARK  1 active torsions:
REMARK  status: ('A' for Active; 'I' for Inactive)
REMARK    1  A    between atoms: C1_2  and  C2_3 
ROOT
ATOM      1  C2  UNL d   1      -4.118   1.875   4.038  0.00  0.00    -0.073 A 
ATOM      2  C3  UNL d   1      -3.020   2.185   3.227  0.00  0.00    -0.002 A 
ATOM      3  C4  UNL d   1      -2.203   1.170   2.728  0.00  0.00     0.004 A 
ATOM      4  C5  UNL d   1      -2.480  -0.164   3.027  0.00  0.00    -0.004 A 
ATOM      5  C6  UNL d   1      -3.579  -0.495   3.825  0.00  0.00    -0.075 A 
ATOM      6  C7  UNL d   1      -3.889  -1.925   4.158  0.00  0.00     0.076 C 
ATOM      7  C8  UNL d   1      -4.393   0.531   4.326  0.00  0.00     0.001 A 
ENDROOT
BRANCH   1   8
ATOM      8  C1  UNL d   1      -5.006   2.968   4.575  0.00  0.00     0.053 C 
ATOM      9  C   UNL d   1      -4.638   3.353   5.999  0.00  0.00     0.018 C 
ENDBRANCH   1   8
TORSDOF 1
ENDMDL
