MODEL 1
REMARK minimizedAffinity 11.107111
REMARK minimizedRMSD -1
REMARK  1 active torsions:
REMARK  status: ('A' for Active; 'I' for Inactive)
REMARK    1  A    between atoms: C1_2  and  C2_3 
ROOT
ATOM      1  C2  UNL d   1       2.413  -1.502  -1.768  0.00  0.00    -0.073 A 
ATOM      2  C3  UNL d   1       1.825  -0.242  -1.608  0.00  0.00    -0.002 A 
ATOM      3  C4  UNL d   1       1.696   0.620  -2.698  0.00  0.00     0.004 A 
ATOM      4  C5  UNL d   1       2.145   0.228  -3.959  0.00  0.00    -0.004 A 
ATOM      5  C6  UNL d   1       2.724  -1.032  -4.142  0.00  0.00    -0.075 A 
ATOM      6  C7  UNL d   1       3.215  -1.467  -5.492  0.00  0.00     0.076 C 
ATOM      7  C8  UNL d   1       2.853  -1.890  -3.042  0.00  0.00     0.001 A 
ENDROOT
BRANCH   1   8
ATOM      8  C1  UNL d   1       2.549  -2.438  -0.595  0.00  0.00     0.053 C 
ATOM      9  C   UNL d   1       3.972  -2.951  -0.438  0.00  0.00     0.018 C 
ENDBRANCH   1   8
TORSDOF 1
ENDMDL
