MODEL 1
REMARK minimizedAffinity 5.81054068
REMARK minimizedRMSD -1
REMARK  1 active torsions:
REMARK  status: ('A' for Active; 'I' for Inactive)
REMARK    1  A    between atoms: C1_2  and  C2_3 
ROOT
ATOM      1  C2  UNL d   1       2.780   0.568  -1.547  0.00  0.00    -0.073 A 
ATOM      2  C3  UNL d   1       2.339   0.509  -2.874  0.00  0.00    -0.002 A 
ATOM      3  C4  UNL d   1       1.914  -0.702  -3.422  0.00  0.00     0.004 A 
ATOM      4  C5  UNL d   1       1.919  -1.863  -2.649  0.00  0.00    -0.004 A 
ATOM      5  C6  UNL d   1       2.345  -1.821  -1.317  0.00  0.00    -0.075 A 
ATOM      6  C7  UNL d   1       2.358  -3.061  -0.473  0.00  0.00     0.076 C 
ATOM      7  C8  UNL d   1       2.772  -0.602  -0.775  0.00  0.00     0.001 A 
ENDROOT
BRANCH   1   8
ATOM      8  C1  UNL d   1       3.234   1.875  -0.949  0.00  0.00     0.053 C 
ATOM      9  C   UNL d   1       4.450   1.700  -0.054  0.00  0.00     0.018 C 
ENDBRANCH   1   8
TORSDOF 1
ENDMDL
