MODEL 1
REMARK minimizedAffinity 16.6576118
REMARK minimizedRMSD -1
REMARK  1 active torsions:
REMARK  status: ('A' for Active; 'I' for Inactive)
REMARK    1  A    between atoms: C1_2  and  C2_3 
ROOT
ATOM      1  C2  UNL d   1      -2.073   1.145   3.498  0.00  0.00    -0.073 A 
ATOM      2  C3  UNL d   1      -1.401   1.011   2.278  0.00  0.00    -0.002 A 
ATOM      3  C4  UNL d   1      -0.006   0.971   2.242  0.00  0.00     0.004 A 
ATOM      4  C5  UNL d   1       0.729   1.057   3.424  0.00  0.00    -0.004 A 
ATOM      5  C6  UNL d   1       0.075   1.179   4.655  0.00  0.00    -0.075 A 
ATOM      6  C7  UNL d   1       0.852   1.275   5.935  0.00  0.00     0.076 C 
ATOM      7  C8  UNL d   1      -1.325   1.222   4.682  0.00  0.00     0.001 A 
ENDROOT
BRANCH   1   8
ATOM      8  C1  UNL d   1      -3.579   1.183   3.542  0.00  0.00     0.053 C 
ATOM      9  C   UNL d   1      -4.094   2.045   4.683  0.00  0.00     0.018 C 
ENDBRANCH   1   8
TORSDOF 1
ENDMDL
