MODEL 1
REMARK minimizedAffinity 23.3281193
REMARK minimizedRMSD -1
REMARK  1 active torsions:
REMARK  status: ('A' for Active; 'I' for Inactive)
REMARK    1  A    between atoms: C1_2  and  C2_3 
ROOT
ATOM      1  C2  UNL d   1      -3.882  -4.444  -4.388  0.00  0.00    -0.073 A 
ATOM      2  C3  UNL d   1      -3.523  -5.577  -3.649  0.00  0.00    -0.002 A 
ATOM      3  C4  UNL d   1      -2.647  -5.466  -2.569  0.00  0.00     0.004 A 
ATOM      4  C5  UNL d   1      -2.125  -4.222  -2.213  0.00  0.00    -0.004 A 
ATOM      5  C6  UNL d   1      -2.481  -3.076  -2.932  0.00  0.00    -0.075 A 
ATOM      6  C7  UNL d   1      -1.927  -1.731  -2.563  0.00  0.00     0.076 C 
ATOM      7  C8  UNL d   1      -3.360  -3.196  -4.017  0.00  0.00     0.001 A 
ENDROOT
BRANCH   1   8
ATOM      8  C1  UNL d   1      -4.833  -4.558  -5.551  0.00  0.00     0.053 C 
ATOM      9  C   UNL d   1      -5.022  -6.000  -5.994  0.00  0.00     0.018 C 
ENDBRANCH   1   8
TORSDOF 1
ENDMDL
