MODEL 1
REMARK minimizedAffinity -2.88971138
REMARK minimizedRMSD -1
REMARK  1 active torsions:
REMARK  status: ('A' for Active; 'I' for Inactive)
REMARK    1  A    between atoms: C1_2  and  C2_3 
ROOT
ATOM      1  C2  UNL d   1       2.436  -2.557  -3.264  0.00  0.00    -0.073 A 
ATOM      2  C3  UNL d   1       2.043  -1.375  -2.625  0.00  0.00    -0.002 A 
ATOM      3  C4  UNL d   1       1.959  -1.321  -1.233  0.00  0.00     0.004 A 
ATOM      4  C5  UNL d   1       2.274  -2.443  -0.467  0.00  0.00    -0.004 A 
ATOM      5  C6  UNL d   1       2.681  -3.629  -1.086  0.00  0.00    -0.075 A 
ATOM      6  C7  UNL d   1       3.021  -4.845  -0.276  0.00  0.00     0.076 C 
ATOM      7  C8  UNL d   1       2.759  -3.677  -2.484  0.00  0.00     0.001 A 
ENDROOT
BRANCH   1   8
ATOM      8  C1  UNL d   1       2.533  -2.619  -4.766  0.00  0.00     0.053 C 
ATOM      9  C   UNL d   1       2.680  -1.238  -5.385  0.00  0.00     0.018 C 
ENDBRANCH   1   8
TORSDOF 1
ENDMDL
