MODEL 1
REMARK minimizedAffinity 14.5144768
REMARK minimizedRMSD -1
REMARK  1 active torsions:
REMARK  status: ('A' for Active; 'I' for Inactive)
REMARK    1  A    between atoms: C1_2  and  C2_3 
ROOT
ATOM      1  C2  UNL d   1      -1.105   1.128   3.240  0.00  0.00    -0.073 A 
ATOM      2  C3  UNL d   1      -1.558   0.134   2.366  0.00  0.00    -0.002 A 
ATOM      3  C4  UNL d   1      -2.919  -0.159   2.275  0.00  0.00     0.004 A 
ATOM      4  C5  UNL d   1      -3.841   0.544   3.051  0.00  0.00    -0.004 A 
ATOM      5  C6  UNL d   1      -3.410   1.550   3.922  0.00  0.00    -0.075 A 
ATOM      6  C7  UNL d   1      -4.388   2.313   4.765  0.00  0.00     0.076 C 
ATOM      7  C8  UNL d   1      -2.040   1.835   4.009  0.00  0.00     0.001 A 
ENDROOT
BRANCH   1   8
ATOM      8  C1  UNL d   1       0.363   1.452   3.337  0.00  0.00     0.053 C 
ATOM      9  C   UNL d   1       0.912   1.201   4.732  0.00  0.00     0.018 C 
ENDBRANCH   1   8
TORSDOF 1
ENDMDL
