MODEL 1
REMARK minimizedAffinity -2.95159626
REMARK minimizedRMSD -1
REMARK  0 active torsions:
REMARK  status: ('A' for Active; 'I' for Inactive)
ROOT
ATOM      1  N1  IND d   1      -4.871  -3.945  -5.484  0.00  0.00    -0.196 N 
ATOM      2  C2  IND d   1      -4.230  -5.042  -5.988  0.00  0.00     0.054 A 
ATOM      3  C3  IND d   1      -4.104  -5.992  -5.034  0.00  0.00    -0.031 A 
ATOM      4  C4  IND d   1      -4.967  -6.000  -2.608  0.00  0.00     0.051 A 
ATOM      5  C5  IND d   1      -5.580  -5.205  -1.681  0.00  0.00    -0.031 A 
ATOM      6  C6  IND d   1      -5.999  -3.925  -1.980  0.00  0.00     0.015 A 
ATOM      7  C7  IND d   1      -5.830  -3.394  -3.228  0.00  0.00    -0.016 A 
ATOM      8  C8  IND d   1      -5.202  -4.195  -4.170  0.00  0.00    -0.047 A 
ATOM      9  C9  IND d   1      -4.736  -5.479  -3.860  0.00  0.00    -0.096 A 
ATOM     10  HN1 IND d   1      -5.040  -3.221  -5.915  0.00  0.00     0.298 HD
ENDROOT
TORSDOF 0
ENDMDL
