MODEL 1
REMARK minimizedAffinity -1.37506711
REMARK minimizedRMSD -1
REMARK  0 active torsions:
REMARK  status: ('A' for Active; 'I' for Inactive)
ROOT
ATOM      1  N1  IND d   1      -5.141  -3.773  -2.250  0.00  0.00    -0.196 N 
ATOM      2  C2  IND d   1      -5.007  -4.954  -1.576  0.00  0.00     0.054 A 
ATOM      3  C3  IND d   1      -5.234  -5.997  -2.406  0.00  0.00    -0.031 A 
ATOM      4  C4  IND d   1      -5.743  -5.999  -4.929  0.00  0.00     0.051 A 
ATOM      5  C5  IND d   1      -5.999  -5.160  -5.977  0.00  0.00    -0.031 A 
ATOM      6  C6  IND d   1      -5.980  -3.787  -5.833  0.00  0.00     0.015 A 
ATOM      7  C7  IND d   1      -5.691  -3.200  -4.634  0.00  0.00    -0.016 A 
ATOM      8  C8  IND d   1      -5.437  -4.050  -3.566  0.00  0.00    -0.047 A 
ATOM      9  C9  IND d   1      -5.497  -5.443  -3.696  0.00  0.00    -0.096 A 
ATOM     10  HN1 IND d   1      -5.056  -2.988  -1.908  0.00  0.00     0.298 HD
ENDROOT
TORSDOF 0
ENDMDL
