MODEL 1
REMARK minimizedAffinity 3.43843365
REMARK minimizedRMSD -1
REMARK  0 active torsions:
REMARK  status: ('A' for Active; 'I' for Inactive)
ROOT
ATOM      1  N1  IND d   1       5.732   0.611  -6.000  0.00  0.00    -0.196 N 
ATOM      2  C2  IND d   1       4.769   1.581  -5.999  0.00  0.00     0.054 A 
ATOM      3  C3  IND d   1       3.775   1.257  -5.141  0.00  0.00    -0.031 A 
ATOM      4  C4  IND d   1       3.575  -0.764  -3.559  0.00  0.00     0.051 A 
ATOM      5  C5  IND d   1       4.190  -1.939  -3.229  0.00  0.00    -0.031 A 
ATOM      6  C6  IND d   1       5.376  -2.330  -3.816  0.00  0.00     0.015 A 
ATOM      7  C7  IND d   1       6.000  -1.553  -4.750  0.00  0.00    -0.016 A 
ATOM      8  C8  IND d   1       5.374  -0.362  -5.093  0.00  0.00    -0.047 A 
ATOM      9  C9  IND d   1       4.149   0.020  -4.532  0.00  0.00    -0.096 A 
ATOM     10  HN1 IND d   1       6.442   0.609  -6.485  0.00  0.00     0.298 HD
ENDROOT
TORSDOF 0
ENDMDL
