MODEL 1
REMARK minimizedAffinity 10.244524
REMARK minimizedRMSD -1
REMARK  0 active torsions:
REMARK  status: ('A' for Active; 'I' for Inactive)
ROOT
ATOM      1  N1  IND d   1       3.365   1.491  -4.387  0.00  0.00    -0.196 N 
ATOM      2  C2  IND d   1       3.758   2.462  -5.265  0.00  0.00     0.054 A 
ATOM      3  C3  IND d   1       4.810   2.035  -5.999  0.00  0.00    -0.031 A 
ATOM      4  C4  IND d   1       5.980  -0.258  -5.998  0.00  0.00     0.051 A 
ATOM      5  C5  IND d   1       5.999  -1.458  -5.344  0.00  0.00    -0.031 A 
ATOM      6  C6  IND d   1       5.121  -1.743  -4.318  0.00  0.00     0.015 A 
ATOM      7  C7  IND d   1       4.180  -0.838  -3.914  0.00  0.00    -0.016 A 
ATOM      8  C8  IND d   1       4.163   0.384  -4.572  0.00  0.00    -0.047 A 
ATOM      9  C9  IND d   1       5.079   0.694  -5.585  0.00  0.00    -0.096 A 
ATOM     10  HN1 IND d   1       2.726   1.561  -3.815  0.00  0.00     0.298 HD
ENDROOT
TORSDOF 0
ENDMDL
