MODEL 1
REMARK minimizedAffinity 5.18789339
REMARK minimizedRMSD -1
REMARK  0 active torsions:
REMARK  status: ('A' for Active; 'I' for Inactive)
ROOT
ATOM      1  N1  IND d   1      -5.664  -2.524  -4.737  0.00  0.00    -0.196 N 
ATOM      2  C2  IND d   1      -5.882  -3.001  -6.000  0.00  0.00     0.054 A 
ATOM      3  C3  IND d   1      -5.999  -4.348  -5.980  0.00  0.00    -0.031 A 
ATOM      4  C4  IND d   1      -5.966  -5.963  -3.975  0.00  0.00     0.051 A 
ATOM      5  C5  IND d   1      -5.759  -6.000  -2.625  0.00  0.00    -0.031 A 
ATOM      6  C6  IND d   1      -5.507  -4.856  -1.894  0.00  0.00     0.015 A 
ATOM      7  C7  IND d   1      -5.464  -3.627  -2.488  0.00  0.00    -0.016 A 
ATOM      8  C8  IND d   1      -5.667  -3.586  -3.860  0.00  0.00    -0.047 A 
ATOM      9  C9  IND d   1      -5.881  -4.748  -4.613  0.00  0.00    -0.096 A 
ATOM     10  HN1 IND d   1      -5.545  -1.699  -4.527  0.00  0.00     0.298 HD
ENDROOT
TORSDOF 0
ENDMDL
