MODEL 1
REMARK minimizedAffinity -1.92881727
REMARK minimizedRMSD -1
REMARK  0 active torsions:
REMARK  status: ('A' for Active; 'I' for Inactive)
ROOT
ATOM      1  N1  IND d   1       5.271  -1.333  -3.288  0.00  0.00    -0.196 N 
ATOM      2  C2  IND d   1       4.073  -1.548  -2.665  0.00  0.00     0.054 A 
ATOM      3  C3  IND d   1       3.121  -0.742  -3.187  0.00  0.00    -0.031 A 
ATOM      4  C4  IND d   1       3.282   0.932  -5.136  0.00  0.00     0.051 A 
ATOM      5  C5  IND d   1       4.179   1.501  -5.996  0.00  0.00    -0.031 A 
ATOM      6  C6  IND d   1       5.512   1.146  -5.999  0.00  0.00     0.015 A 
ATOM      7  C7  IND d   1       5.998   0.195  -5.146  0.00  0.00    -0.016 A 
ATOM      8  C8  IND d   1       5.091  -0.380  -4.267  0.00  0.00    -0.047 A 
ATOM      9  C9  IND d   1       3.746   0.007  -4.230  0.00  0.00    -0.096 A 
ATOM     10  HN1 IND d   1       6.012  -1.727  -3.101  0.00  0.00     0.298 HD
ENDROOT
TORSDOF 0
ENDMDL
