MODEL 1
REMARK minimizedAffinity -0.275028437
REMARK minimizedRMSD -1
REMARK  0 active torsions:
REMARK  status: ('A' for Active; 'I' for Inactive)
ROOT
ATOM      1  N1  IND d   1      -4.877  -3.729  -2.327  0.00  0.00    -0.196 N 
ATOM      2  C2  IND d   1      -4.514  -4.883  -1.690  0.00  0.00     0.054 A 
ATOM      3  C3  IND d   1      -4.653  -5.941  -2.519  0.00  0.00    -0.031 A 
ATOM      4  C4  IND d   1      -5.364  -5.999  -4.993  0.00  0.00     0.051 A 
ATOM      5  C5  IND d   1      -5.828  -5.199  -5.999  0.00  0.00    -0.031 A 
ATOM      6  C6  IND d   1      -5.999  -3.840  -5.830  0.00  0.00     0.015 A 
ATOM      7  C7  IND d   1      -5.701  -3.226  -4.647  0.00  0.00    -0.016 A 
ATOM      8  C8  IND d   1      -5.237  -4.036  -3.620  0.00  0.00    -0.047 A 
ATOM      9  C9  IND d   1      -5.101  -5.422  -3.773  0.00  0.00    -0.096 A 
ATOM     10  HN1 IND d   1      -4.880  -2.943  -1.978  0.00  0.00     0.298 HD
ENDROOT
TORSDOF 0
ENDMDL
