MODEL 1
REMARK minimizedAffinity 1.67695212
REMARK minimizedRMSD -1
REMARK  0 active torsions:
REMARK  status: ('A' for Active; 'I' for Inactive)
ROOT
ATOM      1  N1  IND d   1       1.188  -2.553   1.319  0.00  0.00    -0.196 N 
ATOM      2  C2  IND d   1       1.895  -1.472   1.768  0.00  0.00     0.054 A 
ATOM      3  C3  IND d   1       2.860  -1.140   0.881  0.00  0.00    -0.031 A 
ATOM      4  C4  IND d   1       3.394  -2.170  -1.417  0.00  0.00     0.051 A 
ATOM      5  C5  IND d   1       3.044  -3.201  -2.243  0.00  0.00    -0.031 A 
ATOM      6  C6  IND d   1       2.035  -4.085  -1.918  0.00  0.00     0.015 A 
ATOM      7  C7  IND d   1       1.328  -3.963  -0.755  0.00  0.00    -0.016 A 
ATOM      8  C8  IND d   1       1.685  -2.922   0.089  0.00  0.00    -0.047 A 
ATOM      9  C9  IND d   1       2.736  -2.047  -0.216  0.00  0.00    -0.096 A 
ATOM     10  HN1 IND d   1       0.541  -2.937   1.736  0.00  0.00     0.298 HD
ENDROOT
TORSDOF 0
ENDMDL
