MODEL 1
REMARK minimizedAffinity 2.12411594
REMARK minimizedRMSD -1
REMARK  0 active torsions:
REMARK  status: ('A' for Active; 'I' for Inactive)
ROOT
ATOM      1  N1  IND d   1       3.757  -3.001  -2.650  0.00  0.00    -0.196 N 
ATOM      2  C2  IND d   1       2.402  -2.868  -2.773  0.00  0.00     0.054 A 
ATOM      3  C3  IND d   1       2.104  -1.877  -3.643  0.00  0.00    -0.031 A 
ATOM      4  C4  IND d   1       3.680  -0.411  -5.056  0.00  0.00     0.051 A 
ATOM      5  C5  IND d   1       5.004  -0.139  -5.259  0.00  0.00    -0.031 A 
ATOM      6  C6  IND d   1       6.000  -0.822  -4.591  0.00  0.00     0.015 A 
ATOM      7  C7  IND d   1       5.708  -1.815  -3.700  0.00  0.00    -0.016 A 
ATOM      8  C8  IND d   1       4.365  -2.090  -3.486  0.00  0.00    -0.047 A 
ATOM      9  C9  IND d   1       3.349  -1.371  -4.129  0.00  0.00    -0.096 A 
ATOM     10  HN1 IND d   1       4.161  -3.559  -2.136  0.00  0.00     0.298 HD
ENDROOT
TORSDOF 0
ENDMDL
