MODEL 1
REMARK minimizedAffinity -2.4443469
REMARK minimizedRMSD -1
REMARK  0 active torsions:
REMARK  status: ('A' for Active; 'I' for Inactive)
ROOT
ATOM      1  N1  IND d   1      -6.000  -5.089  -2.436  0.00  0.00    -0.196 N 
ATOM      2  C2  IND d   1      -5.084  -5.429  -1.479  0.00  0.00     0.054 A 
ATOM      3  C3  IND d   1      -3.941  -5.862  -2.055  0.00  0.00    -0.031 A 
ATOM      4  C4  IND d   1      -3.316  -5.999  -4.549  0.00  0.00     0.051 A 
ATOM      5  C5  IND d   1      -3.838  -5.833  -5.801  0.00  0.00    -0.031 A 
ATOM      6  C6  IND d   1      -5.132  -5.398  -5.999  0.00  0.00     0.015 A 
ATOM      7  C7  IND d   1      -5.953  -5.102  -4.948  0.00  0.00    -0.016 A 
ATOM      8  C8  IND d   1      -5.429  -5.277  -3.675  0.00  0.00    -0.047 A 
ATOM      9  C9  IND d   1      -4.130  -5.758  -3.468  0.00  0.00    -0.096 A 
ATOM     10  HN1 IND d   1      -6.798  -4.806  -2.288  0.00  0.00     0.298 HD
ENDROOT
TORSDOF 0
ENDMDL
