MODEL 1
REMARK minimizedAffinity 3.10554934
REMARK minimizedRMSD -1
REMARK  0 active torsions:
REMARK  status: ('A' for Active; 'I' for Inactive)
ROOT
ATOM      1  N1  IND d   1       4.861  -2.171  -3.104  0.00  0.00    -0.196 N 
ATOM      2  C2  IND d   1       3.598  -2.194  -2.580  0.00  0.00     0.054 A 
ATOM      3  C3  IND d   1       2.851  -1.199  -3.108  0.00  0.00    -0.031 A 
ATOM      4  C4  IND d   1       3.466   0.523  -4.921  0.00  0.00     0.051 A 
ATOM      5  C5  IND d   1       4.516   0.963  -5.676  0.00  0.00    -0.031 A 
ATOM      6  C6  IND d   1       5.759   0.368  -5.614  0.00  0.00     0.015 A 
ATOM      7  C7  IND d   1       5.997  -0.702  -4.798  0.00  0.00    -0.016 A 
ATOM      8  C8  IND d   1       4.934  -1.148  -4.024  0.00  0.00    -0.047 A 
ATOM      9  C9  IND d   1       3.682  -0.521  -4.052  0.00  0.00    -0.096 A 
ATOM     10  HN1 IND d   1       5.501  -2.705  -2.895  0.00  0.00     0.298 HD
ENDROOT
TORSDOF 0
ENDMDL
