MODEL 1
REMARK minimizedAffinity 1.4400816
REMARK minimizedRMSD -1
REMARK  0 active torsions:
REMARK  status: ('A' for Active; 'I' for Inactive)
ROOT
ATOM      1  N1  IND d   1       5.356  -0.750  -2.386  0.00  0.00    -0.196 N 
ATOM      2  C2  IND d   1       4.777   0.223  -1.621  0.00  0.00     0.054 A 
ATOM      3  C3  IND d   1       4.527   1.322  -2.367  0.00  0.00    -0.031 A 
ATOM      4  C4  IND d   1       4.892   1.705  -4.887  0.00  0.00     0.051 A 
ATOM      5  C5  IND d   1       5.429   1.120  -5.999  0.00  0.00    -0.031 A 
ATOM      6  C6  IND d   1       5.977  -0.146  -5.963  0.00  0.00     0.015 A 
ATOM      7  C7  IND d   1       5.999  -0.881  -4.812  0.00  0.00    -0.016 A 
ATOM      8  C8  IND d   1       5.461  -0.287  -3.679  0.00  0.00    -0.047 A 
ATOM      9  C9  IND d   1       4.942   1.014  -3.699  0.00  0.00    -0.096 A 
ATOM     10  HN1 IND d   1       5.612  -1.523  -2.107  0.00  0.00     0.298 HD
ENDROOT
TORSDOF 0
ENDMDL
