MODEL 1
REMARK minimizedAffinity 9.6253252
REMARK minimizedRMSD -1
REMARK  1 active torsions:
REMARK  status: ('A' for Active; 'I' for Inactive)
REMARK    1  A    between atoms: C3_4  and  O_7 
ROOT
ATOM      1  C   UNL d   1      -0.618  -2.500   1.677  0.00  0.00    -0.033 A 
ATOM      2  C1  UNL d   1       0.429  -1.617   1.943  0.00  0.00     0.039 A 
ATOM      3  C2  UNL d   1       0.389  -0.807   3.080  0.00  0.00    -0.080 A 
ATOM      4  C3  UNL d   1      -0.701  -0.891   3.941  0.00  0.00     0.150 A 
ATOM      5  C4  UNL d   1      -1.746  -1.772   3.684  0.00  0.00    -0.007 A 
ATOM      6  C5  UNL d   1      -1.705  -2.579   2.548  0.00  0.00     0.039 A 
ENDROOT
BRANCH   4   7
ATOM      7  O   UNL d   1      -0.786  -0.117   5.060  0.00  0.00    -0.526 OA
ATOM      8  H5  UNL d   1      -0.008   0.463   5.094  0.00  0.00     0.418 HD
ENDBRANCH   4   7
TORSDOF 1
ENDMDL
