MODEL 1
REMARK minimizedAffinity 4.04766035
REMARK minimizedRMSD -1
REMARK  1 active torsions:
REMARK  status: ('A' for Active; 'I' for Inactive)
REMARK    1  A    between atoms: C3_4  and  O_7 
ROOT
ATOM      1  C   UNL d   1      -0.542  -3.308   2.260  0.00  0.00    -0.033 A 
ATOM      2  C1  UNL d   1       0.490  -2.429   1.926  0.00  0.00     0.039 A 
ATOM      3  C2  UNL d   1       0.636  -1.225   2.617  0.00  0.00    -0.080 A 
ATOM      4  C3  UNL d   1      -0.255  -0.913   3.641  0.00  0.00     0.150 A 
ATOM      5  C4  UNL d   1      -1.284  -1.785   3.982  0.00  0.00    -0.007 A 
ATOM      6  C5  UNL d   1      -1.428  -2.987   3.289  0.00  0.00     0.039 A 
ENDROOT
BRANCH   4   7
ATOM      7  O   UNL d   1      -0.156   0.253   4.341  0.00  0.00    -0.526 OA
ATOM      8  H5  UNL d   1       0.583   0.769   3.977  0.00  0.00     0.418 HD
ENDBRANCH   4   7
TORSDOF 1
ENDMDL
