MODEL 1
REMARK minimizedAffinity 0.875612974
REMARK minimizedRMSD -1
REMARK  1 active torsions:
REMARK  status: ('A' for Active; 'I' for Inactive)
REMARK    1  A    between atoms: C3_4  and  O_7 
ROOT
ATOM      1  C   UNL d   1      -0.533  -0.337   5.752  0.00  0.00    -0.033 A 
ATOM      2  C1  UNL d   1       0.131  -0.282   4.525  0.00  0.00     0.039 A 
ATOM      3  C2  UNL d   1      -0.190  -1.191   3.515  0.00  0.00    -0.080 A 
ATOM      4  C3  UNL d   1      -1.174  -2.148   3.744  0.00  0.00     0.150 A 
ATOM      5  C4  UNL d   1      -1.842  -2.206   4.963  0.00  0.00    -0.007 A 
ATOM      6  C5  UNL d   1      -1.520  -1.298   5.971  0.00  0.00     0.039 A 
ENDROOT
BRANCH   4   7
ATOM      7  O   UNL d   1      -1.518  -3.059   2.790  0.00  0.00    -0.526 OA
ATOM      8  H5  UNL d   1      -0.954  -2.917   2.012  0.00  0.00     0.418 HD
ENDBRANCH   4   7
TORSDOF 1
ENDMDL
