MODEL 1
REMARK minimizedAffinity 9.82744503
REMARK minimizedRMSD -1
REMARK  1 active torsions:
REMARK  status: ('A' for Active; 'I' for Inactive)
REMARK    1  A    between atoms: C3_4  and  O_7 
ROOT
ATOM      1  C   UNL d   1      -1.650   2.477  -1.144  0.00  0.00    -0.033 A 
ATOM      2  C1  UNL d   1      -2.933   2.793  -1.594  0.00  0.00     0.039 A 
ATOM      3  C2  UNL d   1      -3.121   3.269  -2.893  0.00  0.00    -0.080 A 
ATOM      4  C3  UNL d   1      -2.020   3.421  -3.731  0.00  0.00     0.150 A 
ATOM      5  C4  UNL d   1      -0.739   3.104  -3.290  0.00  0.00    -0.007 A 
ATOM      6  C5  UNL d   1      -0.553   2.631  -1.992  0.00  0.00     0.039 A 
ENDROOT
BRANCH   4   7
ATOM      7  O   UNL d   1      -2.153   3.886  -5.006  0.00  0.00    -0.526 OA
ATOM      8  H5  UNL d   1      -3.090   4.091  -5.162  0.00  0.00     0.418 HD
ENDBRANCH   4   7
TORSDOF 1
ENDMDL
