MODEL 1
REMARK minimizedAffinity 8.13448048
REMARK minimizedRMSD -1
REMARK  1 active torsions:
REMARK  status: ('A' for Active; 'I' for Inactive)
REMARK    1  A    between atoms: C3_4  and  O_7 
ROOT
ATOM      1  C   UNL d   1       0.386  -6.000  -5.396  0.00  0.00    -0.033 A 
ATOM      2  C1  UNL d   1       1.674  -5.459  -5.396  0.00  0.00     0.039 A 
ATOM      3  C2  UNL d   1       2.204  -4.913  -4.225  0.00  0.00    -0.080 A 
ATOM      4  C3  UNL d   1       1.438  -4.916  -3.062  0.00  0.00     0.150 A 
ATOM      5  C4  UNL d   1       0.156  -5.457  -3.054  0.00  0.00    -0.007 A 
ATOM      6  C5  UNL d   1      -0.372  -6.000  -4.224  0.00  0.00     0.039 A 
ENDROOT
BRANCH   4   7
ATOM      7  O   UNL d   1       1.911  -4.391  -1.896  0.00  0.00    -0.526 OA
ATOM      8  H5  UNL d   1       2.797  -4.028  -2.059  0.00  0.00     0.418 HD
ENDBRANCH   4   7
TORSDOF 1
ENDMDL
