MODEL 1
REMARK minimizedAffinity 6.63034344
REMARK minimizedRMSD -1
REMARK  1 active torsions:
REMARK  status: ('A' for Active; 'I' for Inactive)
REMARK    1  A    between atoms: C3_4  and  O_7 
ROOT
ATOM      1  C   UNL d   1      -3.795  -2.996   2.824  0.00  0.00    -0.033 A 
ATOM      2  C1  UNL d   1      -2.776  -3.738   2.223  0.00  0.00     0.039 A 
ATOM      3  C2  UNL d   1      -3.032  -4.462   1.057  0.00  0.00    -0.080 A 
ATOM      4  C3  UNL d   1      -4.308  -4.435   0.502  0.00  0.00     0.150 A 
ATOM      5  C4  UNL d   1      -5.327  -3.695   1.093  0.00  0.00    -0.007 A 
ATOM      6  C5  UNL d   1      -5.070  -2.974   2.258  0.00  0.00     0.039 A 
ENDROOT
BRANCH   4   7
ATOM      7  O   UNL d   1      -4.607  -5.129  -0.633  0.00  0.00    -0.526 OA
ATOM      8  H5  UNL d   1      -3.814  -5.616  -0.913  0.00  0.00     0.418 HD
ENDBRANCH   4   7
TORSDOF 1
ENDMDL
