MODEL 1
REMARK minimizedAffinity 6.64108849
REMARK minimizedRMSD -1
REMARK  1 active torsions:
REMARK  status: ('A' for Active; 'I' for Inactive)
REMARK    1  A    between atoms: C3_4  and  O_7 
ROOT
ATOM      1  C   UNL d   1      -0.914  -2.520   1.811  0.00  0.00    -0.033 A 
ATOM      2  C1  UNL d   1       0.153  -1.620   1.781  0.00  0.00     0.039 A 
ATOM      3  C2  UNL d   1       0.473  -0.876   2.918  0.00  0.00    -0.080 A 
ATOM      4  C3  UNL d   1      -0.281  -1.040   4.077  0.00  0.00     0.150 A 
ATOM      5  C4  UNL d   1      -1.344  -1.938   4.115  0.00  0.00    -0.007 A 
ATOM      6  C5  UNL d   1      -1.661  -2.680   2.978  0.00  0.00     0.039 A 
ENDROOT
BRANCH   4   7
ATOM      7  O   UNL d   1      -0.011  -0.332   5.210  0.00  0.00    -0.526 OA
ATOM      8  H5  UNL d   1       0.731   0.269   5.028  0.00  0.00     0.418 HD
ENDBRANCH   4   7
TORSDOF 1
ENDMDL
