MODEL 1
REMARK minimizedAffinity 5.17515993
REMARK minimizedRMSD -1
REMARK  1 active torsions:
REMARK  status: ('A' for Active; 'I' for Inactive)
REMARK    1  A    between atoms: C3_4  and  O_7 
ROOT
ATOM      1  C   UNL d   1       1.292  -0.918   2.220  0.00  0.00    -0.033 A 
ATOM      2  C1  UNL d   1       2.420  -0.826   1.404  0.00  0.00     0.039 A 
ATOM      3  C2  UNL d   1       2.887  -1.953   0.724  0.00  0.00    -0.080 A 
ATOM      4  C3  UNL d   1       2.215  -3.164   0.869  0.00  0.00     0.150 A 
ATOM      5  C4  UNL d   1       1.088  -3.262   1.678  0.00  0.00    -0.007 A 
ATOM      6  C5  UNL d   1       0.624  -2.136   2.356  0.00  0.00     0.039 A 
ENDROOT
BRANCH   4   7
ATOM      7  O   UNL d   1       2.636  -4.293   0.230  0.00  0.00    -0.526 OA
ATOM      8  H5  UNL d   1       3.442  -4.081  -0.270  0.00  0.00     0.418 HD
ENDBRANCH   4   7
TORSDOF 1
ENDMDL
