MODEL 1
REMARK minimizedAffinity 6.31978178
REMARK minimizedRMSD -1
REMARK  1 active torsions:
REMARK  status: ('A' for Active; 'I' for Inactive)
REMARK    1  A    between atoms: C3_4  and  O_7 
ROOT
ATOM      1  C   UNL d   1      -4.968   3.254  -1.192  0.00  0.00    -0.033 A 
ATOM      2  C1  UNL d   1      -4.754   2.048  -1.862  0.00  0.00     0.039 A 
ATOM      3  C2  UNL d   1      -3.543   1.817  -2.517  0.00  0.00    -0.080 A 
ATOM      4  C3  UNL d   1      -2.556   2.798  -2.495  0.00  0.00     0.150 A 
ATOM      5  C4  UNL d   1      -2.761   4.001  -1.827  0.00  0.00    -0.007 A 
ATOM      6  C5  UNL d   1      -3.971   4.230  -1.174  0.00  0.00     0.039 A 
ENDROOT
BRANCH   4   7
ATOM      7  O   UNL d   1      -1.359   2.620  -3.124  0.00  0.00    -0.526 OA
ATOM      8  H5  UNL d   1      -1.371   1.756  -3.568  0.00  0.00     0.418 HD
ENDBRANCH   4   7
TORSDOF 1
ENDMDL
