MODEL 1
REMARK minimizedAffinity 2.45930862
REMARK minimizedRMSD -1
REMARK  1 active torsions:
REMARK  status: ('A' for Active; 'I' for Inactive)
REMARK    1  A    between atoms: C3_4  and  O_7 
ROOT
ATOM      1  C   UNL d   1       0.676  -0.446   3.583  0.00  0.00    -0.033 A 
ATOM      2  C1  UNL d   1      -0.393  -0.615   4.465  0.00  0.00     0.039 A 
ATOM      3  C2  UNL d   1      -1.236  -1.721   4.338  0.00  0.00    -0.080 A 
ATOM      4  C3  UNL d   1      -0.999  -2.649   3.327  0.00  0.00     0.150 A 
ATOM      5  C4  UNL d   1       0.067  -2.488   2.448  0.00  0.00    -0.007 A 
ATOM      6  C5  UNL d   1       0.907  -1.383   2.575  0.00  0.00     0.039 A 
ENDROOT
BRANCH   4   7
ATOM      7  O   UNL d   1      -1.797  -3.741   3.161  0.00  0.00    -0.526 OA
ATOM      8  H5  UNL d   1      -2.509  -3.706   3.822  0.00  0.00     0.418 HD
ENDBRANCH   4   7
TORSDOF 1
ENDMDL
