MODEL 1
REMARK minimizedAffinity 3.62873793
REMARK minimizedRMSD -1
REMARK  1 active torsions:
REMARK  status: ('A' for Active; 'I' for Inactive)
REMARK    1  A    between atoms: C3_4  and  O_7 
ROOT
ATOM      1  C   UNL d   1       5.165  -3.975  -6.000  0.00  0.00    -0.033 A 
ATOM      2  C1  UNL d   1       4.435  -2.785  -6.000  0.00  0.00     0.039 A 
ATOM      3  C2  UNL d   1       4.485  -1.934  -4.895  0.00  0.00    -0.080 A 
ATOM      4  C3  UNL d   1       5.267  -2.283  -3.797  0.00  0.00     0.150 A 
ATOM      5  C4  UNL d   1       6.000  -3.466  -3.792  0.00  0.00    -0.007 A 
ATOM      6  C5  UNL d   1       5.948  -4.315  -4.896  0.00  0.00     0.039 A 
ENDROOT
BRANCH   4   7
ATOM      7  O   UNL d   1       5.343  -1.486  -2.694  0.00  0.00    -0.526 OA
ATOM      8  H5  UNL d   1       4.763  -0.719  -2.828  0.00  0.00     0.418 HD
ENDBRANCH   4   7
TORSDOF 1
ENDMDL
