MODEL 1
REMARK minimizedAffinity 4.59092474
REMARK minimizedRMSD -1
REMARK  1 active torsions:
REMARK  status: ('A' for Active; 'I' for Inactive)
REMARK    1  A    between atoms: C3_4  and  O_7 
ROOT
ATOM      1  C   UNL d   1       0.588   2.204  -0.385  0.00  0.00    -0.033 A 
ATOM      2  C1  UNL d   1      -0.704   1.762  -0.677  0.00  0.00     0.039 A 
ATOM      3  C2  UNL d   1      -1.453   2.396  -1.672  0.00  0.00    -0.080 A 
ATOM      4  C3  UNL d   1      -0.898   3.468  -2.366  0.00  0.00     0.150 A 
ATOM      5  C4  UNL d   1       0.390   3.910  -2.083  0.00  0.00    -0.007 A 
ATOM      6  C5  UNL d   1       1.135   3.277  -1.089  0.00  0.00     0.039 A 
ENDROOT
BRANCH   4   7
ATOM      7  O   UNL d   1      -1.591   4.121  -3.341  0.00  0.00    -0.526 OA
ATOM      8  H5  UNL d   1      -2.476   3.724  -3.408  0.00  0.00     0.418 HD
ENDBRANCH   4   7
TORSDOF 1
ENDMDL
