MODEL 1
REMARK minimizedAffinity 3.92717266
REMARK minimizedRMSD -1
REMARK  1 active torsions:
REMARK  status: ('A' for Active; 'I' for Inactive)
REMARK    1  A    between atoms: C3_4  and  O_7 
ROOT
ATOM      1  C   UNL d   1      -1.682  -1.280   5.976  0.00  0.00    -0.033 A 
ATOM      2  C1  UNL d   1      -0.530  -0.638   5.518  0.00  0.00     0.039 A 
ATOM      3  C2  UNL d   1       0.124  -1.104   4.376  0.00  0.00    -0.080 A 
ATOM      4  C3  UNL d   1      -0.384  -2.210   3.701  0.00  0.00     0.150 A 
ATOM      5  C4  UNL d   1      -1.534  -2.853   4.149  0.00  0.00    -0.007 A 
ATOM      6  C5  UNL d   1      -2.185  -2.386   5.290  0.00  0.00     0.039 A 
ENDROOT
BRANCH   4   7
ATOM      7  O   UNL d   1       0.222  -2.705   2.584  0.00  0.00    -0.526 OA
ATOM      8  H5  UNL d   1       1.020  -2.179   2.409  0.00  0.00     0.418 HD
ENDBRANCH   4   7
TORSDOF 1
ENDMDL
