MODEL 1
REMARK minimizedAffinity 2.1212306
REMARK minimizedRMSD -1
REMARK  1 active torsions:
REMARK  status: ('A' for Active; 'I' for Inactive)
REMARK    1  A    between atoms: C3_4  and  O_7 
ROOT
ATOM      1  C   UNL d   1       1.341   3.617  -0.983  0.00  0.00    -0.033 A 
ATOM      2  C1  UNL d   1       0.935   3.934  -2.281  0.00  0.00     0.039 A 
ATOM      3  C2  UNL d   1      -0.085   3.202  -2.894  0.00  0.00    -0.080 A 
ATOM      4  C3  UNL d   1      -0.689   2.159  -2.199  0.00  0.00     0.150 A 
ATOM      5  C4  UNL d   1      -0.292   1.840  -0.904  0.00  0.00    -0.007 A 
ATOM      6  C5  UNL d   1       0.726   2.571  -0.294  0.00  0.00     0.039 A 
ENDROOT
BRANCH   4   7
ATOM      7  O   UNL d   1      -1.685   1.413  -2.757  0.00  0.00    -0.526 OA
ATOM      8  H5  UNL d   1      -1.834   1.729  -3.664  0.00  0.00     0.418 HD
ENDBRANCH   4   7
TORSDOF 1
ENDMDL
