MODEL 1
REMARK minimizedAffinity 9.30020905
REMARK minimizedRMSD -1
REMARK  1 active torsions:
REMARK  status: ('A' for Active; 'I' for Inactive)
REMARK    1  A    between atoms: C3_4  and  O_7 
ROOT
ATOM      1  C   UNL d   1       1.950  -1.821   2.027  0.00  0.00    -0.033 A 
ATOM      2  C1  UNL d   1       2.174  -0.546   2.548  0.00  0.00     0.039 A 
ATOM      3  C2  UNL d   1       1.436  -0.098   3.645  0.00  0.00    -0.080 A 
ATOM      4  C3  UNL d   1       0.478  -0.934   4.212  0.00  0.00     0.150 A 
ATOM      5  C4  UNL d   1       0.252  -2.208   3.700  0.00  0.00    -0.007 A 
ATOM      6  C5  UNL d   1       0.990  -2.653   2.604  0.00  0.00     0.039 A 
ENDROOT
BRANCH   4   7
ATOM      7  O   UNL d   1      -0.270  -0.540   5.281  0.00  0.00    -0.526 OA
ATOM      8  H5  UNL d   1      -0.025   0.373   5.508  0.00  0.00     0.418 HD
ENDBRANCH   4   7
TORSDOF 1
ENDMDL
