MODEL 1
REMARK minimizedAffinity 2.30507183
REMARK minimizedRMSD -1
REMARK  1 active torsions:
REMARK  status: ('A' for Active; 'I' for Inactive)
REMARK    1  A    between atoms: C3_4  and  O_7 
ROOT
ATOM      1  C   UNL d   1       0.824   2.972  -0.212  0.00  0.00    -0.033 A 
ATOM      2  C1  UNL d   1       0.632   4.219  -0.811  0.00  0.00     0.039 A 
ATOM      3  C2  UNL d   1      -0.118   4.324  -1.984  0.00  0.00    -0.080 A 
ATOM      4  C3  UNL d   1      -0.669   3.176  -2.547  0.00  0.00     0.150 A 
ATOM      5  C4  UNL d   1      -0.484   1.932  -1.954  0.00  0.00    -0.007 A 
ATOM      6  C5  UNL d   1       0.265   1.829  -0.783  0.00  0.00     0.039 A 
ENDROOT
BRANCH   4   7
ATOM      7  O   UNL d   1      -1.404   3.228  -3.694  0.00  0.00    -0.526 OA
ATOM      8  H5  UNL d   1      -1.423   4.148  -4.006  0.00  0.00     0.418 HD
ENDBRANCH   4   7
TORSDOF 1
ENDMDL
