MODEL 1
REMARK minimizedAffinity 8.96770763
REMARK minimizedRMSD -1
REMARK  1 active torsions:
REMARK  status: ('A' for Active; 'I' for Inactive)
REMARK    1  A    between atoms: C3_4  and  O_7 
ROOT
ATOM      1  C   UNL d   1       5.996  -4.130  -5.984  0.00  0.00    -0.033 A 
ATOM      2  C1  UNL d   1       4.996  -3.157  -5.974  0.00  0.00     0.039 A 
ATOM      3  C2  UNL d   1       3.652  -3.535  -5.978  0.00  0.00    -0.080 A 
ATOM      4  C3  UNL d   1       3.322  -4.888  -5.990  0.00  0.00     0.150 A 
ATOM      5  C4  UNL d   1       4.314  -5.863  -5.996  0.00  0.00    -0.007 A 
ATOM      6  C5  UNL d   1       5.656  -5.483  -5.994  0.00  0.00     0.039 A 
ENDROOT
BRANCH   4   7
ATOM      7  O   UNL d   1       2.024  -5.305  -5.999  0.00  0.00    -0.526 OA
ATOM      8  H5  UNL d   1       1.449  -4.522  -6.022  0.00  0.00     0.418 HD
ENDBRANCH   4   7
TORSDOF 1
ENDMDL
