MODEL 1
REMARK minimizedAffinity 16.0536461
REMARK minimizedRMSD -1
REMARK  1 active torsions:
REMARK  status: ('A' for Active; 'I' for Inactive)
REMARK    1  A    between atoms: C3_4  and  O_7 
ROOT
ATOM      1  C   UNL d   1       0.711  -2.310   0.980  0.00  0.00    -0.033 A 
ATOM      2  C1  UNL d   1       2.079  -2.359   0.705  0.00  0.00     0.039 A 
ATOM      3  C2  UNL d   1       2.835  -1.185   0.706  0.00  0.00    -0.080 A 
ATOM      4  C3  UNL d   1       2.212   0.029   0.984  0.00  0.00     0.150 A 
ATOM      5  C4  UNL d   1       0.850   0.084   1.263  0.00  0.00    -0.007 A 
ATOM      6  C5  UNL d   1       0.097  -1.090   1.261  0.00  0.00     0.039 A 
ENDROOT
BRANCH   4   7
ATOM      7  O   UNL d   1       2.907   1.202   0.991  0.00  0.00    -0.526 OA
ATOM      8  H5  UNL d   1       3.830   1.014   0.753  0.00  0.00     0.418 HD
ENDBRANCH   4   7
TORSDOF 1
ENDMDL
