MODEL 1
REMARK minimizedAffinity 4.30773306
REMARK minimizedRMSD -1
REMARK  1 active torsions:
REMARK  status: ('A' for Active; 'I' for Inactive)
REMARK    1  A    between atoms: C1_2  and  C2_3 
ROOT
ATOM      1  C2  UNL d   1       3.815   1.101  -0.024  0.00  0.00    -0.081 A 
ATOM      2  C3  UNL d   1       2.564   0.762  -0.553  0.00  0.00     0.006 A 
ATOM      3  C4  UNL d   1       1.391   1.218   0.052  0.00  0.00     0.002 A 
ATOM      4  C5  UNL d   1       1.449   2.027   1.192  0.00  0.00    -0.080 A 
ATOM      5  C6  UNL d   1       0.198   2.549   1.834  0.00  0.00     0.076 C 
ATOM      6  C7  UNL d   1       2.698   2.352   1.732  0.00  0.00     0.002 A 
ATOM      7  C8  UNL d   1       3.871   1.895   1.127  0.00  0.00     0.006 A 
ENDROOT
BRANCH   1   8
ATOM      8  C1  UNL d   1       5.082   0.664  -0.712  0.00  0.00     0.054 C 
ATOM      9  C   UNL d   1       6.000  -0.087   0.243  0.00  0.00     0.018 C 
ENDBRANCH   1   8
TORSDOF 1
ENDMDL
