MODEL 1
REMARK minimizedAffinity 11.7211294
REMARK minimizedRMSD -1
REMARK  1 active torsions:
REMARK  status: ('A' for Active; 'I' for Inactive)
REMARK    1  A    between atoms: C1_2  and  C2_3 
ROOT
ATOM      1  C2  UNL d   1       5.605   2.078  -0.548  0.00  0.00    -0.081 A 
ATOM      2  C3  UNL d   1       5.636   2.193   0.847  0.00  0.00     0.006 A 
ATOM      3  C4  UNL d   1       5.776   3.445   1.451  0.00  0.00     0.002 A 
ATOM      4  C5  UNL d   1       5.878   4.602   0.672  0.00  0.00    -0.080 A 
ATOM      5  C6  UNL d   1       5.998   5.954   1.309  0.00  0.00     0.076 C 
ATOM      6  C7  UNL d   1       5.865   4.485  -0.722  0.00  0.00     0.002 A 
ATOM      7  C8  UNL d   1       5.726   3.234  -1.327  0.00  0.00     0.006 A 
ENDROOT
BRANCH   1   8
ATOM      8  C1  UNL d   1       5.390   0.737  -1.202  0.00  0.00     0.054 C 
ATOM      9  C   UNL d   1       4.145   0.050  -0.659  0.00  0.00     0.018 C 
ENDBRANCH   1   8
TORSDOF 1
ENDMDL
