MODEL 1
REMARK minimizedAffinity 12.6515589
REMARK minimizedRMSD -1
REMARK  1 active torsions:
REMARK  status: ('A' for Active; 'I' for Inactive)
REMARK    1  A    between atoms: C1_2  and  C2_3 
ROOT
ATOM      1  C2  UNL d   1       1.525  -3.980  -0.983  0.00  0.00    -0.081 A 
ATOM      2  C3  UNL d   1       1.849  -3.633   0.334  0.00  0.00     0.006 A 
ATOM      3  C4  UNL d   1       2.570  -2.468   0.602  0.00  0.00     0.002 A 
ATOM      4  C5  UNL d   1       2.972  -1.626  -0.440  0.00  0.00    -0.080 A 
ATOM      5  C6  UNL d   1       3.721  -0.356  -0.164  0.00  0.00     0.076 C 
ATOM      6  C7  UNL d   1       2.664  -1.982  -1.758  0.00  0.00     0.002 A 
ATOM      7  C8  UNL d   1       1.943  -3.147  -2.027  0.00  0.00     0.006 A 
ENDROOT
BRANCH   1   8
ATOM      8  C1  UNL d   1       0.691  -5.203  -1.271  0.00  0.00     0.054 C 
ATOM      9  C   UNL d   1      -0.648  -4.827  -1.889  0.00  0.00     0.018 C 
ENDBRANCH   1   8
TORSDOF 1
ENDMDL
