MODEL 1
REMARK minimizedAffinity 9.71170807
REMARK minimizedRMSD -1
REMARK  1 active torsions:
REMARK  status: ('A' for Active; 'I' for Inactive)
REMARK    1  A    between atoms: C1_2  and  C2_3 
ROOT
ATOM      1  C2  UNL d   1       2.259  -0.076   0.203  0.00  0.00    -0.081 A 
ATOM      2  C3  UNL d   1       1.448   0.440  -0.815  0.00  0.00     0.006 A 
ATOM      3  C4  UNL d   1       0.320   1.202  -0.504  0.00  0.00     0.002 A 
ATOM      4  C5  UNL d   1      -0.012   1.467   0.829  0.00  0.00    -0.080 A 
ATOM      5  C6  UNL d   1      -1.204   2.309   1.176  0.00  0.00     0.076 C 
ATOM      6  C7  UNL d   1       0.788   0.937   1.847  0.00  0.00     0.002 A 
ATOM      7  C8  UNL d   1       1.916   0.175   1.536  0.00  0.00     0.006 A 
ENDROOT
BRANCH   1   8
ATOM      8  C1  UNL d   1       3.513  -0.844  -0.130  0.00  0.00     0.054 C 
ATOM      9  C   UNL d   1       4.549   0.051  -0.797  0.00  0.00     0.018 C 
ENDBRANCH   1   8
TORSDOF 1
ENDMDL
