MODEL 1
REMARK minimizedAffinity 10.0510283
REMARK minimizedRMSD -1
REMARK  1 active torsions:
REMARK  status: ('A' for Active; 'I' for Inactive)
REMARK    1  A    between atoms: C1_2  and  C2_3 
ROOT
ATOM      1  C2  UNL d   1       2.136   0.265  -0.297  0.00  0.00    -0.081 A 
ATOM      2  C3  UNL d   1       1.184   0.684  -1.235  0.00  0.00     0.006 A 
ATOM      3  C4  UNL d   1      -0.052   1.182  -0.816  0.00  0.00     0.002 A 
ATOM      4  C5  UNL d   1      -0.354   1.277   0.547  0.00  0.00    -0.080 A 
ATOM      5  C6  UNL d   1      -1.665   1.839   1.010  0.00  0.00     0.076 C 
ATOM      6  C7  UNL d   1       0.590   0.842   1.484  0.00  0.00     0.002 A 
ATOM      7  C8  UNL d   1       1.826   0.343   1.065  0.00  0.00     0.006 A 
ENDROOT
BRANCH   1   8
ATOM      8  C1  UNL d   1       3.494  -0.213  -0.743  0.00  0.00     0.054 C 
ATOM      9  C   UNL d   1       4.499   0.930  -0.776  0.00  0.00     0.018 C 
ENDBRANCH   1   8
TORSDOF 1
ENDMDL
