MODEL 1
REMARK minimizedAffinity 11.1599445
REMARK minimizedRMSD -1
REMARK  1 active torsions:
REMARK  status: ('A' for Active; 'I' for Inactive)
REMARK    1  A    between atoms: C1_2  and  C2_3 
ROOT
ATOM      1  C2  UNL d   1       4.024  -0.128  -0.024  0.00  0.00    -0.081 A 
ATOM      2  C3  UNL d   1       3.326   0.844  -0.750  0.00  0.00     0.006 A 
ATOM      3  C4  UNL d   1       3.959   2.028  -1.138  0.00  0.00     0.002 A 
ATOM      4  C5  UNL d   1       5.300   2.255  -0.813  0.00  0.00    -0.080 A 
ATOM      5  C6  UNL d   1       6.000   3.508  -1.249  0.00  0.00     0.076 C 
ATOM      6  C7  UNL d   1       5.992   1.291  -0.072  0.00  0.00     0.002 A 
ATOM      7  C8  UNL d   1       5.360   0.108   0.317  0.00  0.00     0.006 A 
ENDROOT
BRANCH   1   8
ATOM      8  C1  UNL d   1       3.363  -1.434   0.340  0.00  0.00     0.054 C 
ATOM      9  C   UNL d   1       2.585  -2.007  -0.836  0.00  0.00     0.018 C 
ENDBRANCH   1   8
TORSDOF 1
ENDMDL
