MODEL 1
REMARK minimizedAffinity 12.1524458
REMARK minimizedRMSD -1
REMARK  1 active torsions:
REMARK  status: ('A' for Active; 'I' for Inactive)
REMARK    1  A    between atoms: C1_2  and  C2_3 
ROOT
ATOM      1  C2  UNL d   1       2.943  -1.316  -1.086  0.00  0.00    -0.081 A 
ATOM      2  C3  UNL d   1       3.889  -1.013  -2.073  0.00  0.00     0.006 A 
ATOM      3  C4  UNL d   1       4.547   0.219  -2.069  0.00  0.00     0.002 A 
ATOM      4  C5  UNL d   1       4.276   1.165  -1.075  0.00  0.00    -0.080 A 
ATOM      5  C6  UNL d   1       4.998   2.479  -1.042  0.00  0.00     0.076 C 
ATOM      6  C7  UNL d   1       3.319   0.869  -0.099  0.00  0.00     0.002 A 
ATOM      7  C8  UNL d   1       2.660  -0.362  -0.102  0.00  0.00     0.006 A 
ENDROOT
BRANCH   1   8
ATOM      8  C1  UNL d   1       2.279  -2.669  -1.050  0.00  0.00     0.054 C 
ATOM      9  C   UNL d   1       2.744  -3.545  -2.204  0.00  0.00     0.018 C 
ENDBRANCH   1   8
TORSDOF 1
ENDMDL
