MODEL 1
REMARK minimizedAffinity -1.0873841
REMARK minimizedRMSD -1
REMARK  1 active torsions:
REMARK  status: ('A' for Active; 'I' for Inactive)
REMARK    1  A    between atoms: C1_2  and  C2_3 
ROOT
ATOM      1  C2  UNL d   1       5.978   4.551   1.540  0.00  0.00    -0.081 A 
ATOM      2  C3  UNL d   1       5.892   3.439   2.386  0.00  0.00     0.006 A 
ATOM      3  C4  UNL d   1       5.816   3.606   3.771  0.00  0.00     0.002 A 
ATOM      4  C5  UNL d   1       5.818   4.888   4.332  0.00  0.00    -0.080 A 
ATOM      5  C6  UNL d   1       5.707   5.083   5.815  0.00  0.00     0.076 C 
ATOM      6  C7  UNL d   1       5.923   5.999   3.488  0.00  0.00     0.002 A 
ATOM      7  C8  UNL d   1       5.999   5.832   2.103  0.00  0.00     0.006 A 
ENDROOT
BRANCH   1   8
ATOM      8  C1  UNL d   1       5.995   4.375   0.043  0.00  0.00     0.054 C 
ATOM      9  C   UNL d   1       6.000   5.719  -0.671  0.00  0.00     0.018 C 
ENDBRANCH   1   8
TORSDOF 1
ENDMDL
