MODEL 1
REMARK minimizedAffinity 17.9717407
REMARK minimizedRMSD -1
REMARK  1 active torsions:
REMARK  status: ('A' for Active; 'I' for Inactive)
REMARK    1  A    between atoms: C1_2  and  C2_3 
ROOT
ATOM      1  C2  UNL d   1       2.814  -1.693  -2.058  0.00  0.00    -0.081 A 
ATOM      2  C3  UNL d   1       3.534  -0.578  -2.506  0.00  0.00     0.006 A 
ATOM      3  C4  UNL d   1       4.081   0.325  -1.593  0.00  0.00     0.002 A 
ATOM      4  C5  UNL d   1       3.926   0.126  -0.217  0.00  0.00    -0.080 A 
ATOM      5  C6  UNL d   1       4.534   1.072   0.775  0.00  0.00     0.076 C 
ATOM      6  C7  UNL d   1       3.192  -0.978   0.231  0.00  0.00     0.002 A 
ATOM      7  C8  UNL d   1       2.643  -1.881  -0.682  0.00  0.00     0.006 A 
ENDROOT
BRANCH   1   8
ATOM      8  C1  UNL d   1       2.278  -2.704  -3.039  0.00  0.00     0.054 C 
ATOM      9  C   UNL d   1       3.360  -3.167  -4.004  0.00  0.00     0.018 C 
ENDBRANCH   1   8
TORSDOF 1
ENDMDL
