MODEL 1
REMARK minimizedAffinity 4.17955208
REMARK minimizedRMSD -1
REMARK  1 active torsions:
REMARK  status: ('A' for Active; 'I' for Inactive)
REMARK    1  A    between atoms: C1_2  and  C2_3 
ROOT
ATOM      1  C2  UNL d   1       1.363  -1.195  -0.309  0.00  0.00    -0.077 A 
ATOM      2  C3  UNL d   1       1.913  -0.083   0.344  0.00  0.00     0.002 A 
ATOM      3  C4  UNL d   1       1.835   1.185  -0.234  0.00  0.00     0.002 A 
ATOM      4  C5  UNL d   1       1.205   1.354  -1.466  0.00  0.00    -0.004 A 
ATOM      5  C6  UNL d   1       0.657   0.254  -2.124  0.00  0.00     0.002 A 
ATOM      6  C7  UNL d   1       0.735  -1.015  -1.548  0.00  0.00     0.002 A 
ENDROOT
BRANCH   1   7
ATOM      7  C1  UNL d   1       1.402  -2.556   0.336  0.00  0.00     0.055 C 
ATOM      8  C   UNL d   1       2.707  -3.276   0.031  0.00  0.00     0.019 C 
ENDBRANCH   1   7
TORSDOF 1
ENDMDL
