MODEL 1
REMARK minimizedAffinity 5.11509132
REMARK minimizedRMSD -1
REMARK  1 active torsions:
REMARK  status: ('A' for Active; 'I' for Inactive)
REMARK    1  A    between atoms: C1_2  and  C2_3 
ROOT
ATOM      1  C2  UNL d   1      -0.120   1.122  -1.697  0.00  0.00    -0.077 A 
ATOM      2  C3  UNL d   1       0.293   0.129  -0.797  0.00  0.00     0.002 A 
ATOM      3  C4  UNL d   1       1.616   0.085  -0.353  0.00  0.00     0.002 A 
ATOM      4  C5  UNL d   1       2.535   1.033  -0.799  0.00  0.00    -0.004 A 
ATOM      5  C6  UNL d   1       2.134   2.024  -1.695  0.00  0.00     0.002 A 
ATOM      6  C7  UNL d   1       0.812   2.068  -2.141  0.00  0.00     0.002 A 
ENDROOT
BRANCH   1   7
ATOM      7  C1  UNL d   1      -1.558   1.201  -2.138  0.00  0.00     0.055 C 
ATOM      8  C   UNL d   1      -2.086   2.626  -2.055  0.00  0.00     0.019 C 
ENDBRANCH   1   7
TORSDOF 1
ENDMDL
