MODEL 1
REMARK minimizedAffinity 1.90197098
REMARK minimizedRMSD -1
REMARK  1 active torsions:
REMARK  status: ('A' for Active; 'I' for Inactive)
REMARK    1  A    between atoms: C1_2  and  C2_3 
ROOT
ATOM      1  C2  UNL d   1       1.454   1.242   0.045  0.00  0.00    -0.077 A 
ATOM      2  C3  UNL d   1       1.422   1.838  -1.223  0.00  0.00     0.002 A 
ATOM      3  C4  UNL d   1       1.173   1.066  -2.360  0.00  0.00     0.002 A 
ATOM      4  C5  UNL d   1       0.951  -0.304  -2.239  0.00  0.00    -0.004 A 
ATOM      5  C6  UNL d   1       0.983  -0.907  -0.982  0.00  0.00     0.002 A 
ATOM      6  C7  UNL d   1       1.233  -0.137   0.155  0.00  0.00     0.002 A 
ENDROOT
BRANCH   1   7
ATOM      7  C1  UNL d   1       1.674   2.080   1.278  0.00  0.00     0.055 C 
ATOM      8  C   UNL d   1       2.058   1.219   2.472  0.00  0.00     0.019 C 
ENDBRANCH   1   7
TORSDOF 1
ENDMDL
