MODEL 1
REMARK minimizedAffinity 0.845865488
REMARK minimizedRMSD -1
REMARK  1 active torsions:
REMARK  status: ('A' for Active; 'I' for Inactive)
REMARK    1  A    between atoms: C1_2  and  C2_3 
ROOT
ATOM      1  C2  UNL d   1       1.544   1.181   0.015  0.00  0.00    -0.077 A 
ATOM      2  C3  UNL d   1       1.768   2.171  -0.951  0.00  0.00     0.002 A 
ATOM      3  C4  UNL d   1       1.468   1.929  -2.293  0.00  0.00     0.002 A 
ATOM      4  C5  UNL d   1       0.939   0.700  -2.680  0.00  0.00    -0.004 A 
ATOM      5  C6  UNL d   1       0.714  -0.292  -1.726  0.00  0.00     0.002 A 
ATOM      6  C7  UNL d   1       1.015  -0.053  -0.385  0.00  0.00     0.002 A 
ENDROOT
BRANCH   1   7
ATOM      7  C1  UNL d   1       1.821   1.457   1.470  0.00  0.00     0.055 C 
ATOM      8  C   UNL d   1       1.597   2.924   1.808  0.00  0.00     0.019 C 
ENDBRANCH   1   7
TORSDOF 1
ENDMDL
