MODEL 1
REMARK minimizedAffinity -2.84079146
REMARK minimizedRMSD -1
REMARK  1 active torsions:
REMARK  status: ('A' for Active; 'I' for Inactive)
REMARK    1  A    between atoms: C1_2  and  C2_3 
ROOT
ATOM      1  C2  UNL d   1       1.910   2.777  -1.181  0.00  0.00    -0.077 A 
ATOM      2  C3  UNL d   1       1.728   2.580   0.195  0.00  0.00     0.002 A 
ATOM      3  C4  UNL d   1       1.269   1.353   0.678  0.00  0.00     0.002 A 
ATOM      4  C5  UNL d   1       0.993   0.313  -0.207  0.00  0.00    -0.004 A 
ATOM      5  C6  UNL d   1       1.169   0.499  -1.577  0.00  0.00     0.002 A 
ATOM      6  C7  UNL d   1       1.627   1.725  -2.062  0.00  0.00     0.002 A 
ENDROOT
BRANCH   1   7
ATOM      7  C1  UNL d   1       2.452   4.083  -1.700  0.00  0.00     0.055 C 
ATOM      8  C   UNL d   1       2.617   5.098  -0.578  0.00  0.00     0.019 C 
ENDBRANCH   1   7
TORSDOF 1
ENDMDL
