MODEL 1
REMARK minimizedAffinity 8.91724777
REMARK minimizedRMSD -1
REMARK  1 active torsions:
REMARK  status: ('A' for Active; 'I' for Inactive)
REMARK    1  A    between atoms: C1_2  and  C2_3 
ROOT
ATOM      1  C2  UNL d   1       1.875   3.611  -1.762  0.00  0.00    -0.077 A 
ATOM      2  C3  UNL d   1       1.961   2.748  -0.661  0.00  0.00     0.002 A 
ATOM      3  C4  UNL d   1       1.104   1.650  -0.555  0.00  0.00     0.002 A 
ATOM      4  C5  UNL d   1       0.159   1.404  -1.549  0.00  0.00    -0.004 A 
ATOM      5  C6  UNL d   1       0.064   2.258  -2.647  0.00  0.00     0.002 A 
ATOM      6  C7  UNL d   1       0.919   3.356  -2.754  0.00  0.00     0.002 A 
ENDROOT
BRANCH   1   7
ATOM      7  C1  UNL d   1       2.831   4.767  -1.902  0.00  0.00     0.055 C 
ATOM      8  C   UNL d   1       2.319   6.000  -1.172  0.00  0.00     0.019 C 
ENDBRANCH   1   7
TORSDOF 1
ENDMDL
