MODEL 1
REMARK minimizedAffinity 0.619852543
REMARK minimizedRMSD -1
REMARK  1 active torsions:
REMARK  status: ('A' for Active; 'I' for Inactive)
REMARK    1  A    between atoms: C1_2  and  C2_3 
ROOT
ATOM      1  C2  UNL d   1      -2.280   1.801   3.594  0.00  0.00    -0.077 A 
ATOM      2  C3  UNL d   1      -3.361   1.028   3.149  0.00  0.00     0.002 A 
ATOM      3  C4  UNL d   1      -3.931   1.266   1.897  0.00  0.00     0.002 A 
ATOM      4  C5  UNL d   1      -3.424   2.273   1.079  0.00  0.00    -0.004 A 
ATOM      5  C6  UNL d   1      -2.350   3.049   1.513  0.00  0.00     0.002 A 
ATOM      6  C7  UNL d   1      -1.780   2.813   2.765  0.00  0.00     0.002 A 
ENDROOT
BRANCH   1   7
ATOM      7  C1  UNL d   1      -1.632   1.514   4.924  0.00  0.00     0.055 C 
ATOM      8  C   UNL d   1      -2.322   0.361   5.638  0.00  0.00     0.019 C 
ENDBRANCH   1   7
TORSDOF 1
ENDMDL
