MODEL 1
REMARK minimizedAffinity 3.51379204
REMARK minimizedRMSD -1
REMARK  1 active torsions:
REMARK  status: ('A' for Active; 'I' for Inactive)
REMARK    1  A    between atoms: C1_2  and  C2_3 
ROOT
ATOM      1  C2  UNL d   1       1.481   1.850  -1.009  0.00  0.00    -0.077 A 
ATOM      2  C3  UNL d   1       1.767   1.956   0.360  0.00  0.00     0.002 A 
ATOM      3  C4  UNL d   1       1.661   0.839   1.192  0.00  0.00     0.002 A 
ATOM      4  C5  UNL d   1       1.275  -0.391   0.664  0.00  0.00    -0.004 A 
ATOM      5  C6  UNL d   1       0.987  -0.506  -0.695  0.00  0.00     0.002 A 
ATOM      6  C7  UNL d   1       1.090   0.609  -1.528  0.00  0.00     0.002 A 
ENDROOT
BRANCH   1   7
ATOM      7  C1  UNL d   1       1.641   3.042  -1.916  0.00  0.00     0.055 C 
ATOM      8  C   UNL d   1       2.336   4.192  -1.202  0.00  0.00     0.019 C 
ENDBRANCH   1   7
TORSDOF 1
ENDMDL
