MODEL 1
REMARK minimizedAffinity 1.68024886
REMARK minimizedRMSD -1
REMARK  1 active torsions:
REMARK  status: ('A' for Active; 'I' for Inactive)
REMARK    1  A    between atoms: C1_2  and  C2_3 
ROOT
ATOM      1  C2  UNL d   1       0.808  -0.008  -1.444  0.00  0.00    -0.077 A 
ATOM      2  C3  UNL d   1       0.790   1.099  -2.304  0.00  0.00     0.002 A 
ATOM      3  C4  UNL d   1       1.167   2.361  -1.839  0.00  0.00     0.002 A 
ATOM      4  C5  UNL d   1       1.568   2.526  -0.515  0.00  0.00    -0.004 A 
ATOM      5  C6  UNL d   1       1.587   1.431   0.349  0.00  0.00     0.002 A 
ATOM      6  C7  UNL d   1       1.210   0.170  -0.114  0.00  0.00     0.002 A 
ENDROOT
BRANCH   1   7
ATOM      7  C1  UNL d   1       0.449  -1.378  -1.956  0.00  0.00     0.055 C 
ATOM      8  C   UNL d   1       0.895  -2.465  -0.989  0.00  0.00     0.019 C 
ENDBRANCH   1   7
TORSDOF 1
ENDMDL
