MODEL 1
REMARK minimizedAffinity -2.93572235
REMARK minimizedRMSD -1
REMARK  1 active torsions:
REMARK  status: ('A' for Active; 'I' for Inactive)
REMARK    1  A    between atoms: C1_2  and  C2_3 
ROOT
ATOM      1  C2  UNL d   1       1.481  -0.781  -0.399  0.00  0.00    -0.077 A 
ATOM      2  C3  UNL d   1       2.170  -0.161   0.653  0.00  0.00     0.002 A 
ATOM      3  C4  UNL d   1       2.165   1.229   0.778  0.00  0.00     0.002 A 
ATOM      4  C5  UNL d   1       1.471   2.011  -0.142  0.00  0.00    -0.004 A 
ATOM      5  C6  UNL d   1       0.784   1.404  -1.194  0.00  0.00     0.002 A 
ATOM      6  C7  UNL d   1       0.788   0.015  -1.321  0.00  0.00     0.002 A 
ENDROOT
BRANCH   1   7
ATOM      7  C1  UNL d   1       1.443  -2.283  -0.508  0.00  0.00     0.055 C 
ATOM      8  C   UNL d   1       0.163  -2.758  -1.179  0.00  0.00     0.019 C 
ENDBRANCH   1   7
TORSDOF 1
ENDMDL
