MODEL 1
REMARK minimizedAffinity 5.00136948
REMARK minimizedRMSD -1
REMARK  2 active torsions:
REMARK  status: ('A' for Active; 'I' for Inactive)
REMARK    1  A    between atoms: C2'_3  and  C1'_4 
REMARK    2  A    between atoms: C1'_4  and  C1_5 
ROOT
ATOM      1  C1  I4B d   1      -5.568   1.215   0.490  0.00  0.00    -0.075 A 
ATOM      2  C2  I4B d   1      -5.275  -0.038   0.967  0.00  0.00     0.003 A 
ATOM      3  C3  I4B d   1      -4.925  -1.078   0.072  0.00  0.00     0.002 A 
ATOM      4  C4  I4B d   1      -4.930  -0.836  -1.286  0.00  0.00    -0.004 A 
ATOM      5  C5  I4B d   1      -5.205   0.441  -1.767  0.00  0.00     0.002 A 
ATOM      6  C6  I4B d   1      -5.514   1.477  -0.873  0.00  0.00     0.003 A 
ENDROOT
BRANCH   1   7
ATOM      7  C1' I4B d   1      -5.966   2.281   1.461  0.00  0.00     0.060 C 
BRANCH   7   8
ATOM      8  C2' I4B d   1      -5.442   3.604   0.941  0.00  0.00    -0.013 C 
ATOM      9  C4' I4B d   1      -5.997   4.759   1.734  0.00  0.00     0.013 C 
ATOM     10  C3' I4B d   1      -3.945   3.569   1.011  0.00  0.00     0.013 C 
ENDBRANCH   7   8
ENDBRANCH   1   7
TORSDOF 2
ENDMDL
