MODEL 1
REMARK minimizedAffinity 3.87392616
REMARK minimizedRMSD -1
REMARK  2 active torsions:
REMARK  status: ('A' for Active; 'I' for Inactive)
REMARK    1  A    between atoms: C2'_3  and  C1'_4 
REMARK    2  A    between atoms: C1'_4  and  C1_5 
ROOT
ATOM      1  C1  I4B d   1       3.094   0.943  -1.282  0.00  0.00    -0.075 A 
ATOM      2  C2  I4B d   1       2.862   0.392  -2.518  0.00  0.00     0.003 A 
ATOM      3  C3  I4B d   1       2.330  -0.916  -2.627  0.00  0.00     0.002 A 
ATOM      4  C4  I4B d   1       2.094  -1.651  -1.484  0.00  0.00    -0.004 A 
ATOM      5  C5  I4B d   1       2.308  -1.083  -0.231  0.00  0.00     0.002 A 
ATOM      6  C6  I4B d   1       2.800   0.226  -0.129  0.00  0.00     0.003 A 
ENDROOT
BRANCH   1   7
ATOM      7  C1' I4B d   1       3.686   2.314  -1.203  0.00  0.00     0.060 C 
BRANCH   7   8
ATOM      8  C2' I4B d   1       4.990   2.215  -0.437  0.00  0.00    -0.013 C 
ATOM      9  C4' I4B d   1       5.930   1.233  -1.085  0.00  0.00     0.013 C 
ATOM     10  C3' I4B d   1       5.596   3.586  -0.378  0.00  0.00     0.013 C 
ENDBRANCH   7   8
ENDBRANCH   1   7
TORSDOF 2
ENDMDL
