MODEL 1
REMARK minimizedAffinity 0.642645419
REMARK minimizedRMSD -1
REMARK  2 active torsions:
REMARK  status: ('A' for Active; 'I' for Inactive)
REMARK    1  A    between atoms: C2'_3  and  C1'_4 
REMARK    2  A    between atoms: C1'_4  and  C1_5 
ROOT
ATOM      1  C1  I4B d   1      -4.690   1.133  -3.382  0.00  0.00    -0.075 A 
ATOM      2  C2  I4B d   1      -4.365   1.311  -4.704  0.00  0.00     0.003 A 
ATOM      3  C3  I4B d   1      -3.134   0.824  -5.207  0.00  0.00     0.002 A 
ATOM      4  C4  I4B d   1      -2.242   0.214  -4.348  0.00  0.00    -0.004 A 
ATOM      5  C5  I4B d   1      -2.583   0.014  -3.014  0.00  0.00     0.002 A 
ATOM      6  C6  I4B d   1      -3.820   0.465  -2.530  0.00  0.00     0.003 A 
ENDROOT
BRANCH   1   7
ATOM      7  C1' I4B d   1      -5.983   1.689  -2.877  0.00  0.00     0.060 C 
BRANCH   7   8
ATOM      8  C2' I4B d   1      -5.842   3.195  -2.790  0.00  0.00    -0.013 C 
ATOM      9  C4' I4B d   1      -4.515   3.584  -2.193  0.00  0.00     0.013 C 
ATOM     10  C3' I4B d   1      -6.000   3.755  -4.172  0.00  0.00     0.013 C 
ENDBRANCH   7   8
ENDBRANCH   1   7
TORSDOF 2
ENDMDL
