MODEL 1
REMARK minimizedAffinity 3.76975584
REMARK minimizedRMSD -1
REMARK  2 active torsions:
REMARK  status: ('A' for Active; 'I' for Inactive)
REMARK    1  A    between atoms: C2'_3  and  C1'_4 
REMARK    2  A    between atoms: C1'_4  and  C1_5 
ROOT
ATOM      1  C1  I4B d   1      -4.414   1.500  -2.616  0.00  0.00    -0.075 A 
ATOM      2  C2  I4B d   1      -3.748   0.422  -2.088  0.00  0.00     0.003 A 
ATOM      3  C3  I4B d   1      -4.213  -0.189  -0.897  0.00  0.00     0.002 A 
ATOM      4  C4  I4B d   1      -5.309   0.339  -0.246  0.00  0.00    -0.004 A 
ATOM      5  C5  I4B d   1      -5.996   1.417  -0.795  0.00  0.00     0.002 A 
ATOM      6  C6  I4B d   1      -5.553   1.994  -1.995  0.00  0.00     0.003 A 
ENDROOT
BRANCH   1   7
ATOM      7  C1' I4B d   1      -3.877   2.141  -3.857  0.00  0.00     0.060 C 
BRANCH   7   8
ATOM      8  C2' I4B d   1      -3.589   1.044  -4.861  0.00  0.00    -0.013 C 
ATOM      9  C4' I4B d   1      -2.656   0.010  -4.287  0.00  0.00     0.013 C 
ATOM     10  C3' I4B d   1      -4.896   0.430  -5.264  0.00  0.00     0.013 C 
ENDBRANCH   7   8
ENDBRANCH   1   7
TORSDOF 2
ENDMDL
