MODEL 1
REMARK minimizedAffinity 14.3464346
REMARK minimizedRMSD -1
REMARK  2 active torsions:
REMARK  status: ('A' for Active; 'I' for Inactive)
REMARK    1  A    between atoms: C2'_3  and  C1'_4 
REMARK    2  A    between atoms: C1'_4  and  C1_5 
ROOT
ATOM      1  C1  I4B d   1      -4.947   2.254  -2.901  0.00  0.00    -0.075 A 
ATOM      2  C2  I4B d   1      -3.653   2.660  -2.693  0.00  0.00     0.003 A 
ATOM      3  C3  I4B d   1      -3.006   3.492  -3.640  0.00  0.00     0.002 A 
ATOM      4  C4  I4B d   1      -3.669   3.849  -4.796  0.00  0.00    -0.004 A 
ATOM      5  C5  I4B d   1      -4.989   3.454  -4.994  0.00  0.00     0.002 A 
ATOM      6  C6  I4B d   1      -5.637   2.662  -4.036  0.00  0.00     0.003 A 
ENDROOT
BRANCH   1   7
ATOM      7  C1' I4B d   1      -5.588   1.349  -1.898  0.00  0.00     0.060 C 
BRANCH   7   8
ATOM      8  C2' I4B d   1      -5.053  -0.051  -2.121  0.00  0.00    -0.013 C 
ATOM      9  C4' I4B d   1      -4.897  -0.789  -0.818  0.00  0.00     0.013 C 
ATOM     10  C3' I4B d   1      -5.997  -0.767  -3.040  0.00  0.00     0.013 C 
ENDBRANCH   7   8
ENDBRANCH   1   7
TORSDOF 2
ENDMDL
