MODEL 1
REMARK minimizedAffinity 6.52275944
REMARK minimizedRMSD -1
REMARK  2 active torsions:
REMARK  status: ('A' for Active; 'I' for Inactive)
REMARK    1  A    between atoms: C2'_3  and  C1'_4 
REMARK    2  A    between atoms: C1'_4  and  C1_5 
ROOT
ATOM      1  C1  I4B d   1       0.038  -1.983  -0.654  0.00  0.00    -0.075 A 
ATOM      2  C2  I4B d   1      -0.293  -0.654  -0.564  0.00  0.00     0.003 A 
ATOM      3  C3  I4B d   1       0.714   0.338  -0.640  0.00  0.00     0.002 A 
ATOM      4  C4  I4B d   1       2.036  -0.043  -0.754  0.00  0.00    -0.004 A 
ATOM      5  C5  I4B d   1       2.367  -1.390  -0.869  0.00  0.00     0.002 A 
ATOM      6  C6  I4B d   1       1.361  -2.366  -0.831  0.00  0.00     0.003 A 
ENDROOT
BRANCH   1   7
ATOM      7  C1' I4B d   1      -1.048  -3.006  -0.537  0.00  0.00     0.060 C 
BRANCH   7   8
ATOM      8  C2' I4B d   1      -0.777  -4.093  -1.558  0.00  0.00    -0.013 C 
ATOM      9  C4' I4B d   1      -0.791  -5.456  -0.918  0.00  0.00     0.013 C 
ATOM     10  C3' I4B d   1      -1.818  -3.988  -2.633  0.00  0.00     0.013 C 
ENDBRANCH   7   8
ENDBRANCH   1   7
TORSDOF 2
ENDMDL
