MODEL 1
REMARK minimizedAffinity -6.46598196
REMARK minimizedRMSD -1
REMARK  1 active torsions:
REMARK  status: ('A' for Active; 'I' for Inactive)
REMARK    1  A    between atoms: C1_2  and  C2_3 
ROOT
ATOM      1  C2  UNL d   1      -2.526   0.693   2.614  0.00  0.00    -0.073 A 
ATOM      2  C3  UNL d   1      -1.737   1.845   2.519  0.00  0.00    -0.002 A 
ATOM      3  C4  UNL d   1      -0.542   1.823   1.798  0.00  0.00     0.004 A 
ATOM      4  C5  UNL d   1      -0.129   0.654   1.159  0.00  0.00    -0.004 A 
ATOM      5  C6  UNL d   1      -0.910  -0.504   1.233  0.00  0.00    -0.075 A 
ATOM      6  C7  UNL d   1      -0.478  -1.771   0.554  0.00  0.00     0.076 C 
ATOM      7  C8  UNL d   1      -2.107  -0.475   1.962  0.00  0.00     0.001 A 
ENDROOT
BRANCH   1   8
ATOM      8  C1  UNL d   1      -3.820   0.713   3.387  0.00  0.00     0.053 C 
ATOM      9  C   UNL d   1      -4.156   2.105   3.899  0.00  0.00     0.018 C 
ENDBRANCH   1   8
TORSDOF 1
ENDMDL
