MODEL 1
REMARK minimizedAffinity -1.78014731
REMARK minimizedRMSD -1
REMARK  1 active torsions:
REMARK  status: ('A' for Active; 'I' for Inactive)
REMARK    1  A    between atoms: C1_2  and  C2_3 
ROOT
ATOM      1  C2  UNL d   1      -0.957   1.034   2.017  0.00  0.00    -0.073 A 
ATOM      2  C3  UNL d   1      -0.885  -0.363   2.004  0.00  0.00    -0.002 A 
ATOM      3  C4  UNL d   1      -1.914  -1.128   2.555  0.00  0.00     0.004 A 
ATOM      4  C5  UNL d   1      -3.028  -0.504   3.116  0.00  0.00    -0.004 A 
ATOM      5  C6  UNL d   1      -3.125   0.891   3.128  0.00  0.00    -0.075 A 
ATOM      6  C7  UNL d   1      -4.315   1.577   3.731  0.00  0.00     0.076 C 
ATOM      7  C8  UNL d   1      -2.085   1.652   2.576  0.00  0.00     0.001 A 
ENDROOT
BRANCH   1   8
ATOM      8  C1  UNL d   1       0.149   1.864   1.419  0.00  0.00     0.053 C 
ATOM      9  C   UNL d   1       1.270   1.001   0.860  0.00  0.00     0.018 C 
ENDBRANCH   1   8
TORSDOF 1
ENDMDL
