MODEL 1
REMARK minimizedAffinity -3.50739574
REMARK minimizedRMSD -1
REMARK  1 active torsions:
REMARK  status: ('A' for Active; 'I' for Inactive)
REMARK    1  A    between atoms: C1_2  and  C2_3 
ROOT
ATOM      1  C2  UNL d   1      -1.383   1.706   1.927  0.00  0.00    -0.073 A 
ATOM      2  C3  UNL d   1      -0.421   2.307   1.107  0.00  0.00    -0.002 A 
ATOM      3  C4  UNL d   1       0.599   1.542   0.540  0.00  0.00     0.004 A 
ATOM      4  C5  UNL d   1       0.664   0.170   0.780  0.00  0.00    -0.004 A 
ATOM      5  C6  UNL d   1      -0.295  -0.451   1.587  0.00  0.00    -0.075 A 
ATOM      6  C7  UNL d   1      -0.239  -1.926   1.856  0.00  0.00     0.076 C 
ATOM      7  C8  UNL d   1      -1.315   0.325   2.155  0.00  0.00     0.001 A 
ENDROOT
BRANCH   1   8
ATOM      8  C1  UNL d   1      -2.490   2.527   2.536  0.00  0.00     0.053 C 
ATOM      9  C   UNL d   1      -3.176   1.799   3.681  0.00  0.00     0.018 C 
ENDBRANCH   1   8
TORSDOF 1
ENDMDL
