MODEL 1
REMARK minimizedAffinity -4.52491951
REMARK minimizedRMSD -1
REMARK  1 active torsions:
REMARK  status: ('A' for Active; 'I' for Inactive)
REMARK    1  A    between atoms: C1_2  and  C2_3 
ROOT
ATOM      1  C2  UNL d   1      -1.160   2.086   2.066  0.00  0.00    -0.073 A 
ATOM      2  C3  UNL d   1      -1.005   0.714   1.838  0.00  0.00    -0.002 A 
ATOM      3  C4  UNL d   1      -1.835  -0.206   2.479  0.00  0.00     0.004 A 
ATOM      4  C5  UNL d   1      -2.832   0.236   3.349  0.00  0.00    -0.004 A 
ATOM      5  C6  UNL d   1      -3.011   1.604   3.581  0.00  0.00    -0.075 A 
ATOM      6  C7  UNL d   1      -4.077   2.095   4.515  0.00  0.00     0.076 C 
ATOM      7  C8  UNL d   1      -2.171   2.521   2.935  0.00  0.00     0.001 A 
ENDROOT
BRANCH   1   8
ATOM      8  C1  UNL d   1      -0.270   3.083   1.370  0.00  0.00     0.053 C 
ATOM      9  C   UNL d   1       0.595   2.429   0.304  0.00  0.00     0.018 C 
ENDBRANCH   1   8
TORSDOF 1
ENDMDL
