MODEL 1
REMARK minimizedAffinity -0.998269856
REMARK minimizedRMSD -1
REMARK  1 active torsions:
REMARK  status: ('A' for Active; 'I' for Inactive)
REMARK    1  A    between atoms: C1_2  and  C2_3 
ROOT
ATOM      1  C2  UNL d   1      -1.444  -3.710  -4.836  0.00  0.00    -0.073 A 
ATOM      2  C3  UNL d   1      -2.219  -3.653  -6.000  0.00  0.00    -0.002 A 
ATOM      3  C4  UNL d   1      -3.611  -3.597  -5.917  0.00  0.00     0.004 A 
ATOM      4  C5  UNL d   1      -4.241  -3.590  -4.673  0.00  0.00    -0.004 A 
ATOM      5  C6  UNL d   1      -3.482  -3.635  -3.498  0.00  0.00    -0.075 A 
ATOM      6  C7  UNL d   1      -4.145  -3.631  -2.152  0.00  0.00     0.076 C 
ATOM      7  C8  UNL d   1      -2.085  -3.694  -3.590  0.00  0.00     0.001 A 
ENDROOT
BRANCH   1   8
ATOM      8  C1  UNL d   1       0.060  -3.764  -4.921  0.00  0.00     0.053 C 
ATOM      9  C   UNL d   1       0.635  -4.920  -4.117  0.00  0.00     0.018 C 
ENDBRANCH   1   8
TORSDOF 1
ENDMDL
