MODEL 1
REMARK minimizedAffinity 5.38220358
REMARK minimizedRMSD -1
REMARK  1 active torsions:
REMARK  status: ('A' for Active; 'I' for Inactive)
REMARK    1  A    between atoms: C1_2  and  C2_3 
ROOT
ATOM      1  C2  UNL d   1      -1.088   2.312   1.877  0.00  0.00    -0.073 A 
ATOM      2  C3  UNL d   1       0.132   2.707   1.316  0.00  0.00    -0.002 A 
ATOM      3  C4  UNL d   1       1.108   1.758   1.011  0.00  0.00     0.004 A 
ATOM      4  C5  UNL d   1       0.872   0.405   1.256  0.00  0.00    -0.004 A 
ATOM      5  C6  UNL d   1      -0.345  -0.011   1.804  0.00  0.00    -0.075 A 
ATOM      6  C7  UNL d   1      -0.614  -1.462   2.076  0.00  0.00     0.076 C 
ATOM      7  C8  UNL d   1      -1.319   0.949   2.111  0.00  0.00     0.001 A 
ENDROOT
BRANCH   1   8
ATOM      8  C1  UNL d   1      -2.147   3.333   2.202  0.00  0.00     0.053 C 
ATOM      9  C   UNL d   1      -3.099   2.842   3.281  0.00  0.00     0.018 C 
ENDBRANCH   1   8
TORSDOF 1
ENDMDL
