MODEL 1
REMARK minimizedAffinity -2.46262217
REMARK minimizedRMSD -1
REMARK  1 active torsions:
REMARK  status: ('A' for Active; 'I' for Inactive)
REMARK    1  A    between atoms: C1_2  and  C2_3 
ROOT
ATOM      1  C2  UNL d   1      -1.266   0.586   1.604  0.00  0.00    -0.073 A 
ATOM      2  C3  UNL d   1      -1.004   1.800   2.249  0.00  0.00    -0.002 A 
ATOM      3  C4  UNL d   1       0.222   2.442   2.070  0.00  0.00     0.004 A 
ATOM      4  C5  UNL d   1       1.194   1.882   1.242  0.00  0.00    -0.004 A 
ATOM      5  C6  UNL d   1       0.946   0.675   0.580  0.00  0.00    -0.075 A 
ATOM      6  C7  UNL d   1       1.982   0.058  -0.313  0.00  0.00     0.076 C 
ATOM      7  C8  UNL d   1      -0.286   0.035   0.766  0.00  0.00     0.001 A 
ENDROOT
BRANCH   1   8
ATOM      8  C1  UNL d   1      -2.591  -0.108   1.789  0.00  0.00     0.053 C 
ATOM      9  C   UNL d   1      -3.010  -0.157   3.249  0.00  0.00     0.018 C 
ENDBRANCH   1   8
TORSDOF 1
ENDMDL
