MODEL 1
REMARK minimizedAffinity -1.25305307
REMARK minimizedRMSD -1
REMARK  1 active torsions:
REMARK  status: ('A' for Active; 'I' for Inactive)
REMARK    1  A    between atoms: C1_2  and  C2_3 
ROOT
ATOM      1  C2  UNL d   1      -1.450   1.476   2.289  0.00  0.00    -0.073 A 
ATOM      2  C3  UNL d   1      -1.736   0.137   2.577  0.00  0.00    -0.002 A 
ATOM      3  C4  UNL d   1      -0.980  -0.885   2.001  0.00  0.00     0.004 A 
ATOM      4  C5  UNL d   1       0.072  -0.579   1.138  0.00  0.00    -0.004 A 
ATOM      5  C6  UNL d   1       0.381   0.754   0.847  0.00  0.00    -0.075 A 
ATOM      6  C7  UNL d   1       1.508   1.100  -0.081  0.00  0.00     0.076 C 
ATOM      7  C8  UNL d   1      -0.384   1.774   1.427  0.00  0.00     0.001 A 
ENDROOT
BRANCH   1   8
ATOM      8  C1  UNL d   1      -2.259   2.583   2.914  0.00  0.00     0.053 C 
ATOM      9  C   UNL d   1      -3.342   2.047   3.837  0.00  0.00     0.018 C 
ENDBRANCH   1   8
TORSDOF 1
ENDMDL
