MODEL 1
REMARK minimizedAffinity -3.85487151
REMARK minimizedRMSD -1
REMARK  1 active torsions:
REMARK  status: ('A' for Active; 'I' for Inactive)
REMARK    1  A    between atoms: C1_2  and  C2_3 
ROOT
ATOM      1  C2  UNL d   1      -2.349   1.623   2.265  0.00  0.00    -0.073 A 
ATOM      2  C3  UNL d   1      -2.351   0.241   2.488  0.00  0.00    -0.002 A 
ATOM      3  C4  UNL d   1      -1.318  -0.554   1.991  0.00  0.00     0.004 A 
ATOM      4  C5  UNL d   1      -0.271   0.022   1.273  0.00  0.00    -0.004 A 
ATOM      5  C6  UNL d   1      -0.245   1.403   1.049  0.00  0.00    -0.075 A 
ATOM      6  C7  UNL d   1       0.873   2.038   0.276  0.00  0.00     0.076 C 
ATOM      7  C8  UNL d   1      -1.287   2.195   1.549  0.00  0.00     0.001 A 
ENDROOT
BRANCH   1   8
ATOM      8  C1  UNL d   1      -3.459   2.487   2.805  0.00  0.00     0.053 C 
ATOM      9  C   UNL d   1      -4.334   1.737   3.796  0.00  0.00     0.018 C 
ENDBRANCH   1   8
TORSDOF 1
ENDMDL
