MODEL 1
REMARK minimizedAffinity -2.94633245
REMARK minimizedRMSD -1
REMARK  1 active torsions:
REMARK  status: ('A' for Active; 'I' for Inactive)
REMARK    1  A    between atoms: C1_2  and  C2_3 
ROOT
ATOM      1  C2  UNL d   1      -2.556   1.457   3.205  0.00  0.00    -0.073 A 
ATOM      2  C3  UNL d   1      -1.883   2.649   2.914  0.00  0.00    -0.002 A 
ATOM      3  C4  UNL d   1      -0.740   2.635   2.113  0.00  0.00     0.004 A 
ATOM      4  C5  UNL d   1      -0.263   1.432   1.592  0.00  0.00    -0.004 A 
ATOM      5  C6  UNL d   1      -0.929   0.232   1.862  0.00  0.00    -0.075 A 
ATOM      6  C7  UNL d   1      -0.427  -1.070   1.311  0.00  0.00     0.076 C 
ATOM      7  C8  UNL d   1      -2.075   0.255   2.669  0.00  0.00     0.001 A 
ENDROOT
BRANCH   1   8
ATOM      8  C1  UNL d   1      -3.795   1.468   4.064  0.00  0.00     0.053 C 
ATOM      9  C   UNL d   1      -3.787   2.616   5.061  0.00  0.00     0.018 C 
ENDBRANCH   1   8
TORSDOF 1
ENDMDL
