MODEL 1
REMARK minimizedAffinity 0.315129012
REMARK minimizedRMSD -1
REMARK  1 active torsions:
REMARK  status: ('A' for Active; 'I' for Inactive)
REMARK    1  A    between atoms: C1_2  and  C2_3 
ROOT
ATOM      1  C2  UNL d   1      -1.596   1.932   2.061  0.00  0.00    -0.073 A 
ATOM      2  C3  UNL d   1      -1.445   0.548   1.926  0.00  0.00    -0.002 A 
ATOM      3  C4  UNL d   1      -2.228  -0.324   2.684  0.00  0.00     0.004 A 
ATOM      4  C5  UNL d   1      -3.173   0.178   3.578  0.00  0.00    -0.004 A 
ATOM      5  C6  UNL d   1      -3.347   1.558   3.719  0.00  0.00    -0.075 A 
ATOM      6  C7  UNL d   1      -4.358   2.115   4.678  0.00  0.00     0.076 C 
ATOM      7  C8  UNL d   1      -2.556   2.428   2.956  0.00  0.00     0.001 A 
ENDROOT
BRANCH   1   8
ATOM      8  C1  UNL d   1      -0.758   2.878   1.240  0.00  0.00     0.053 C 
ATOM      9  C   UNL d   1       0.086   2.144   0.210  0.00  0.00     0.018 C 
ENDBRANCH   1   8
TORSDOF 1
ENDMDL
