MODEL 1
REMARK minimizedAffinity -2.71839166
REMARK minimizedRMSD -1
REMARK  1 active torsions:
REMARK  status: ('A' for Active; 'I' for Inactive)
REMARK    1  A    between atoms: C1_2  and  C2_3 
ROOT
ATOM      1  C2  UNL d   1      -0.534  -0.935   2.037  0.00  0.00    -0.076 A 
ATOM      2  C3  UNL d   1      -1.466  -0.646   1.025  0.00  0.00     0.004 A 
ATOM      3  C4  UNL d   1      -1.144   0.217  -0.021  0.00  0.00    -0.003 A 
ATOM      4  C5  UNL d   1       0.115   0.804  -0.073  0.00  0.00     0.000 A 
ATOM      5  C6  UNL d   1       1.058   0.515   0.913  0.00  0.00     0.000 A 
ATOM      6  C7  UNL d   1       0.755  -0.365   1.966  0.00  0.00    -0.073 A 
ATOM      7  C8  UNL d   1       1.808  -0.636   3.006  0.00  0.00     0.078 C 
ENDROOT
BRANCH   1   8
ATOM      8  C1  UNL d   1      -0.949  -1.857   3.161  0.00  0.00     0.053 C 
ATOM      9  C   UNL d   1      -0.803  -3.326   2.795  0.00  0.00     0.018 C 
ENDBRANCH   1   8
TORSDOF 1
ENDMDL
