MODEL 1
REMARK minimizedAffinity -3.35302949
REMARK minimizedRMSD -1
REMARK  1 active torsions:
REMARK  status: ('A' for Active; 'I' for Inactive)
REMARK    1  A    between atoms: C1_2  and  C2_3 
ROOT
ATOM      1  C2  UNL d   1       1.686  -0.513   0.417  0.00  0.00    -0.076 A 
ATOM      2  C3  UNL d   1       2.485  -1.083   1.424  0.00  0.00     0.004 A 
ATOM      3  C4  UNL d   1       1.970  -1.326   2.696  0.00  0.00    -0.003 A 
ATOM      4  C5  UNL d   1       0.648  -1.004   2.982  0.00  0.00     0.000 A 
ATOM      5  C6  UNL d   1      -0.164  -0.455   1.990  0.00  0.00     0.000 A 
ATOM      6  C7  UNL d   1       0.335  -0.218   0.698  0.00  0.00    -0.073 A 
ATOM      7  C8  UNL d   1      -0.583   0.382  -0.331  0.00  0.00     0.078 C 
ENDROOT
BRANCH   1   8
ATOM      8  C1  UNL d   1       2.307  -0.247  -0.935  0.00  0.00     0.053 C 
ATOM      9  C   UNL d   1       1.754  -1.158  -2.020  0.00  0.00     0.018 C 
ENDBRANCH   1   8
TORSDOF 1
ENDMDL
