MODEL 1
REMARK minimizedAffinity -1.2555958
REMARK minimizedRMSD -1
REMARK  1 active torsions:
REMARK  status: ('A' for Active; 'I' for Inactive)
REMARK    1  A    between atoms: C1_2  and  C2_3 
ROOT
ATOM      1  C2  UNL d   1       0.498  -0.760   1.012  0.00  0.00    -0.076 A 
ATOM      2  C3  UNL d   1       1.543  -1.195   0.179  0.00  0.00     0.004 A 
ATOM      3  C4  UNL d   1       1.519  -0.947  -1.193  0.00  0.00    -0.003 A 
ATOM      4  C5  UNL d   1       0.449  -0.258  -1.753  0.00  0.00     0.000 A 
ATOM      5  C6  UNL d   1      -0.588   0.197  -0.939  0.00  0.00     0.000 A 
ATOM      6  C7  UNL d   1      -0.571  -0.031   0.448  0.00  0.00    -0.073 A 
ATOM      7  C8  UNL d   1      -1.719   0.476   1.277  0.00  0.00     0.078 C 
ENDROOT
BRANCH   1   8
ATOM      8  C1  UNL d   1       0.566  -1.082   2.487  0.00  0.00     0.053 C 
ATOM      9  C   UNL d   1      -0.372  -2.212   2.881  0.00  0.00     0.018 C 
ENDBRANCH   1   8
TORSDOF 1
ENDMDL
