MODEL 1
REMARK minimizedAffinity -2.66439486
REMARK minimizedRMSD -1
REMARK  1 active torsions:
REMARK  status: ('A' for Active; 'I' for Inactive)
REMARK    1  A    between atoms: C1_2  and  C2_3 
ROOT
ATOM      1  C2  UNL d   1       0.637  -0.300   0.403  0.00  0.00    -0.076 A 
ATOM      2  C3  UNL d   1      -0.433   0.183  -0.370  0.00  0.00     0.004 A 
ATOM      3  C4  UNL d   1      -1.742   0.137   0.107  0.00  0.00    -0.003 A 
ATOM      4  C5  UNL d   1      -2.002  -0.393   1.367  0.00  0.00     0.000 A 
ATOM      5  C6  UNL d   1      -0.951  -0.860   2.155  0.00  0.00     0.000 A 
ATOM      6  C7  UNL d   1       0.376  -0.806   1.695  0.00  0.00    -0.073 A 
ATOM      7  C8  UNL d   1       1.470  -1.330   2.585  0.00  0.00     0.078 C 
ENDROOT
BRANCH   1   8
ATOM      8  C1  UNL d   1       2.032  -0.250  -0.178  0.00  0.00     0.053 C 
ATOM      9  C   UNL d   1       2.287  -1.367  -1.178  0.00  0.00     0.018 C 
ENDBRANCH   1   8
TORSDOF 1
ENDMDL
