MODEL 1
REMARK minimizedAffinity 2.27782297
REMARK minimizedRMSD -1
REMARK  1 active torsions:
REMARK  status: ('A' for Active; 'I' for Inactive)
REMARK    1  A    between atoms: C1_2  and  C2_3 
ROOT
ATOM      1  C2  UNL d   1       0.432   3.536  -2.393  0.00  0.00    -0.076 A 
ATOM      2  C3  UNL d   1       0.358   2.356  -3.153  0.00  0.00     0.004 A 
ATOM      3  C4  UNL d   1       0.876   2.302  -4.446  0.00  0.00    -0.003 A 
ATOM      4  C5  UNL d   1       1.478   3.427  -4.999  0.00  0.00     0.000 A 
ATOM      5  C6  UNL d   1       1.577   4.600  -4.253  0.00  0.00     0.000 A 
ATOM      6  C7  UNL d   1       1.074   4.667  -2.942  0.00  0.00    -0.073 A 
ATOM      7  C8  UNL d   1       1.201   5.960  -2.184  0.00  0.00     0.078 C 
ENDROOT
BRANCH   1   8
ATOM      8  C1  UNL d   1      -0.172   3.543  -1.007  0.00  0.00     0.053 C 
ATOM      9  C   UNL d   1       0.377   2.431  -0.126  0.00  0.00     0.018 C 
ENDBRANCH   1   8
TORSDOF 1
ENDMDL
