MODEL 1
REMARK minimizedAffinity -3.55435801
REMARK minimizedRMSD -1
REMARK  1 active torsions:
REMARK  status: ('A' for Active; 'I' for Inactive)
REMARK    1  A    between atoms: C1_2  and  C2_3 
ROOT
ATOM      1  C2  UNL d   1      -0.355   0.098   0.651  0.00  0.00    -0.076 A 
ATOM      2  C3  UNL d   1       0.640   0.971   0.178  0.00  0.00     0.004 A 
ATOM      3  C4  UNL d   1       0.618   1.438  -1.135  0.00  0.00    -0.003 A 
ATOM      4  C5  UNL d   1      -0.400   1.041  -1.996  0.00  0.00     0.000 A 
ATOM      5  C6  UNL d   1      -1.404   0.190  -1.537  0.00  0.00     0.000 A 
ATOM      6  C7  UNL d   1      -1.406  -0.278  -0.212  0.00  0.00    -0.073 A 
ATOM      7  C8  UNL d   1      -2.511  -1.199   0.227  0.00  0.00     0.078 C 
ENDROOT
BRANCH   1   8
ATOM      8  C1  UNL d   1      -0.264  -0.398   2.077  0.00  0.00     0.053 C 
ATOM      9  C   UNL d   1       0.794  -1.476   2.252  0.00  0.00     0.018 C 
ENDBRANCH   1   8
TORSDOF 1
ENDMDL
