MODEL 1
REMARK minimizedAffinity -2.48334861
REMARK minimizedRMSD -1
REMARK  1 active torsions:
REMARK  status: ('A' for Active; 'I' for Inactive)
REMARK    1  A    between atoms: C1_2  and  C2_3 
ROOT
ATOM      1  C2  UNL d   1      -0.558  -0.184  -0.693  0.00  0.00    -0.076 A 
ATOM      2  C3  UNL d   1      -1.400   0.096   0.396  0.00  0.00     0.004 A 
ATOM      3  C4  UNL d   1      -1.140  -0.432   1.659  0.00  0.00    -0.003 A 
ATOM      4  C5  UNL d   1      -0.032  -1.249   1.854  0.00  0.00     0.000 A 
ATOM      5  C6  UNL d   1       0.825  -1.524   0.788  0.00  0.00     0.000 A 
ATOM      6  C7  UNL d   1       0.586  -0.986  -0.488  0.00  0.00    -0.073 A 
ATOM      7  C8  UNL d   1       1.539  -1.319  -1.602  0.00  0.00     0.078 C 
ENDROOT
BRANCH   1   8
ATOM      8  C1  UNL d   1      -0.906   0.395  -2.046  0.00  0.00     0.053 C 
ATOM      9  C   UNL d   1      -0.511   1.858  -2.173  0.00  0.00     0.018 C 
ENDBRANCH   1   8
TORSDOF 1
ENDMDL
