MODEL 1
REMARK minimizedAffinity -4.2746129
REMARK minimizedRMSD -1
REMARK  1 active torsions:
REMARK  status: ('A' for Active; 'I' for Inactive)
REMARK    1  A    between atoms: C1_2  and  C2_3 
ROOT
ATOM      1  C2  UNL d   1       0.694   0.127   0.046  0.00  0.00    -0.076 A 
ATOM      2  C3  UNL d   1       2.057   0.072   0.385  0.00  0.00     0.004 A 
ATOM      3  C4  UNL d   1       2.466  -0.365   1.643  0.00  0.00    -0.003 A 
ATOM      4  C5  UNL d   1       1.519  -0.754   2.584  0.00  0.00     0.000 A 
ATOM      5  C6  UNL d   1       0.163  -0.722   2.259  0.00  0.00     0.000 A 
ATOM      6  C7  UNL d   1      -0.266  -0.300   0.989  0.00  0.00    -0.073 A 
ATOM      7  C8  UNL d   1      -1.740  -0.280   0.694  0.00  0.00     0.078 C 
ENDROOT
BRANCH   1   8
ATOM      8  C1  UNL d   1       0.308   0.635  -1.325  0.00  0.00     0.053 C 
ATOM      9  C   UNL d   1       0.239   2.153  -1.386  0.00  0.00     0.018 C 
ENDBRANCH   1   8
TORSDOF 1
ENDMDL
