MODEL 1
REMARK minimizedAffinity -0.919725358
REMARK minimizedRMSD -1
REMARK  1 active torsions:
REMARK  status: ('A' for Active; 'I' for Inactive)
REMARK    1  A    between atoms: C1_2  and  C2_3 
ROOT
ATOM      1  C2  UNL d   1       0.053   0.635  -1.338  0.00  0.00    -0.076 A 
ATOM      2  C3  UNL d   1      -0.134   1.161  -0.048  0.00  0.00     0.004 A 
ATOM      3  C4  UNL d   1       0.379   0.511   1.073  0.00  0.00    -0.003 A 
ATOM      4  C5  UNL d   1       1.088  -0.675   0.922  0.00  0.00     0.000 A 
ATOM      5  C6  UNL d   1       1.298  -1.202  -0.352  0.00  0.00     0.000 A 
ATOM      6  C7  UNL d   1       0.802  -0.551  -1.494  0.00  0.00    -0.073 A 
ATOM      7  C8  UNL d   1       1.053  -1.167  -2.843  0.00  0.00     0.078 C 
ENDROOT
BRANCH   1   8
ATOM      8  C1  UNL d   1      -0.550   1.370  -2.514  0.00  0.00     0.053 C 
ATOM      9  C   UNL d   1      -0.344   2.874  -2.429  0.00  0.00     0.018 C 
ENDBRANCH   1   8
TORSDOF 1
ENDMDL
