MODEL 1
REMARK minimizedAffinity -4.53452492
REMARK minimizedRMSD -1
REMARK  0 active torsions:
REMARK  status: ('A' for Active; 'I' for Inactive)
ROOT
ATOM      1  C   UNL d   1      -0.930  -0.436  -5.946  0.00  0.00     0.078 C 
ATOM      2  C1  UNL d   1      -0.093  -0.205  -4.724  0.00  0.00    -0.077 A 
ATOM      3  C2  UNL d   1       1.022   0.642  -4.762  0.00  0.00    -0.001 A 
ATOM      4  C3  UNL d   1       1.797   0.840  -3.619  0.00  0.00     0.003 A 
ATOM      5  C4  UNL d   1       1.468   0.194  -2.429  0.00  0.00    -0.005 A 
ATOM      6  C5  UNL d   1       0.362  -0.652  -2.382  0.00  0.00     0.003 A 
ATOM      7  C6  UNL d   1      -0.415  -0.851  -3.524  0.00  0.00    -0.001 A 
ENDROOT
TORSDOF 0
ENDMDL
