MODEL 1
REMARK minimizedAffinity -2.12652564
REMARK minimizedRMSD -1
REMARK  0 active torsions:
REMARK  status: ('A' for Active; 'I' for Inactive)
ROOT
ATOM      1  C   UNL d   1       1.512  -0.679   0.639  0.00  0.00     0.078 C 
ATOM      2  C1  UNL d   1       0.128  -0.140   0.846  0.00  0.00    -0.077 A 
ATOM      3  C2  UNL d   1      -0.188   0.617   1.981  0.00  0.00    -0.001 A 
ATOM      4  C3  UNL d   1      -1.483   1.105   2.166  0.00  0.00     0.003 A 
ATOM      5  C4  UNL d   1      -2.471   0.841   1.220  0.00  0.00    -0.005 A 
ATOM      6  C5  UNL d   1      -2.166   0.088   0.088  0.00  0.00     0.003 A 
ATOM      7  C6  UNL d   1      -0.872  -0.401  -0.098  0.00  0.00    -0.001 A 
ENDROOT
TORSDOF 0
ENDMDL
