MODEL 1
REMARK minimizedAffinity -5.16209364
REMARK minimizedRMSD -1
REMARK  0 active torsions:
REMARK  status: ('A' for Active; 'I' for Inactive)
ROOT
ATOM      1  C   UNL d   1       0.518  -0.553  -0.371  0.00  0.00     0.078 C 
ATOM      2  C1  UNL d   1       0.008   0.303   0.749  0.00  0.00    -0.077 A 
ATOM      3  C2  UNL d   1       0.877   1.114   1.490  0.00  0.00    -0.001 A 
ATOM      4  C3  UNL d   1       0.391   1.898   2.537  0.00  0.00     0.003 A 
ATOM      5  C4  UNL d   1      -0.966   1.879   2.854  0.00  0.00    -0.005 A 
ATOM      6  C5  UNL d   1      -1.838   1.074   2.124  0.00  0.00     0.003 A 
ATOM      7  C6  UNL d   1      -1.353   0.289   1.076  0.00  0.00    -0.001 A 
ENDROOT
TORSDOF 0
ENDMDL
