MODEL 1
REMARK minimizedAffinity -4.17211962
REMARK minimizedRMSD -1
REMARK  0 active torsions:
REMARK  status: ('A' for Active; 'I' for Inactive)
ROOT
ATOM      1  C   UNL d   1      -2.522  -3.012  -0.892  0.00  0.00     0.078 C 
ATOM      2  C1  UNL d   1      -1.602  -1.898  -0.490  0.00  0.00    -0.077 A 
ATOM      3  C2  UNL d   1      -2.074  -0.798   0.235  0.00  0.00    -0.001 A 
ATOM      4  C3  UNL d   1      -1.208   0.236   0.594  0.00  0.00     0.003 A 
ATOM      5  C4  UNL d   1       0.136   0.181   0.230  0.00  0.00    -0.005 A 
ATOM      6  C5  UNL d   1       0.615  -0.909  -0.494  0.00  0.00     0.003 A 
ATOM      7  C6  UNL d   1      -0.250  -1.944  -0.854  0.00  0.00    -0.001 A 
ENDROOT
TORSDOF 0
ENDMDL
