MODEL 1
REMARK minimizedAffinity 1.17412066
REMARK minimizedRMSD -1
REMARK  0 active torsions:
REMARK  status: ('A' for Active; 'I' for Inactive)
ROOT
ATOM      1  C   UNL d   1       0.141   1.577   2.503  0.00  0.00     0.078 C 
ATOM      2  C1  UNL d   1       0.435   0.791   1.260  0.00  0.00    -0.077 A 
ATOM      3  C2  UNL d   1      -0.336   0.956   0.103  0.00  0.00    -0.001 A 
ATOM      4  C3  UNL d   1      -0.056   0.210  -1.043  0.00  0.00     0.003 A 
ATOM      5  C4  UNL d   1       0.993  -0.706  -1.044  0.00  0.00    -0.005 A 
ATOM      6  C5  UNL d   1       1.765  -0.879   0.104  0.00  0.00     0.003 A 
ATOM      7  C6  UNL d   1       1.487  -0.135   1.251  0.00  0.00    -0.001 A 
ENDROOT
TORSDOF 0
ENDMDL
