MODEL 1
REMARK minimizedAffinity 0.436325043
REMARK minimizedRMSD -1
REMARK  0 active torsions:
REMARK  status: ('A' for Active; 'I' for Inactive)
ROOT
ATOM      1  C   UNL d   1       0.126   1.964   2.702  0.00  0.00     0.078 C 
ATOM      2  C1  UNL d   1       0.458   1.042   1.567  0.00  0.00    -0.077 A 
ATOM      3  C2  UNL d   1      -0.297   1.049   0.388  0.00  0.00    -0.001 A 
ATOM      4  C3  UNL d   1       0.017   0.178  -0.656  0.00  0.00     0.003 A 
ATOM      5  C4  UNL d   1       1.087  -0.707  -0.532  0.00  0.00    -0.005 A 
ATOM      6  C5  UNL d   1       1.843  -0.722   0.638  0.00  0.00     0.003 A 
ATOM      7  C6  UNL d   1       1.529   0.148   1.684  0.00  0.00    -0.001 A 
ENDROOT
TORSDOF 0
ENDMDL
