MODEL 1
REMARK minimizedAffinity -4.13648701
REMARK minimizedRMSD -1
REMARK  0 active torsions:
REMARK  status: ('A' for Active; 'I' for Inactive)
ROOT
ATOM      1  C   UNL d   1       0.374   0.193  -1.358  0.00  0.00     0.078 C 
ATOM      2  C1  UNL d   1      -0.133   0.383   0.040  0.00  0.00    -0.077 A 
ATOM      3  C2  UNL d   1      -1.286  -0.275   0.485  0.00  0.00    -0.001 A 
ATOM      4  C3  UNL d   1      -1.751  -0.081   1.786  0.00  0.00     0.003 A 
ATOM      5  C4  UNL d   1      -1.071   0.771   2.653  0.00  0.00    -0.005 A 
ATOM      6  C5  UNL d   1       0.076   1.432   2.219  0.00  0.00     0.003 A 
ATOM      7  C6  UNL d   1       0.543   1.240   0.918  0.00  0.00    -0.001 A 
ENDROOT
TORSDOF 0
ENDMDL
