MODEL 1
REMARK minimizedAffinity -1.27762127
REMARK minimizedRMSD -1
REMARK  0 active torsions:
REMARK  status: ('A' for Active; 'I' for Inactive)
ROOT
ATOM      1  C   UNL d   1      -0.037   1.722   2.424  0.00  0.00     0.078 C 
ATOM      2  C1  UNL d   1       0.383   0.739   1.373  0.00  0.00    -0.077 A 
ATOM      3  C2  UNL d   1       1.461  -0.129   1.587  0.00  0.00    -0.001 A 
ATOM      4  C3  UNL d   1       1.848  -1.033   0.596  0.00  0.00     0.003 A 
ATOM      5  C4  UNL d   1       1.162  -1.077  -0.616  0.00  0.00    -0.005 A 
ATOM      6  C5  UNL d   1       0.089  -0.217  -0.839  0.00  0.00     0.003 A 
ATOM      7  C6  UNL d   1      -0.299   0.688   0.151  0.00  0.00    -0.001 A 
ENDROOT
TORSDOF 0
ENDMDL
