MODEL 1
REMARK minimizedAffinity 0.932869792
REMARK minimizedRMSD -1
REMARK  0 active torsions:
REMARK  status: ('A' for Active; 'I' for Inactive)
ROOT
ATOM      1  C   UNL d   1       2.191  -0.064   2.408  0.00  0.00     0.078 C 
ATOM      2  C1  UNL d   1       0.791   0.080   1.891  0.00  0.00    -0.077 A 
ATOM      3  C2  UNL d   1      -0.274   0.350   2.759  0.00  0.00    -0.001 A 
ATOM      4  C3  UNL d   1      -1.574   0.473   2.265  0.00  0.00     0.003 A 
ATOM      5  C4  UNL d   1      -1.821   0.325   0.902  0.00  0.00    -0.005 A 
ATOM      6  C5  UNL d   1      -0.768   0.054   0.030  0.00  0.00     0.003 A 
ATOM      7  C6  UNL d   1       0.532  -0.068   0.522  0.00  0.00    -0.001 A 
ENDROOT
TORSDOF 0
ENDMDL
