MODEL 1
REMARK minimizedAffinity -2.24324965
REMARK minimizedRMSD -1
REMARK  0 active torsions:
REMARK  status: ('A' for Active; 'I' for Inactive)
ROOT
ATOM      1  C   UNL d   1      -0.245   2.103   2.499  0.00  0.00     0.078 C 
ATOM      2  C1  UNL d   1       0.231   0.990   1.615  0.00  0.00    -0.077 A 
ATOM      3  C2  UNL d   1       1.514   0.448   1.765  0.00  0.00    -0.001 A 
ATOM      4  C3  UNL d   1       1.947  -0.582   0.928  0.00  0.00     0.003 A 
ATOM      5  C4  UNL d   1       1.105  -1.078  -0.065  0.00  0.00    -0.005 A 
ATOM      6  C5  UNL d   1      -0.172  -0.543  -0.223  0.00  0.00     0.003 A 
ATOM      7  C6  UNL d   1      -0.607   0.487   0.612  0.00  0.00    -0.001 A 
ENDROOT
TORSDOF 0
ENDMDL
