MODEL 1
REMARK minimizedAffinity -2.79165006
REMARK minimizedRMSD -1
REMARK  0 active torsions:
REMARK  status: ('A' for Active; 'I' for Inactive)
ROOT
ATOM      1  O1  BZF d   1      -2.587  -1.534   0.935  0.00  0.00    -0.204 OA
ATOM      2  C2  BZF d   1      -3.309  -1.404  -0.236  0.00  0.00     0.174 A 
ATOM      3  C3  BZF d   1      -2.579  -0.776  -1.180  0.00  0.00    -0.012 A 
ATOM      4  C3A BZF d   1      -1.291  -0.577  -0.590  0.00  0.00    -0.107 A 
ATOM      5  C4  BZF d   1      -0.129  -0.017  -1.039  0.00  0.00     0.055 A 
ATOM      6  C5  BZF d   1       0.926   0.087  -0.189  0.00  0.00    -0.016 A 
ATOM      7  C6  BZF d   1       0.852  -0.352   1.117  0.00  0.00     0.022 A 
ATOM      8  C7  BZF d   1      -0.278  -0.918   1.607  0.00  0.00     0.029 A 
ATOM      9  C7A BZF d   1      -1.335  -1.055   0.740  0.00  0.00     0.058 A 
ENDROOT
TORSDOF 0
ENDMDL
