MODEL 1
REMARK minimizedAffinity -3.53318644
REMARK minimizedRMSD -1
REMARK  0 active torsions:
REMARK  status: ('A' for Active; 'I' for Inactive)
ROOT
ATOM      1  O1  BZF d   1       1.157   0.449  -0.224  0.00  0.00    -0.204 OA
ATOM      2  C2  BZF d   1      -0.044   0.870  -0.761  0.00  0.00     0.174 A 
ATOM      3  C3  BZF d   1      -1.077   0.483   0.015  0.00  0.00    -0.012 A 
ATOM      4  C3A BZF d   1      -0.478  -0.144   1.153  0.00  0.00    -0.107 A 
ATOM      5  C4  BZF d   1      -0.985  -0.719   2.284  0.00  0.00     0.055 A 
ATOM      6  C5  BZF d   1      -0.133  -1.306   3.165  0.00  0.00    -0.016 A 
ATOM      7  C6  BZF d   1       1.228  -1.341   2.945  0.00  0.00     0.022 A 
ATOM      8  C7  BZF d   1       1.778  -0.780   1.841  0.00  0.00     0.029 A 
ATOM      9  C7A BZF d   1       0.923  -0.157   0.965  0.00  0.00     0.058 A 
ENDROOT
TORSDOF 0
ENDMDL
