MODEL 1
REMARK minimizedAffinity 0.958985627
REMARK minimizedRMSD -1
REMARK  0 active torsions:
REMARK  status: ('A' for Active; 'I' for Inactive)
ROOT
ATOM      1  O1  BZF d   1      -0.619   2.242  -0.552  0.00  0.00    -0.204 OA
ATOM      2  C2  BZF d   1      -0.758   2.421  -1.914  0.00  0.00     0.174 A 
ATOM      3  C3  BZF d   1      -0.091   1.466  -2.593  0.00  0.00    -0.012 A 
ATOM      4  C3A BZF d   1       0.425   0.583  -1.592  0.00  0.00    -0.107 A 
ATOM      5  C4  BZF d   1       1.161  -0.566  -1.643  0.00  0.00     0.055 A 
ATOM      6  C5  BZF d   1       1.564  -1.144  -0.481  0.00  0.00    -0.016 A 
ATOM      7  C6  BZF d   1       1.252  -0.598   0.748  0.00  0.00     0.022 A 
ATOM      8  C7  BZF d   1       0.519   0.537   0.848  0.00  0.00     0.029 A 
ATOM      9  C7A BZF d   1       0.083   1.106  -0.323  0.00  0.00     0.058 A 
ENDROOT
TORSDOF 0
ENDMDL
