MODEL 1
REMARK minimizedAffinity -5.31945229
REMARK minimizedRMSD -1
REMARK  0 active torsions:
REMARK  status: ('A' for Active; 'I' for Inactive)
ROOT
ATOM      1  O1  BZF d   1       1.156  -0.724  -0.903  0.00  0.00    -0.204 OA
ATOM      2  C2  BZF d   1      -0.064  -0.372  -1.446  0.00  0.00     0.174 A 
ATOM      3  C3  BZF d   1      -0.991  -0.217  -0.478  0.00  0.00    -0.012 A 
ATOM      4  C3A BZF d   1      -0.285  -0.399   0.752  0.00  0.00    -0.107 A 
ATOM      5  C4  BZF d   1      -0.658  -0.351   2.065  0.00  0.00     0.055 A 
ATOM      6  C5  BZF d   1       0.259  -0.648   3.024  0.00  0.00    -0.016 A 
ATOM      7  C6  BZF d   1       1.554  -1.000   2.705  0.00  0.00     0.022 A 
ATOM      8  C7  BZF d   1       1.972  -1.056   1.417  0.00  0.00     0.029 A 
ATOM      9  C7A BZF d   1       1.057  -0.725   0.448  0.00  0.00     0.058 A 
ENDROOT
TORSDOF 0
ENDMDL
