MODEL 1
REMARK minimizedAffinity -0.904922605
REMARK minimizedRMSD -1
REMARK  0 active torsions:
REMARK  status: ('A' for Active; 'I' for Inactive)
ROOT
ATOM      1  O1  BZF d   1      -2.526   3.714  -4.291  0.00  0.00    -0.204 OA
ATOM      2  C2  BZF d   1      -3.422   3.293  -3.327  0.00  0.00     0.174 A 
ATOM      3  C3  BZF d   1      -2.777   2.694  -2.305  0.00  0.00    -0.012 A 
ATOM      4  C3A BZF d   1      -1.385   2.826  -2.608  0.00  0.00    -0.107 A 
ATOM      5  C4  BZF d   1      -0.244   2.444  -1.964  0.00  0.00     0.055 A 
ATOM      6  C5  BZF d   1       0.957   2.659  -2.564  0.00  0.00    -0.016 A 
ATOM      7  C6  BZF d   1       1.052   3.246  -3.808  0.00  0.00     0.022 A 
ATOM      8  C7  BZF d   1      -0.053   3.647  -4.484  0.00  0.00     0.029 A 
ATOM      9  C7A BZF d   1      -1.265   3.461  -3.866  0.00  0.00     0.058 A 
ENDROOT
TORSDOF 0
ENDMDL
