MODEL 1
REMARK minimizedAffinity -2.40401816
REMARK minimizedRMSD -1
REMARK  0 active torsions:
REMARK  status: ('A' for Active; 'I' for Inactive)
ROOT
ATOM      1  O1  BZF d   1      -3.815  -1.009   0.966  0.00  0.00    -0.204 OA
ATOM      2  C2  BZF d   1      -4.132  -1.440  -0.308  0.00  0.00     0.174 A 
ATOM      3  C3  BZF d   1      -3.072  -1.315  -1.133  0.00  0.00    -0.012 A 
ATOM      4  C3A BZF d   1      -2.000  -0.859  -0.302  0.00  0.00    -0.107 A 
ATOM      5  C4  BZF d   1      -0.688  -0.565  -0.539  0.00  0.00     0.055 A 
ATOM      6  C5  BZF d   1       0.073  -0.074   0.474  0.00  0.00    -0.016 A 
ATOM      7  C6  BZF d   1      -0.447   0.140   1.734  0.00  0.00     0.022 A 
ATOM      8  C7  BZF d   1      -1.742  -0.141   2.019  0.00  0.00     0.029 A 
ATOM      9  C7A BZF d   1      -2.504  -0.669   1.005  0.00  0.00     0.058 A 
ENDROOT
TORSDOF 0
ENDMDL
