MODEL 1
REMARK minimizedAffinity 0.0364468135
REMARK minimizedRMSD -1
REMARK  0 active torsions:
REMARK  status: ('A' for Active; 'I' for Inactive)
ROOT
ATOM      1  O1  BZF d   1      -2.432  -0.552   0.718  0.00  0.00    -0.204 OA
ATOM      2  C2  BZF d   1      -3.082  -0.703  -0.491  0.00  0.00     0.174 A 
ATOM      3  C3  BZF d   1      -2.196  -0.796  -1.504  0.00  0.00    -0.012 A 
ATOM      4  C3A BZF d   1      -0.909  -0.789  -0.878  0.00  0.00    -0.107 A 
ATOM      5  C4  BZF d   1       0.368  -0.871  -1.357  0.00  0.00     0.055 A 
ATOM      6  C5  BZF d   1       1.407  -0.760  -0.488  0.00  0.00    -0.016 A 
ATOM      7  C6  BZF d   1       1.206  -0.563   0.863  0.00  0.00     0.022 A 
ATOM      8  C7  BZF d   1      -0.042  -0.480   1.384  0.00  0.00     0.029 A 
ATOM      9  C7A BZF d   1      -1.094  -0.624   0.514  0.00  0.00     0.058 A 
ENDROOT
TORSDOF 0
ENDMDL
