MODEL 1
REMARK minimizedAffinity -1.50429559
REMARK minimizedRMSD -1
REMARK  0 active torsions:
REMARK  status: ('A' for Active; 'I' for Inactive)
ROOT
ATOM      1  C   UNL d   1       1.572  -0.292   1.238  0.00  0.00     0.124 A 
ATOM      2  C1  UNL d   1       1.597   0.863   0.469  0.00  0.00     0.062 A 
ATOM      3  C2  UNL d   1       0.539   1.158  -0.386  0.00  0.00     0.162 A 
ATOM      4  C3  UNL d   1      -0.554   0.296  -0.475  0.00  0.00    -0.034 A 
ATOM      5  C4  UNL d   1      -0.572  -0.864   0.301  0.00  0.00     0.162 A 
ATOM      6  C5  UNL d   1       0.488  -1.154   1.154  0.00  0.00     0.062 A 
ATOM      7  F   UNL d   1       0.462  -2.270   1.896  0.00  0.00    -0.097 F 
ATOM      8  F1  UNL d   1      -1.608  -1.714   0.240  0.00  0.00    -0.096 F 
ATOM      9  I   UNL d   1      -2.139   0.734  -1.752  0.00  0.00    -0.060 I 
ATOM     10  F2  UNL d   1       0.590   2.281  -1.118  0.00  0.00    -0.096 F 
ATOM     11  F3  UNL d   1       2.644   1.697   0.548  0.00  0.00    -0.097 F 
ATOM     12  F4  UNL d   1       2.592  -0.574   2.059  0.00  0.00    -0.092 F 
ENDROOT
TORSDOF 0
ENDMDL
