MODEL 1
REMARK minimizedAffinity -1.81343353
REMARK minimizedRMSD -1
REMARK  0 active torsions:
REMARK  status: ('A' for Active; 'I' for Inactive)
ROOT
ATOM      1  C   UNL d   1       1.023   1.292  -0.235  0.00  0.00     0.124 A 
ATOM      2  C1  UNL d   1       2.224   0.893   0.336  0.00  0.00     0.062 A 
ATOM      3  C2  UNL d   1       2.256  -0.180   1.221  0.00  0.00     0.162 A 
ATOM      4  C3  UNL d   1       1.083  -0.864   1.541  0.00  0.00    -0.034 A 
ATOM      5  C4  UNL d   1      -0.121  -0.456   0.964  0.00  0.00     0.162 A 
ATOM      6  C5  UNL d   1      -0.148   0.617   0.079  0.00  0.00     0.062 A 
ATOM      7  F   UNL d   1      -1.309   1.001  -0.471  0.00  0.00    -0.097 F 
ATOM      8  F1  UNL d   1      -1.268  -1.091   1.249  0.00  0.00    -0.096 F 
ATOM      9  I   UNL d   1       1.126  -2.469   2.864  0.00  0.00    -0.060 I 
ATOM     10  F2  UNL d   1       3.430  -0.544   1.758  0.00  0.00    -0.096 F 
ATOM     11  F3  UNL d   1       3.357   1.544   0.034  0.00  0.00    -0.097 F 
ATOM     12  F4  UNL d   1       0.996   2.326  -1.086  0.00  0.00    -0.092 F 
ENDROOT
TORSDOF 0
ENDMDL
