MODEL 1
REMARK minimizedAffinity -1.2847476
REMARK minimizedRMSD -1
REMARK  0 active torsions:
REMARK  status: ('A' for Active; 'I' for Inactive)
ROOT
ATOM      1  C   UNL d   1       1.233  -0.366   1.126  0.00  0.00     0.124 A 
ATOM      2  C1  UNL d   1       1.345   0.498   0.046  0.00  0.00     0.062 A 
ATOM      3  C2  UNL d   1       0.309   0.601  -0.878  0.00  0.00     0.162 A 
ATOM      4  C3  UNL d   1      -0.849  -0.162  -0.725  0.00  0.00    -0.034 A 
ATOM      5  C4  UNL d   1      -0.953  -1.030   0.363  0.00  0.00     0.162 A 
ATOM      6  C5  UNL d   1       0.085  -1.129   1.284  0.00  0.00     0.062 A 
ATOM      7  F   UNL d   1      -0.025  -1.965   2.327  0.00  0.00    -0.097 F 
ATOM      8  F1  UNL d   1      -2.052  -1.778   0.540  0.00  0.00    -0.096 F 
ATOM      9  I   UNL d   1      -2.400  -0.011  -2.105  0.00  0.00    -0.060 I 
ATOM     10  F2  UNL d   1       0.444   1.444  -1.912  0.00  0.00    -0.096 F 
ATOM     11  F3  UNL d   1       2.454   1.235  -0.109  0.00  0.00    -0.097 F 
ATOM     12  F4  UNL d   1       2.232  -0.464   2.013  0.00  0.00    -0.092 F 
ENDROOT
TORSDOF 0
ENDMDL
