MODEL 1
REMARK minimizedAffinity 1.9294306
REMARK minimizedRMSD -1
REMARK  0 active torsions:
REMARK  status: ('A' for Active; 'I' for Inactive)
ROOT
ATOM      1  C   UNL d   1       2.275   0.985   1.418  0.00  0.00     0.124 A 
ATOM      2  C1  UNL d   1       2.528  -0.238   2.025  0.00  0.00     0.062 A 
ATOM      3  C2  UNL d   1       1.589  -1.263   1.952  0.00  0.00     0.162 A 
ATOM      4  C3  UNL d   1       0.389  -1.071   1.269  0.00  0.00    -0.034 A 
ATOM      5  C4  UNL d   1       0.140   0.162   0.662  0.00  0.00     0.162 A 
ATOM      6  C5  UNL d   1       1.082   1.183   0.738  0.00  0.00     0.062 A 
ATOM      7  F   UNL d   1       0.835   2.364   0.152  0.00  0.00    -0.097 F 
ATOM      8  F1  UNL d   1      -1.004   0.381  -0.002  0.00  0.00    -0.096 F 
ATOM      9  I   UNL d   1      -1.017  -2.601   1.157  0.00  0.00    -0.060 I 
ATOM     10  F2  UNL d   1       1.861  -2.434   2.547  0.00  0.00    -0.096 F 
ATOM     11  F3  UNL d   1       3.680  -0.432   2.683  0.00  0.00    -0.097 F 
ATOM     12  F4  UNL d   1       3.179   1.970   1.491  0.00  0.00    -0.092 F 
ENDROOT
TORSDOF 0
ENDMDL
