MODEL 1
REMARK minimizedAffinity 12.436821
REMARK minimizedRMSD -1
REMARK  0 active torsions:
REMARK  status: ('A' for Active; 'I' for Inactive)
ROOT
ATOM      1  C4' PXY d   1       3.828   3.745  -6.000  0.00  0.00     0.077 C 
ATOM      2  C1' PXY d   1       5.932   4.900  -0.741  0.00  0.00     0.077 C 
ATOM      3  C1  PXY d   1       5.386   4.608  -2.125  0.00  0.00    -0.082 A 
ATOM      4  C2  PXY d   1       4.315   3.842  -2.257  0.00  0.00     0.003 A 
ATOM      5  C3  PXY d   1       3.827   3.541  -3.503  0.00  0.00     0.003 A 
ATOM      6  C4  PXY d   1       4.409   4.074  -4.622  0.00  0.00    -0.082 A 
ATOM      7  C5  PXY d   1       5.495   4.865  -4.495  0.00  0.00     0.003 A 
ATOM      8  C6  PXY d   1       6.000   5.125  -3.224  0.00  0.00     0.003 A 
ENDROOT
TORSDOF 0
ENDMDL
