MODEL 1
REMARK minimizedAffinity 12.3399696
REMARK minimizedRMSD -1
REMARK  0 active torsions:
REMARK  status: ('A' for Active; 'I' for Inactive)
ROOT
ATOM      1  C4' PXY d   1       0.374   1.216  -1.933  0.00  0.00     0.077 C 
ATOM      2  C1' PXY d   1       4.716   2.088   1.782  0.00  0.00     0.077 C 
ATOM      3  C1  PXY d   1       3.569   1.865   0.817  0.00  0.00    -0.082 A 
ATOM      4  C2  PXY d   1       3.669   0.927  -0.111  0.00  0.00     0.003 A 
ATOM      5  C3  PXY d   1       2.654   0.733  -1.013  0.00  0.00     0.003 A 
ATOM      6  C4  PXY d   1       1.504   1.470  -0.930  0.00  0.00    -0.082 A 
ATOM      7  C5  PXY d   1       1.390   2.422   0.020  0.00  0.00     0.003 A 
ATOM      8  C6  PXY d   1       2.448   2.631   0.900  0.00  0.00     0.003 A 
ENDROOT
TORSDOF 0
ENDMDL
