MODEL 1
REMARK minimizedAffinity 10.4340868
REMARK minimizedRMSD -1
REMARK  0 active torsions:
REMARK  status: ('A' for Active; 'I' for Inactive)
ROOT
ATOM      1  C4' PXY d   1       0.665   5.999  -1.236  0.00  0.00     0.077 C 
ATOM      2  C1' PXY d   1      -2.450   4.943  -5.990  0.00  0.00     0.077 C 
ATOM      3  C1  PXY d   1      -1.643   5.226  -4.738  0.00  0.00    -0.082 A 
ATOM      4  C2  PXY d   1      -0.322   5.223  -4.797  0.00  0.00     0.003 A 
ATOM      5  C3  PXY d   1       0.424   5.446  -3.668  0.00  0.00     0.003 A 
ATOM      6  C4  PXY d   1      -0.190   5.728  -2.477  0.00  0.00    -0.082 A 
ATOM      7  C5  PXY d   1      -1.539   5.743  -2.411  0.00  0.00     0.003 A 
ATOM      8  C6  PXY d   1      -2.277   5.474  -3.560  0.00  0.00     0.003 A 
ENDROOT
TORSDOF 0
ENDMDL
