MODEL 1
REMARK minimizedAffinity 11.7637901
REMARK minimizedRMSD -1
REMARK  0 active torsions:
REMARK  status: ('A' for Active; 'I' for Inactive)
ROOT
ATOM      1  C4' PXY d   1       4.240   3.081  -5.810  0.00  0.00     0.077 C 
ATOM      2  C1' PXY d   1       5.523   5.538  -0.738  0.00  0.00     0.077 C 
ATOM      3  C1  PXY d   1       5.179   4.885  -2.062  0.00  0.00    -0.082 A 
ATOM      4  C2  PXY d   1       5.998   5.023  -3.092  0.00  0.00     0.003 A 
ATOM      5  C3  PXY d   1       5.687   4.465  -4.305  0.00  0.00     0.003 A 
ATOM      6  C4  PXY d   1       4.551   3.715  -4.452  0.00  0.00    -0.082 A 
ATOM      7  C5  PXY d   1       3.716   3.560  -3.403  0.00  0.00     0.003 A 
ATOM      8  C6  PXY d   1       4.029   4.169  -2.191  0.00  0.00     0.003 A 
ENDROOT
TORSDOF 0
ENDMDL
