MODEL 1
REMARK minimizedAffinity 14.3433571
REMARK minimizedRMSD -1
REMARK  0 active torsions:
REMARK  status: ('A' for Active; 'I' for Inactive)
ROOT
ATOM      1  C4' PXY d   1       6.000   5.143  -0.726  0.00  0.00     0.077 C 
ATOM      2  C1' PXY d   1       3.268   2.709  -5.202  0.00  0.00     0.077 C 
ATOM      3  C1  PXY d   1       3.996   3.344  -4.033  0.00  0.00    -0.082 A 
ATOM      4  C2  PXY d   1       3.358   3.530  -2.889  0.00  0.00     0.003 A 
ATOM      5  C3  PXY d   1       3.992   4.131  -1.832  0.00  0.00     0.003 A 
ATOM      6  C4  PXY d   1       5.307   4.498  -1.930  0.00  0.00    -0.082 A 
ATOM      7  C5  PXY d   1       5.968   4.302  -3.091  0.00  0.00     0.003 A 
ATOM      8  C6  PXY d   1       5.295   3.727  -4.165  0.00  0.00     0.003 A 
ENDROOT
TORSDOF 0
ENDMDL
