MODEL 1
REMARK minimizedAffinity 20.9306316
REMARK minimizedRMSD -1
REMARK  0 active torsions:
REMARK  status: ('A' for Active; 'I' for Inactive)
ROOT
ATOM      1  C4' PXY d   1      -0.689   5.598  -6.000  0.00  0.00     0.077 C 
ATOM      2  C1' PXY d   1      -3.620   5.416  -1.021  0.00  0.00     0.077 C 
ATOM      3  C1  PXY d   1      -2.841   5.468  -2.320  0.00  0.00    -0.082 A 
ATOM      4  C2  PXY d   1      -3.487   5.620  -3.465  0.00  0.00     0.003 A 
ATOM      5  C3  PXY d   1      -2.801   5.637  -4.652  0.00  0.00     0.003 A 
ATOM      6  C4  PXY d   1      -1.434   5.550  -4.663  0.00  0.00    -0.082 A 
ATOM      7  C5  PXY d   1      -0.767   5.405  -3.499  0.00  0.00     0.003 A 
ATOM      8  C6  PXY d   1      -1.486   5.349  -2.308  0.00  0.00     0.003 A 
ENDROOT
TORSDOF 0
ENDMDL
