MODEL 1
REMARK minimizedAffinity 11.2212915
REMARK minimizedRMSD -1
REMARK  0 active torsions:
REMARK  status: ('A' for Active; 'I' for Inactive)
ROOT
ATOM      1  C4' PXY d   1      -5.626   1.117   2.819  0.00  0.00     0.077 C 
ATOM      2  C1' PXY d   1      -5.511   0.538  -2.931  0.00  0.00     0.077 C 
ATOM      3  C1  PXY d   1      -5.539   0.703  -1.425  0.00  0.00    -0.082 A 
ATOM      4  C2  PXY d   1      -5.324  -0.347  -0.648  0.00  0.00     0.003 A 
ATOM      5  C3  PXY d   1      -5.376  -0.223   0.716  0.00  0.00     0.003 A 
ATOM      6  C4  PXY d   1      -5.599   0.999   1.293  0.00  0.00    -0.082 A 
ATOM      7  C5  PXY d   1      -5.809   2.077   0.507  0.00  0.00     0.003 A 
ATOM      8  C6  PXY d   1      -5.792   1.922  -0.876  0.00  0.00     0.003 A 
ENDROOT
TORSDOF 0
ENDMDL
