MODEL 1
REMARK minimizedAffinity 6.9981041
REMARK minimizedRMSD -1
REMARK  0 active torsions:
REMARK  status: ('A' for Active; 'I' for Inactive)
ROOT
ATOM      1  C4' PXY d   1      -3.957   0.501  -0.289  0.00  0.00     0.077 C 
ATOM      2  C1' PXY d   1      -4.351  -2.772   4.459  0.00  0.00     0.077 C 
ATOM      3  C1  PXY d   1      -4.236  -1.909   3.218  0.00  0.00    -0.082 A 
ATOM      4  C2  PXY d   1      -5.329  -1.575   2.550  0.00  0.00     0.003 A 
ATOM      5  C3  PXY d   1      -5.240  -0.822   1.408  0.00  0.00     0.003 A 
ATOM      6  C4  PXY d   1      -4.026  -0.361   0.974  0.00  0.00    -0.082 A 
ATOM      7  C5  PXY d   1      -2.908  -0.689   1.656  0.00  0.00     0.003 A 
ATOM      8  C6  PXY d   1      -3.015  -1.489   2.790  0.00  0.00     0.003 A 
ENDROOT
TORSDOF 0
ENDMDL
