MODEL 1
REMARK minimizedAffinity 9.69328117
REMARK minimizedRMSD -1
REMARK  0 active torsions:
REMARK  status: ('A' for Active; 'I' for Inactive)
ROOT
ATOM      1  C4' PXY d   1      -1.175   4.091  -4.569  0.00  0.00     0.077 C 
ATOM      2  C1' PXY d   1       2.781   1.564  -1.195  0.00  0.00     0.077 C 
ATOM      3  C1  PXY d   1       1.750   2.238  -2.079  0.00  0.00    -0.082 A 
ATOM      4  C2  PXY d   1       0.551   1.694  -2.217  0.00  0.00     0.003 A 
ATOM      5  C3  PXY d   1      -0.383   2.274  -3.037  0.00  0.00     0.003 A 
ATOM      6  C4  PXY d   1      -0.105   3.450  -3.680  0.00  0.00    -0.082 A 
ATOM      7  C5  PXY d   1       1.111   4.017  -3.536  0.00  0.00     0.003 A 
ATOM      8  C6  PXY d   1       2.059   3.391  -2.731  0.00  0.00     0.003 A 
ENDROOT
TORSDOF 0
ENDMDL
