MODEL 1
REMARK minimizedAffinity 13.419982
REMARK minimizedRMSD -1
REMARK  0 active torsions:
REMARK  status: ('A' for Active; 'I' for Inactive)
ROOT
ATOM      1  C4' PXY d   1       5.825   5.994  -1.434  0.00  0.00     0.077 C 
ATOM      2  C1' PXY d   1       3.897   3.019  -6.000  0.00  0.00     0.077 C 
ATOM      3  C1  PXY d   1       4.391   3.800  -4.798  0.00  0.00    -0.082 A 
ATOM      4  C2  PXY d   1       5.502   4.512  -4.891  0.00  0.00     0.003 A 
ATOM      5  C3  PXY d   1       5.980   5.198  -3.804  0.00  0.00     0.003 A 
ATOM      6  C4  PXY d   1       5.285   5.198  -2.625  0.00  0.00    -0.082 A 
ATOM      7  C5  PXY d   1       4.144   4.483  -2.525  0.00  0.00     0.003 A 
ATOM      8  C6  PXY d   1       3.698   3.760  -3.627  0.00  0.00     0.003 A 
ENDROOT
TORSDOF 0
ENDMDL
