MODEL 1
REMARK minimizedAffinity 8.96650028
REMARK minimizedRMSD -1
REMARK  0 active torsions:
REMARK  status: ('A' for Active; 'I' for Inactive)
ROOT
ATOM      1  C4' PXY d   1       6.000   5.319  -4.813  0.00  0.00     0.077 C 
ATOM      2  C1' PXY d   1       1.819   2.228  -2.286  0.00  0.00     0.077 C 
ATOM      3  C1  PXY d   1       2.916   3.046  -2.938  0.00  0.00    -0.082 A 
ATOM      4  C2  PXY d   1       3.029   3.056  -4.256  0.00  0.00     0.003 A 
ATOM      5  C3  PXY d   1       4.035   3.765  -4.861  0.00  0.00     0.003 A 
ATOM      6  C4  PXY d   1       4.902   4.514  -4.111  0.00  0.00    -0.082 A 
ATOM      7  C5  PXY d   1       4.786   4.518  -2.766  0.00  0.00     0.003 A 
ATOM      8  C6  PXY d   1       3.784   3.759  -2.170  0.00  0.00     0.003 A 
ENDROOT
TORSDOF 0
ENDMDL
