MODEL 1
REMARK minimizedAffinity 11.5588989
REMARK minimizedRMSD -1
REMARK  0 active torsions:
REMARK  status: ('A' for Active; 'I' for Inactive)
ROOT
ATOM      1  C4' PXY d   1      -5.419   1.116   1.692  0.00  0.00     0.077 C 
ATOM      2  C1' PXY d   1      -0.125  -1.107   2.355  0.00  0.00     0.077 C 
ATOM      3  C1  PXY d   1      -1.514  -0.530   2.170  0.00  0.00    -0.082 A 
ATOM      4  C2  PXY d   1      -1.841   0.598   2.779  0.00  0.00     0.003 A 
ATOM      5  C3  PXY d   1      -3.103   1.117   2.648  0.00  0.00     0.003 A 
ATOM      6  C4  PXY d   1      -4.025   0.502   1.843  0.00  0.00    -0.082 A 
ATOM      7  C5  PXY d   1      -3.696  -0.644   1.210  0.00  0.00     0.003 A 
ATOM      8  C6  PXY d   1      -2.422  -1.176   1.389  0.00  0.00     0.003 A 
ENDROOT
TORSDOF 0
ENDMDL
