MODEL 1
REMARK minimizedAffinity 15.1838427
REMARK minimizedRMSD -1
REMARK  0 active torsions:
REMARK  status: ('A' for Active; 'I' for Inactive)
ROOT
ATOM      1  C4' PXY d   1      -5.606  -0.129   0.217  0.00  0.00     0.077 C 
ATOM      2  C1' PXY d   1      -1.367   0.558   4.086  0.00  0.00     0.077 C 
ATOM      3  C1  PXY d   1      -2.471   0.369   3.065  0.00  0.00    -0.082 A 
ATOM      4  C2  PXY d   1      -3.363   1.329   2.881  0.00  0.00     0.003 A 
ATOM      5  C3  PXY d   1      -4.387   1.162   1.984  0.00  0.00     0.003 A 
ATOM      6  C4  PXY d   1      -4.469   0.022   1.231  0.00  0.00    -0.082 A 
ATOM      7  C5  PXY d   1      -3.557  -0.958   1.406  0.00  0.00     0.003 A 
ATOM      8  C6  PXY d   1      -2.549  -0.786   2.350  0.00  0.00     0.003 A 
ENDROOT
TORSDOF 0
ENDMDL
