MODEL 1
REMARK minimizedAffinity -2.28959417
REMARK minimizedRMSD -1
REMARK  0 active torsions:
REMARK  status: ('A' for Active; 'I' for Inactive)
ROOT
ATOM      1  C4' PXY d   1      -5.702   1.262   4.095  0.00  0.00     0.077 C 
ATOM      2  C1' PXY d   1      -1.081  -1.032   1.488  0.00  0.00     0.077 C 
ATOM      3  C1  PXY d   1      -2.299  -0.431   2.160  0.00  0.00    -0.082 A 
ATOM      4  C2  PXY d   1      -2.149   0.301   3.252  0.00  0.00     0.003 A 
ATOM      5  C3  PXY d   1      -3.243   0.825   3.891  0.00  0.00     0.003 A 
ATOM      6  C4  PXY d   1      -4.499   0.643   3.377  0.00  0.00    -0.082 A 
ATOM      7  C5  PXY d   1      -4.659  -0.093   2.257  0.00  0.00     0.003 A 
ATOM      8  C6  PXY d   1      -3.540  -0.651   1.647  0.00  0.00     0.003 A 
ENDROOT
TORSDOF 0
ENDMDL
