MODEL 1
REMARK minimizedAffinity 12.7469501
REMARK minimizedRMSD -1
REMARK  0 active torsions:
REMARK  status: ('A' for Active; 'I' for Inactive)
ROOT
ATOM      1  C4' PXY d   1      -6.000   2.023   4.049  0.00  0.00     0.077 C 
ATOM      2  C1' PXY d   1      -1.402  -0.634   1.766  0.00  0.00     0.077 C 
ATOM      3  C1  PXY d   1      -2.613   0.065   2.353  0.00  0.00    -0.082 A 
ATOM      4  C2  PXY d   1      -2.532   0.617   3.552  0.00  0.00     0.003 A 
ATOM      5  C3  PXY d   1      -3.626   1.226   4.111  0.00  0.00     0.003 A 
ATOM      6  C4  PXY d   1      -4.800   1.316   3.414  0.00  0.00    -0.082 A 
ATOM      7  C5  PXY d   1      -4.888   0.763   2.185  0.00  0.00     0.003 A 
ATOM      8  C6  PXY d   1      -3.778   0.115   1.652  0.00  0.00     0.003 A 
ENDROOT
TORSDOF 0
ENDMDL
