MODEL 1
REMARK minimizedAffinity 8.91481113
REMARK minimizedRMSD -1
REMARK  0 active torsions:
REMARK  status: ('A' for Active; 'I' for Inactive)
ROOT
ATOM      1  C4' PXY d   1      -1.617  -3.672   0.641  0.00  0.00     0.077 C 
ATOM      2  C1' PXY d   1      -2.560   0.789   4.194  0.00  0.00     0.077 C 
ATOM      3  C1  PXY d   1      -2.302  -0.375   3.258  0.00  0.00    -0.082 A 
ATOM      4  C2  PXY d   1      -3.316  -1.110   2.833  0.00  0.00     0.003 A 
ATOM      5  C3  PXY d   1      -3.097  -2.186   2.012  0.00  0.00     0.003 A 
ATOM      6  C4  PXY d   1      -1.832  -2.481   1.579  0.00  0.00    -0.082 A 
ATOM      7  C5  PXY d   1      -0.793  -1.729   2.000  0.00  0.00     0.003 A 
ATOM      8  C6  PXY d   1      -1.032  -0.666   2.866  0.00  0.00     0.003 A 
ENDROOT
TORSDOF 0
ENDMDL
