MODEL 1
REMARK minimizedAffinity 7.00337601
REMARK minimizedRMSD -1
REMARK  0 active torsions:
REMARK  status: ('A' for Active; 'I' for Inactive)
ROOT
ATOM      1  C4' PXY d   1       5.984   4.118   2.240  0.00  0.00     0.077 C 
ATOM      2  C1' PXY d   1       5.960   5.363  -3.405  0.00  0.00     0.077 C 
ATOM      3  C1  PXY d   1       5.961   5.025  -1.927  0.00  0.00    -0.082 A 
ATOM      4  C2  PXY d   1       5.939   6.000  -1.033  0.00  0.00     0.003 A 
ATOM      5  C3  PXY d   1       5.972   5.713   0.307  0.00  0.00     0.003 A 
ATOM      6  C4  PXY d   1       5.974   4.413   0.737  0.00  0.00    -0.082 A 
ATOM      7  C5  PXY d   1       5.986   3.412  -0.169  0.00  0.00     0.003 A 
ATOM      8  C6  PXY d   1       5.994   3.725  -1.525  0.00  0.00     0.003 A 
ENDROOT
TORSDOF 0
ENDMDL
