MODEL 1
REMARK minimizedAffinity 3.09037471
REMARK minimizedRMSD -1
REMARK  0 active torsions:
REMARK  status: ('A' for Active; 'I' for Inactive)
ROOT
ATOM      1  C4' PXY d   1      -4.491   0.354   1.250  0.00  0.00     0.077 C 
ATOM      2  C1' PXY d   1       0.499  -1.316   3.642  0.00  0.00     0.077 C 
ATOM      3  C1  PXY d   1      -0.812  -0.870   3.025  0.00  0.00    -0.082 A 
ATOM      4  C2  PXY d   1      -1.461  -1.683   2.208  0.00  0.00     0.003 A 
ATOM      5  C3  PXY d   1      -2.631  -1.283   1.615  0.00  0.00     0.003 A 
ATOM      6  C4  PXY d   1      -3.170  -0.058   1.904  0.00  0.00    -0.082 A 
ATOM      7  C5  PXY d   1      -2.519   0.773   2.745  0.00  0.00     0.003 A 
ATOM      8  C6  PXY d   1      -1.312   0.364   3.304  0.00  0.00     0.003 A 
ENDROOT
TORSDOF 0
ENDMDL
