MODEL 1
REMARK minimizedAffinity 13.3170757
REMARK minimizedRMSD -1
REMARK  0 active torsions:
REMARK  status: ('A' for Active; 'I' for Inactive)
ROOT
ATOM      1  C4' PXY d   1       3.554   0.865  -1.513  0.00  0.00     0.077 C 
ATOM      2  C1' PXY d   1      -0.394   4.627  -3.431  0.00  0.00     0.077 C 
ATOM      3  C1  PXY d   1       0.649   3.642  -2.939  0.00  0.00    -0.082 A 
ATOM      4  C2  PXY d   1       0.305   2.706  -2.069  0.00  0.00     0.003 A 
ATOM      5  C3  PXY d   1       1.242   1.828  -1.589  0.00  0.00     0.003 A 
ATOM      6  C4  PXY d   1       2.533   1.874  -2.045  0.00  0.00    -0.082 A 
ATOM      7  C5  PXY d   1       2.889   2.819  -2.940  0.00  0.00     0.003 A 
ATOM      8  C6  PXY d   1       1.932   3.728  -3.384  0.00  0.00     0.003 A 
ENDROOT
TORSDOF 0
ENDMDL
