MODEL 1
REMARK minimizedAffinity 13.7574587
REMARK minimizedRMSD -1
REMARK  0 active torsions:
REMARK  status: ('A' for Active; 'I' for Inactive)
ROOT
ATOM      1  C4' PXY d   1       5.999   4.110   2.127  0.00  0.00     0.077 C 
ATOM      2  C1' PXY d   1       1.724   1.078  -0.313  0.00  0.00     0.077 C 
ATOM      3  C1  PXY d   1       2.854   1.863   0.325  0.00  0.00    -0.082 A 
ATOM      4  C2  PXY d   1       2.574   2.840   1.172  0.00  0.00     0.003 A 
ATOM      5  C3  PXY d   1       3.582   3.581   1.734  0.00  0.00     0.003 A 
ATOM      6  C4  PXY d   1       4.891   3.284   1.466  0.00  0.00    -0.082 A 
ATOM      7  C5  PXY d   1       5.185   2.282   0.611  0.00  0.00     0.003 A 
ATOM      8  C6  PXY d   1       4.146   1.569   0.020  0.00  0.00     0.003 A 
ENDROOT
TORSDOF 0
ENDMDL
