MODEL 1
REMARK minimizedAffinity -5.80505896
REMARK minimizedRMSD -1
REMARK  0 active torsions:
REMARK  status: ('A' for Active; 'I' for Inactive)
ROOT
ATOM      1  C1  DEN d   1       0.409  -0.482  -0.251  0.00  0.00     0.130 A 
ATOM      2  C2  DEN d   1      -0.926  -0.478  -0.843  0.00  0.00    -0.031 A 
ATOM      3  C3  DEN d   1      -1.888  -0.075   0.202  0.00  0.00     0.027 A 
ATOM      4  C4  DEN d   1      -1.443   0.547   2.665  0.00  0.00     0.027 A 
ATOM      5  C5  DEN d   1      -0.470   0.679   3.631  0.00  0.00    -0.003 A 
ATOM      6  C6  DEN d   1       0.848   0.402   3.383  0.00  0.00     0.001 A 
ATOM      7  C7  DEN d   1       1.237   0.023   2.125  0.00  0.00     0.017 A 
ATOM      8  C8  DEN d   1       0.260  -0.119   1.147  0.00  0.00    -0.094 A 
ATOM      9  C9  DEN d   1      -1.065   0.177   1.415  0.00  0.00    -0.072 A 
ENDROOT
TORSDOF 0
ENDMDL
