MODEL 1
REMARK minimizedAffinity 4.19517946
REMARK minimizedRMSD -1
REMARK  0 active torsions:
REMARK  status: ('A' for Active; 'I' for Inactive)
ROOT
ATOM      1  C1  DEN d   1      -2.132  -1.107   0.861  0.00  0.00     0.130 A 
ATOM      2  C2  DEN d   1      -1.613  -1.558  -0.427  0.00  0.00    -0.031 A 
ATOM      3  C3  DEN d   1      -0.232  -1.052  -0.565  0.00  0.00     0.027 A 
ATOM      4  C4  DEN d   1       1.146   0.373   1.085  0.00  0.00     0.027 A 
ATOM      5  C5  DEN d   1       1.126   1.011   2.306  0.00  0.00    -0.003 A 
ATOM      6  C6  DEN d   1       0.016   1.016   3.109  0.00  0.00     0.001 A 
ATOM      7  C7  DEN d   1      -1.106   0.333   2.720  0.00  0.00     0.017 A 
ATOM      8  C8  DEN d   1      -1.096  -0.306   1.488  0.00  0.00    -0.094 A 
ATOM      9  C9  DEN d   1       0.040  -0.311   0.696  0.00  0.00    -0.072 A 
ENDROOT
TORSDOF 0
ENDMDL
