MODEL 1
REMARK minimizedAffinity -0.129739076
REMARK minimizedRMSD -1
REMARK  0 active torsions:
REMARK  status: ('A' for Active; 'I' for Inactive)
ROOT
ATOM      1  C1  DEN d   1      -1.138   0.455   0.103  0.00  0.00     0.130 A 
ATOM      2  C2  DEN d   1       0.282   0.141   0.230  0.00  0.00    -0.031 A 
ATOM      3  C3  DEN d   1       0.472  -1.274  -0.151  0.00  0.00     0.027 A 
ATOM      4  C4  DEN d   1      -1.285  -2.996  -0.925  0.00  0.00     0.027 A 
ATOM      5  C5  DEN d   1      -2.623  -3.198  -1.178  0.00  0.00    -0.003 A 
ATOM      6  C6  DEN d   1      -3.558  -2.214  -0.991  0.00  0.00     0.001 A 
ATOM      7  C7  DEN d   1      -3.160  -0.969  -0.580  0.00  0.00     0.017 A 
ATOM      8  C8  DEN d   1      -1.813  -0.760  -0.316  0.00  0.00    -0.094 A 
ATOM      9  C9  DEN d   1      -0.882  -1.764  -0.524  0.00  0.00    -0.072 A 
ENDROOT
TORSDOF 0
ENDMDL
