MODEL 1
REMARK minimizedAffinity -2.40222478
REMARK minimizedRMSD -1
REMARK  0 active torsions:
REMARK  status: ('A' for Active; 'I' for Inactive)
ROOT
ATOM      1  C1  DEN d   1       0.487   1.575  -1.484  0.00  0.00     0.130 A 
ATOM      2  C2  DEN d   1       0.846   0.838  -2.692  0.00  0.00    -0.031 A 
ATOM      3  C3  DEN d   1       1.578  -0.378  -2.285  0.00  0.00     0.027 A 
ATOM      4  C4  DEN d   1       2.183  -1.190   0.087  0.00  0.00     0.027 A 
ATOM      5  C5  DEN d   1       2.101  -0.893   1.430  0.00  0.00    -0.003 A 
ATOM      6  C6  DEN d   1       1.510   0.254   1.890  0.00  0.00     0.001 A 
ATOM      7  C7  DEN d   1       0.938   1.125   1.002  0.00  0.00     0.017 A 
ATOM      8  C8  DEN d   1       1.023   0.837  -0.354  0.00  0.00    -0.094 A 
ATOM      9  C9  DEN d   1       1.613  -0.334  -0.798  0.00  0.00    -0.072 A 
ENDROOT
TORSDOF 0
ENDMDL
