MODEL 1
REMARK minimizedAffinity -4.16834879
REMARK minimizedRMSD -1
REMARK  0 active torsions:
REMARK  status: ('A' for Active; 'I' for Inactive)
ROOT
ATOM      1  C1  DEN d   1      -2.951  -0.048   0.993  0.00  0.00     0.130 A 
ATOM      2  C2  DEN d   1      -2.966  -0.938  -0.165  0.00  0.00    -0.031 A 
ATOM      3  C3  DEN d   1      -1.567  -1.193  -0.562  0.00  0.00     0.027 A 
ATOM      4  C4  DEN d   1       0.609  -0.305   0.500  0.00  0.00     0.027 A 
ATOM      5  C5  DEN d   1       1.128   0.493   1.496  0.00  0.00    -0.003 A 
ATOM      6  C6  DEN d   1       0.330   1.187   2.365  0.00  0.00     0.001 A 
ATOM      7  C7  DEN d   1      -1.032   1.062   2.284  0.00  0.00     0.017 A 
ATOM      8  C8  DEN d   1      -1.563   0.265   1.278  0.00  0.00    -0.094 A 
ATOM      9  C9  DEN d   1      -0.739  -0.439   0.416  0.00  0.00    -0.072 A 
ENDROOT
TORSDOF 0
ENDMDL
