MODEL 1
REMARK minimizedAffinity -4.98529577
REMARK minimizedRMSD -1
REMARK  0 active torsions:
REMARK  status: ('A' for Active; 'I' for Inactive)
ROOT
ATOM      1  C1  DEN d   1       0.109  -0.139  -0.379  0.00  0.00     0.130 A 
ATOM      2  C2  DEN d   1      -1.144  -0.829  -0.676  0.00  0.00    -0.031 A 
ATOM      3  C3  DEN d   1      -2.022  -0.710   0.505  0.00  0.00     0.027 A 
ATOM      4  C4  DEN d   1      -1.568   0.473   2.752  0.00  0.00     0.027 A 
ATOM      5  C5  DEN d   1      -0.641   1.189   3.476  0.00  0.00    -0.003 A 
ATOM      6  C6  DEN d   1       0.603   1.481   2.983  0.00  0.00     0.001 A 
ATOM      7  C7  DEN d   1       0.938   1.094   1.713  0.00  0.00     0.017 A 
ATOM      8  C8  DEN d   1       0.012   0.365   0.979  0.00  0.00    -0.094 A 
ATOM      9  C9  DEN d   1      -1.246   0.090   1.490  0.00  0.00    -0.072 A 
ENDROOT
TORSDOF 0
ENDMDL
