MODEL 1
REMARK minimizedAffinity -5.34710693
REMARK minimizedRMSD -1
REMARK  0 active torsions:
REMARK  status: ('A' for Active; 'I' for Inactive)
ROOT
ATOM      1  O1  BZF d   1      -0.197   0.626   0.055  0.00  0.00    -0.204 OA
ATOM      2  C2  BZF d   1      -0.952  -0.524  -0.070  0.00  0.00     0.174 A 
ATOM      3  C3  BZF d   1      -0.162  -1.617  -0.067  0.00  0.00    -0.012 A 
ATOM      4  C3A BZF d   1       1.162  -1.124   0.161  0.00  0.00    -0.107 A 
ATOM      5  C4  BZF d   1       2.381  -1.728   0.285  0.00  0.00     0.055 A 
ATOM      6  C5  BZF d   1       3.489  -0.955   0.430  0.00  0.00    -0.016 A 
ATOM      7  C6  BZF d   1       3.416   0.423   0.451  0.00  0.00     0.022 A 
ATOM      8  C7  BZF d   1       2.229   1.067   0.336  0.00  0.00     0.029 A 
ATOM      9  C7A BZF d   1       1.104   0.288   0.223  0.00  0.00     0.058 A 
ENDROOT
TORSDOF 0
ENDMDL
