MODEL 1
REMARK minimizedAffinity -1.24917066
REMARK minimizedRMSD -1
REMARK  0 active torsions:
REMARK  status: ('A' for Active; 'I' for Inactive)
ROOT
ATOM      1  O1  BZF d   1      -0.095  -0.387  -0.737  0.00  0.00    -0.204 OA
ATOM      2  C2  BZF d   1      -0.825   0.103   0.329  0.00  0.00     0.174 A 
ATOM      3  C3  BZF d   1      -0.205  -0.165   1.496  0.00  0.00    -0.012 A 
ATOM      4  C3A BZF d   1       1.032  -0.785   1.132  0.00  0.00    -0.107 A 
ATOM      5  C4  BZF d   1       2.089  -1.265   1.851  0.00  0.00     0.055 A 
ATOM      6  C5  BZF d   1       3.110  -1.877   1.195  0.00  0.00    -0.016 A 
ATOM      7  C6  BZF d   1       3.104  -2.030  -0.176  0.00  0.00     0.022 A 
ATOM      8  C7  BZF d   1       2.080  -1.565  -0.932  0.00  0.00     0.029 A 
ATOM      9  C7A BZF d   1       1.063  -0.917  -0.276  0.00  0.00     0.058 A 
ENDROOT
TORSDOF 0
ENDMDL
