MODEL 1
REMARK minimizedAffinity -3.11529875
REMARK minimizedRMSD -1
REMARK  0 active torsions:
REMARK  status: ('A' for Active; 'I' for Inactive)
ROOT
ATOM      1  O1  BZF d   1      -1.665  -0.229  -1.323  0.00  0.00    -0.204 OA
ATOM      2  C2  BZF d   1      -1.939   1.106  -1.095  0.00  0.00     0.174 A 
ATOM      3  C3  BZF d   1      -1.071   1.626  -0.203  0.00  0.00    -0.012 A 
ATOM      4  C3A BZF d   1      -0.144   0.574   0.078  0.00  0.00    -0.107 A 
ATOM      5  C4  BZF d   1       0.960   0.483   0.878  0.00  0.00     0.055 A 
ATOM      6  C5  BZF d   1       1.602  -0.710   0.985  0.00  0.00    -0.016 A 
ATOM      7  C6  BZF d   1       1.166  -1.832   0.312  0.00  0.00     0.022 A 
ATOM      8  C7  BZF d   1       0.079  -1.790  -0.497  0.00  0.00     0.029 A 
ATOM      9  C7A BZF d   1      -0.552  -0.578  -0.633  0.00  0.00     0.058 A 
ENDROOT
TORSDOF 0
ENDMDL
