MODEL 1
REMARK minimizedAffinity -5.72401667
REMARK minimizedRMSD -1
REMARK  0 active torsions:
REMARK  status: ('A' for Active; 'I' for Inactive)
ROOT
ATOM      1  O1  BZF d   1       0.056   0.694  -0.285  0.00  0.00    -0.204 OA
ATOM      2  C2  BZF d   1      -0.867  -0.325  -0.423  0.00  0.00     0.174 A 
ATOM      3  C3  BZF d   1      -0.268  -1.529  -0.331  0.00  0.00    -0.012 A 
ATOM      4  C3A BZF d   1       1.102  -1.246  -0.031  0.00  0.00    -0.107 A 
ATOM      5  C4  BZF d   1       2.196  -2.032   0.194  0.00  0.00     0.055 A 
ATOM      6  C5  BZF d   1       3.405  -1.442   0.388  0.00  0.00    -0.016 A 
ATOM      7  C6  BZF d   1       3.557  -0.071   0.359  0.00  0.00     0.022 A 
ATOM      8  C7  BZF d   1       2.500   0.750   0.144  0.00  0.00     0.029 A 
ATOM      9  C7A BZF d   1       1.271   0.158  -0.019  0.00  0.00     0.058 A 
ENDROOT
TORSDOF 0
ENDMDL
