MODEL 1
REMARK minimizedAffinity -4.20415831
REMARK minimizedRMSD -1
REMARK  0 active torsions:
REMARK  status: ('A' for Active; 'I' for Inactive)
ROOT
ATOM      1  O1  BZF d   1       0.053  -0.747  -1.403  0.00  0.00    -0.204 OA
ATOM      2  C2  BZF d   1      -0.509   0.511  -1.305  0.00  0.00     0.174 A 
ATOM      3  C3  BZF d   1      -0.071   1.145  -0.198  0.00  0.00    -0.012 A 
ATOM      4  C3A BZF d   1       0.891   0.261   0.386  0.00  0.00    -0.107 A 
ATOM      5  C4  BZF d   1       1.686   0.338   1.494  0.00  0.00     0.055 A 
ATOM      6  C5  BZF d   1       2.461  -0.728   1.826  0.00  0.00    -0.016 A 
ATOM      7  C6  BZF d   1       2.463  -1.886   1.076  0.00  0.00     0.022 A 
ATOM      8  C7  BZF d   1       1.696  -2.007  -0.034  0.00  0.00     0.029 A 
ATOM      9  C7A BZF d   1       0.936  -0.920  -0.391  0.00  0.00     0.058 A 
ENDROOT
TORSDOF 0
ENDMDL
