MODEL 1
REMARK minimizedAffinity -5.43082762
REMARK minimizedRMSD -1
REMARK  0 active torsions:
REMARK  status: ('A' for Active; 'I' for Inactive)
ROOT
ATOM      1  O1  BZF d   1      -0.147   1.333  -0.332  0.00  0.00    -0.204 OA
ATOM      2  C2  BZF d   1      -1.099   0.470  -0.839  0.00  0.00     0.174 A 
ATOM      3  C3  BZF d   1      -0.702  -0.812  -0.706  0.00  0.00    -0.012 A 
ATOM      4  C3A BZF d   1       0.537  -0.751   0.007  0.00  0.00    -0.107 A 
ATOM      5  C4  BZF d   1       1.411  -1.700   0.454  0.00  0.00     0.055 A 
ATOM      6  C5  BZF d   1       2.566  -1.305   1.052  0.00  0.00    -0.016 A 
ATOM      7  C6  BZF d   1       2.880   0.028   1.213  0.00  0.00     0.022 A 
ATOM      8  C7  BZF d   1       2.043   1.006   0.791  0.00  0.00     0.029 A 
ATOM      9  C7A BZF d   1       0.859   0.610   0.216  0.00  0.00     0.058 A 
ENDROOT
TORSDOF 0
ENDMDL
