MODEL 1
REMARK minimizedAffinity 1.24321043
REMARK minimizedRMSD -1
REMARK  0 active torsions:
REMARK  status: ('A' for Active; 'I' for Inactive)
ROOT
ATOM      1  O1  BZF d   1       0.540   1.824   0.012  0.00  0.00    -0.204 OA
ATOM      2  C2  BZF d   1      -0.640   1.115  -0.104  0.00  0.00     0.174 A 
ATOM      3  C3  BZF d   1      -0.393  -0.187  -0.357  0.00  0.00    -0.012 A 
ATOM      4  C3A BZF d   1       1.031  -0.315  -0.311  0.00  0.00    -0.107 A 
ATOM      5  C4  BZF d   1       1.885  -1.370  -0.467  0.00  0.00     0.055 A 
ATOM      6  C5  BZF d   1       3.225  -1.146  -0.435  0.00  0.00    -0.016 A 
ATOM      7  C6  BZF d   1       3.745   0.119  -0.252  0.00  0.00     0.022 A 
ATOM      8  C7  BZF d   1       2.938   1.195  -0.087  0.00  0.00     0.029 A 
ATOM      9  C7A BZF d   1       1.584   0.967  -0.087  0.00  0.00     0.058 A 
ENDROOT
TORSDOF 0
ENDMDL
