MODEL 1
REMARK minimizedAffinity -4.83656406
REMARK minimizedRMSD -1
REMARK  0 active torsions:
REMARK  status: ('A' for Active; 'I' for Inactive)
ROOT
ATOM      1  O1  BZF d   1      -1.058   0.109   0.141  0.00  0.00    -0.204 OA
ATOM      2  C2  BZF d   1      -0.744   1.154   0.988  0.00  0.00     0.174 A 
ATOM      3  C3  BZF d   1       0.520   1.037   1.444  0.00  0.00    -0.012 A 
ATOM      4  C3A BZF d   1       1.058  -0.106   0.772  0.00  0.00    -0.107 A 
ATOM      5  C4  BZF d   1       2.277  -0.721   0.794  0.00  0.00     0.055 A 
ATOM      6  C5  BZF d   1       2.455  -1.860   0.076  0.00  0.00    -0.016 A 
ATOM      7  C6  BZF d   1       1.436  -2.415  -0.671  0.00  0.00     0.022 A 
ATOM      8  C7  BZF d   1       0.211  -1.838  -0.728  0.00  0.00     0.029 A 
ATOM      9  C7A BZF d   1       0.037  -0.669  -0.029  0.00  0.00     0.058 A 
ENDROOT
TORSDOF 0
ENDMDL
