MODEL 1
REMARK minimizedAffinity 1.18033206
REMARK minimizedRMSD -1
REMARK  0 active torsions:
REMARK  status: ('A' for Active; 'I' for Inactive)
ROOT
ATOM      1  C   UNL d   1       1.773   0.770   2.219  0.00  0.00     0.023 A 
ATOM      2  C1  UNL d   1       0.703   1.496   1.696  0.00  0.00     0.003 A 
ATOM      3  C2  UNL d   1       0.271   1.262   0.389  0.00  0.00     0.048 A 
ATOM      4  C3  UNL d   1       0.913   0.300  -0.390  0.00  0.00     0.023 A 
ATOM      5  C4  UNL d   1       1.984  -0.429   0.129  0.00  0.00     0.048 A 
ATOM      6  C5  UNL d   1       2.413  -0.192   1.436  0.00  0.00     0.003 A 
ATOM      7  I   UNL d   1       0.272  -0.049  -2.336  0.00  0.00    -0.146 I 
ENDROOT
TORSDOF 0
ENDMDL
