MODEL 1
REMARK minimizedAffinity -1.69711423
REMARK minimizedRMSD -1
REMARK  0 active torsions:
REMARK  status: ('A' for Active; 'I' for Inactive)
ROOT
ATOM      1  C   UNL d   1      -2.160  -0.798  -0.704  0.00  0.00     0.023 A 
ATOM      2  C1  UNL d   1      -1.053  -1.647  -0.700  0.00  0.00     0.003 A 
ATOM      3  C2  UNL d   1       0.209  -1.149  -0.370  0.00  0.00     0.048 A 
ATOM      4  C3  UNL d   1       0.357   0.199  -0.043  0.00  0.00     0.023 A 
ATOM      5  C4  UNL d   1      -0.748   1.052  -0.044  0.00  0.00     0.048 A 
ATOM      6  C5  UNL d   1      -2.007   0.550  -0.376  0.00  0.00     0.003 A 
ATOM      7  I   UNL d   1       2.235   0.942   0.449  0.00  0.00    -0.146 I 
ENDROOT
TORSDOF 0
ENDMDL
