MODEL 1
REMARK minimizedAffinity 4.02839708
REMARK minimizedRMSD -1
REMARK  0 active torsions:
REMARK  status: ('A' for Active; 'I' for Inactive)
ROOT
ATOM      1  C   UNL d   1      -1.801   0.599   0.835  0.00  0.00     0.023 A 
ATOM      2  C1  UNL d   1      -0.476   0.190   0.686  0.00  0.00     0.003 A 
ATOM      3  C2  UNL d   1       0.221  -0.334   1.776  0.00  0.00     0.048 A 
ATOM      4  C3  UNL d   1      -0.413  -0.447   3.013  0.00  0.00     0.023 A 
ATOM      5  C4  UNL d   1      -1.739  -0.039   3.166  0.00  0.00     0.048 A 
ATOM      6  C5  UNL d   1      -2.432   0.485   2.073  0.00  0.00     0.003 A 
ATOM      7  I   UNL d   1       0.623  -1.226   4.637  0.00  0.00    -0.146 I 
ENDROOT
TORSDOF 0
ENDMDL
