MODEL 1
REMARK minimizedAffinity 1.56797028
REMARK minimizedRMSD -1
REMARK  0 active torsions:
REMARK  status: ('A' for Active; 'I' for Inactive)
ROOT
ATOM      1  C   UNL d   1       2.006   0.615   1.505  0.00  0.00     0.023 A 
ATOM      2  C1  UNL d   1       1.420  -0.623   1.769  0.00  0.00     0.003 A 
ATOM      3  C2  UNL d   1       1.765  -1.329   2.924  0.00  0.00     0.048 A 
ATOM      4  C3  UNL d   1       2.696  -0.790   3.811  0.00  0.00     0.023 A 
ATOM      5  C4  UNL d   1       3.284   0.449   3.551  0.00  0.00     0.048 A 
ATOM      6  C5  UNL d   1       2.937   1.150   2.395  0.00  0.00     0.003 A 
ATOM      7  I   UNL d   1       3.211  -1.838   5.530  0.00  0.00    -0.146 I 
ENDROOT
TORSDOF 0
ENDMDL
