MODEL 1
REMARK minimizedAffinity 6.24869156
REMARK minimizedRMSD -1
REMARK  0 active torsions:
REMARK  status: ('A' for Active; 'I' for Inactive)
ROOT
ATOM      1  C   UNL d   1      -0.582  -3.595  -5.969  0.00  0.00     0.023 A 
ATOM      2  C1  UNL d   1      -1.700  -4.429  -5.987  0.00  0.00     0.003 A 
ATOM      3  C2  UNL d   1      -2.983  -3.879  -5.992  0.00  0.00     0.048 A 
ATOM      4  C3  UNL d   1      -3.141  -2.494  -5.982  0.00  0.00     0.023 A 
ATOM      5  C4  UNL d   1      -2.026  -1.655  -5.965  0.00  0.00     0.048 A 
ATOM      6  C5  UNL d   1      -0.745  -2.210  -5.958  0.00  0.00     0.003 A 
ATOM      7  I   UNL d   1      -5.051  -1.673  -5.991  0.00  0.00    -0.146 I 
ENDROOT
TORSDOF 0
ENDMDL
