MODEL 1
REMARK minimizedAffinity 3.44111705
REMARK minimizedRMSD -1
REMARK  0 active torsions:
REMARK  status: ('A' for Active; 'I' for Inactive)
ROOT
ATOM      1  C   UNL d   1       0.645  -0.748   3.177  0.00  0.00     0.023 A 
ATOM      2  C1  UNL d   1       1.199  -0.661   1.900  0.00  0.00     0.003 A 
ATOM      3  C2  UNL d   1       0.406  -0.271   0.819  0.00  0.00     0.048 A 
ATOM      4  C3  UNL d   1      -0.940   0.030   1.022  0.00  0.00     0.023 A 
ATOM      5  C4  UNL d   1      -1.498  -0.055   2.298  0.00  0.00     0.048 A 
ATOM      6  C5  UNL d   1      -0.702  -0.446   3.376  0.00  0.00     0.003 A 
ATOM      7  I   UNL d   1      -2.122   0.610  -0.586  0.00  0.00    -0.146 I 
ENDROOT
TORSDOF 0
ENDMDL
