MODEL 1
REMARK minimizedAffinity 8.45888901
REMARK minimizedRMSD -1
REMARK  1 active torsions:
REMARK  status: ('A' for Active; 'I' for Inactive)
REMARK    1  A    between atoms: C1_2  and  C2_3 
ROOT
ATOM      1  C2  UNL d   1       5.015   1.755  -1.412  0.00  0.00    -0.076 A 
ATOM      2  C3  UNL d   1       4.061   1.047  -2.164  0.00  0.00     0.004 A 
ATOM      3  C4  UNL d   1       3.146   0.197  -1.545  0.00  0.00    -0.003 A 
ATOM      4  C5  UNL d   1       3.169   0.042  -0.164  0.00  0.00     0.000 A 
ATOM      5  C6  UNL d   1       4.097   0.750   0.600  0.00  0.00     0.000 A 
ATOM      6  C7  UNL d   1       5.016   1.623  -0.007  0.00  0.00    -0.073 A 
ATOM      7  C8  UNL d   1       5.998   2.356   0.865  0.00  0.00     0.078 C 
ENDROOT
BRANCH   1   8
ATOM      8  C1  UNL d   1       6.000   2.641  -2.140  0.00  0.00     0.053 C 
ATOM      9  C   UNL d   1       5.369   3.938  -2.625  0.00  0.00     0.018 C 
ENDBRANCH   1   8
TORSDOF 1
ENDMDL
