MODEL 1
REMARK minimizedAffinity 12.4303989
REMARK minimizedRMSD -1
REMARK  1 active torsions:
REMARK  status: ('A' for Active; 'I' for Inactive)
REMARK    1  A    between atoms: C1_2  and  C2_3 
ROOT
ATOM      1  C2  UNL d   1      -2.973  -3.113  -4.154  0.00  0.00    -0.076 A 
ATOM      2  C3  UNL d   1      -2.312  -4.174  -3.512  0.00  0.00     0.004 A 
ATOM      3  C4  UNL d   1      -1.285  -3.933  -2.601  0.00  0.00    -0.003 A 
ATOM      4  C5  UNL d   1      -0.902  -2.627  -2.317  0.00  0.00     0.000 A 
ATOM      5  C6  UNL d   1      -1.559  -1.561  -2.931  0.00  0.00     0.000 A 
ATOM      6  C7  UNL d   1      -2.608  -1.786  -3.840  0.00  0.00    -0.073 A 
ATOM      7  C8  UNL d   1      -3.278  -0.600  -4.478  0.00  0.00     0.078 C 
ENDROOT
BRANCH   1   8
ATOM      8  C1  UNL d   1      -4.061  -3.436  -5.153  0.00  0.00     0.053 C 
ATOM      9  C   UNL d   1      -5.026  -4.494  -4.642  0.00  0.00     0.018 C 
ENDBRANCH   1   8
TORSDOF 1
ENDMDL
