MODEL 1
REMARK minimizedAffinity 10.5209999
REMARK minimizedRMSD -1
REMARK  1 active torsions:
REMARK  status: ('A' for Active; 'I' for Inactive)
REMARK    1  A    between atoms: C1_2  and  C2_3 
ROOT
ATOM      1  C2  UNL d   1       4.950   1.507  -1.495  0.00  0.00    -0.076 A 
ATOM      2  C3  UNL d   1       3.959   0.787  -2.184  0.00  0.00     0.004 A 
ATOM      3  C4  UNL d   1       2.982   0.070  -1.494  0.00  0.00    -0.003 A 
ATOM      4  C5  UNL d   1       2.980   0.063  -0.104  0.00  0.00     0.000 A 
ATOM      5  C6  UNL d   1       3.945   0.786   0.596  0.00  0.00     0.000 A 
ATOM      6  C7  UNL d   1       4.927   1.527  -0.084  0.00  0.00    -0.073 A 
ATOM      7  C8  UNL d   1       5.948   2.284   0.722  0.00  0.00     0.078 C 
ENDROOT
BRANCH   1   8
ATOM      8  C1  UNL d   1       6.000   2.243  -2.296  0.00  0.00     0.053 C 
ATOM      9  C   UNL d   1       5.571   3.656  -2.659  0.00  0.00     0.018 C 
ENDBRANCH   1   8
TORSDOF 1
ENDMDL
