MODEL 1
REMARK minimizedAffinity 19.3319931
REMARK minimizedRMSD -1
REMARK  1 active torsions:
REMARK  status: ('A' for Active; 'I' for Inactive)
REMARK    1  A    between atoms: C1_2  and  C2_3 
ROOT
ATOM      1  C2  UNL d   1       1.963   2.674   2.209  0.00  0.00    -0.076 A 
ATOM      2  C3  UNL d   1       1.334   3.421   1.198  0.00  0.00     0.004 A 
ATOM      3  C4  UNL d   1       0.125   4.073   1.434  0.00  0.00    -0.003 A 
ATOM      4  C5  UNL d   1      -0.475   3.988   2.686  0.00  0.00     0.000 A 
ATOM      5  C6  UNL d   1       0.143   3.266   3.706  0.00  0.00     0.000 A 
ATOM      6  C7  UNL d   1       1.371   2.617   3.489  0.00  0.00    -0.073 A 
ATOM      7  C8  UNL d   1       1.990   1.847   4.623  0.00  0.00     0.078 C 
ENDROOT
BRANCH   1   8
ATOM      8  C1  UNL d   1       3.259   1.966   1.887  0.00  0.00     0.053 C 
ATOM      9  C   UNL d   1       3.112   0.971   0.746  0.00  0.00     0.018 C 
ENDBRANCH   1   8
TORSDOF 1
ENDMDL
