MODEL 1
REMARK minimizedAffinity 6.35737371
REMARK minimizedRMSD -1
REMARK  1 active torsions:
REMARK  status: ('A' for Active; 'I' for Inactive)
REMARK    1  A    between atoms: C1_2  and  C2_3 
ROOT
ATOM      1  C2  UNL d   1       4.379   1.235  -0.124  0.00  0.00    -0.076 A 
ATOM      2  C3  UNL d   1       3.838   1.180   1.172  0.00  0.00     0.004 A 
ATOM      3  C4  UNL d   1       2.611   0.563   1.412  0.00  0.00    -0.003 A 
ATOM      4  C5  UNL d   1       1.906  -0.010   0.359  0.00  0.00     0.000 A 
ATOM      5  C6  UNL d   1       2.437   0.021  -0.931  0.00  0.00     0.000 A 
ATOM      6  C7  UNL d   1       3.680   0.624  -1.186  0.00  0.00    -0.073 A 
ATOM      7  C8  UNL d   1       4.202   0.633  -2.597  0.00  0.00     0.078 C 
ENDROOT
BRANCH   1   8
ATOM      8  C1  UNL d   1       5.701   1.941  -0.327  0.00  0.00     0.053 C 
ATOM      9  C   UNL d   1       5.998   2.211  -1.794  0.00  0.00     0.018 C 
ENDBRANCH   1   8
TORSDOF 1
ENDMDL
