MODEL 1
REMARK minimizedAffinity 14.0838146
REMARK minimizedRMSD -1
REMARK  1 active torsions:
REMARK  status: ('A' for Active; 'I' for Inactive)
REMARK    1  A    between atoms: C1_2  and  C2_3 
ROOT
ATOM      1  C2  UNL d   1       4.926   1.862  -0.928  0.00  0.00    -0.076 A 
ATOM      2  C3  UNL d   1       4.031   1.204  -1.790  0.00  0.00     0.004 A 
ATOM      3  C4  UNL d   1       3.044   0.357  -1.289  0.00  0.00    -0.003 A 
ATOM      4  C5  UNL d   1       2.936   0.155   0.083  0.00  0.00     0.000 A 
ATOM      5  C6  UNL d   1       3.804   0.813   0.953  0.00  0.00     0.000 A 
ATOM      6  C7  UNL d   1       4.794   1.683   0.466  0.00  0.00    -0.073 A 
ATOM      7  C8  UNL d   1       5.707   2.361   1.449  0.00  0.00     0.078 C 
ENDROOT
BRANCH   1   8
ATOM      8  C1  UNL d   1       5.993   2.747  -1.531  0.00  0.00     0.053 C 
ATOM      9  C   UNL d   1       5.973   2.732  -3.052  0.00  0.00     0.018 C 
ENDBRANCH   1   8
TORSDOF 1
ENDMDL
