MODEL 1
REMARK minimizedAffinity 12.1769676
REMARK minimizedRMSD -1
REMARK  1 active torsions:
REMARK  status: ('A' for Active; 'I' for Inactive)
REMARK    1  A    between atoms: C1_2  and  C2_3 
ROOT
ATOM      1  C2  UNL d   1       3.586  -1.867   3.288  0.00  0.00    -0.076 A 
ATOM      2  C3  UNL d   1       4.818  -1.906   2.612  0.00  0.00     0.004 A 
ATOM      3  C4  UNL d   1       6.000  -2.197   3.290  0.00  0.00    -0.003 A 
ATOM      4  C5  UNL d   1       5.969  -2.456   4.656  0.00  0.00     0.000 A 
ATOM      5  C6  UNL d   1       4.754  -2.439   5.340  0.00  0.00     0.000 A 
ATOM      6  C7  UNL d   1       3.551  -2.163   4.668  0.00  0.00    -0.073 A 
ATOM      7  C8  UNL d   1       2.270  -2.152   5.456  0.00  0.00     0.078 C 
ENDROOT
BRANCH   1   8
ATOM      8  C1  UNL d   1       2.340  -1.518   2.505  0.00  0.00     0.053 C 
ATOM      9  C   UNL d   1       2.206  -0.023   2.260  0.00  0.00     0.018 C 
ENDBRANCH   1   8
TORSDOF 1
ENDMDL
