MODEL 1
REMARK minimizedAffinity 6.22818613
REMARK minimizedRMSD -1
REMARK  1 active torsions:
REMARK  status: ('A' for Active; 'I' for Inactive)
REMARK    1  A    between atoms: C1_2  and  C2_3 
ROOT
ATOM      1  C2  UNL d   1       0.713  -0.911   0.918  0.00  0.00    -0.076 A 
ATOM      2  C3  UNL d   1      -0.367  -0.097   1.301  0.00  0.00     0.004 A 
ATOM      3  C4  UNL d   1      -1.457   0.095   0.454  0.00  0.00    -0.003 A 
ATOM      4  C5  UNL d   1      -1.485  -0.525  -0.790  0.00  0.00     0.000 A 
ATOM      5  C6  UNL d   1      -0.431  -1.350  -1.180  0.00  0.00     0.000 A 
ATOM      6  C7  UNL d   1       0.668  -1.567  -0.331  0.00  0.00    -0.073 A 
ATOM      7  C8  UNL d   1       1.781  -2.462  -0.805  0.00  0.00     0.078 C 
ENDROOT
BRANCH   1   8
ATOM      8  C1  UNL d   1       1.881  -1.060   1.867  0.00  0.00     0.053 C 
ATOM      9  C   UNL d   1       1.533  -1.890   3.093  0.00  0.00     0.018 C 
ENDBRANCH   1   8
TORSDOF 1
ENDMDL
