MODEL 1
REMARK minimizedAffinity 6.10207605
REMARK minimizedRMSD -1
REMARK  1 active torsions:
REMARK  status: ('A' for Active; 'I' for Inactive)
REMARK    1  A    between atoms: C1_2  and  C2_3 
ROOT
ATOM      1  C2  UNL d   1       4.732   5.890  -2.039  0.00  0.00    -0.076 A 
ATOM      2  C3  UNL d   1       5.955   5.999  -2.723  0.00  0.00     0.004 A 
ATOM      3  C4  UNL d   1       6.000   6.000  -4.116  0.00  0.00    -0.003 A 
ATOM      4  C5  UNL d   1       4.822   5.893  -4.848  0.00  0.00     0.000 A 
ATOM      5  C6  UNL d   1       3.598   5.802  -4.185  0.00  0.00     0.000 A 
ATOM      6  C7  UNL d   1       3.534   5.816  -2.781  0.00  0.00    -0.073 A 
ATOM      7  C8  UNL d   1       2.188   5.710  -2.119  0.00  0.00     0.078 C 
ENDROOT
BRANCH   1   8
ATOM      8  C1  UNL d   1       4.748   5.867  -0.527  0.00  0.00     0.053 C 
ATOM      9  C   UNL d   1       3.935   4.717   0.047  0.00  0.00     0.018 C 
ENDBRANCH   1   8
TORSDOF 1
ENDMDL
