MODEL 1
REMARK minimizedAffinity 4.57535362
REMARK minimizedRMSD -1
REMARK  1 active torsions:
REMARK  status: ('A' for Active; 'I' for Inactive)
REMARK    1  A    between atoms: C1_2  and  C2_3 
ROOT
ATOM      1  C2  UNL d   1       2.779  -3.545  -1.288  0.00  0.00    -0.076 A 
ATOM      2  C3  UNL d   1       2.616  -4.731  -0.550  0.00  0.00     0.004 A 
ATOM      3  C4  UNL d   1       3.091  -5.948  -1.034  0.00  0.00    -0.003 A 
ATOM      4  C5  UNL d   1       3.738  -6.000  -2.264  0.00  0.00     0.000 A 
ATOM      5  C6  UNL d   1       3.924  -4.831  -3.001  0.00  0.00     0.000 A 
ATOM      6  C7  UNL d   1       3.465  -3.593  -2.520  0.00  0.00    -0.073 A 
ATOM      7  C8  UNL d   1       3.688  -2.365  -3.359  0.00  0.00     0.078 C 
ENDROOT
BRANCH   1   8
ATOM      8  C1  UNL d   1       2.218  -2.259  -0.725  0.00  0.00     0.053 C 
ATOM      9  C   UNL d   1       0.699  -2.268  -0.652  0.00  0.00     0.018 C 
ENDBRANCH   1   8
TORSDOF 1
ENDMDL
