MODEL 1
REMARK minimizedAffinity 17.2463074
REMARK minimizedRMSD -1
REMARK  1 active torsions:
REMARK  status: ('A' for Active; 'I' for Inactive)
REMARK    1  A    between atoms: C1_2  and  C2_3 
ROOT
ATOM      1  C2  UNL d   1       3.519  -1.726   2.721  0.00  0.00    -0.076 A 
ATOM      2  C3  UNL d   1       3.444  -0.638   1.834  0.00  0.00     0.004 A 
ATOM      3  C4  UNL d   1       2.362   0.241   1.866  0.00  0.00    -0.003 A 
ATOM      4  C5  UNL d   1       1.338   0.046   2.787  0.00  0.00     0.000 A 
ATOM      5  C6  UNL d   1       1.405  -1.017   3.686  0.00  0.00     0.000 A 
ATOM      6  C7  UNL d   1       2.497  -1.903   3.678  0.00  0.00    -0.073 A 
ATOM      7  C8  UNL d   1       2.514  -3.037   4.666  0.00  0.00     0.078 C 
ENDROOT
BRANCH   1   8
ATOM      8  C1  UNL d   1       4.702  -2.661   2.621  0.00  0.00     0.053 C 
ATOM      9  C   UNL d   1       6.000  -1.929   2.315  0.00  0.00     0.018 C 
ENDBRANCH   1   8
TORSDOF 1
ENDMDL
