MODEL 1
REMARK minimizedAffinity 15.5739098
REMARK minimizedRMSD -1
REMARK  1 active torsions:
REMARK  status: ('A' for Active; 'I' for Inactive)
REMARK    1  A    between atoms: C1_2  and  C2_3 
ROOT
ATOM      1  C2  UNL d   1       1.315   1.476   1.640  0.00  0.00    -0.076 A 
ATOM      2  C3  UNL d   1       0.021   2.007   1.495  0.00  0.00     0.004 A 
ATOM      3  C4  UNL d   1      -1.097   1.175   1.468  0.00  0.00    -0.003 A 
ATOM      4  C5  UNL d   1      -0.940  -0.201   1.587  0.00  0.00     0.000 A 
ATOM      5  C6  UNL d   1       0.334  -0.744   1.749  0.00  0.00     0.000 A 
ATOM      6  C7  UNL d   1       1.471   0.082   1.795  0.00  0.00    -0.073 A 
ATOM      7  C8  UNL d   1       2.821  -0.558   1.965  0.00  0.00     0.078 C 
ENDROOT
BRANCH   1   8
ATOM      8  C1  UNL d   1       2.492   2.425   1.635  0.00  0.00     0.053 C 
ATOM      9  C   UNL d   1       2.617   3.191   0.327  0.00  0.00     0.018 C 
ENDBRANCH   1   8
TORSDOF 1
ENDMDL
