MODEL 1
REMARK minimizedAffinity 12.0819941
REMARK minimizedRMSD -1
REMARK  1 active torsions:
REMARK  status: ('A' for Active; 'I' for Inactive)
REMARK    1  A    between atoms: C1_2  and  C2_3 
ROOT
ATOM      1  C2  UNL d   1       2.710   1.149   2.425  0.00  0.00    -0.076 A 
ATOM      2  C3  UNL d   1       2.572  -0.208   2.083  0.00  0.00     0.004 A 
ATOM      3  C4  UNL d   1       2.083  -1.134   3.003  0.00  0.00    -0.003 A 
ATOM      4  C5  UNL d   1       1.723  -0.718   4.280  0.00  0.00     0.000 A 
ATOM      5  C6  UNL d   1       1.837   0.627   4.631  0.00  0.00     0.000 A 
ATOM      6  C7  UNL d   1       2.313   1.576   3.710  0.00  0.00    -0.073 A 
ATOM      7  C8  UNL d   1       2.420   3.012   4.144  0.00  0.00     0.078 C 
ENDROOT
BRANCH   1   8
ATOM      8  C1  UNL d   1       3.272   2.102   1.395  0.00  0.00     0.053 C 
ATOM      9  C   UNL d   1       3.854   1.381   0.189  0.00  0.00     0.018 C 
ENDBRANCH   1   8
TORSDOF 1
ENDMDL
