MODEL 1
REMARK minimizedAffinity 8.42992592
REMARK minimizedRMSD -1
REMARK  0 active torsions:
REMARK  status: ('A' for Active; 'I' for Inactive)
ROOT
ATOM      1  C   UNL d   1      -1.878  -1.880  -2.539  0.00  0.00     0.020 A 
ATOM      2  C1  UNL d   1      -3.057  -2.081  -1.822  0.00  0.00     0.020 A 
ATOM      3  C2  UNL d   1      -3.619  -3.358  -1.747  0.00  0.00     0.034 A 
ATOM      4  C3  UNL d   1      -3.002  -4.437  -2.390  0.00  0.00     0.017 A 
ATOM      5  C4  UNL d   1      -1.819  -4.234  -3.109  0.00  0.00     0.017 A 
ATOM      6  C5  UNL d   1      -1.260  -2.954  -3.181  0.00  0.00     0.034 A 
ATOM      7 Cl   UNL d   1      -1.000  -5.517  -3.929  0.00  0.00    -0.070 Cl
ATOM      8 Cl1  UNL d   1      -3.752  -5.988  -2.255  0.00  0.00    -0.070 Cl
ENDROOT
TORSDOF 0
ENDMDL
