MODEL 1
REMARK minimizedAffinity 8.00970745
REMARK minimizedRMSD -1
REMARK  0 active torsions:
REMARK  status: ('A' for Active; 'I' for Inactive)
ROOT
ATOM      1  C   UNL d   1       4.801  -0.750   1.912  0.00  0.00     0.020 A 
ATOM      2  C1  UNL d   1       5.999  -0.252   1.403  0.00  0.00     0.020 A 
ATOM      3  C2  UNL d   1       6.000   0.915   0.635  0.00  0.00     0.034 A 
ATOM      4  C3  UNL d   1       4.800   1.587   0.374  0.00  0.00     0.017 A 
ATOM      5  C4  UNL d   1       3.598   1.086   0.886  0.00  0.00     0.017 A 
ATOM      6  C5  UNL d   1       3.603  -0.082   1.655  0.00  0.00     0.034 A 
ATOM      7 Cl   UNL d   1       2.078   1.860   0.607  0.00  0.00    -0.070 Cl
ATOM      8 Cl1  UNL d   1       4.876   3.024  -0.582  0.00  0.00    -0.070 Cl
ENDROOT
TORSDOF 0
ENDMDL
