MODEL 1
REMARK minimizedAffinity 10.9233046
REMARK minimizedRMSD -1
REMARK  0 active torsions:
REMARK  status: ('A' for Active; 'I' for Inactive)
ROOT
ATOM      1  C   UNL d   1       4.170   1.414   0.268  0.00  0.00     0.020 A 
ATOM      2  C1  UNL d   1       3.827   0.254   0.962  0.00  0.00     0.020 A 
ATOM      3  C2  UNL d   1       2.593   0.167   1.609  0.00  0.00     0.034 A 
ATOM      4  C3  UNL d   1       1.697   1.241   1.564  0.00  0.00     0.017 A 
ATOM      5  C4  UNL d   1       2.042   2.405   0.867  0.00  0.00     0.017 A 
ATOM      6  C5  UNL d   1       3.279   2.487   0.221  0.00  0.00     0.034 A 
ATOM      7 Cl   UNL d   1       0.989   3.771   0.767  0.00  0.00    -0.070 Cl
ATOM      8 Cl1  UNL d   1       0.188   1.064   2.387  0.00  0.00    -0.070 Cl
ENDROOT
TORSDOF 0
ENDMDL
