MODEL 1
REMARK minimizedAffinity 12.0966969
REMARK minimizedRMSD -1
REMARK  0 active torsions:
REMARK  status: ('A' for Active; 'I' for Inactive)
ROOT
ATOM      1  C   UNL d   1       3.297   0.383   1.298  0.00  0.00     0.020 A 
ATOM      2  C1  UNL d   1       3.082   1.709   0.925  0.00  0.00     0.020 A 
ATOM      3  C2  UNL d   1       1.854   2.319   1.189  0.00  0.00     0.034 A 
ATOM      4  C3  UNL d   1       0.836   1.603   1.829  0.00  0.00     0.017 A 
ATOM      5  C4  UNL d   1       1.053   0.272   2.203  0.00  0.00     0.017 A 
ATOM      6  C5  UNL d   1       2.284  -0.334   1.936  0.00  0.00     0.034 A 
ATOM      7 Cl   UNL d   1      -0.156  -0.676   2.996  0.00  0.00    -0.070 Cl
ATOM      8 Cl1  UNL d   1      -0.657   2.420   2.124  0.00  0.00    -0.070 Cl
ENDROOT
TORSDOF 0
ENDMDL
