MODEL 1
REMARK minimizedAffinity 6.04055834
REMARK minimizedRMSD -1
REMARK  0 active torsions:
REMARK  status: ('A' for Active; 'I' for Inactive)
ROOT
ATOM      1  C   UNL d   1       3.959  -0.095   1.084  0.00  0.00     0.020 A 
ATOM      2  C1  UNL d   1       2.575  -0.251   1.157  0.00  0.00     0.020 A 
ATOM      3  C2  UNL d   1       1.753   0.868   1.305  0.00  0.00     0.034 A 
ATOM      4  C3  UNL d   1       2.314   2.149   1.380  0.00  0.00     0.017 A 
ATOM      5  C4  UNL d   1       3.703   2.304   1.306  0.00  0.00     0.017 A 
ATOM      6  C5  UNL d   1       4.521   1.180   1.158  0.00  0.00     0.034 A 
ATOM      7 Cl   UNL d   1       4.469   3.851   1.392  0.00  0.00    -0.070 Cl
ATOM      8 Cl1  UNL d   1       1.238   3.488   1.562  0.00  0.00    -0.070 Cl
ENDROOT
TORSDOF 0
ENDMDL
