MODEL 1
REMARK minimizedAffinity -2.0523653
REMARK minimizedRMSD -1
REMARK  0 active torsions:
REMARK  status: ('A' for Active; 'I' for Inactive)
ROOT
ATOM      1  C   UNL d   1       5.054  -0.439   1.636  0.00  0.00     0.020 A 
ATOM      2  C1  UNL d   1       6.000   0.550   1.903  0.00  0.00     0.020 A 
ATOM      3  C2  UNL d   1       5.690   1.893   1.674  0.00  0.00     0.034 A 
ATOM      4  C3  UNL d   1       4.432   2.250   1.177  0.00  0.00     0.017 A 
ATOM      5  C4  UNL d   1       3.483   1.257   0.909  0.00  0.00     0.017 A 
ATOM      6  C5  UNL d   1       3.798  -0.086   1.140  0.00  0.00     0.034 A 
ATOM      7 Cl   UNL d   1       1.909   1.620   0.294  0.00  0.00    -0.070 Cl
ATOM      8 Cl1  UNL d   1       4.117   3.929   0.918  0.00  0.00    -0.070 Cl
ENDROOT
TORSDOF 0
ENDMDL
