MODEL 1
REMARK minimizedAffinity 3.93333268
REMARK minimizedRMSD -1
REMARK  0 active torsions:
REMARK  status: ('A' for Active; 'I' for Inactive)
ROOT
ATOM      1  C   UNL d   1       2.032   1.769   0.552  0.00  0.00     0.020 A 
ATOM      2  C1  UNL d   1       1.850   0.641   1.351  0.00  0.00     0.020 A 
ATOM      3  C2  UNL d   1       2.958  -0.039   1.862  0.00  0.00     0.034 A 
ATOM      4  C3  UNL d   1       4.252   0.410   1.575  0.00  0.00     0.017 A 
ATOM      5  C4  UNL d   1       4.434   1.542   0.773  0.00  0.00     0.017 A 
ATOM      6  C5  UNL d   1       3.321   2.219   0.264  0.00  0.00     0.034 A 
ATOM      7 Cl   UNL d   1       6.000   2.156   0.376  0.00  0.00    -0.070 Cl
ATOM      8 Cl1  UNL d   1       5.576  -0.479   2.241  0.00  0.00    -0.070 Cl
ENDROOT
TORSDOF 0
ENDMDL
