MODEL 1
REMARK minimizedAffinity -2.06824589
REMARK minimizedRMSD -1
REMARK  0 active torsions:
REMARK  status: ('A' for Active; 'I' for Inactive)
ROOT
ATOM      1  C   UNL d   1      -4.889   1.587   5.728  0.00  0.00     0.020 A 
ATOM      2  C1  UNL d   1      -4.893   1.122   4.413  0.00  0.00     0.020 A 
ATOM      3  C2  UNL d   1      -5.239   1.982   3.369  0.00  0.00     0.034 A 
ATOM      4  C3  UNL d   1      -5.583   3.312   3.638  0.00  0.00     0.017 A 
ATOM      5  C4  UNL d   1      -5.579   3.778   4.957  0.00  0.00     0.017 A 
ATOM      6  C5  UNL d   1      -5.231   2.913   5.999  0.00  0.00     0.034 A 
ATOM      7 Cl   UNL d   1      -5.991   5.406   5.367  0.00  0.00    -0.070 Cl
ATOM      8 Cl1  UNL d   1      -6.000   4.320   2.298  0.00  0.00    -0.070 Cl
ENDROOT
TORSDOF 0
ENDMDL
