MODEL 1
REMARK minimizedAffinity 8.63610172
REMARK minimizedRMSD -1
REMARK  0 active torsions:
REMARK  status: ('A' for Active; 'I' for Inactive)
ROOT
ATOM      1  C   UNL d   1      -5.350   0.831   5.963  0.00  0.00     0.020 A 
ATOM      2  C1  UNL d   1      -4.771   1.390   4.824  0.00  0.00     0.020 A 
ATOM      3  C2  UNL d   1      -4.563   0.603   3.689  0.00  0.00     0.034 A 
ATOM      4  C3  UNL d   1      -4.935  -0.746   3.690  0.00  0.00     0.017 A 
ATOM      5  C4  UNL d   1      -5.515  -1.306   4.834  0.00  0.00     0.017 A 
ATOM      6  C5  UNL d   1      -5.721  -0.514   5.968  0.00  0.00     0.034 A 
ATOM      7 Cl   UNL d   1      -6.000  -2.964   4.911  0.00  0.00    -0.070 Cl
ATOM      8 Cl1  UNL d   1      -4.649  -1.659   2.251  0.00  0.00    -0.070 Cl
ENDROOT
TORSDOF 0
ENDMDL
