MODEL 1
REMARK minimizedAffinity 11.5874271
REMARK minimizedRMSD -1
REMARK  0 active torsions:
REMARK  status: ('A' for Active; 'I' for Inactive)
ROOT
ATOM      1  C   UNL d   1      -2.790  -2.941  -2.307  0.00  0.00     0.020 A 
ATOM      2  C1  UNL d   1      -1.805  -3.572  -3.066  0.00  0.00     0.020 A 
ATOM      3  C2  UNL d   1      -0.524  -3.749  -2.541  0.00  0.00     0.034 A 
ATOM      4  C3  UNL d   1      -0.223  -3.294  -1.251  0.00  0.00     0.017 A 
ATOM      5  C4  UNL d   1      -1.212  -2.661  -0.490  0.00  0.00     0.017 A 
ATOM      6  C5  UNL d   1      -2.493  -2.487  -1.021  0.00  0.00     0.034 A 
ATOM      7 Cl   UNL d   1      -0.916  -2.073   1.108  0.00  0.00    -0.070 Cl
ATOM      8 Cl1  UNL d   1       1.382  -3.546  -0.665  0.00  0.00    -0.070 Cl
ENDROOT
TORSDOF 0
ENDMDL
