MODEL 1
REMARK minimizedAffinity 14.5845242
REMARK minimizedRMSD -1
REMARK  0 active torsions:
REMARK  status: ('A' for Active; 'I' for Inactive)
ROOT
ATOM      1  C   UNL d   1       1.354   0.738   1.783  0.00  0.00     0.020 A 
ATOM      2  C1  UNL d   1       1.915  -0.060   0.787  0.00  0.00     0.020 A 
ATOM      3  C2  UNL d   1       2.962   0.432   0.005  0.00  0.00     0.034 A 
ATOM      4  C3  UNL d   1       3.451   1.726   0.217  0.00  0.00     0.017 A 
ATOM      5  C4  UNL d   1       2.888   2.526   1.218  0.00  0.00     0.017 A 
ATOM      6  C5  UNL d   1       1.840   2.029   1.998  0.00  0.00     0.034 A 
ATOM      7 Cl   UNL d   1       3.438   4.133   1.539  0.00  0.00    -0.070 Cl
ATOM      8 Cl1  UNL d   1       4.748   2.269  -0.787  0.00  0.00    -0.070 Cl
ENDROOT
TORSDOF 0
ENDMDL
