MODEL 1
REMARK minimizedAffinity 10.765976
REMARK minimizedRMSD -1
REMARK  0 active torsions:
REMARK  status: ('A' for Active; 'I' for Inactive)
ROOT
ATOM      1  C   UNL d   1      -1.645  -2.734   0.505  0.00  0.00     0.020 A 
ATOM      2  C1  UNL d   1      -0.339  -3.148   0.249  0.00  0.00     0.020 A 
ATOM      3  C2  UNL d   1      -0.005  -3.673  -1.001  0.00  0.00     0.034 A 
ATOM      4  C3  UNL d   1      -0.979  -3.785  -2.000  0.00  0.00     0.017 A 
ATOM      5  C4  UNL d   1      -2.290  -3.370  -1.742  0.00  0.00     0.017 A 
ATOM      6  C5  UNL d   1      -2.619  -2.845  -0.489  0.00  0.00     0.034 A 
ATOM      7 Cl   UNL d   1      -3.546  -3.477  -2.925  0.00  0.00    -0.070 Cl
ATOM      8 Cl1  UNL d   1      -0.496  -4.443  -3.523  0.00  0.00    -0.070 Cl
ENDROOT
TORSDOF 0
ENDMDL
