MODEL 1
REMARK minimizedAffinity 14.8270063
REMARK minimizedRMSD -1
REMARK  0 active torsions:
REMARK  status: ('A' for Active; 'I' for Inactive)
ROOT
ATOM      1  C   UNL d   1      -1.727  -2.247  -4.732  0.00  0.00     0.020 A 
ATOM      2  C1  UNL d   1      -1.059  -2.302  -5.955  0.00  0.00     0.020 A 
ATOM      3  C2  UNL d   1       0.289  -2.664  -5.999  0.00  0.00     0.034 A 
ATOM      4  C3  UNL d   1       0.974  -2.971  -4.818  0.00  0.00     0.017 A 
ATOM      5  C4  UNL d   1       0.303  -2.915  -3.591  0.00  0.00     0.017 A 
ATOM      6  C5  UNL d   1      -1.047  -2.553  -3.553  0.00  0.00     0.034 A 
ATOM      7 Cl   UNL d   1       1.081  -3.280  -2.091  0.00  0.00    -0.070 Cl
ATOM      8 Cl1  UNL d   1       2.640  -3.410  -4.946  0.00  0.00    -0.070 Cl
ENDROOT
TORSDOF 0
ENDMDL
