MODEL 1
REMARK minimizedAffinity 15.4095936
REMARK minimizedRMSD -1
REMARK  0 active torsions:
REMARK  status: ('A' for Active; 'I' for Inactive)
ROOT
ATOM      1  C   UNL d   1       1.419  -0.121   4.858  0.00  0.00     0.020 A 
ATOM      2  C1  UNL d   1       0.393   0.804   5.053  0.00  0.00     0.020 A 
ATOM      3  C2  UNL d   1       0.132   1.772   4.080  0.00  0.00     0.034 A 
ATOM      4  C3  UNL d   1       0.897   1.818   2.909  0.00  0.00     0.017 A 
ATOM      5  C4  UNL d   1       1.926   0.889   2.715  0.00  0.00     0.017 A 
ATOM      6  C5  UNL d   1       2.183  -0.078   3.691  0.00  0.00     0.034 A 
ATOM      7 Cl   UNL d   1       2.913   0.883   1.296  0.00  0.00    -0.070 Cl
ATOM      8 Cl1  UNL d   1       0.518   3.041   1.750  0.00  0.00    -0.070 Cl
ENDROOT
TORSDOF 0
ENDMDL
