MODEL 1
REMARK minimizedAffinity 4.23701763
REMARK minimizedRMSD -1
REMARK  0 active torsions:
REMARK  status: ('A' for Active; 'I' for Inactive)
ROOT
ATOM      1  C   UNL d   1       3.809   3.845  -5.999  0.00  0.00     0.020 A 
ATOM      2  C1  UNL d   1       3.970   4.583  -4.827  0.00  0.00     0.020 A 
ATOM      3  C2  UNL d   1       4.388   3.949  -3.655  0.00  0.00     0.034 A 
ATOM      4  C3  UNL d   1       4.647   2.574  -3.652  0.00  0.00     0.017 A 
ATOM      5  C4  UNL d   1       4.486   1.834  -4.829  0.00  0.00     0.017 A 
ATOM      6  C5  UNL d   1       4.066   2.473  -6.000  0.00  0.00     0.034 A 
ATOM      7 Cl   UNL d   1       4.786   0.133  -4.904  0.00  0.00    -0.070 Cl
ATOM      8 Cl1  UNL d   1       5.162   1.856  -2.167  0.00  0.00    -0.070 Cl
ENDROOT
TORSDOF 0
ENDMDL
