MODEL 1
REMARK minimizedAffinity 7.75368166
REMARK minimizedRMSD -1
REMARK  0 active torsions:
REMARK  status: ('A' for Active; 'I' for Inactive)
ROOT
ATOM      1  C   UNL d   1       1.445   1.137   1.480  0.00  0.00     0.020 A 
ATOM      2  C1  UNL d   1       1.770   0.345   2.581  0.00  0.00     0.020 A 
ATOM      3  C2  UNL d   1       3.053  -0.194   2.699  0.00  0.00     0.034 A 
ATOM      4  C3  UNL d   1       4.016   0.059   1.714  0.00  0.00     0.017 A 
ATOM      5  C4  UNL d   1       3.688   0.854   0.610  0.00  0.00     0.017 A 
ATOM      6  C5  UNL d   1       2.402   1.391   0.497  0.00  0.00     0.034 A 
ATOM      7 Cl   UNL d   1       4.822   1.210  -0.645  0.00  0.00    -0.070 Cl
ATOM      8 Cl1  UNL d   1       5.582  -0.639   1.925  0.00  0.00    -0.070 Cl
ENDROOT
TORSDOF 0
ENDMDL
