MODEL 1
REMARK minimizedAffinity 12.2848883
REMARK minimizedRMSD -1
REMARK  0 active torsions:
REMARK  status: ('A' for Active; 'I' for Inactive)
ROOT
ATOM      1  C   UNL d   1      -3.236  -2.999  -2.467  0.00  0.00     0.020 A 
ATOM      2  C1  UNL d   1      -1.921  -2.798  -2.885  0.00  0.00     0.020 A 
ATOM      3  C2  UNL d   1      -0.906  -2.630  -1.940  0.00  0.00     0.034 A 
ATOM      4  C3  UNL d   1      -1.205  -2.665  -0.573  0.00  0.00     0.017 A 
ATOM      5  C4  UNL d   1      -2.525  -2.868  -0.155  0.00  0.00     0.017 A 
ATOM      6  C5  UNL d   1      -3.537  -3.034  -1.105  0.00  0.00     0.034 A 
ATOM      7 Cl   UNL d   1      -2.971  -2.922   1.514  0.00  0.00    -0.070 Cl
ATOM      8 Cl1  UNL d   1       0.100  -2.451   0.540  0.00  0.00    -0.070 Cl
ENDROOT
TORSDOF 0
ENDMDL
