MODEL 1
REMARK minimizedAffinity 8.11007214
REMARK minimizedRMSD -1
REMARK  0 active torsions:
REMARK  status: ('A' for Active; 'I' for Inactive)
ROOT
ATOM      1  C   UNL d   1      -1.287  -3.825  -2.903  0.00  0.00     0.020 A 
ATOM      2  C1  UNL d   1      -2.612  -3.404  -2.810  0.00  0.00     0.020 A 
ATOM      3  C2  UNL d   1      -3.123  -2.971  -1.584  0.00  0.00     0.034 A 
ATOM      4  C3  UNL d   1      -2.308  -2.959  -0.447  0.00  0.00     0.017 A 
ATOM      5  C4  UNL d   1      -0.977  -3.382  -0.541  0.00  0.00     0.017 A 
ATOM      6  C5  UNL d   1      -0.471  -3.814  -1.771  0.00  0.00     0.034 A 
ATOM      7 Cl   UNL d   1       0.090  -3.396   0.818  0.00  0.00    -0.070 Cl
ATOM      8 Cl1  UNL d   1      -3.005  -2.411   1.036  0.00  0.00    -0.070 Cl
ENDROOT
TORSDOF 0
ENDMDL
