MODEL 1
REMARK minimizedAffinity -2.33047891
REMARK minimizedRMSD -1
REMARK  0 active torsions:
REMARK  status: ('A' for Active; 'I' for Inactive)
ROOT
ATOM      1  C   UNL d   1      -1.541  -0.156   2.430  0.00  0.00     0.172 C 
ATOM      2  N   UNL d   1      -0.736  -0.334   1.245  0.00  0.00    -0.070 N 
ATOM      3  C1  UNL d   1      -1.174  -0.200  -0.046  0.00  0.00    -0.004 A 
ATOM      4  C2  UNL d   1      -0.107  -0.449  -0.882  0.00  0.00    -0.047 A 
ATOM      5  C3  UNL d   1       1.011  -0.743  -0.065  0.00  0.00    -0.047 A 
ATOM      6  C4  UNL d   1       0.594  -0.665   1.247  0.00  0.00    -0.004 A 
ENDROOT
TORSDOF 0
ENDMDL
