MODEL 1
REMARK minimizedAffinity -2.49347043
REMARK minimizedRMSD -1
REMARK  0 active torsions:
REMARK  status: ('A' for Active; 'I' for Inactive)
ROOT
ATOM      1  C   UNL d   1       0.255   0.057  -1.648  0.00  0.00     0.172 C 
ATOM      2  N   UNL d   1      -0.520   0.183  -0.436  0.00  0.00    -0.070 N 
ATOM      3  C1  UNL d   1      -0.149  -0.275   0.800  0.00  0.00    -0.004 A 
ATOM      4  C2  UNL d   1      -1.156   0.040   1.686  0.00  0.00    -0.047 A 
ATOM      5  C3  UNL d   1      -2.168   0.709   0.958  0.00  0.00    -0.047 A 
ATOM      6  C4  UNL d   1      -1.749   0.784  -0.354  0.00  0.00    -0.004 A 
ENDROOT
TORSDOF 0
ENDMDL
