MODEL 1
REMARK minimizedAffinity -1.16826642
REMARK minimizedRMSD -1
REMARK  0 active torsions:
REMARK  status: ('A' for Active; 'I' for Inactive)
ROOT
ATOM      1  C   UNL d   1       0.740  -0.411   3.357  0.00  0.00     0.172 C 
ATOM      2  N   UNL d   1      -0.083  -0.195   2.190  0.00  0.00    -0.070 N 
ATOM      3  C1  UNL d   1      -1.385   0.228   2.199  0.00  0.00    -0.004 A 
ATOM      4  C2  UNL d   1      -1.811   0.309   0.891  0.00  0.00    -0.047 A 
ATOM      5  C3  UNL d   1      -0.728  -0.078   0.067  0.00  0.00    -0.047 A 
ATOM      6  C4  UNL d   1       0.329  -0.385   0.898  0.00  0.00    -0.004 A 
ENDROOT
TORSDOF 0
ENDMDL
