MODEL 1
REMARK minimizedAffinity -2.73191214
REMARK minimizedRMSD -1
REMARK  0 active torsions:
REMARK  status: ('A' for Active; 'I' for Inactive)
ROOT
ATOM      1  C   UNL d   1      -0.014  -0.749  -1.227  0.00  0.00     0.172 C 
ATOM      2  N   UNL d   1      -0.574  -0.256   0.009  0.00  0.00    -0.070 N 
ATOM      3  C1  UNL d   1      -0.017  -0.400   1.252  0.00  0.00    -0.004 A 
ATOM      4  C2  UNL d   1      -0.855   0.206   2.163  0.00  0.00    -0.047 A 
ATOM      5  C3  UNL d   1      -1.953   0.733   1.443  0.00  0.00    -0.047 A 
ATOM      6  C4  UNL d   1      -1.754   0.433   0.112  0.00  0.00    -0.004 A 
ENDROOT
TORSDOF 0
ENDMDL
