MODEL 1
REMARK minimizedAffinity -1.888044
REMARK minimizedRMSD -1
REMARK  0 active torsions:
REMARK  status: ('A' for Active; 'I' for Inactive)
ROOT
ATOM      1  C   UNL d   1       0.760  -0.010   4.113  0.00  0.00     0.172 C 
ATOM      2  N   UNL d   1       0.031   0.185   2.882  0.00  0.00    -0.070 N 
ATOM      3  C1  UNL d   1       0.518  -0.041   1.622  0.00  0.00    -0.004 A 
ATOM      4  C2  UNL d   1      -0.482   0.262   0.723  0.00  0.00    -0.047 A 
ATOM      5  C3  UNL d   1      -1.608   0.686   1.469  0.00  0.00    -0.047 A 
ATOM      6  C4  UNL d   1      -1.262   0.629   2.802  0.00  0.00    -0.004 A 
ENDROOT
TORSDOF 0
ENDMDL
