MODEL 1
REMARK minimizedAffinity 9.08101463
REMARK minimizedRMSD -1
REMARK  3 active torsions:
REMARK  status: ('A' for Active; 'I' for Inactive)
REMARK    1  A    between atoms: C3'_2  and  C2'_3 
REMARK    2  A    between atoms: C2'_3  and  C1'_4 
REMARK    3  A    between atoms: C1'_4  and  C1_5 
ROOT
ATOM      1  C1  N4B d   1       2.342  -0.284   2.062  0.00  0.00    -0.075 A 
ATOM      2  C2  N4B d   1       2.617   0.207   0.766  0.00  0.00     0.002 A 
ATOM      3  C3  N4B d   1       2.787   1.555   0.565  0.00  0.00     0.002 A 
ATOM      4  C4  N4B d   1       2.669   2.429   1.635  0.00  0.00    -0.004 A 
ATOM      5  C5  N4B d   1       2.428   1.944   2.888  0.00  0.00     0.002 A 
ATOM      6  C6  N4B d   1       2.259   0.592   3.105  0.00  0.00     0.002 A 
ENDROOT
BRANCH   1   7
ATOM      7  C1' N4B d   1       2.063  -1.740   2.316  0.00  0.00     0.057 C 
BRANCH   7   8
ATOM      8  C2' N4B d   1       2.531  -2.101   3.723  0.00  0.00     0.009 C 
BRANCH   8   9
ATOM      9  C3' N4B d   1       3.709  -3.061   3.700  0.00  0.00     0.004 C 
ATOM     10  C4' N4B d   1       3.289  -4.498   3.782  0.00  0.00     0.003 C 
ENDBRANCH   8   9
ENDBRANCH   7   8
ENDBRANCH   1   7
TORSDOF 3
ENDMDL
