MODEL 1
REMARK minimizedAffinity -3.96148705
REMARK minimizedRMSD -1
REMARK  0 active torsions:
REMARK  status: ('A' for Active; 'I' for Inactive)
ROOT
ATOM      1  C   UNL d   1      -0.432  -0.396  -1.011  0.00  0.00     0.077 C 
ATOM      2  C1  UNL d   1      -0.772   0.947  -1.584  0.00  0.00    -0.074 A 
ATOM      3  C2  UNL d   1       0.215   1.752  -2.164  0.00  0.00    -0.005 A 
ATOM      4  C3  UNL d   1      -0.117   2.995  -2.701  0.00  0.00     0.006 A 
ATOM      5  C4  UNL d   1      -1.437   3.446  -2.665  0.00  0.00    -0.005 A 
ATOM      6  C5  UNL d   1      -2.437   2.656  -2.090  0.00  0.00    -0.074 A 
ATOM      7  C6  UNL d   1      -3.863   3.121  -2.051  0.00  0.00     0.077 C 
ATOM      8  C7  UNL d   1      -2.097   1.404  -1.558  0.00  0.00    -0.001 A 
ENDROOT
TORSDOF 0
ENDMDL
