MODEL 1
REMARK minimizedAffinity -5.59084558
REMARK minimizedRMSD -1
REMARK  0 active torsions:
REMARK  status: ('A' for Active; 'I' for Inactive)
ROOT
ATOM      1  C   UNL d   1      -0.738   0.899  -2.892  0.00  0.00     0.077 C 
ATOM      2  C1  UNL d   1      -1.757   1.919  -2.480  0.00  0.00    -0.074 A 
ATOM      3  C2  UNL d   1      -1.408   2.990  -1.651  0.00  0.00    -0.005 A 
ATOM      4  C3  UNL d   1      -2.365   3.936  -1.285  0.00  0.00     0.006 A 
ATOM      5  C4  UNL d   1      -3.678   3.822  -1.742  0.00  0.00    -0.005 A 
ATOM      6  C5  UNL d   1      -4.045   2.758  -2.572  0.00  0.00    -0.074 A 
ATOM      7  C6  UNL d   1      -5.450   2.626  -3.081  0.00  0.00     0.077 C 
ATOM      8  C7  UNL d   1      -3.077   1.815  -2.942  0.00  0.00    -0.001 A 
ENDROOT
TORSDOF 0
ENDMDL
