MODEL 1
REMARK minimizedAffinity -3.60425973
REMARK minimizedRMSD -1
REMARK  0 active torsions:
REMARK  status: ('A' for Active; 'I' for Inactive)
ROOT
ATOM      1  C   UNL d   1      -0.066   0.552  -1.452  0.00  0.00     0.077 C 
ATOM      2  C1  UNL d   1      -0.737   1.649  -2.223  0.00  0.00    -0.074 A 
ATOM      3  C2  UNL d   1      -0.115   2.234  -3.331  0.00  0.00    -0.005 A 
ATOM      4  C3  UNL d   1      -0.756   3.247  -4.044  0.00  0.00     0.006 A 
ATOM      5  C4  UNL d   1      -2.023   3.685  -3.657  0.00  0.00    -0.005 A 
ATOM      6  C5  UNL d   1      -2.661   3.112  -2.553  0.00  0.00    -0.074 A 
ATOM      7  C6  UNL d   1      -4.027   3.564  -2.130  0.00  0.00     0.077 C 
ATOM      8  C7  UNL d   1      -2.014   2.089  -1.846  0.00  0.00    -0.001 A 
ENDROOT
TORSDOF 0
ENDMDL
