MODEL 1
REMARK minimizedAffinity -4.43841696
REMARK minimizedRMSD -1
REMARK  0 active torsions:
REMARK  status: ('A' for Active; 'I' for Inactive)
ROOT
ATOM      1  C   UNL d   1      -0.597   0.046  -1.521  0.00  0.00     0.077 C 
ATOM      2  C1  UNL d   1      -1.150   1.296  -2.140  0.00  0.00    -0.074 A 
ATOM      3  C2  UNL d   1      -0.313   2.203  -2.798  0.00  0.00    -0.005 A 
ATOM      4  C3  UNL d   1      -0.842   3.356  -3.376  0.00  0.00     0.006 A 
ATOM      5  C4  UNL d   1      -2.212   3.613  -3.304  0.00  0.00    -0.005 A 
ATOM      6  C5  UNL d   1      -3.064   2.717  -2.651  0.00  0.00    -0.074 A 
ATOM      7  C6  UNL d   1      -4.540   2.974  -2.572  0.00  0.00     0.077 C 
ATOM      8  C7  UNL d   1      -2.526   1.557  -2.078  0.00  0.00    -0.001 A 
ENDROOT
TORSDOF 0
ENDMDL
