MODEL 1
REMARK minimizedAffinity -6.00802374
REMARK minimizedRMSD -1
REMARK  0 active torsions:
REMARK  status: ('A' for Active; 'I' for Inactive)
ROOT
ATOM      1  C   UNL d   1      -0.705   0.321  -1.040  0.00  0.00     0.077 C 
ATOM      2  C1  UNL d   1      -1.446   1.438  -1.711  0.00  0.00    -0.074 A 
ATOM      3  C2  UNL d   1      -0.761   2.518  -2.278  0.00  0.00    -0.005 A 
ATOM      4  C3  UNL d   1      -1.464   3.545  -2.907  0.00  0.00     0.006 A 
ATOM      5  C4  UNL d   1      -2.857   3.503  -2.977  0.00  0.00    -0.005 A 
ATOM      6  C5  UNL d   1      -3.559   2.431  -2.417  0.00  0.00    -0.074 A 
ATOM      7  C6  UNL d   1      -5.056   2.366  -2.491  0.00  0.00     0.077 C 
ATOM      8  C7  UNL d   1      -2.845   1.399  -1.792  0.00  0.00    -0.001 A 
ENDROOT
TORSDOF 0
ENDMDL
