MODEL 1
REMARK minimizedAffinity -1.28925037
REMARK minimizedRMSD -1
REMARK  0 active torsions:
REMARK  status: ('A' for Active; 'I' for Inactive)
ROOT
ATOM      1  C   UNL d   1      -0.657  -0.265   1.653  0.00  0.00     0.077 C 
ATOM      2  C1  UNL d   1      -0.352  -0.128   0.191  0.00  0.00    -0.074 A 
ATOM      3  C2  UNL d   1       0.630  -0.918  -0.416  0.00  0.00    -0.005 A 
ATOM      4  C3  UNL d   1       0.896  -0.786  -1.778  0.00  0.00     0.006 A 
ATOM      5  C4  UNL d   1       0.184   0.136  -2.547  0.00  0.00    -0.005 A 
ATOM      6  C5  UNL d   1      -0.802   0.934  -1.958  0.00  0.00    -0.074 A 
ATOM      7  C6  UNL d   1      -1.583   1.922  -2.772  0.00  0.00     0.077 C 
ATOM      8  C7  UNL d   1      -1.068   0.790  -0.589  0.00  0.00    -0.001 A 
ENDROOT
TORSDOF 0
ENDMDL
