MODEL 1
REMARK minimizedAffinity -5.09711838
REMARK minimizedRMSD -1
REMARK  0 active torsions:
REMARK  status: ('A' for Active; 'I' for Inactive)
ROOT
ATOM      1  C   UNL d   1      -0.462   0.383  -1.621  0.00  0.00     0.077 C 
ATOM      2  C1  UNL d   1      -0.158  -0.209  -0.277  0.00  0.00    -0.074 A 
ATOM      3  C2  UNL d   1      -0.972   0.059   0.828  0.00  0.00    -0.005 A 
ATOM      4  C3  UNL d   1      -0.681  -0.507   2.069  0.00  0.00     0.006 A 
ATOM      5  C4  UNL d   1       0.424  -1.346   2.218  0.00  0.00    -0.005 A 
ATOM      6  C5  UNL d   1       1.248  -1.626   1.124  0.00  0.00    -0.074 A 
ATOM      7  C6  UNL d   1       2.434  -2.534   1.264  0.00  0.00     0.077 C 
ATOM      8  C7  UNL d   1       0.946  -1.060  -0.122  0.00  0.00    -0.001 A 
ENDROOT
TORSDOF 0
ENDMDL
