MODEL 1
REMARK minimizedAffinity -2.72433305
REMARK minimizedRMSD -1
REMARK  0 active torsions:
REMARK  status: ('A' for Active; 'I' for Inactive)
ROOT
ATOM      1  C   UNL d   1      -5.861   1.997  -2.338  0.00  0.00     0.077 C 
ATOM      2  C1  UNL d   1      -4.441   2.426  -2.560  0.00  0.00    -0.074 A 
ATOM      3  C2  UNL d   1      -4.135   3.744  -2.912  0.00  0.00    -0.005 A 
ATOM      4  C3  UNL d   1      -2.809   4.131  -3.106  0.00  0.00     0.006 A 
ATOM      5  C4  UNL d   1      -1.777   3.205  -2.950  0.00  0.00    -0.005 A 
ATOM      6  C5  UNL d   1      -2.064   1.882  -2.598  0.00  0.00    -0.074 A 
ATOM      7  C6  UNL d   1      -0.966   0.876  -2.416  0.00  0.00     0.077 C 
ATOM      8  C7  UNL d   1      -3.398   1.503  -2.398  0.00  0.00    -0.001 A 
ENDROOT
TORSDOF 0
ENDMDL
