MODEL 1
REMARK minimizedAffinity -3.53487039
REMARK minimizedRMSD -1
REMARK  0 active torsions:
REMARK  status: ('A' for Active; 'I' for Inactive)
ROOT
ATOM      1  C   UNL d   1       0.426  -1.767   3.089  0.00  0.00     0.077 C 
ATOM      2  C1  UNL d   1       0.775  -1.618   1.638  0.00  0.00    -0.074 A 
ATOM      3  C2  UNL d   1       1.836  -2.335   1.076  0.00  0.00    -0.005 A 
ATOM      4  C3  UNL d   1       2.143  -2.192  -0.277  0.00  0.00     0.006 A 
ATOM      5  C4  UNL d   1       1.393  -1.333  -1.081  0.00  0.00    -0.005 A 
ATOM      6  C5  UNL d   1       0.328  -0.608  -0.536  0.00  0.00    -0.074 A 
ATOM      7  C6  UNL d   1      -0.494   0.313  -1.388  0.00  0.00     0.077 C 
ATOM      8  C7  UNL d   1       0.022  -0.762   0.823  0.00  0.00    -0.001 A 
ENDROOT
TORSDOF 0
ENDMDL
