MODEL 1
REMARK minimizedAffinity 0.920661747
REMARK minimizedRMSD -1
REMARK  0 active torsions:
REMARK  status: ('A' for Active; 'I' for Inactive)
ROOT
ATOM      1  C   UNL d   1       1.373  -0.734  -1.489  0.00  0.00     0.077 C 
ATOM      2  C1  UNL d   1       1.241  -0.670   0.003  0.00  0.00    -0.074 A 
ATOM      3  C2  UNL d   1       2.312  -0.260   0.803  0.00  0.00    -0.005 A 
ATOM      4  C3  UNL d   1       2.171  -0.196   2.189  0.00  0.00     0.006 A 
ATOM      5  C4  UNL d   1       0.959  -0.540   2.789  0.00  0.00    -0.005 A 
ATOM      6  C5  UNL d   1      -0.124  -0.951   2.005  0.00  0.00    -0.074 A 
ATOM      7  C6  UNL d   1      -1.437  -1.315   2.633  0.00  0.00     0.077 C 
ATOM      8  C7  UNL d   1       0.024  -1.006   0.612  0.00  0.00    -0.001 A 
ENDROOT
TORSDOF 0
ENDMDL
