MODEL 1
REMARK minimizedAffinity -3.44634986
REMARK minimizedRMSD -1
REMARK  0 active torsions:
REMARK  status: ('A' for Active; 'I' for Inactive)
ROOT
ATOM      1  C   UNL d   1       1.638  -1.165  -1.975  0.00  0.00     0.077 C 
ATOM      2  C1  UNL d   1       0.911  -0.805  -0.714  0.00  0.00    -0.074 A 
ATOM      3  C2  UNL d   1      -0.447  -0.469  -0.738  0.00  0.00    -0.005 A 
ATOM      4  C3  UNL d   1      -1.113  -0.145   0.444  0.00  0.00     0.006 A 
ATOM      5  C4  UNL d   1      -0.429  -0.153   1.660  0.00  0.00    -0.005 A 
ATOM      6  C5  UNL d   1       0.928  -0.487   1.704  0.00  0.00    -0.074 A 
ATOM      7  C6  UNL d   1       1.676  -0.509   3.004  0.00  0.00     0.077 C 
ATOM      8  C7  UNL d   1       1.589  -0.818   0.513  0.00  0.00    -0.001 A 
ENDROOT
TORSDOF 0
ENDMDL
