MODEL 1
REMARK minimizedAffinity 4.37006807
REMARK minimizedRMSD -1
REMARK  0 active torsions:
REMARK  status: ('A' for Active; 'I' for Inactive)
ROOT
ATOM      1  C   UNL d   1      -2.625   0.749  -6.000  0.00  0.00     0.077 C 
ATOM      2  C1  UNL d   1      -1.897   1.725  -5.123  0.00  0.00    -0.074 A 
ATOM      3  C2  UNL d   1      -0.749   2.382  -5.577  0.00  0.00    -0.005 A 
ATOM      4  C3  UNL d   1      -0.089   3.294  -4.754  0.00  0.00     0.006 A 
ATOM      5  C4  UNL d   1      -0.569   3.557  -3.470  0.00  0.00    -0.005 A 
ATOM      6  C5  UNL d   1      -1.715   2.910  -2.999  0.00  0.00    -0.074 A 
ATOM      7  C6  UNL d   1      -2.250   3.188  -1.626  0.00  0.00     0.077 C 
ATOM      8  C7  UNL d   1      -2.377   2.000  -3.835  0.00  0.00    -0.001 A 
ENDROOT
TORSDOF 0
ENDMDL
