MODEL 1
REMARK minimizedAffinity -3.71413827
REMARK minimizedRMSD -1
REMARK  3 active torsions:
REMARK  status: ('A' for Active; 'I' for Inactive)
REMARK    1  A    between atoms: C3'_2  and  C2'_3 
REMARK    2  A    between atoms: C2'_3  and  C1'_4 
REMARK    3  A    between atoms: C1'_4  and  C1_5 
ROOT
ATOM      1  C1  N4B d   1      -0.475   0.018  -0.026  0.00  0.00    -0.075 A 
ATOM      2  C2  N4B d   1      -1.590   0.435   0.734  0.00  0.00     0.002 A 
ATOM      3  C3  N4B d   1      -1.405   0.994   1.975  0.00  0.00     0.002 A 
ATOM      4  C4  N4B d   1      -0.121   1.127   2.482  0.00  0.00    -0.004 A 
ATOM      5  C5  N4B d   1       0.952   0.745   1.732  0.00  0.00     0.002 A 
ATOM      6  C6  N4B d   1       0.781   0.186   0.481  0.00  0.00     0.002 A 
ENDROOT
BRANCH   1   7
ATOM      7  C1' N4B d   1      -0.633  -0.676  -1.351  0.00  0.00     0.057 C 
BRANCH   7   8
ATOM      8  C2' N4B d   1       0.570  -0.351  -2.232  0.00  0.00     0.009 C 
BRANCH   8   9
ATOM      9  C3' N4B d   1       0.170   0.424  -3.476  0.00  0.00     0.004 C 
ATOM     10  C4' N4B d   1       1.307   1.204  -4.066  0.00  0.00     0.003 C 
ENDBRANCH   8   9
ENDBRANCH   7   8
ENDBRANCH   1   7
TORSDOF 3
ENDMDL
