MODEL 1
REMARK minimizedAffinity -0.738506913
REMARK minimizedRMSD -1
REMARK  3 active torsions:
REMARK  status: ('A' for Active; 'I' for Inactive)
REMARK    1  A    between atoms: C3'_2  and  C2'_3 
REMARK    2  A    between atoms: C2'_3  and  C1'_4 
REMARK    3  A    between atoms: C1'_4  and  C1_5 
ROOT
ATOM      1  C1  N4B d   1       1.090  -0.489  -2.189  0.00  0.00    -0.075 A 
ATOM      2  C2  N4B d   1       0.115  -0.484  -3.210  0.00  0.00     0.002 A 
ATOM      3  C3  N4B d   1       0.365   0.162  -4.396  0.00  0.00     0.002 A 
ATOM      4  C4  N4B d   1       1.570   0.824  -4.576  0.00  0.00    -0.004 A 
ATOM      5  C5  N4B d   1       2.517   0.793  -3.594  0.00  0.00     0.002 A 
ATOM      6  C6  N4B d   1       2.281   0.144  -2.399  0.00  0.00     0.002 A 
ENDROOT
BRANCH   1   7
ATOM      7  C1' N4B d   1       0.829  -1.109  -0.844  0.00  0.00     0.057 C 
BRANCH   7   8
ATOM      8  C2' N4B d   1       0.563  -0.003   0.173  0.00  0.00     0.009 C 
BRANCH   8   9
ATOM      9  C3' N4B d   1      -0.920   0.157   0.463  0.00  0.00     0.004 C 
ATOM     10  C4' N4B d   1      -1.196   0.520   1.892  0.00  0.00     0.003 C 
ENDBRANCH   8   9
ENDBRANCH   7   8
ENDBRANCH   1   7
TORSDOF 3
ENDMDL
