MODEL 1
REMARK minimizedAffinity 23.2457695
REMARK minimizedRMSD -1
REMARK  0 active torsions:
REMARK  status: ('A' for Active; 'I' for Inactive)
ROOT
ATOM      1  C   UNL d   1       0.401  -3.160   2.253  0.00  0.00     0.124 A 
ATOM      2  C1  UNL d   1       0.389  -2.420   3.427  0.00  0.00     0.062 A 
ATOM      3  C2  UNL d   1      -0.624  -1.494   3.661  0.00  0.00     0.162 A 
ATOM      4  C3  UNL d   1      -1.635  -1.304   2.719  0.00  0.00    -0.034 A 
ATOM      5  C4  UNL d   1      -1.616  -2.052   1.540  0.00  0.00     0.162 A 
ATOM      6  C5  UNL d   1      -0.601  -2.975   1.311  0.00  0.00     0.062 A 
ATOM      7  F   UNL d   1      -0.592  -3.690   0.176  0.00  0.00    -0.097 F 
ATOM      8  F1  UNL d   1      -2.572  -1.894   0.613  0.00  0.00    -0.096 F 
ATOM      9  I   UNL d   1      -3.151   0.079   3.065  0.00  0.00    -0.060 I 
ATOM     10  F2  UNL d   1      -0.610  -0.793   4.804  0.00  0.00    -0.096 F 
ATOM     11  F3  UNL d   1       1.357  -2.596   4.339  0.00  0.00    -0.097 F 
ATOM     12  F4  UNL d   1       1.377  -4.049   2.030  0.00  0.00    -0.092 F 
ENDROOT
TORSDOF 0
ENDMDL
