MODEL 1
REMARK minimizedAffinity 23.6300983
REMARK minimizedRMSD -1
REMARK  0 active torsions:
REMARK  status: ('A' for Active; 'I' for Inactive)
ROOT
ATOM      1  C   UNL d   1       3.632   3.377  -2.992  0.00  0.00     0.124 A 
ATOM      2  C1  UNL d   1       3.438   2.350  -2.079  0.00  0.00     0.062 A 
ATOM      3  C2  UNL d   1       4.108   2.363  -0.859  0.00  0.00     0.162 A 
ATOM      4  C3  UNL d   1       4.978   3.407  -0.544  0.00  0.00    -0.034 A 
ATOM      5  C4  UNL d   1       5.168   4.436  -1.468  0.00  0.00     0.162 A 
ATOM      6  C5  UNL d   1       4.497   4.419  -2.686  0.00  0.00     0.062 A 
ATOM      7  F   UNL d   1       4.685   5.412  -3.567  0.00  0.00    -0.097 F 
ATOM      8  F1  UNL d   1       5.997   5.455  -1.198  0.00  0.00    -0.096 F 
ATOM      9  I   UNL d   1       5.981   3.430   1.279  0.00  0.00    -0.060 I 
ATOM     10  F2  UNL d   1       3.902   1.357   0.005  0.00  0.00    -0.096 F 
ATOM     11  F3  UNL d   1       2.605   1.342  -2.372  0.00  0.00    -0.097 F 
ATOM     12  F4  UNL d   1       2.987   3.362  -4.166  0.00  0.00    -0.092 F 
ENDROOT
TORSDOF 0
ENDMDL
