MODEL 1
REMARK minimizedAffinity 13.57234
REMARK minimizedRMSD -1
REMARK  0 active torsions:
REMARK  status: ('A' for Active; 'I' for Inactive)
ROOT
ATOM      1  C   UNL d   1      -1.973  -3.414   0.724  0.00  0.00     0.124 A 
ATOM      2  C1  UNL d   1      -0.942  -4.343   0.707  0.00  0.00     0.062 A 
ATOM      3  C2  UNL d   1       0.212  -4.121   1.453  0.00  0.00     0.162 A 
ATOM      4  C3  UNL d   1       0.341  -2.966   2.224  0.00  0.00    -0.034 A 
ATOM      5  C4  UNL d   1      -0.701  -2.036   2.235  0.00  0.00     0.162 A 
ATOM      6  C5  UNL d   1      -1.852  -2.262   1.487  0.00  0.00     0.062 A 
ATOM      7  F   UNL d   1      -2.847  -1.363   1.505  0.00  0.00    -0.097 F 
ATOM      8  F1  UNL d   1      -0.610  -0.914   2.964  0.00  0.00    -0.096 F 
ATOM      9  I   UNL d   1       2.064  -2.630   3.341  0.00  0.00    -0.060 I 
ATOM     10  F2  UNL d   1       1.192  -5.036   1.419  0.00  0.00    -0.096 F 
ATOM     11  F3  UNL d   1      -1.057  -5.457  -0.030  0.00  0.00    -0.097 F 
ATOM     12  F4  UNL d   1      -3.082  -3.630   0.004  0.00  0.00    -0.092 F 
ENDROOT
TORSDOF 0
ENDMDL
