MODEL 1
REMARK minimizedAffinity 28.2104549
REMARK minimizedRMSD -1
REMARK  0 active torsions:
REMARK  status: ('A' for Active; 'I' for Inactive)
ROOT
ATOM      1  C   UNL d   1       3.430  -4.511   0.745  0.00  0.00     0.124 A 
ATOM      2  C1  UNL d   1       2.468  -3.802   1.451  0.00  0.00     0.062 A 
ATOM      3  C2  UNL d   1       2.317  -2.433   1.248  0.00  0.00     0.162 A 
ATOM      4  C3  UNL d   1       3.130  -1.764   0.333  0.00  0.00    -0.034 A 
ATOM      5  C4  UNL d   1       4.097  -2.483  -0.372  0.00  0.00     0.162 A 
ATOM      6  C5  UNL d   1       4.244  -3.851  -0.165  0.00  0.00     0.062 A 
ATOM      7  F   UNL d   1       5.174  -4.534  -0.848  0.00  0.00    -0.097 F 
ATOM      8  F1  UNL d   1       4.895  -1.871  -1.259  0.00  0.00    -0.096 F 
ATOM      9  I   UNL d   1       2.908   0.282   0.026  0.00  0.00    -0.060 I 
ATOM     10  F2  UNL d   1       1.379  -1.774   1.943  0.00  0.00    -0.096 F 
ATOM     11  F3  UNL d   1       1.682  -4.437   2.332  0.00  0.00    -0.097 F 
ATOM     12  F4  UNL d   1       3.574  -5.827   0.943  0.00  0.00    -0.092 F 
ENDROOT
TORSDOF 0
ENDMDL
