MODEL 1
REMARK minimizedAffinity 15.0956059
REMARK minimizedRMSD -1
REMARK  0 active torsions:
REMARK  status: ('A' for Active; 'I' for Inactive)
ROOT
ATOM      1  C   UNL d   1       0.134   3.732  -3.289  0.00  0.00     0.124 A 
ATOM      2  C1  UNL d   1       0.896   2.575  -3.376  0.00  0.00     0.062 A 
ATOM      3  C2  UNL d   1       2.209   2.565  -2.914  0.00  0.00     0.162 A 
ATOM      4  C3  UNL d   1       2.769   3.716  -2.359  0.00  0.00    -0.034 A 
ATOM      5  C4  UNL d   1       1.996   4.876  -2.275  0.00  0.00     0.162 A 
ATOM      6  C5  UNL d   1       0.685   4.881  -2.739  0.00  0.00     0.062 A 
ATOM      7  F   UNL d   1      -0.050   5.999  -2.653  0.00  0.00    -0.097 F 
ATOM      8  F1  UNL d   1       2.503   6.000  -1.747  0.00  0.00    -0.096 F 
ATOM      9  I   UNL d   1       4.731   3.705  -1.667  0.00  0.00    -0.060 I 
ATOM     10  F2  UNL d   1       2.922   1.433  -3.011  0.00  0.00    -0.096 F 
ATOM     11  F3  UNL d   1       0.367   1.464  -3.908  0.00  0.00    -0.097 F 
ATOM     12  F4  UNL d   1      -1.128   3.739  -3.735  0.00  0.00    -0.092 F 
ENDROOT
TORSDOF 0
ENDMDL
