MODEL 1
REMARK minimizedAffinity 32.9911385
REMARK minimizedRMSD -1
REMARK  0 active torsions:
REMARK  status: ('A' for Active; 'I' for Inactive)
ROOT
ATOM      1  C   UNL d   1      -1.990  -4.480  -0.601  0.00  0.00     0.124 A 
ATOM      2  C1  UNL d   1      -1.695  -3.489  -1.528  0.00  0.00     0.062 A 
ATOM      3  C2  UNL d   1      -2.292  -2.236  -1.427  0.00  0.00     0.162 A 
ATOM      4  C3  UNL d   1      -3.190  -1.965  -0.395  0.00  0.00    -0.034 A 
ATOM      5  C4  UNL d   1      -3.482  -2.966   0.533  0.00  0.00     0.162 A 
ATOM      6  C5  UNL d   1      -2.883  -4.217   0.428  0.00  0.00     0.062 A 
ATOM      7  F   UNL d   1      -3.169  -5.173   1.325  0.00  0.00    -0.097 F 
ATOM      8  F1  UNL d   1      -4.341  -2.740   1.538  0.00  0.00    -0.096 F 
ATOM      9  I   UNL d   1      -4.085  -0.092  -0.241  0.00  0.00    -0.060 I 
ATOM     10  F2  UNL d   1      -1.989  -1.298  -2.337  0.00  0.00    -0.096 F 
ATOM     11  F3  UNL d   1      -0.834  -3.741  -2.524  0.00  0.00    -0.097 F 
ATOM     12  F4  UNL d   1      -1.415  -5.685  -0.701  0.00  0.00    -0.092 F 
ENDROOT
TORSDOF 0
ENDMDL
