MODEL 1
REMARK minimizedAffinity 30.419651
REMARK minimizedRMSD -1
REMARK  0 active torsions:
REMARK  status: ('A' for Active; 'I' for Inactive)
ROOT
ATOM      1  C   UNL d   1       3.912   3.672  -4.456  0.00  0.00     0.124 A 
ATOM      2  C1  UNL d   1       4.969   4.064  -3.646  0.00  0.00     0.062 A 
ATOM      3  C2  UNL d   1       4.965   3.753  -2.290  0.00  0.00     0.162 A 
ATOM      4  C3  UNL d   1       3.900   3.045  -1.734  0.00  0.00    -0.034 A 
ATOM      5  C4  UNL d   1       2.839   2.655  -2.554  0.00  0.00     0.162 A 
ATOM      6  C5  UNL d   1       2.848   2.969  -3.909  0.00  0.00     0.062 A 
ATOM      7  F   UNL d   1       1.826   2.589  -4.689  0.00  0.00    -0.097 F 
ATOM      8  F1  UNL d   1       1.799   1.973  -2.052  0.00  0.00    -0.096 F 
ATOM      9  I   UNL d   1       3.889   2.577   0.294  0.00  0.00    -0.060 I 
ATOM     10  F2  UNL d   1       6.000   4.144  -1.531  0.00  0.00    -0.096 F 
ATOM     11  F3  UNL d   1       5.998   4.745  -4.172  0.00  0.00    -0.097 F 
ATOM     12  F4  UNL d   1       3.918   3.974  -5.760  0.00  0.00    -0.092 F 
ENDROOT
TORSDOF 0
ENDMDL
