MODEL 1
REMARK minimizedAffinity 22.2395763
REMARK minimizedRMSD -1
REMARK  0 active torsions:
REMARK  status: ('A' for Active; 'I' for Inactive)
ROOT
ATOM      1  C   UNL d   1       3.812   1.723   1.094  0.00  0.00     0.124 A 
ATOM      2  C1  UNL d   1       4.735   2.617   0.570  0.00  0.00     0.062 A 
ATOM      3  C2  UNL d   1       4.600   3.077  -0.737  0.00  0.00     0.162 A 
ATOM      4  C3  UNL d   1       3.537   2.644  -1.529  0.00  0.00    -0.034 A 
ATOM      5  C4  UNL d   1       2.613   1.744  -0.995  0.00  0.00     0.162 A 
ATOM      6  C5  UNL d   1       2.752   1.288   0.312  0.00  0.00     0.062 A 
ATOM      7  F   UNL d   1       1.859   0.424   0.816  0.00  0.00    -0.097 F 
ATOM      8  F1  UNL d   1       1.578   1.308  -1.729  0.00  0.00    -0.096 F 
ATOM      9  I   UNL d   1       3.331   3.330  -3.483  0.00  0.00    -0.060 I 
ATOM     10  F2  UNL d   1       5.507   3.940  -1.217  0.00  0.00    -0.096 F 
ATOM     11  F3  UNL d   1       5.761   3.038   1.324  0.00  0.00    -0.097 F 
ATOM     12  F4  UNL d   1       3.945   1.281   2.351  0.00  0.00    -0.092 F 
ENDROOT
TORSDOF 0
ENDMDL
