MODEL 1
REMARK minimizedAffinity 29.3779869
REMARK minimizedRMSD -1
REMARK  0 active torsions:
REMARK  status: ('A' for Active; 'I' for Inactive)
ROOT
ATOM      1  C   UNL d   1       4.833   4.089  -4.023  0.00  0.00     0.124 A 
ATOM      2  C1  UNL d   1       4.834   4.879  -2.881  0.00  0.00     0.062 A 
ATOM      3  C2  UNL d   1       3.633   5.232  -2.273  0.00  0.00     0.162 A 
ATOM      4  C3  UNL d   1       2.420   4.794  -2.805  0.00  0.00    -0.034 A 
ATOM      5  C4  UNL d   1       2.427   4.000  -3.953  0.00  0.00     0.162 A 
ATOM      6  C5  UNL d   1       3.630   3.650  -4.557  0.00  0.00     0.062 A 
ATOM      7  F   UNL d   1       3.627   2.887  -5.660  0.00  0.00    -0.097 F 
ATOM      8  F1  UNL d   1       1.279   3.562  -4.491  0.00  0.00    -0.096 F 
ATOM      9  I   UNL d   1       0.622   5.319  -1.899  0.00  0.00    -0.060 I 
ATOM     10  F2  UNL d   1       3.664   5.996  -1.172  0.00  0.00    -0.096 F 
ATOM     11  F3  UNL d   1       5.995   5.305  -2.363  0.00  0.00    -0.097 F 
ATOM     12  F4  UNL d   1       5.991   3.752  -4.606  0.00  0.00    -0.092 F 
ENDROOT
TORSDOF 0
ENDMDL
