MODEL 1
REMARK minimizedAffinity 36.2397728
REMARK minimizedRMSD -1
REMARK  0 active torsions:
REMARK  status: ('A' for Active; 'I' for Inactive)
ROOT
ATOM      1  C   UNL d   1       4.840   4.045  -3.976  0.00  0.00     0.124 A 
ATOM      2  C1  UNL d   1       4.839   4.850  -2.846  0.00  0.00     0.062 A 
ATOM      3  C2  UNL d   1       3.635   5.219  -2.251  0.00  0.00     0.162 A 
ATOM      4  C3  UNL d   1       2.423   4.783  -2.786  0.00  0.00    -0.034 A 
ATOM      5  C4  UNL d   1       2.433   3.974  -3.923  0.00  0.00     0.162 A 
ATOM      6  C5  UNL d   1       3.638   3.607  -4.514  0.00  0.00     0.062 A 
ATOM      7  F   UNL d   1       3.638   2.829  -5.606  0.00  0.00    -0.097 F 
ATOM      8  F1  UNL d   1       1.286   3.536  -4.463  0.00  0.00    -0.096 F 
ATOM      9  I   UNL d   1       0.622   5.333  -1.900  0.00  0.00    -0.060 I 
ATOM     10  F2  UNL d   1       3.664   5.999  -1.160  0.00  0.00    -0.096 F 
ATOM     11  F3  UNL d   1       5.999   5.275  -2.325  0.00  0.00    -0.097 F 
ATOM     12  F4  UNL d   1       6.000   3.692  -4.546  0.00  0.00    -0.092 F 
ENDROOT
TORSDOF 0
ENDMDL
