MODEL 1
REMARK minimizedAffinity 26.3069839
REMARK minimizedRMSD -1
REMARK  0 active torsions:
REMARK  status: ('A' for Active; 'I' for Inactive)
ROOT
ATOM      1  C   UNL d   1       3.980   2.007   1.486  0.00  0.00     0.124 A 
ATOM      2  C1  UNL d   1       2.854   1.530   0.829  0.00  0.00     0.062 A 
ATOM      3  C2  UNL d   1       2.643   1.839  -0.511  0.00  0.00     0.162 A 
ATOM      4  C3  UNL d   1       3.560   2.629  -1.205  0.00  0.00    -0.034 A 
ATOM      5  C4  UNL d   1       4.689   3.105  -0.537  0.00  0.00     0.162 A 
ATOM      6  C5  UNL d   1       4.896   2.794   0.803  0.00  0.00     0.062 A 
ATOM      7  F   UNL d   1       5.985   3.255   1.436  0.00  0.00    -0.097 F 
ATOM      8  F1  UNL d   1       5.591   3.867  -1.174  0.00  0.00    -0.096 F 
ATOM      9  I   UNL d   1       3.247   3.093  -3.209  0.00  0.00    -0.060 I 
ATOM     10  F2  UNL d   1       1.546   1.365  -1.121  0.00  0.00    -0.096 F 
ATOM     11  F3  UNL d   1       1.967   0.770   1.488  0.00  0.00    -0.097 F 
ATOM     12  F4  UNL d   1       4.181   1.708   2.776  0.00  0.00    -0.092 F 
ENDROOT
TORSDOF 0
ENDMDL
