MODEL 1
REMARK minimizedAffinity 22.1752872
REMARK minimizedRMSD -1
REMARK  0 active torsions:
REMARK  status: ('A' for Active; 'I' for Inactive)
ROOT
ATOM      1  C   UNL d   1      -3.191  -2.826   1.271  0.00  0.00     0.124 A 
ATOM      2  C1  UNL d   1      -2.180  -3.753   1.489  0.00  0.00     0.062 A 
ATOM      3  C2  UNL d   1      -0.922  -3.331   1.908  0.00  0.00     0.162 A 
ATOM      4  C3  UNL d   1      -0.666  -1.975   2.114  0.00  0.00    -0.034 A 
ATOM      5  C4  UNL d   1      -1.687  -1.049   1.892  0.00  0.00     0.162 A 
ATOM      6  C5  UNL d   1      -2.943  -1.475   1.473  0.00  0.00     0.062 A 
ATOM      7  F   UNL d   1      -3.918  -0.578   1.263  0.00  0.00    -0.097 F 
ATOM      8  F1  UNL d   1      -1.475   0.262   2.081  0.00  0.00    -0.096 F 
ATOM      9  I   UNL d   1       1.214  -1.341   2.741  0.00  0.00    -0.060 I 
ATOM     10  F2  UNL d   1       0.035  -4.249   2.111  0.00  0.00    -0.096 F 
ATOM     11  F3  UNL d   1      -2.417  -5.058   1.294  0.00  0.00    -0.097 F 
ATOM     12  F4  UNL d   1      -4.400  -3.234   0.867  0.00  0.00    -0.092 F 
ENDROOT
TORSDOF 0
ENDMDL
