MODEL 1
REMARK minimizedAffinity 24.020462
REMARK minimizedRMSD -1
REMARK  0 active torsions:
REMARK  status: ('A' for Active; 'I' for Inactive)
ROOT
ATOM      1  C   UNL d   1      -0.339  -0.972   3.579  0.00  0.00     0.124 A 
ATOM      2  C1  UNL d   1      -0.699  -1.547   2.368  0.00  0.00     0.062 A 
ATOM      3  C2  UNL d   1      -1.828  -1.098   1.688  0.00  0.00     0.162 A 
ATOM      4  C3  UNL d   1      -2.605  -0.068   2.218  0.00  0.00    -0.034 A 
ATOM      5  C4  UNL d   1      -2.237   0.504   3.437  0.00  0.00     0.162 A 
ATOM      6  C5  UNL d   1      -1.108   0.052   4.112  0.00  0.00     0.062 A 
ATOM      7  F   UNL d   1      -0.762   0.609   5.282  0.00  0.00    -0.097 F 
ATOM      8  F1  UNL d   1      -2.962   1.497   3.974  0.00  0.00    -0.096 F 
ATOM      9  I   UNL d   1      -4.294   0.606   1.205  0.00  0.00    -0.060 I 
ATOM     10  F2  UNL d   1      -2.152  -1.672   0.520  0.00  0.00    -0.096 F 
ATOM     11  F3  UNL d   1       0.042  -2.538   1.851  0.00  0.00    -0.097 F 
ATOM     12  F4  UNL d   1       0.747  -1.407   4.231  0.00  0.00    -0.092 F 
ENDROOT
TORSDOF 0
ENDMDL
