MODEL 1
REMARK minimizedAffinity 0.725224316
REMARK minimizedRMSD -1
REMARK  0 active torsions:
REMARK  status: ('A' for Active; 'I' for Inactive)
ROOT
ATOM      1  C4' PXY d   1      -1.477  -0.439   3.250  0.00  0.00     0.077 C 
ATOM      2  C1' PXY d   1       3.061  -2.588   0.386  0.00  0.00     0.077 C 
ATOM      3  C1  PXY d   1       1.870  -2.036   1.144  0.00  0.00    -0.082 A 
ATOM      4  C2  PXY d   1       1.154  -1.058   0.614  0.00  0.00     0.003 A 
ATOM      5  C3  PXY d   1       0.093  -0.525   1.299  0.00  0.00     0.003 A 
ATOM      6  C4  PXY d   1      -0.271  -1.034   2.517  0.00  0.00    -0.082 A 
ATOM      7  C5  PXY d   1       0.448  -2.039   3.060  0.00  0.00     0.003 A 
ATOM      8  C6  PXY d   1       1.546  -2.539   2.366  0.00  0.00     0.003 A 
ENDROOT
TORSDOF 0
ENDMDL
