MODEL 1
REMARK minimizedAffinity 1.84347022
REMARK minimizedRMSD -1
REMARK  0 active torsions:
REMARK  status: ('A' for Active; 'I' for Inactive)
ROOT
ATOM      1  C4' PXY d   1      -1.103  -1.134   3.187  0.00  0.00     0.077 C 
ATOM      2  C1' PXY d   1       3.173  -4.364   1.019  0.00  0.00     0.077 C 
ATOM      3  C1  PXY d   1       2.043  -3.527   1.586  0.00  0.00    -0.082 A 
ATOM      4  C2  PXY d   1       2.134  -2.207   1.566  0.00  0.00     0.003 A 
ATOM      5  C3  PXY d   1       1.136  -1.435   2.103  0.00  0.00     0.003 A 
ATOM      6  C4  PXY d   1       0.009  -2.019   2.618  0.00  0.00    -0.082 A 
ATOM      7  C5  PXY d   1      -0.096  -3.365   2.632  0.00  0.00     0.003 A 
ATOM      8  C6  PXY d   1       0.947  -4.131   2.119  0.00  0.00     0.003 A 
ENDROOT
TORSDOF 0
ENDMDL
