MODEL 1
REMARK minimizedAffinity -0.573671222
REMARK minimizedRMSD -1
REMARK  0 active torsions:
REMARK  status: ('A' for Active; 'I' for Inactive)
ROOT
ATOM      1  C4' PXY d   1       1.888  -4.121   1.929  0.00  0.00     0.077 C 
ATOM      2  C1' PXY d   1       5.927  -3.373   5.996  0.00  0.00     0.077 C 
ATOM      3  C1  PXY d   1       4.875  -3.577   4.923  0.00  0.00    -0.082 A 
ATOM      4  C2  PXY d   1       3.955  -2.648   4.724  0.00  0.00     0.003 A 
ATOM      5  C3  PXY d   1       2.978  -2.831   3.780  0.00  0.00     0.003 A 
ATOM      6  C4  PXY d   1       2.974  -3.953   2.995  0.00  0.00    -0.082 A 
ATOM      7  C5  PXY d   1       3.916  -4.901   3.185  0.00  0.00     0.003 A 
ATOM      8  C6  PXY d   1       4.875  -4.715   4.176  0.00  0.00     0.003 A 
ENDROOT
TORSDOF 0
ENDMDL
