MODEL 1
REMARK minimizedAffinity 7.73287678
REMARK minimizedRMSD -1
REMARK  0 active torsions:
REMARK  status: ('A' for Active; 'I' for Inactive)
ROOT
ATOM      1  C4' PXY d   1      -1.013  -0.038   2.586  0.00  0.00     0.077 C 
ATOM      2  C1' PXY d   1       3.244  -3.604   0.982  0.00  0.00     0.077 C 
ATOM      3  C1  PXY d   1       2.121  -2.679   1.408  0.00  0.00    -0.082 A 
ATOM      4  C2  PXY d   1       1.923  -1.547   0.753  0.00  0.00     0.003 A 
ATOM      5  C3  PXY d   1       0.932  -0.683   1.145  0.00  0.00     0.003 A 
ATOM      6  C4  PXY d   1       0.103  -1.007   2.185  0.00  0.00    -0.082 A 
ATOM      7  C5  PXY d   1       0.292  -2.165   2.852  0.00  0.00     0.003 A 
ATOM      8  C6  PXY d   1       1.329  -3.009   2.464  0.00  0.00     0.003 A 
ENDROOT
TORSDOF 0
ENDMDL
