MODEL 1
REMARK minimizedAffinity 9.31203651
REMARK minimizedRMSD -1
REMARK  0 active torsions:
REMARK  status: ('A' for Active; 'I' for Inactive)
ROOT
ATOM      1  C4' PXY d   1       5.948   2.683   1.199  0.00  0.00     0.077 C 
ATOM      2  C1' PXY d   1       5.955  -1.187  -3.095  0.00  0.00     0.077 C 
ATOM      3  C1  PXY d   1       5.959  -0.163  -1.977  0.00  0.00    -0.082 A 
ATOM      4  C2  PXY d   1       5.930  -0.570  -0.718  0.00  0.00     0.003 A 
ATOM      5  C3  PXY d   1       5.901   0.343   0.305  0.00  0.00     0.003 A 
ATOM      6  C4  PXY d   1       5.955   1.685   0.038  0.00  0.00    -0.082 A 
ATOM      7  C5  PXY d   1       5.995   2.107  -1.244  0.00  0.00     0.003 A 
ATOM      8  C6  PXY d   1       5.982   1.166  -2.269  0.00  0.00     0.003 A 
ENDROOT
TORSDOF 0
ENDMDL
