MODEL 1
REMARK minimizedAffinity 4.05576134
REMARK minimizedRMSD -1
REMARK  0 active torsions:
REMARK  status: ('A' for Active; 'I' for Inactive)
ROOT
ATOM      1  C4' PXY d   1       1.648   0.807   3.269  0.00  0.00     0.077 C 
ATOM      2  C1' PXY d   1      -0.055  -4.346   1.279  0.00  0.00     0.077 C 
ATOM      3  C1  PXY d   1       0.379  -2.992   1.804  0.00  0.00    -0.082 A 
ATOM      4  C2  PXY d   1       1.503  -2.449   1.364  0.00  0.00     0.003 A 
ATOM      5  C3  PXY d   1       1.927  -1.240   1.852  0.00  0.00     0.003 A 
ATOM      6  C4  PXY d   1       1.166  -0.554   2.760  0.00  0.00    -0.082 A 
ATOM      7  C5  PXY d   1       0.012  -1.096   3.205  0.00  0.00     0.003 A 
ATOM      8  C6  PXY d   1      -0.380  -2.343   2.728  0.00  0.00     0.003 A 
ENDROOT
TORSDOF 0
ENDMDL
