MODEL 1
REMARK minimizedAffinity -3.57977295
REMARK minimizedRMSD -1
REMARK  0 active torsions:
REMARK  status: ('A' for Active; 'I' for Inactive)
ROOT
ATOM      1  C4' PXY d   1      -0.350   5.385   4.030  0.00  0.00     0.077 C 
ATOM      2  C1' PXY d   1      -6.000   4.620   4.983  0.00  0.00     0.077 C 
ATOM      3  C1  PXY d   1      -4.515   4.814   4.744  0.00  0.00    -0.082 A 
ATOM      4  C2  PXY d   1      -4.099   5.828   4.003  0.00  0.00     0.003 A 
ATOM      5  C3  PXY d   1      -2.762   6.000   3.750  0.00  0.00     0.003 A 
ATOM      6  C4  PXY d   1      -1.838   5.156   4.305  0.00  0.00    -0.082 A 
ATOM      7  C5  PXY d   1      -2.254   4.124   5.071  0.00  0.00     0.003 A 
ATOM      8  C6  PXY d   1      -3.618   3.943   5.281  0.00  0.00     0.003 A 
ENDROOT
TORSDOF 0
ENDMDL
