MODEL 1
REMARK minimizedAffinity 4.01890039
REMARK minimizedRMSD -1
REMARK  0 active torsions:
REMARK  status: ('A' for Active; 'I' for Inactive)
ROOT
ATOM      1  C4' PXY d   1       2.224  -0.759   3.916  0.00  0.00     0.077 C 
ATOM      2  C1' PXY d   1       1.502  -2.469  -1.558  0.00  0.00     0.077 C 
ATOM      3  C1  PXY d   1       1.704  -2.020  -0.125  0.00  0.00    -0.082 A 
ATOM      4  C2  PXY d   1       0.828  -2.372   0.801  0.00  0.00     0.003 A 
ATOM      5  C3  PXY d   1       0.978  -1.948   2.096  0.00  0.00     0.003 A 
ATOM      6  C4  PXY d   1       2.065  -1.198   2.458  0.00  0.00    -0.082 A 
ATOM      7  C5  PXY d   1       2.970  -0.843   1.521  0.00  0.00     0.003 A 
ATOM      8  C6  PXY d   1       2.777  -1.250   0.204  0.00  0.00     0.003 A 
ENDROOT
TORSDOF 0
ENDMDL
