MODEL 1
REMARK minimizedAffinity 3.23268414
REMARK minimizedRMSD -1
REMARK  0 active torsions:
REMARK  status: ('A' for Active; 'I' for Inactive)
ROOT
ATOM      1  C4' PXY d   1      -5.539   2.095  -6.000  0.00  0.00     0.077 C 
ATOM      2  C1' PXY d   1      -0.523   3.147  -3.326  0.00  0.00     0.077 C 
ATOM      3  C1  PXY d   1      -1.833   2.871  -4.039  0.00  0.00    -0.082 A 
ATOM      4  C2  PXY d   1      -2.975   3.198  -3.457  0.00  0.00     0.003 A 
ATOM      5  C3  PXY d   1      -4.170   2.927  -4.074  0.00  0.00     0.003 A 
ATOM      6  C4  PXY d   1      -4.193   2.363  -5.321  0.00  0.00    -0.082 A 
ATOM      7  C5  PXY d   1      -3.031   2.036  -5.926  0.00  0.00     0.003 A 
ATOM      8  C6  PXY d   1      -1.831   2.282  -5.265  0.00  0.00     0.003 A 
ENDROOT
TORSDOF 0
ENDMDL
