MODEL 1
REMARK minimizedAffinity 12.6832762
REMARK minimizedRMSD -1
REMARK  0 active torsions:
REMARK  status: ('A' for Active; 'I' for Inactive)
ROOT
ATOM      1  C4' PXY d   1      -0.391  -1.750   1.891  0.00  0.00     0.077 C 
ATOM      2  C1' PXY d   1       2.824  -5.404  -1.227  0.00  0.00     0.077 C 
ATOM      3  C1  PXY d   1       1.991  -4.437  -0.409  0.00  0.00    -0.082 A 
ATOM      4  C2  PXY d   1       0.984  -4.894   0.316  0.00  0.00     0.003 A 
ATOM      5  C3  PXY d   1       0.200  -4.030   1.037  0.00  0.00     0.003 A 
ATOM      6  C4  PXY d   1       0.483  -2.691   1.057  0.00  0.00    -0.082 A 
ATOM      7  C5  PXY d   1       1.516  -2.218   0.327  0.00  0.00     0.003 A 
ATOM      8  C6  PXY d   1       2.274  -3.107  -0.430  0.00  0.00     0.003 A 
ENDROOT
TORSDOF 0
ENDMDL
