MODEL 1
REMARK minimizedAffinity 7.33043766
REMARK minimizedRMSD -1
REMARK  0 active torsions:
REMARK  status: ('A' for Active; 'I' for Inactive)
ROOT
ATOM      1  C4' PXY d   1      -6.000   4.113  -5.996  0.00  0.00     0.077 C 
ATOM      2  C1' PXY d   1      -2.473   2.000  -1.933  0.00  0.00     0.077 C 
ATOM      3  C1  PXY d   1      -3.399   2.565  -2.992  0.00  0.00    -0.082 A 
ATOM      4  C2  PXY d   1      -4.103   1.743  -3.752  0.00  0.00     0.003 A 
ATOM      5  C3  PXY d   1      -4.921   2.236  -4.736  0.00  0.00     0.003 A 
ATOM      6  C4  PXY d   1      -5.060   3.587  -4.908  0.00  0.00    -0.082 A 
ATOM      7  C5  PXY d   1      -4.353   4.433  -4.129  0.00  0.00     0.003 A 
ATOM      8  C6  PXY d   1      -3.497   3.912  -3.164  0.00  0.00     0.003 A 
ENDROOT
TORSDOF 0
ENDMDL
