MODEL 1
REMARK minimizedAffinity 9.44987297
REMARK minimizedRMSD -1
REMARK  0 active torsions:
REMARK  status: ('A' for Active; 'I' for Inactive)
ROOT
ATOM      1  C4' PXY d   1       0.307   0.376   3.123  0.00  0.00     0.077 C 
ATOM      2  C1' PXY d   1       0.157  -4.932   0.839  0.00  0.00     0.077 C 
ATOM      3  C1  PXY d   1       0.210  -3.540   1.438  0.00  0.00    -0.082 A 
ATOM      4  C2  PXY d   1      -0.816  -3.093   2.144  0.00  0.00     0.003 A 
ATOM      5  C3  PXY d   1      -0.799  -1.825   2.666  0.00  0.00     0.003 A 
ATOM      6  C4  PXY d   1       0.302  -1.026   2.508  0.00  0.00    -0.082 A 
ATOM      7  C5  PXY d   1       1.357  -1.479   1.798  0.00  0.00     0.003 A 
ATOM      8  C6  PXY d   1       1.303  -2.754   1.242  0.00  0.00     0.003 A 
ENDROOT
TORSDOF 0
ENDMDL
