MODEL 1
REMARK minimizedAffinity 14.9542398
REMARK minimizedRMSD -1
REMARK  0 active torsions:
REMARK  status: ('A' for Active; 'I' for Inactive)
ROOT
ATOM      1  C4' PXY d   1       0.357  -2.626  -0.749  0.00  0.00     0.077 C 
ATOM      2  C1' PXY d   1       6.000  -1.639   0.027  0.00  0.00     0.077 C 
ATOM      3  C1  PXY d   1       4.519  -1.902  -0.164  0.00  0.00    -0.082 A 
ATOM      4  C2  PXY d   1       4.036  -2.060  -1.385  0.00  0.00     0.003 A 
ATOM      5  C3  PXY d   1       2.694  -2.267  -1.579  0.00  0.00     0.003 A 
ATOM      6  C4  PXY d   1       1.847  -2.367  -0.507  0.00  0.00    -0.082 A 
ATOM      7  C5  PXY d   1       2.335  -2.218   0.742  0.00  0.00     0.003 A 
ATOM      8  C6  PXY d   1       3.693  -1.967   0.915  0.00  0.00     0.003 A 
ENDROOT
TORSDOF 0
ENDMDL
