MODEL 1
REMARK minimizedAffinity 11.6272678
REMARK minimizedRMSD -1
REMARK  3 active torsions:
REMARK  status: ('A' for Active; 'I' for Inactive)
REMARK    1  A    between atoms: C3'_2  and  C2'_3 
REMARK    2  A    between atoms: C2'_3  and  C1'_4 
REMARK    3  A    between atoms: C1'_4  and  C1_5 
ROOT
ATOM      1  C1  N4B d   1       1.213  -1.102  -2.565  0.00  0.00    -0.075 A 
ATOM      2  C2  N4B d   1       0.819  -0.815  -3.891  0.00  0.00     0.002 A 
ATOM      3  C3  N4B d   1       0.661   0.488  -4.294  0.00  0.00     0.002 A 
ATOM      4  C4  N4B d   1       0.870   1.517  -3.387  0.00  0.00    -0.004 A 
ATOM      5  C5  N4B d   1       1.275   1.232  -2.115  0.00  0.00     0.002 A 
ATOM      6  C6  N4B d   1       1.442  -0.073  -1.698  0.00  0.00     0.002 A 
ENDROOT
BRANCH   1   7
ATOM      7  C1' N4B d   1       1.316  -2.513  -2.055  0.00  0.00     0.057 C 
BRANCH   7   8
ATOM      8  C2' N4B d   1       0.379  -3.407  -2.862  0.00  0.00     0.009 C 
BRANCH   8   9
ATOM      9  C3' N4B d   1      -0.733  -3.985  -2.004  0.00  0.00     0.004 C 
ATOM     10  C4' N4B d   1      -1.501  -2.933  -1.261  0.00  0.00     0.003 C 
ENDBRANCH   8   9
ENDBRANCH   7   8
ENDBRANCH   1   7
TORSDOF 3
ENDMDL
