MODEL 1
REMARK minimizedAffinity 12.0664978
REMARK minimizedRMSD -1
REMARK  3 active torsions:
REMARK  status: ('A' for Active; 'I' for Inactive)
REMARK    1  A    between atoms: C3'_2  and  C2'_3 
REMARK    2  A    between atoms: C2'_3  and  C1'_4 
REMARK    3  A    between atoms: C1'_4  and  C1_5 
ROOT
ATOM      1  C1  N4B d   1      -1.594   0.550   1.117  0.00  0.00    -0.075 A 
ATOM      2  C2  N4B d   1      -1.071   1.565   1.949  0.00  0.00     0.002 A 
ATOM      3  C3  N4B d   1      -1.415   1.608   3.278  0.00  0.00     0.002 A 
ATOM      4  C4  N4B d   1      -2.290   0.662   3.791  0.00  0.00    -0.004 A 
ATOM      5  C5  N4B d   1      -2.770  -0.329   2.987  0.00  0.00     0.002 A 
ATOM      6  C6  N4B d   1      -2.431  -0.387   1.650  0.00  0.00     0.002 A 
ENDROOT
BRANCH   1   7
ATOM      7  C1' N4B d   1      -1.316   0.513  -0.361  0.00  0.00     0.057 C 
BRANCH   7   8
ATOM      8  C2' N4B d   1       0.171   0.763  -0.597  0.00  0.00     0.009 C 
BRANCH   8   9
ATOM      9  C3' N4B d   1       0.529   0.706  -2.072  0.00  0.00     0.004 C 
ATOM     10  C4' N4B d   1       1.956   0.307  -2.307  0.00  0.00     0.003 C 
ENDBRANCH   8   9
ENDBRANCH   7   8
ENDBRANCH   1   7
TORSDOF 3
ENDMDL
