MODEL 1
REMARK minimizedAffinity 9.22252274
REMARK minimizedRMSD -1
REMARK  3 active torsions:
REMARK  status: ('A' for Active; 'I' for Inactive)
REMARK    1  A    between atoms: C3'_2  and  C2'_3 
REMARK    2  A    between atoms: C2'_3  and  C1'_4 
REMARK    3  A    between atoms: C1'_4  and  C1_5 
ROOT
ATOM      1  C1  N4B d   1      -1.664   1.276   3.183  0.00  0.00    -0.075 A 
ATOM      2  C2  N4B d   1      -2.488   0.176   3.508  0.00  0.00     0.002 A 
ATOM      3  C3  N4B d   1      -2.962  -0.644   2.514  0.00  0.00     0.002 A 
ATOM      4  C4  N4B d   1      -2.642  -0.375   1.192  0.00  0.00    -0.004 A 
ATOM      5  C5  N4B d   1      -1.825   0.674   0.888  0.00  0.00     0.002 A 
ATOM      6  C6  N4B d   1      -1.338   1.505   1.877  0.00  0.00     0.002 A 
ENDROOT
BRANCH   1   7
ATOM      7  C1' N4B d   1      -1.193   2.251   4.227  0.00  0.00     0.057 C 
BRANCH   7   8
ATOM      8  C2' N4B d   1      -1.783   3.627   3.930  0.00  0.00     0.009 C 
BRANCH   8   9
ATOM      9  C3' N4B d   1      -1.326   4.669   4.936  0.00  0.00     0.004 C 
ATOM     10  C4' N4B d   1      -2.373   4.983   5.963  0.00  0.00     0.003 C 
ENDBRANCH   8   9
ENDBRANCH   7   8
ENDBRANCH   1   7
TORSDOF 3
ENDMDL
