MODEL 1
REMARK minimizedAffinity 11.4472332
REMARK minimizedRMSD -1
REMARK  3 active torsions:
REMARK  status: ('A' for Active; 'I' for Inactive)
REMARK    1  A    between atoms: C3'_2  and  C2'_3 
REMARK    2  A    between atoms: C2'_3  and  C1'_4 
REMARK    3  A    between atoms: C1'_4  and  C1_5 
ROOT
ATOM      1  C1  N4B d   1       1.618  -3.155  -1.248  0.00  0.00    -0.075 A 
ATOM      2  C2  N4B d   1       0.720  -3.315  -2.326  0.00  0.00     0.002 A 
ATOM      3  C3  N4B d   1       0.557  -2.303  -3.240  0.00  0.00     0.002 A 
ATOM      4  C4  N4B d   1       1.264  -1.120  -3.086  0.00  0.00    -0.004 A 
ATOM      5  C5  N4B d   1       2.149  -0.983  -2.057  0.00  0.00     0.002 A 
ATOM      6  C6  N4B d   1       2.326  -1.993  -1.133  0.00  0.00     0.002 A 
ENDROOT
BRANCH   1   7
ATOM      7  C1' N4B d   1       1.766  -4.199  -0.176  0.00  0.00     0.057 C 
BRANCH   7   8
ATOM      8  C2' N4B d   1       0.385  -4.715   0.215  0.00  0.00     0.009 C 
BRANCH   8   9
ATOM      9  C3' N4B d   1       0.433  -5.581   1.462  0.00  0.00     0.004 C 
ATOM     10  C4' N4B d   1       1.816  -5.704   2.031  0.00  0.00     0.003 C 
ENDBRANCH   8   9
ENDBRANCH   7   8
ENDBRANCH   1   7
TORSDOF 3
ENDMDL
