MODEL 1
REMARK minimizedAffinity 8.82871056
REMARK minimizedRMSD -1
REMARK  3 active torsions:
REMARK  status: ('A' for Active; 'I' for Inactive)
REMARK    1  A    between atoms: C3'_2  and  C2'_3 
REMARK    2  A    between atoms: C2'_3  and  C1'_4 
REMARK    3  A    between atoms: C1'_4  and  C1_5 
ROOT
ATOM      1  C1  N4B d   1       2.148  -0.554  -1.702  0.00  0.00    -0.075 A 
ATOM      2  C2  N4B d   1       3.137  -0.994  -0.794  0.00  0.00     0.002 A 
ATOM      3  C3  N4B d   1       3.080  -2.266  -0.281  0.00  0.00     0.002 A 
ATOM      4  C4  N4B d   1       2.039  -3.106  -0.644  0.00  0.00    -0.004 A 
ATOM      5  C5  N4B d   1       1.102  -2.683  -1.541  0.00  0.00     0.002 A 
ATOM      6  C6  N4B d   1       1.149  -1.408  -2.068  0.00  0.00     0.002 A 
ENDROOT
BRANCH   1   7
ATOM      7  C1' N4B d   1       2.120   0.857  -2.223  0.00  0.00     0.057 C 
BRANCH   7   8
ATOM      8  C2' N4B d   1       0.806   1.092  -2.961  0.00  0.00     0.009 C 
BRANCH   8   9
ATOM      9  C3' N4B d   1       1.030   1.503  -4.406  0.00  0.00     0.004 C 
ATOM     10  C4' N4B d   1       0.721   0.402  -5.377  0.00  0.00     0.003 C 
ENDBRANCH   8   9
ENDBRANCH   7   8
ENDBRANCH   1   7
TORSDOF 3
ENDMDL
