MODEL 1
REMARK minimizedAffinity 10.2123728
REMARK minimizedRMSD -1
REMARK  3 active torsions:
REMARK  status: ('A' for Active; 'I' for Inactive)
REMARK    1  A    between atoms: C3'_2  and  C2'_3 
REMARK    2  A    between atoms: C2'_3  and  C1'_4 
REMARK    3  A    between atoms: C1'_4  and  C1_5 
ROOT
ATOM      1  C1  N4B d   1      -2.137  -0.708   0.283  0.00  0.00    -0.075 A 
ATOM      2  C2  N4B d   1      -2.793  -0.937   1.513  0.00  0.00     0.002 A 
ATOM      3  C3  N4B d   1      -2.491  -0.163   2.606  0.00  0.00     0.002 A 
ATOM      4  C4  N4B d   1      -1.527   0.828   2.500  0.00  0.00    -0.004 A 
ATOM      5  C5  N4B d   1      -0.916   1.059   1.302  0.00  0.00     0.002 A 
ATOM      6  C6  N4B d   1      -1.213   0.292   0.193  0.00  0.00     0.002 A 
ENDROOT
BRANCH   1   7
ATOM      7  C1' N4B d   1      -2.372  -1.584  -0.917  0.00  0.00     0.057 C 
BRANCH   7   8
ATOM      8  C2' N4B d   1      -1.031  -1.920  -1.562  0.00  0.00     0.009 C 
BRANCH   8   9
ATOM      9  C3' N4B d   1      -1.066  -3.258  -2.281  0.00  0.00     0.004 C 
ATOM     10  C4' N4B d   1       0.237  -3.596  -2.942  0.00  0.00     0.003 C 
ENDBRANCH   8   9
ENDBRANCH   7   8
ENDBRANCH   1   7
TORSDOF 3
ENDMDL
