MODEL 1
REMARK minimizedAffinity 8.38648701
REMARK minimizedRMSD -1
REMARK  3 active torsions:
REMARK  status: ('A' for Active; 'I' for Inactive)
REMARK    1  A    between atoms: C3'_2  and  C2'_3 
REMARK    2  A    between atoms: C2'_3  and  C1'_4 
REMARK    3  A    between atoms: C1'_4  and  C1_5 
ROOT
ATOM      1  C1  N4B d   1       4.077   5.374   0.431  0.00  0.00    -0.075 A 
ATOM      2  C2  N4B d   1       3.603   5.999   1.605  0.00  0.00     0.002 A 
ATOM      3  C3  N4B d   1       4.337   5.926   2.764  0.00  0.00     0.002 A 
ATOM      4  C4  N4B d   1       5.531   5.222   2.777  0.00  0.00    -0.004 A 
ATOM      5  C5  N4B d   1       5.994   4.643   1.632  0.00  0.00     0.002 A 
ATOM      6  C6  N4B d   1       5.269   4.711   0.459  0.00  0.00     0.002 A 
ENDROOT
BRANCH   1   7
ATOM      7  C1' N4B d   1       3.269   5.352  -0.838  0.00  0.00     0.057 C 
BRANCH   7   8
ATOM      8  C2' N4B d   1       3.495   4.024  -1.554  0.00  0.00     0.009 C 
BRANCH   8   9
ATOM      9  C3' N4B d   1       2.515   3.820  -2.697  0.00  0.00     0.004 C 
ATOM     10  C4' N4B d   1       1.995   2.415  -2.772  0.00  0.00     0.003 C 
ENDBRANCH   8   9
ENDBRANCH   7   8
ENDBRANCH   1   7
TORSDOF 3
ENDMDL
