MODEL 1
REMARK minimizedAffinity 9.8891592
REMARK minimizedRMSD -1
REMARK  3 active torsions:
REMARK  status: ('A' for Active; 'I' for Inactive)
REMARK    1  A    between atoms: C3'_2  and  C2'_3 
REMARK    2  A    between atoms: C2'_3  and  C1'_4 
REMARK    3  A    between atoms: C1'_4  and  C1_5 
ROOT
ATOM      1  C1  N4B d   1      -0.688   0.647  -1.109  0.00  0.00    -0.075 A 
ATOM      2  C2  N4B d   1       0.447  -0.143  -0.823  0.00  0.00     0.002 A 
ATOM      3  C3  N4B d   1       1.525  -0.128  -1.673  0.00  0.00     0.002 A 
ATOM      4  C4  N4B d   1       1.485   0.652  -2.819  0.00  0.00    -0.004 A 
ATOM      5  C5  N4B d   1       0.395   1.432  -3.074  0.00  0.00     0.002 A 
ATOM      6  C6  N4B d   1      -0.695   1.430  -2.227  0.00  0.00     0.002 A 
ENDROOT
BRANCH   1   7
ATOM      7  C1' N4B d   1      -1.925   0.598  -0.254  0.00  0.00     0.057 C 
BRANCH   7   8
ATOM      8  C2' N4B d   1      -1.639  -0.231   0.994  0.00  0.00     0.009 C 
BRANCH   8   9
ATOM      9  C3' N4B d   1      -1.547   0.633   2.241  0.00  0.00     0.004 C 
ATOM     10  C4' N4B d   1      -2.702   0.428   3.175  0.00  0.00     0.003 C 
ENDBRANCH   8   9
ENDBRANCH   7   8
ENDBRANCH   1   7
TORSDOF 3
ENDMDL
