MODEL 1
REMARK minimizedAffinity -3.03774595
REMARK minimizedRMSD -1
REMARK  0 active torsions:
REMARK  status: ('A' for Active; 'I' for Inactive)
ROOT
ATOM      1  C   UNL d   1       0.289   1.040  -1.933  0.00  0.00     0.077 C 
ATOM      2  C1  UNL d   1      -0.081   0.186  -0.757  0.00  0.00    -0.074 A 
ATOM      3  C2  UNL d   1      -0.837   0.706   0.300  0.00  0.00    -0.005 A 
ATOM      4  C3  UNL d   1      -1.181  -0.103   1.382  0.00  0.00     0.006 A 
ATOM      5  C4  UNL d   1      -0.775  -1.437   1.420  0.00  0.00    -0.005 A 
ATOM      6  C5  UNL d   1      -0.020  -1.975   0.373  0.00  0.00    -0.074 A 
ATOM      7  C6  UNL d   1       0.416  -3.410   0.393  0.00  0.00     0.077 C 
ATOM      8  C7  UNL d   1       0.316  -1.158  -0.715  0.00  0.00    -0.001 A 
ENDROOT
TORSDOF 0
ENDMDL
