MODEL 1
REMARK minimizedAffinity -3.0827632
REMARK minimizedRMSD -1
REMARK  0 active torsions:
REMARK  status: ('A' for Active; 'I' for Inactive)
ROOT
ATOM      1  C   UNL d   1      -3.680  -3.769   0.020  0.00  0.00     0.077 C 
ATOM      2  C1  UNL d   1      -2.302  -3.492  -0.503  0.00  0.00    -0.074 A 
ATOM      3  C2  UNL d   1      -2.002  -3.652  -1.859  0.00  0.00    -0.005 A 
ATOM      4  C3  UNL d   1      -0.718  -3.381  -2.333  0.00  0.00     0.006 A 
ATOM      5  C4  UNL d   1       0.277  -2.947  -1.456  0.00  0.00    -0.005 A 
ATOM      6  C5  UNL d   1      -0.005  -2.780  -0.096  0.00  0.00    -0.074 A 
ATOM      7  C6  UNL d   1       1.050  -2.305   0.858  0.00  0.00     0.077 C 
ATOM      8  C7  UNL d   1      -1.299  -3.048   0.370  0.00  0.00    -0.001 A 
ENDROOT
TORSDOF 0
ENDMDL
