MODEL 1
REMARK minimizedAffinity -3.29900432
REMARK minimizedRMSD -1
REMARK  0 active torsions:
REMARK  status: ('A' for Active; 'I' for Inactive)
ROOT
ATOM      1  C   UNL d   1       0.265   2.661   0.255  0.00  0.00     0.077 C 
ATOM      2  C1  UNL d   1       0.182   1.361  -0.488  0.00  0.00    -0.074 A 
ATOM      3  C2  UNL d   1      -0.202   1.324  -1.832  0.00  0.00    -0.005 A 
ATOM      4  C3  UNL d   1      -0.265   0.108  -2.513  0.00  0.00     0.006 A 
ATOM      5  C4  UNL d   1       0.055  -1.082  -1.857  0.00  0.00    -0.005 A 
ATOM      6  C5  UNL d   1       0.442  -1.064  -0.513  0.00  0.00    -0.074 A 
ATOM      7  C6  UNL d   1       0.798  -2.333   0.204  0.00  0.00     0.077 C 
ATOM      8  C7  UNL d   1       0.509   0.162   0.162  0.00  0.00    -0.001 A 
ENDROOT
TORSDOF 0
ENDMDL
