MODEL 1
REMARK minimizedAffinity -2.77400422
REMARK minimizedRMSD -1
REMARK  0 active torsions:
REMARK  status: ('A' for Active; 'I' for Inactive)
ROOT
ATOM      1  C   UNL d   1      -2.268  -0.795   2.859  0.00  0.00     0.077 C 
ATOM      2  C1  UNL d   1      -1.417  -0.896   1.629  0.00  0.00    -0.074 A 
ATOM      3  C2  UNL d   1      -1.186  -2.131   1.014  0.00  0.00    -0.005 A 
ATOM      4  C3  UNL d   1      -0.400  -2.208  -0.135  0.00  0.00     0.006 A 
ATOM      5  C4  UNL d   1       0.162  -1.054  -0.682  0.00  0.00    -0.005 A 
ATOM      6  C5  UNL d   1      -0.060   0.190  -0.082  0.00  0.00    -0.074 A 
ATOM      7  C6  UNL d   1       0.528   1.442  -0.662  0.00  0.00     0.077 C 
ATOM      8  C7  UNL d   1      -0.857   0.260   1.069  0.00  0.00    -0.001 A 
ENDROOT
TORSDOF 0
ENDMDL
