MODEL 1
REMARK minimizedAffinity -3.20153141
REMARK minimizedRMSD -1
REMARK  0 active torsions:
REMARK  status: ('A' for Active; 'I' for Inactive)
ROOT
ATOM      1  C   UNL d   1      -2.098   0.344   2.261  0.00  0.00     0.077 C 
ATOM      2  C1  UNL d   1      -1.286  -0.175   1.112  0.00  0.00    -0.074 A 
ATOM      3  C2  UNL d   1      -0.800   0.691   0.127  0.00  0.00    -0.005 A 
ATOM      4  C3  UNL d   1      -0.039   0.195  -0.932  0.00  0.00     0.006 A 
ATOM      5  C4  UNL d   1       0.245  -1.169  -1.015  0.00  0.00    -0.005 A 
ATOM      6  C5  UNL d   1      -0.232  -2.049  -0.039  0.00  0.00    -0.074 A 
ATOM      7  C6  UNL d   1       0.072  -3.516  -0.108  0.00  0.00     0.077 C 
ATOM      8  C7  UNL d   1      -0.991  -1.543   1.025  0.00  0.00    -0.001 A 
ENDROOT
TORSDOF 0
ENDMDL
