MODEL 1
REMARK minimizedAffinity -4.13204002
REMARK minimizedRMSD -1
REMARK  0 active torsions:
REMARK  status: ('A' for Active; 'I' for Inactive)
ROOT
ATOM      1  C   UNL d   1      -1.123  -2.263   1.663  0.00  0.00     0.077 C 
ATOM      2  C1  UNL d   1      -0.396  -1.375   0.698  0.00  0.00    -0.074 A 
ATOM      3  C2  UNL d   1       0.330  -1.915  -0.369  0.00  0.00    -0.005 A 
ATOM      4  C3  UNL d   1       0.993  -1.075  -1.264  0.00  0.00     0.006 A 
ATOM      5  C4  UNL d   1       0.937   0.309  -1.102  0.00  0.00    -0.005 A 
ATOM      6  C5  UNL d   1       0.215   0.867  -0.042  0.00  0.00    -0.074 A 
ATOM      7  C6  UNL d   1       0.137   2.354   0.141  0.00  0.00     0.077 C 
ATOM      8  C7  UNL d   1      -0.454   0.018   0.849  0.00  0.00    -0.001 A 
ENDROOT
TORSDOF 0
ENDMDL
