MODEL 1
REMARK minimizedAffinity -1.173069
REMARK minimizedRMSD -1
REMARK  0 active torsions:
REMARK  status: ('A' for Active; 'I' for Inactive)
ROOT
ATOM      1  C   UNL d   1      -0.004  -3.752   0.394  0.00  0.00     0.077 C 
ATOM      2  C1  UNL d   1      -0.061  -2.253   0.400  0.00  0.00    -0.074 A 
ATOM      3  C2  UNL d   1       0.869  -1.496  -0.321  0.00  0.00    -0.005 A 
ATOM      4  C3  UNL d   1       0.798  -0.103  -0.313  0.00  0.00     0.006 A 
ATOM      5  C4  UNL d   1      -0.201   0.546   0.413  0.00  0.00    -0.005 A 
ATOM      6  C5  UNL d   1      -1.140  -0.194   1.138  0.00  0.00    -0.074 A 
ATOM      7  C6  UNL d   1      -2.226   0.487   1.916  0.00  0.00     0.077 C 
ATOM      8  C7  UNL d   1      -1.066  -1.594   1.120  0.00  0.00    -0.001 A 
ENDROOT
TORSDOF 0
ENDMDL
