MODEL 1
REMARK minimizedAffinity -2.65147901
REMARK minimizedRMSD -1
REMARK  0 active torsions:
REMARK  status: ('A' for Active; 'I' for Inactive)
ROOT
ATOM      1  C   UNL d   1      -0.766  -3.418   0.772  0.00  0.00     0.077 C 
ATOM      2  C1  UNL d   1      -0.651  -1.963   0.427  0.00  0.00    -0.074 A 
ATOM      3  C2  UNL d   1      -1.202  -0.981   1.256  0.00  0.00    -0.005 A 
ATOM      4  C3  UNL d   1      -1.079   0.368   0.927  0.00  0.00     0.006 A 
ATOM      5  C4  UNL d   1      -0.405   0.750  -0.234  0.00  0.00    -0.005 A 
ATOM      6  C5  UNL d   1       0.154  -0.218  -1.075  0.00  0.00    -0.074 A 
ATOM      7  C6  UNL d   1       0.890   0.175  -2.321  0.00  0.00     0.077 C 
ATOM      8  C7  UNL d   1       0.032  -1.572  -0.734  0.00  0.00    -0.001 A 
ENDROOT
TORSDOF 0
ENDMDL
