MODEL 1
REMARK minimizedAffinity -3.90092993
REMARK minimizedRMSD -1
REMARK  0 active torsions:
REMARK  status: ('A' for Active; 'I' for Inactive)
ROOT
ATOM      1  C   UNL d   1      -0.050   0.806   0.757  0.00  0.00     0.077 C 
ATOM      2  C1  UNL d   1       0.037  -0.345  -0.201  0.00  0.00    -0.074 A 
ATOM      3  C2  UNL d   1       0.166  -0.127  -1.577  0.00  0.00    -0.005 A 
ATOM      4  C3  UNL d   1       0.256  -1.207  -2.454  0.00  0.00     0.006 A 
ATOM      5  C4  UNL d   1       0.217  -2.514  -1.966  0.00  0.00    -0.005 A 
ATOM      6  C5  UNL d   1       0.089  -2.751  -0.594  0.00  0.00    -0.074 A 
ATOM      7  C6  UNL d   1       0.056  -4.149  -0.052  0.00  0.00     0.077 C 
ATOM      8  C7  UNL d   1       0.007  -1.660   0.282  0.00  0.00    -0.001 A 
ENDROOT
TORSDOF 0
ENDMDL
