MODEL 1
REMARK minimizedAffinity -4.67009401
REMARK minimizedRMSD -1
REMARK  0 active torsions:
REMARK  status: ('A' for Active; 'I' for Inactive)
ROOT
ATOM      1  C   UNL d   1       0.409   0.493  -2.711  0.00  0.00     0.077 C 
ATOM      2  C1  UNL d   1       0.072  -0.047  -1.353  0.00  0.00    -0.074 A 
ATOM      3  C2  UNL d   1      -0.573   0.751  -0.402  0.00  0.00    -0.005 A 
ATOM      4  C3  UNL d   1      -0.889   0.231   0.854  0.00  0.00     0.006 A 
ATOM      5  C4  UNL d   1      -0.564  -1.088   1.171  0.00  0.00    -0.005 A 
ATOM      6  C5  UNL d   1       0.081  -1.900   0.233  0.00  0.00    -0.074 A 
ATOM      7  C6  UNL d   1       0.429  -3.324   0.554  0.00  0.00     0.077 C 
ATOM      8  C7  UNL d   1       0.389  -1.374  -1.029  0.00  0.00    -0.001 A 
ENDROOT
TORSDOF 0
ENDMDL
