MODEL 1
REMARK minimizedAffinity -2.06282043
REMARK minimizedRMSD -1
REMARK  0 active torsions:
REMARK  status: ('A' for Active; 'I' for Inactive)
ROOT
ATOM      1  C   UNL d   1      -0.032   1.793   0.008  0.00  0.00     0.077 C 
ATOM      2  C1  UNL d   1       0.277   0.493  -0.674  0.00  0.00    -0.074 A 
ATOM      3  C2  UNL d   1       0.596   0.453  -2.035  0.00  0.00    -0.005 A 
ATOM      4  C3  UNL d   1       0.891  -0.762  -2.652  0.00  0.00     0.006 A 
ATOM      5  C4  UNL d   1       0.869  -1.948  -1.917  0.00  0.00    -0.005 A 
ATOM      6  C5  UNL d   1       0.554  -1.927  -0.554  0.00  0.00    -0.074 A 
ATOM      7  C6  UNL d   1       0.536  -3.191   0.253  0.00  0.00     0.077 C 
ATOM      8  C7  UNL d   1       0.265  -0.701   0.061  0.00  0.00    -0.001 A 
ENDROOT
TORSDOF 0
ENDMDL
