MODEL 1
REMARK minimizedAffinity -4.98581982
REMARK minimizedRMSD -1
REMARK  0 active torsions:
REMARK  status: ('A' for Active; 'I' for Inactive)
ROOT
ATOM      1  C   UNL d   1      -1.283   0.331   0.756  0.00  0.00     0.077 C 
ATOM      2  C1  UNL d   1      -0.635  -0.990   0.470  0.00  0.00    -0.074 A 
ATOM      3  C2  UNL d   1      -0.609  -2.002   1.435  0.00  0.00    -0.005 A 
ATOM      4  C3  UNL d   1      -0.011  -3.230   1.152  0.00  0.00     0.006 A 
ATOM      5  C4  UNL d   1       0.566  -3.458  -0.098  0.00  0.00    -0.005 A 
ATOM      6  C5  UNL d   1       0.549  -2.459  -1.076  0.00  0.00    -0.074 A 
ATOM      7  C6  UNL d   1       1.156  -2.691  -2.428  0.00  0.00     0.077 C 
ATOM      8  C7  UNL d   1      -0.060  -1.230  -0.786  0.00  0.00    -0.001 A 
ENDROOT
TORSDOF 0
ENDMDL
