MODEL 1
REMARK minimizedAffinity -3.45766997
REMARK minimizedRMSD -1
REMARK  0 active torsions:
REMARK  status: ('A' for Active; 'I' for Inactive)
ROOT
ATOM      1  C   UNL d   1      -0.005   2.159   0.347  0.00  0.00     0.077 C 
ATOM      2  C1  UNL d   1       0.062   0.899  -0.464  0.00  0.00    -0.074 A 
ATOM      3  C2  UNL d   1       0.082   0.944  -1.861  0.00  0.00    -0.005 A 
ATOM      4  C3  UNL d   1       0.155  -0.235  -2.602  0.00  0.00     0.006 A 
ATOM      5  C4  UNL d   1       0.208  -1.470  -1.954  0.00  0.00    -0.005 A 
ATOM      6  C5  UNL d   1       0.190  -1.535  -0.557  0.00  0.00    -0.074 A 
ATOM      7  C6  UNL d   1       0.256  -2.853   0.155  0.00  0.00     0.077 C 
ATOM      8  C7  UNL d   1       0.124  -0.345   0.180  0.00  0.00    -0.001 A 
ENDROOT
TORSDOF 0
ENDMDL
