MODEL 1
REMARK minimizedAffinity -2.55412984
REMARK minimizedRMSD -1
REMARK  0 active torsions:
REMARK  status: ('A' for Active; 'I' for Inactive)
ROOT
ATOM      1  C   UNL d   1      -1.482  -1.934   1.547  0.00  0.00     0.077 C 
ATOM      2  C1  UNL d   1      -0.754  -1.104   0.532  0.00  0.00    -0.074 A 
ATOM      3  C2  UNL d   1      -0.773  -1.445  -0.824  0.00  0.00    -0.005 A 
ATOM      4  C3  UNL d   1      -0.099  -0.658  -1.757  0.00  0.00     0.006 A 
ATOM      5  C4  UNL d   1       0.600   0.477  -1.345  0.00  0.00    -0.005 A 
ATOM      6  C5  UNL d   1       0.630   0.835   0.007  0.00  0.00    -0.074 A 
ATOM      7  C6  UNL d   1       1.368   2.057   0.466  0.00  0.00     0.077 C 
ATOM      8  C7  UNL d   1      -0.056   0.042   0.938  0.00  0.00    -0.001 A 
ENDROOT
TORSDOF 0
ENDMDL
