MODEL 1
REMARK minimizedAffinity -1.27363598
REMARK minimizedRMSD -1
REMARK  0 active torsions:
REMARK  status: ('A' for Active; 'I' for Inactive)
ROOT
ATOM      1  C   UNL d   1      -0.704  -2.148   0.125  0.00  0.00     0.023 A 
ATOM      2  C1  UNL d   1      -0.344  -2.985  -0.931  0.00  0.00     0.003 A 
ATOM      3  C2  UNL d   1       0.921  -3.576  -0.955  0.00  0.00     0.048 A 
ATOM      4  C3  UNL d   1       1.820  -3.328   0.082  0.00  0.00     0.023 A 
ATOM      5  C4  UNL d   1       1.464  -2.491   1.141  0.00  0.00     0.048 A 
ATOM      6  C5  UNL d   1       0.199  -1.901   1.160  0.00  0.00     0.003 A 
ATOM      7  I   UNL d   1       3.703  -4.207   0.049  0.00  0.00    -0.146 I 
ENDROOT
TORSDOF 0
ENDMDL
