MODEL 1
REMARK minimizedAffinity -2.25617528
REMARK minimizedRMSD -1
REMARK  0 active torsions:
REMARK  status: ('A' for Active; 'I' for Inactive)
ROOT
ATOM      1  C   UNL d   1       0.314  -1.168   0.583  0.00  0.00     0.023 A 
ATOM      2  C1  UNL d   1       0.102  -2.544   0.499  0.00  0.00     0.003 A 
ATOM      3  C2  UNL d   1       1.151  -3.392   0.139  0.00  0.00     0.048 A 
ATOM      4  C3  UNL d   1       2.410  -2.858  -0.134  0.00  0.00     0.023 A 
ATOM      5  C4  UNL d   1       2.627  -1.482  -0.049  0.00  0.00     0.048 A 
ATOM      6  C5  UNL d   1       1.575  -0.637   0.310  0.00  0.00     0.003 A 
ATOM      7  I   UNL d   1       3.973  -4.119  -0.669  0.00  0.00    -0.146 I 
ENDROOT
TORSDOF 0
ENDMDL
