MODEL 1
REMARK minimizedAffinity -3.36716294
REMARK minimizedRMSD -1
REMARK  0 active torsions:
REMARK  status: ('A' for Active; 'I' for Inactive)
ROOT
ATOM      1  C   UNL d   1      -0.517  -1.010   0.878  0.00  0.00     0.023 A 
ATOM      2  C1  UNL d   1      -0.717  -2.385   1.003  0.00  0.00     0.003 A 
ATOM      3  C2  UNL d   1       0.305  -3.274   0.662  0.00  0.00     0.048 A 
ATOM      4  C3  UNL d   1       1.524  -2.781   0.199  0.00  0.00     0.023 A 
ATOM      5  C4  UNL d   1       1.729  -1.406   0.074  0.00  0.00     0.048 A 
ATOM      6  C5  UNL d   1       0.705  -0.522   0.415  0.00  0.00     0.003 A 
ATOM      7  I   UNL d   1       3.046  -4.103  -0.309  0.00  0.00    -0.146 I 
ENDROOT
TORSDOF 0
ENDMDL
