MODEL 1
REMARK minimizedAffinity -0.520913243
REMARK minimizedRMSD -1
REMARK  0 active torsions:
REMARK  status: ('A' for Active; 'I' for Inactive)
ROOT
ATOM      1  C   UNL d   1       2.387  -2.594   0.081  0.00  0.00     0.023 A 
ATOM      2  C1  UNL d   1       2.429  -1.257   0.477  0.00  0.00     0.003 A 
ATOM      3  C2  UNL d   1       1.254  -0.602   0.853  0.00  0.00     0.048 A 
ATOM      4  C3  UNL d   1       0.041  -1.289   0.830  0.00  0.00     0.023 A 
ATOM      5  C4  UNL d   1      -0.006  -2.627   0.435  0.00  0.00     0.048 A 
ATOM      6  C5  UNL d   1       1.171  -3.278   0.060  0.00  0.00     0.003 A 
ATOM      7  I   UNL d   1      -1.708  -0.316   1.389  0.00  0.00    -0.146 I 
ENDROOT
TORSDOF 0
ENDMDL
