MODEL 1
REMARK minimizedAffinity -1.84232211
REMARK minimizedRMSD -1
REMARK  0 active torsions:
REMARK  status: ('A' for Active; 'I' for Inactive)
ROOT
ATOM      1  C   UNL d   1      -0.699  -2.782   0.474  0.00  0.00     0.023 A 
ATOM      2  C1  UNL d   1      -0.973  -1.479   0.891  0.00  0.00     0.003 A 
ATOM      3  C2  UNL d   1       0.058  -0.541   0.978  0.00  0.00     0.048 A 
ATOM      4  C3  UNL d   1       1.360  -0.913   0.645  0.00  0.00     0.023 A 
ATOM      5  C4  UNL d   1       1.639  -2.215   0.227  0.00  0.00     0.048 A 
ATOM      6  C5  UNL d   1       0.605  -3.149   0.142  0.00  0.00     0.003 A 
ATOM      7  I   UNL d   1       2.896   0.482   0.774  0.00  0.00    -0.146 I 
ENDROOT
TORSDOF 0
ENDMDL
