MODEL 1
REMARK minimizedAffinity -1.922858
REMARK minimizedRMSD -1
REMARK  0 active torsions:
REMARK  status: ('A' for Active; 'I' for Inactive)
ROOT
ATOM      1  C   UNL d   1       2.748  -3.525  -0.691  0.00  0.00     0.023 A 
ATOM      2  C1  UNL d   1       1.605  -3.879   0.026  0.00  0.00     0.003 A 
ATOM      3  C2  UNL d   1       0.815  -2.889   0.614  0.00  0.00     0.048 A 
ATOM      4  C3  UNL d   1       1.172  -1.548   0.481  0.00  0.00     0.023 A 
ATOM      5  C4  UNL d   1       2.315  -1.190  -0.236  0.00  0.00     0.048 A 
ATOM      6  C5  UNL d   1       3.103  -2.182  -0.822  0.00  0.00     0.003 A 
ATOM      7  I   UNL d   1      -0.003  -0.074   1.356  0.00  0.00    -0.146 I 
ENDROOT
TORSDOF 0
ENDMDL
