MODEL 1
REMARK minimizedAffinity -1.85608232
REMARK minimizedRMSD -1
REMARK  0 active torsions:
REMARK  status: ('A' for Active; 'I' for Inactive)
ROOT
ATOM      1  C   UNL d   1       0.785  -1.552   0.402  0.00  0.00     0.023 A 
ATOM      2  C1  UNL d   1       0.508  -2.893   0.137  0.00  0.00     0.003 A 
ATOM      3  C2  UNL d   1       1.554  -3.803  -0.030  0.00  0.00     0.048 A 
ATOM      4  C3  UNL d   1       2.874  -3.365   0.069  0.00  0.00     0.023 A 
ATOM      5  C4  UNL d   1       3.156  -2.024   0.335  0.00  0.00     0.048 A 
ATOM      6  C5  UNL d   1       2.107  -1.118   0.500  0.00  0.00     0.003 A 
ATOM      7  I   UNL d   1       4.433  -4.717  -0.180  0.00  0.00    -0.146 I 
ENDROOT
TORSDOF 0
ENDMDL
