MODEL 1
REMARK minimizedAffinity 5.12845469
REMARK minimizedRMSD -1
REMARK  0 active torsions:
REMARK  status: ('A' for Active; 'I' for Inactive)
ROOT
ATOM      1  C   UNL d   1      -1.591  -1.768   1.144  0.00  0.00     0.023 A 
ATOM      2  C1  UNL d   1      -0.620  -2.407   0.373  0.00  0.00     0.003 A 
ATOM      3  C2  UNL d   1       0.716  -2.012   0.462  0.00  0.00     0.048 A 
ATOM      4  C3  UNL d   1       1.075  -0.977   1.325  0.00  0.00     0.023 A 
ATOM      5  C4  UNL d   1       0.107  -0.335   2.099  0.00  0.00     0.048 A 
ATOM      6  C5  UNL d   1      -1.228  -0.733   2.006  0.00  0.00     0.003 A 
ATOM      7  I   UNL d   1       3.063  -0.387   1.460  0.00  0.00    -0.146 I 
ENDROOT
TORSDOF 0
ENDMDL
