MODEL 1
REMARK minimizedAffinity 1.41244864
REMARK minimizedRMSD -1
REMARK  0 active torsions:
REMARK  status: ('A' for Active; 'I' for Inactive)
ROOT
ATOM      1  C   UNL d   1       0.401  -0.255   1.785  0.00  0.00     0.023 A 
ATOM      2  C1  UNL d   1       1.617  -0.407   1.117  0.00  0.00     0.003 A 
ATOM      3  C2  UNL d   1       1.718  -1.290   0.040  0.00  0.00     0.048 A 
ATOM      4  C3  UNL d   1       0.599  -2.018  -0.364  0.00  0.00     0.023 A 
ATOM      5  C4  UNL d   1      -0.619  -1.869   0.300  0.00  0.00     0.048 A 
ATOM      6  C5  UNL d   1      -0.715  -0.985   1.377  0.00  0.00     0.003 A 
ATOM      7  I   UNL d   1       0.747  -3.334  -1.966  0.00  0.00    -0.146 I 
ENDROOT
TORSDOF 0
ENDMDL
