MODEL 1
REMARK minimizedAffinity 4.49156857
REMARK minimizedRMSD -1
REMARK  0 active torsions:
REMARK  status: ('A' for Active; 'I' for Inactive)
ROOT
ATOM      1  C   UNL d   1      -0.301  -1.801   0.308  0.00  0.00     0.023 A 
ATOM      2  C1  UNL d   1       0.929  -1.328   0.764  0.00  0.00     0.003 A 
ATOM      3  C2  UNL d   1       2.078  -2.108   0.615  0.00  0.00     0.048 A 
ATOM      4  C3  UNL d   1       1.989  -3.360   0.007  0.00  0.00     0.023 A 
ATOM      5  C4  UNL d   1       0.760  -3.837  -0.452  0.00  0.00     0.048 A 
ATOM      6  C5  UNL d   1      -0.386  -3.054  -0.300  0.00  0.00     0.003 A 
ATOM      7  I   UNL d   1       3.697  -4.523  -0.217  0.00  0.00    -0.146 I 
ENDROOT
TORSDOF 0
ENDMDL
