MODEL 1
REMARK minimizedAffinity 1.62382519
REMARK minimizedRMSD -1
REMARK  0 active torsions:
REMARK  status: ('A' for Active; 'I' for Inactive)
ROOT
ATOM      1  C   UNL d   1       5.929  -5.251   0.115  0.00  0.00     0.023 A 
ATOM      2  C1  UNL d   1       5.727  -3.961  -0.374  0.00  0.00     0.003 A 
ATOM      3  C2  UNL d   1       4.441  -3.416  -0.402  0.00  0.00     0.048 A 
ATOM      4  C3  UNL d   1       3.362  -4.168   0.063  0.00  0.00     0.023 A 
ATOM      5  C4  UNL d   1       3.560  -5.459   0.555  0.00  0.00     0.048 A 
ATOM      6  C5  UNL d   1       4.847  -5.999   0.579  0.00  0.00     0.003 A 
ATOM      7  I   UNL d   1       1.448  -3.360   0.024  0.00  0.00    -0.146 I 
ENDROOT
TORSDOF 0
ENDMDL
