MODEL 1
REMARK minimizedAffinity 0.00580102531
REMARK minimizedRMSD -1
REMARK  0 active torsions:
REMARK  status: ('A' for Active; 'I' for Inactive)
ROOT
ATOM      1  C   UNL d   1      -0.084  -0.873   0.777  0.00  0.00     0.023 A 
ATOM      2  C1  UNL d   1      -0.383  -2.225   0.609  0.00  0.00     0.003 A 
ATOM      3  C2  UNL d   1       0.632  -3.135   0.309  0.00  0.00     0.048 A 
ATOM      4  C3  UNL d   1       1.946  -2.686   0.178  0.00  0.00     0.023 A 
ATOM      5  C4  UNL d   1       2.251  -1.334   0.346  0.00  0.00     0.048 A 
ATOM      6  C5  UNL d   1       1.232  -0.428   0.645  0.00  0.00     0.003 A 
ATOM      7  I   UNL d   1       3.460  -4.038  -0.269  0.00  0.00    -0.146 I 
ENDROOT
TORSDOF 0
ENDMDL
