MODEL 1
REMARK minimizedAffinity 1.39994347
REMARK minimizedRMSD -1
REMARK  0 active torsions:
REMARK  status: ('A' for Active; 'I' for Inactive)
ROOT
ATOM      1  C   UNL d   1       1.833  -3.259   0.143  0.00  0.00     0.023 A 
ATOM      2  C1  UNL d   1       2.270  -1.963   0.420  0.00  0.00     0.003 A 
ATOM      3  C2  UNL d   1       1.361  -0.997   0.857  0.00  0.00     0.048 A 
ATOM      4  C3  UNL d   1       0.018  -1.334   1.017  0.00  0.00     0.023 A 
ATOM      5  C4  UNL d   1      -0.424  -2.629   0.743  0.00  0.00     0.048 A 
ATOM      6  C5  UNL d   1       0.488  -3.592   0.305  0.00  0.00     0.003 A 
ATOM      7  I   UNL d   1      -1.336   0.102   1.669  0.00  0.00    -0.146 I 
ENDROOT
TORSDOF 0
ENDMDL
