MODEL 1
REMARK minimizedAffinity 1.13488376
REMARK minimizedRMSD -1
REMARK  0 active torsions:
REMARK  status: ('A' for Active; 'I' for Inactive)
ROOT
ATOM      1  C   UNL d   1       3.308  -2.756  -0.026  0.00  0.00     0.023 A 
ATOM      2  C1  UNL d   1       2.141  -3.514  -0.114  0.00  0.00     0.003 A 
ATOM      3  C2  UNL d   1       0.911  -2.946   0.226  0.00  0.00     0.048 A 
ATOM      4  C3  UNL d   1       0.856  -1.620   0.653  0.00  0.00     0.023 A 
ATOM      5  C4  UNL d   1       2.022  -0.857   0.742  0.00  0.00     0.048 A 
ATOM      6  C5  UNL d   1       3.249  -1.429   0.401  0.00  0.00     0.003 A 
ATOM      7  I   UNL d   1      -0.973  -0.773   1.160  0.00  0.00    -0.146 I 
ENDROOT
TORSDOF 0
ENDMDL
