MODEL 1
REMARK minimizedAffinity 1.7024591
REMARK minimizedRMSD -1
REMARK  0 active torsions:
REMARK  status: ('A' for Active; 'I' for Inactive)
ROOT
ATOM      1  C   UNL d   1       1.483  -2.418   0.368  0.00  0.00     0.023 A 
ATOM      2  C1  UNL d   1       2.844  -2.113   0.367  0.00  0.00     0.003 A 
ATOM      3  C2  UNL d   1       3.791  -3.140   0.366  0.00  0.00     0.048 A 
ATOM      4  C3  UNL d   1       3.369  -4.469   0.366  0.00  0.00     0.023 A 
ATOM      5  C4  UNL d   1       2.008  -4.779   0.366  0.00  0.00     0.048 A 
ATOM      6  C5  UNL d   1       1.065  -3.749   0.368  0.00  0.00     0.003 A 
ATOM      7  I   UNL d   1       4.776  -5.999   0.365  0.00  0.00    -0.146 I 
ENDROOT
TORSDOF 0
ENDMDL
