MODEL 1
REMARK minimizedAffinity 1.20959687
REMARK minimizedRMSD -1
REMARK  0 active torsions:
REMARK  status: ('A' for Active; 'I' for Inactive)
ROOT
ATOM      1  C   UNL d   1       2.007  -2.148   0.430  0.00  0.00     0.023 A 
ATOM      2  C1  UNL d   1       1.477  -3.437   0.447  0.00  0.00     0.003 A 
ATOM      3  C2  UNL d   1       2.327  -4.544   0.400  0.00  0.00     0.048 A 
ATOM      4  C3  UNL d   1       3.707  -4.354   0.337  0.00  0.00     0.023 A 
ATOM      5  C4  UNL d   1       4.242  -3.065   0.321  0.00  0.00     0.048 A 
ATOM      6  C5  UNL d   1       3.389  -1.962   0.367  0.00  0.00     0.003 A 
ATOM      7  I   UNL d   1       4.974  -6.000   0.267  0.00  0.00    -0.146 I 
ENDROOT
TORSDOF 0
ENDMDL
