MODEL 1
REMARK minimizedAffinity 1.25462306
REMARK minimizedRMSD -1
REMARK  0 active torsions:
REMARK  status: ('A' for Active; 'I' for Inactive)
ROOT
ATOM      1  C   UNL d   1      -1.053  -2.670  -1.174  0.00  0.00     0.078 C 
ATOM      2  C1  UNL d   1      -0.077  -1.625  -0.722  0.00  0.00    -0.077 A 
ATOM      3  C2  UNL d   1       0.182  -0.494  -1.506  0.00  0.00    -0.001 A 
ATOM      4  C3  UNL d   1       1.100   0.467  -1.077  0.00  0.00     0.003 A 
ATOM      5  C4  UNL d   1       1.767   0.305   0.136  0.00  0.00    -0.005 A 
ATOM      6  C5  UNL d   1       1.517  -0.818   0.921  0.00  0.00     0.003 A 
ATOM      7  C6  UNL d   1       0.599  -1.780   0.494  0.00  0.00    -0.001 A 
ENDROOT
TORSDOF 0
ENDMDL
