MODEL 1
REMARK minimizedAffinity -2.19900489
REMARK minimizedRMSD -1
REMARK  0 active torsions:
REMARK  status: ('A' for Active; 'I' for Inactive)
ROOT
ATOM      1  C   UNL d   1       1.385  -0.724   0.678  0.00  0.00     0.078 C 
ATOM      2  C1  UNL d   1       0.238  -1.089  -0.215  0.00  0.00    -0.077 A 
ATOM      3  C2  UNL d   1      -0.042  -2.427  -0.518  0.00  0.00    -0.001 A 
ATOM      4  C3  UNL d   1      -1.108  -2.752  -1.359  0.00  0.00     0.003 A 
ATOM      5  C4  UNL d   1      -1.901  -1.745  -1.905  0.00  0.00    -0.005 A 
ATOM      6  C5  UNL d   1      -1.629  -0.410  -1.610  0.00  0.00     0.003 A 
ATOM      7  C6  UNL d   1      -0.564  -0.083  -0.770  0.00  0.00    -0.001 A 
ENDROOT
TORSDOF 0
ENDMDL
