MODEL 1
REMARK minimizedAffinity -0.667830527
REMARK minimizedRMSD -1
REMARK  0 active torsions:
REMARK  status: ('A' for Active; 'I' for Inactive)
ROOT
ATOM      1  C   UNL d   1       0.063   0.541   3.765  0.00  0.00     0.078 C 
ATOM      2  C1  UNL d   1       0.738   0.283   2.451  0.00  0.00    -0.077 A 
ATOM      3  C2  UNL d   1       0.236  -0.671   1.557  0.00  0.00    -0.001 A 
ATOM      4  C3  UNL d   1       0.881  -0.908   0.342  0.00  0.00     0.003 A 
ATOM      5  C4  UNL d   1       2.032  -0.196   0.010  0.00  0.00    -0.005 A 
ATOM      6  C5  UNL d   1       2.540   0.754   0.894  0.00  0.00     0.003 A 
ATOM      7  C6  UNL d   1       1.897   0.992   2.110  0.00  0.00    -0.001 A 
ENDROOT
TORSDOF 0
ENDMDL
