MODEL 1
REMARK minimizedAffinity 0.716705263
REMARK minimizedRMSD -1
REMARK  0 active torsions:
REMARK  status: ('A' for Active; 'I' for Inactive)
ROOT
ATOM      1  C   UNL d   1       0.134  -1.200   0.001  0.00  0.00     0.078 C 
ATOM      2  C1  UNL d   1       1.056  -0.081   0.382  0.00  0.00    -0.077 A 
ATOM      3  C2  UNL d   1       0.761   0.761   1.462  0.00  0.00    -0.001 A 
ATOM      4  C3  UNL d   1       1.623   1.805   1.799  0.00  0.00     0.003 A 
ATOM      5  C4  UNL d   1       2.786   2.018   1.062  0.00  0.00    -0.005 A 
ATOM      6  C5  UNL d   1       3.087   1.187  -0.015  0.00  0.00     0.003 A 
ATOM      7  C6  UNL d   1       2.226   0.142  -0.354  0.00  0.00    -0.001 A 
ENDROOT
TORSDOF 0
ENDMDL
