MODEL 1
REMARK minimizedAffinity -0.517755866
REMARK minimizedRMSD -1
REMARK  0 active torsions:
REMARK  status: ('A' for Active; 'I' for Inactive)
ROOT
ATOM      1  C   UNL d   1      -1.092  -0.781  -0.481  0.00  0.00     0.078 C 
ATOM      2  C1  UNL d   1       0.219  -0.335   0.093  0.00  0.00    -0.077 A 
ATOM      3  C2  UNL d   1       1.376  -1.109  -0.063  0.00  0.00    -0.001 A 
ATOM      4  C3  UNL d   1       2.588  -0.686   0.486  0.00  0.00     0.003 A 
ATOM      5  C4  UNL d   1       2.655   0.512   1.194  0.00  0.00    -0.005 A 
ATOM      6  C5  UNL d   1       1.509   1.288   1.356  0.00  0.00     0.003 A 
ATOM      7  C6  UNL d   1       0.296   0.866   0.809  0.00  0.00    -0.001 A 
ENDROOT
TORSDOF 0
ENDMDL
