MODEL 1
REMARK minimizedAffinity 5.16289282
REMARK minimizedRMSD -1
REMARK  0 active torsions:
REMARK  status: ('A' for Active; 'I' for Inactive)
ROOT
ATOM      1  C   UNL d   1       3.705  -1.006  -0.387  0.00  0.00     0.078 C 
ATOM      2  C1  UNL d   1       2.832   0.004   0.295  0.00  0.00    -0.077 A 
ATOM      3  C2  UNL d   1       3.385   1.018   1.087  0.00  0.00    -0.001 A 
ATOM      4  C3  UNL d   1       2.559   1.946   1.723  0.00  0.00     0.003 A 
ATOM      5  C4  UNL d   1       1.175   1.868   1.577  0.00  0.00    -0.005 A 
ATOM      6  C5  UNL d   1       0.616   0.861   0.793  0.00  0.00     0.003 A 
ATOM      7  C6  UNL d   1       1.440  -0.068   0.156  0.00  0.00    -0.001 A 
ENDROOT
TORSDOF 0
ENDMDL
