MODEL 1
REMARK minimizedAffinity -0.197827324
REMARK minimizedRMSD -1
REMARK  0 active torsions:
REMARK  status: ('A' for Active; 'I' for Inactive)
ROOT
ATOM      1  C   UNL d   1       0.528  -1.215  -0.114  0.00  0.00     0.078 C 
ATOM      2  C1  UNL d   1       1.127  -0.215   0.829  0.00  0.00    -0.077 A 
ATOM      3  C2  UNL d   1       2.171   0.624   0.422  0.00  0.00    -0.001 A 
ATOM      4  C3  UNL d   1       2.726   1.544   1.313  0.00  0.00     0.003 A 
ATOM      5  C4  UNL d   1       2.244   1.633   2.618  0.00  0.00    -0.005 A 
ATOM      6  C5  UNL d   1       1.206   0.800   3.032  0.00  0.00     0.003 A 
ATOM      7  C6  UNL d   1       0.650  -0.120   2.142  0.00  0.00    -0.001 A 
ENDROOT
TORSDOF 0
ENDMDL
