MODEL 1
REMARK minimizedAffinity 11.9812555
REMARK minimizedRMSD -1
REMARK  0 active torsions:
REMARK  status: ('A' for Active; 'I' for Inactive)
ROOT
ATOM      1  C   UNL d   1       3.339  -0.913  -1.257  0.00  0.00     0.078 C 
ATOM      2  C1  UNL d   1       3.149  -0.085  -2.493  0.00  0.00    -0.077 A 
ATOM      3  C2  UNL d   1       2.334  -0.531  -3.541  0.00  0.00    -0.001 A 
ATOM      4  C3  UNL d   1       2.174   0.246  -4.689  0.00  0.00     0.003 A 
ATOM      5  C4  UNL d   1       2.827   1.472  -4.802  0.00  0.00    -0.005 A 
ATOM      6  C5  UNL d   1       3.642   1.922  -3.765  0.00  0.00     0.003 A 
ATOM      7  C6  UNL d   1       3.803   1.147  -2.615  0.00  0.00    -0.001 A 
ENDROOT
TORSDOF 0
ENDMDL
