MODEL 1
REMARK minimizedAffinity 4.26257515
REMARK minimizedRMSD -1
REMARK  0 active torsions:
REMARK  status: ('A' for Active; 'I' for Inactive)
ROOT
ATOM      1  C   UNL d   1      -3.442  -4.289  -5.931  0.00  0.00     0.078 C 
ATOM      2  C1  UNL d   1      -1.989  -4.556  -5.678  0.00  0.00    -0.077 A 
ATOM      3  C2  UNL d   1      -1.566  -5.763  -5.108  0.00  0.00    -0.001 A 
ATOM      4  C3  UNL d   1      -0.211  -5.995  -4.869  0.00  0.00     0.003 A 
ATOM      5  C4  UNL d   1       0.733  -5.023  -5.195  0.00  0.00    -0.005 A 
ATOM      6  C5  UNL d   1       0.322  -3.817  -5.760  0.00  0.00     0.003 A 
ATOM      7  C6  UNL d   1      -1.033  -3.584  -6.000  0.00  0.00    -0.001 A 
ENDROOT
TORSDOF 0
ENDMDL
