MODEL 1
REMARK minimizedAffinity 2.72076726
REMARK minimizedRMSD -1
REMARK  0 active torsions:
REMARK  status: ('A' for Active; 'I' for Inactive)
ROOT
ATOM      1  C   UNL d   1       0.769  -1.302  -0.218  0.00  0.00     0.078 C 
ATOM      2  C1  UNL d   1       1.318  -0.275   0.726  0.00  0.00    -0.077 A 
ATOM      3  C2  UNL d   1       0.915  -0.239   2.067  0.00  0.00    -0.001 A 
ATOM      4  C3  UNL d   1       1.426   0.729   2.932  0.00  0.00     0.003 A 
ATOM      5  C4  UNL d   1       2.343   1.669   2.467  0.00  0.00    -0.005 A 
ATOM      6  C5  UNL d   1       2.749   1.643   1.134  0.00  0.00     0.003 A 
ATOM      7  C6  UNL d   1       2.238   0.676   0.267  0.00  0.00    -0.001 A 
ENDROOT
TORSDOF 0
ENDMDL
