MODEL 1
REMARK minimizedAffinity -1.57003248
REMARK minimizedRMSD -1
REMARK  0 active torsions:
REMARK  status: ('A' for Active; 'I' for Inactive)
ROOT
ATOM      1  C   UNL d   1       0.865  -0.906  -0.916  0.00  0.00     0.172 C 
ATOM      2  N   UNL d   1       0.155  -0.430   0.247  0.00  0.00    -0.070 N 
ATOM      3  C1  UNL d   1      -0.697   0.642   0.279  0.00  0.00    -0.004 A 
ATOM      4  C2  UNL d   1      -1.169   0.769   1.568  0.00  0.00    -0.047 A 
ATOM      5  C3  UNL d   1      -0.580  -0.263   2.337  0.00  0.00    -0.047 A 
ATOM      6  C4  UNL d   1       0.235  -0.990   1.495  0.00  0.00    -0.004 A 
ENDROOT
TORSDOF 0
ENDMDL
