MODEL 1
REMARK minimizedAffinity -3.79437613
REMARK minimizedRMSD -1
REMARK  0 active torsions:
REMARK  status: ('A' for Active; 'I' for Inactive)
ROOT
ATOM      1  C   UNL d   1      -1.607   1.135   1.135  0.00  0.00     0.172 C 
ATOM      2  N   UNL d   1      -0.757   1.797   0.174  0.00  0.00    -0.070 N 
ATOM      3  C1  UNL d   1      -0.055   1.182  -0.828  0.00  0.00    -0.004 A 
ATOM      4  C2  UNL d   1       0.629   2.156  -1.523  0.00  0.00    -0.047 A 
ATOM      5  C3  UNL d   1       0.329   3.399  -0.917  0.00  0.00    -0.047 A 
ATOM      6  C4  UNL d   1      -0.531   3.148   0.131  0.00  0.00    -0.004 A 
ENDROOT
TORSDOF 0
ENDMDL
