MODEL 1
REMARK minimizedAffinity -4.09758806
REMARK minimizedRMSD -1
REMARK  0 active torsions:
REMARK  status: ('A' for Active; 'I' for Inactive)
ROOT
ATOM      1  C   UNL d   1      -0.074   0.010   0.919  0.00  0.00     0.172 C 
ATOM      2  N   UNL d   1      -0.797   1.220   0.605  0.00  0.00    -0.070 N 
ATOM      3  C1  UNL d   1      -0.518   2.071  -0.431  0.00  0.00    -0.004 A 
ATOM      4  C2  UNL d   1      -1.433   3.101  -0.389  0.00  0.00    -0.047 A 
ATOM      5  C3  UNL d   1      -2.291   2.861   0.710  0.00  0.00    -0.047 A 
ATOM      6  C4  UNL d   1      -1.875   1.690   1.308  0.00  0.00    -0.004 A 
ENDROOT
TORSDOF 0
ENDMDL
