MODEL 1
REMARK minimizedAffinity -3.9384141
REMARK minimizedRMSD -1
REMARK  0 active torsions:
REMARK  status: ('A' for Active; 'I' for Inactive)
ROOT
ATOM      1  C   UNL d   1      -2.400   1.519   1.105  0.00  0.00     0.172 C 
ATOM      2  N   UNL d   1      -1.419   1.903   0.117  0.00  0.00    -0.070 N 
ATOM      3  C1  UNL d   1      -1.190   3.177  -0.327  0.00  0.00    -0.004 A 
ATOM      4  C2  UNL d   1      -0.180   3.123  -1.263  0.00  0.00    -0.047 A 
ATOM      5  C3  UNL d   1       0.211   1.769  -1.386  0.00  0.00    -0.047 A 
ATOM      6  C4  UNL d   1      -0.572   1.035  -0.520  0.00  0.00    -0.004 A 
ENDROOT
TORSDOF 0
ENDMDL
