MODEL 1
REMARK minimizedAffinity -3.66674614
REMARK minimizedRMSD -1
REMARK  0 active torsions:
REMARK  status: ('A' for Active; 'I' for Inactive)
ROOT
ATOM      1  C   UNL d   1      -1.504   2.737   0.879  0.00  0.00     0.172 C 
ATOM      2  N   UNL d   1      -0.832   1.727   0.095  0.00  0.00    -0.070 N 
ATOM      3  C1  UNL d   1      -0.732   0.400   0.420  0.00  0.00    -0.004 A 
ATOM      4  C2  UNL d   1      -0.019  -0.226  -0.579  0.00  0.00    -0.047 A 
ATOM      5  C3  UNL d   1       0.323   0.759  -1.537  0.00  0.00    -0.047 A 
ATOM      6  C4  UNL d   1      -0.193   1.958  -1.094  0.00  0.00    -0.004 A 
ENDROOT
TORSDOF 0
ENDMDL
