MODEL 1
REMARK minimizedAffinity -3.70021319
REMARK minimizedRMSD -1
REMARK  0 active torsions:
REMARK  status: ('A' for Active; 'I' for Inactive)
ROOT
ATOM      1  C   UNL d   1      -0.029  -0.256  -0.791  0.00  0.00     0.172 C 
ATOM      2  N   UNL d   1      -0.753   0.812  -0.142  0.00  0.00    -0.070 N 
ATOM      3  C1  UNL d   1      -0.579   2.151  -0.375  0.00  0.00    -0.004 A 
ATOM      4  C2  UNL d   1      -1.455   2.837   0.439  0.00  0.00    -0.047 A 
ATOM      5  C3  UNL d   1      -2.179   1.879   1.187  0.00  0.00    -0.047 A 
ATOM      6  C4  UNL d   1      -1.724   0.633   0.807  0.00  0.00    -0.004 A 
ENDROOT
TORSDOF 0
ENDMDL
