MODEL 1
REMARK minimizedAffinity -2.04613543
REMARK minimizedRMSD -1
REMARK  0 active torsions:
REMARK  status: ('A' for Active; 'I' for Inactive)
ROOT
ATOM      1  C   UNL d   1      -1.590   2.953   0.784  0.00  0.00     0.172 C 
ATOM      2  N   UNL d   1      -1.035   3.068   2.112  0.00  0.00    -0.070 N 
ATOM      3  C1  UNL d   1       0.131   2.493   2.542  0.00  0.00    -0.004 A 
ATOM      4  C2  UNL d   1       0.310   2.839   3.864  0.00  0.00    -0.047 A 
ATOM      5  C3  UNL d   1      -0.787   3.649   4.242  0.00  0.00    -0.047 A 
ATOM      6  C4  UNL d   1      -1.604   3.774   3.138  0.00  0.00    -0.004 A 
ENDROOT
TORSDOF 0
ENDMDL
