MODEL 1
REMARK minimizedAffinity -4.05548716
REMARK minimizedRMSD -1
REMARK  0 active torsions:
REMARK  status: ('A' for Active; 'I' for Inactive)
ROOT
ATOM      1  C   UNL d   1      -0.388   0.401   1.248  0.00  0.00     0.172 C 
ATOM      2  N   UNL d   1      -0.959   1.661   0.831  0.00  0.00    -0.070 N 
ATOM      3  C1  UNL d   1      -0.584   2.381  -0.271  0.00  0.00    -0.004 A 
ATOM      4  C2  UNL d   1      -1.365   3.516  -0.319  0.00  0.00    -0.047 A 
ATOM      5  C3  UNL d   1      -2.237   3.477   0.794  0.00  0.00    -0.047 A 
ATOM      6  C4  UNL d   1      -1.965   2.318   1.489  0.00  0.00    -0.004 A 
ENDROOT
TORSDOF 0
ENDMDL
