MODEL 1
REMARK minimizedAffinity -3.70217824
REMARK minimizedRMSD -1
REMARK  0 active torsions:
REMARK  status: ('A' for Active; 'I' for Inactive)
ROOT
ATOM      1  C   UNL d   1       0.671  -0.108  -0.191  0.00  0.00     0.172 C 
ATOM      2  N   UNL d   1      -0.221   1.023  -0.097  0.00  0.00    -0.070 N 
ATOM      3  C1  UNL d   1      -0.062   2.221  -0.742  0.00  0.00    -0.004 A 
ATOM      4  C2  UNL d   1      -1.120   3.032  -0.393  0.00  0.00    -0.047 A 
ATOM      5  C3  UNL d   1      -1.942   2.297   0.494  0.00  0.00    -0.047 A 
ATOM      6  C4  UNL d   1      -1.362   1.057   0.660  0.00  0.00    -0.004 A 
ENDROOT
TORSDOF 0
ENDMDL
