MODEL 1
REMARK minimizedAffinity -1.87956667
REMARK minimizedRMSD -1
REMARK  0 active torsions:
REMARK  status: ('A' for Active; 'I' for Inactive)
ROOT
ATOM      1  C   UNL d   1       0.407   1.906  -1.068  0.00  0.00     0.172 C 
ATOM      2  N   UNL d   1      -0.032   1.172   0.096  0.00  0.00    -0.070 N 
ATOM      3  C1  UNL d   1       0.126  -0.172   0.299  0.00  0.00    -0.004 A 
ATOM      4  C2  UNL d   1      -0.425  -0.482   1.524  0.00  0.00    -0.047 A 
ATOM      5  C3  UNL d   1      -0.933   0.718   2.075  0.00  0.00    -0.047 A 
ATOM      6  C4  UNL d   1      -0.677   1.726   1.171  0.00  0.00    -0.004 A 
ENDROOT
TORSDOF 0
ENDMDL
