MODEL 1
REMARK minimizedAffinity -3.56527519
REMARK minimizedRMSD -1
REMARK  0 active torsions:
REMARK  status: ('A' for Active; 'I' for Inactive)
ROOT
ATOM      1  C   UNL d   1       0.103  -0.470  -0.596  0.00  0.00     0.172 C 
ATOM      2  N   UNL d   1      -0.718   0.557   0.001  0.00  0.00    -0.070 N 
ATOM      3  C1  UNL d   1      -1.189   1.674  -0.637  0.00  0.00    -0.004 A 
ATOM      4  C2  UNL d   1      -1.928   2.399   0.273  0.00  0.00    -0.047 A 
ATOM      5  C3  UNL d   1      -1.900   1.694   1.499  0.00  0.00    -0.047 A 
ATOM      6  C4  UNL d   1      -1.144   0.558   1.303  0.00  0.00    -0.004 A 
ENDROOT
TORSDOF 0
ENDMDL
