MODEL 1
REMARK minimizedAffinity -3.90413761
REMARK minimizedRMSD -1
REMARK  0 active torsions:
REMARK  status: ('A' for Active; 'I' for Inactive)
ROOT
ATOM      1  C   UNL d   1      -0.720   0.449   0.365  0.00  0.00     0.172 C 
ATOM      2  N   UNL d   1      -1.095   1.839   0.472  0.00  0.00    -0.070 N 
ATOM      3  C1  UNL d   1      -0.518   2.877  -0.210  0.00  0.00    -0.004 A 
ATOM      4  C2  UNL d   1      -1.157   4.038   0.169  0.00  0.00    -0.047 A 
ATOM      5  C3  UNL d   1      -2.152   3.686   1.112  0.00  0.00    -0.047 A 
ATOM      6  C4  UNL d   1      -2.091   2.319   1.281  0.00  0.00    -0.004 A 
ENDROOT
TORSDOF 0
ENDMDL
