MODEL 1
REMARK minimizedAffinity -2.09777236
REMARK minimizedRMSD -1
REMARK  0 active torsions:
REMARK  status: ('A' for Active; 'I' for Inactive)
ROOT
ATOM      1  C   UNL d   1      -0.478   0.961   0.229  0.00  0.00     0.172 C 
ATOM      2  N   UNL d   1      -0.951   2.013   1.097  0.00  0.00    -0.070 N 
ATOM      3  C1  UNL d   1      -0.220   3.094   1.513  0.00  0.00    -0.004 A 
ATOM      4  C2  UNL d   1      -1.025   3.861   2.326  0.00  0.00    -0.047 A 
ATOM      5  C3  UNL d   1      -2.284   3.218   2.403  0.00  0.00    -0.047 A 
ATOM      6  C4  UNL d   1      -2.210   2.077   1.633  0.00  0.00    -0.004 A 
ENDROOT
TORSDOF 0
ENDMDL
