MODEL 1
REMARK minimizedAffinity -3.96621156
REMARK minimizedRMSD -1
REMARK  0 active torsions:
REMARK  status: ('A' for Active; 'I' for Inactive)
ROOT
ATOM      1  C   UNL d   1      -0.241   0.020   0.251  0.00  0.00     0.172 C 
ATOM      2  N   UNL d   1      -0.742   1.371   0.357  0.00  0.00    -0.070 N 
ATOM      3  C1  UNL d   1      -0.473   2.392  -0.515  0.00  0.00    -0.004 A 
ATOM      4  C2  UNL d   1      -1.136   3.515  -0.066  0.00  0.00    -0.047 A 
ATOM      5  C3  UNL d   1      -1.826   3.155   1.116  0.00  0.00    -0.047 A 
ATOM      6  C4  UNL d   1      -1.564   1.822   1.355  0.00  0.00    -0.004 A 
ENDROOT
TORSDOF 0
ENDMDL
