MODEL 1
REMARK minimizedAffinity -3.22884965
REMARK minimizedRMSD -1
REMARK  0 active torsions:
REMARK  status: ('A' for Active; 'I' for Inactive)
ROOT
ATOM      1  C   UNL d   1       0.703  -0.738  -0.301  0.00  0.00     0.172 C 
ATOM      2  N   UNL d   1      -0.179   0.213   0.334  0.00  0.00    -0.070 N 
ATOM      3  C1  UNL d   1      -0.270   1.545   0.028  0.00  0.00    -0.004 A 
ATOM      4  C2  UNL d   1      -1.222   2.103   0.854  0.00  0.00    -0.047 A 
ATOM      5  C3  UNL d   1      -1.719   1.071   1.685  0.00  0.00    -0.047 A 
ATOM      6  C4  UNL d   1      -1.056  -0.088   1.342  0.00  0.00    -0.004 A 
ENDROOT
TORSDOF 0
ENDMDL
