MODEL 1
REMARK minimizedAffinity -3.98699617
REMARK minimizedRMSD -1
REMARK  0 active torsions:
REMARK  status: ('A' for Active; 'I' for Inactive)
ROOT
ATOM      1  C   UNL d   1       0.645  -0.356  -0.721  0.00  0.00     0.172 C 
ATOM      2  N   UNL d   1      -0.309   0.589  -0.188  0.00  0.00    -0.070 N 
ATOM      3  C1  UNL d   1      -0.622   1.803  -0.739  0.00  0.00    -0.004 A 
ATOM      4  C2  UNL d   1      -1.570   2.399   0.065  0.00  0.00    -0.047 A 
ATOM      5  C3  UNL d   1      -1.835   1.513   1.135  0.00  0.00    -0.047 A 
ATOM      6  C4  UNL d   1      -1.041   0.400   0.954  0.00  0.00    -0.004 A 
ENDROOT
TORSDOF 0
ENDMDL
