MODEL 1
REMARK minimizedAffinity -2.74712133
REMARK minimizedRMSD -1
REMARK  0 active torsions:
REMARK  status: ('A' for Active; 'I' for Inactive)
ROOT
ATOM      1  C   UNL d   1       0.297   2.283  -0.665  0.00  0.00     0.172 C 
ATOM      2  N   UNL d   1       0.068   1.235   0.302  0.00  0.00    -0.070 N 
ATOM      3  C1  UNL d   1       0.633  -0.012   0.278  0.00  0.00    -0.004 A 
ATOM      4  C2  UNL d   1       0.162  -0.710   1.369  0.00  0.00    -0.047 A 
ATOM      5  C3  UNL d   1      -0.718   0.147   2.072  0.00  0.00    -0.047 A 
ATOM      6  C4  UNL d   1      -0.758   1.344   1.390  0.00  0.00    -0.004 A 
ENDROOT
TORSDOF 0
ENDMDL
