MODEL 1
REMARK minimizedAffinity -3.33959484
REMARK minimizedRMSD -1
REMARK  0 active torsions:
REMARK  status: ('A' for Active; 'I' for Inactive)
ROOT
ATOM      1  C   UNL d   1       0.267   3.148  -0.754  0.00  0.00     0.172 C 
ATOM      2  N   UNL d   1      -0.146   2.127   0.181  0.00  0.00    -0.070 N 
ATOM      3  C1  UNL d   1      -0.796   2.346   1.366  0.00  0.00    -0.004 A 
ATOM      4  C2  UNL d   1      -1.013   1.122   1.960  0.00  0.00    -0.047 A 
ATOM      5  C3  UNL d   1      -0.473   0.133   1.103  0.00  0.00    -0.047 A 
ATOM      6  C4  UNL d   1       0.057   0.783   0.009  0.00  0.00    -0.004 A 
ENDROOT
TORSDOF 0
ENDMDL
