MODEL 1
REMARK minimizedAffinity 1.83114481
REMARK minimizedRMSD -1
REMARK  1 active torsions:
REMARK  status: ('A' for Active; 'I' for Inactive)
REMARK    1  A    between atoms: C1_2  and  C2_3 
ROOT
ATOM      1  C2  UNL d   1       0.141  -0.631   0.957  0.00  0.00    -0.076 A 
ATOM      2  C3  UNL d   1       1.318  -0.214   0.312  0.00  0.00     0.004 A 
ATOM      3  C4  UNL d   1       1.267   0.498  -0.885  0.00  0.00    -0.003 A 
ATOM      4  C5  UNL d   1       0.037   0.804  -1.458  0.00  0.00     0.000 A 
ATOM      5  C6  UNL d   1      -1.141   0.413  -0.823  0.00  0.00     0.000 A 
ATOM      6  C7  UNL d   1      -1.108  -0.291   0.393  0.00  0.00    -0.073 A 
ATOM      7  C8  UNL d   1      -2.409  -0.693   1.030  0.00  0.00     0.078 C 
ENDROOT
BRANCH   1   8
ATOM      8  C1  UNL d   1       0.259  -1.424   2.239  0.00  0.00     0.053 C 
ATOM      9  C   UNL d   1       1.551  -1.133   2.986  0.00  0.00     0.018 C 
ENDBRANCH   1   8
TORSDOF 1
ENDMDL
