MODEL 1
REMARK minimizedAffinity -1.52463317
REMARK minimizedRMSD -1
REMARK  1 active torsions:
REMARK  status: ('A' for Active; 'I' for Inactive)
REMARK    1  A    between atoms: C1_2  and  C2_3 
ROOT
ATOM      1  C2  UNL d   1      -0.185   0.798  -0.385  0.00  0.00    -0.076 A 
ATOM      2  C3  UNL d   1      -1.064   1.293   0.594  0.00  0.00     0.004 A 
ATOM      3  C4  UNL d   1      -1.361   0.549   1.734  0.00  0.00    -0.003 A 
ATOM      4  C5  UNL d   1      -0.784  -0.703   1.914  0.00  0.00     0.000 A 
ATOM      5  C6  UNL d   1       0.104  -1.203   0.962  0.00  0.00     0.000 A 
ATOM      6  C7  UNL d   1       0.427  -0.457  -0.185  0.00  0.00    -0.073 A 
ATOM      7  C8  UNL d   1       1.386  -1.047  -1.183  0.00  0.00     0.078 C 
ENDROOT
BRANCH   1   8
ATOM      8  C1  UNL d   1       0.078   1.639  -1.613  0.00  0.00     0.053 C 
ATOM      9  C   UNL d   1      -0.990   2.699  -1.834  0.00  0.00     0.018 C 
ENDBRANCH   1   8
TORSDOF 1
ENDMDL
