MODEL 1
REMARK minimizedAffinity -3.34556842
REMARK minimizedRMSD -1
REMARK  1 active torsions:
REMARK  status: ('A' for Active; 'I' for Inactive)
REMARK    1  A    between atoms: C1_2  and  C2_3 
ROOT
ATOM      1  C2  UNL d   1      -0.427   0.394  -0.766  0.00  0.00    -0.076 A 
ATOM      2  C3  UNL d   1       0.941   0.130  -0.947  0.00  0.00     0.004 A 
ATOM      3  C4  UNL d   1       1.681  -0.530   0.033  0.00  0.00    -0.003 A 
ATOM      4  C5  UNL d   1       1.063  -0.937   1.210  0.00  0.00     0.000 A 
ATOM      5  C6  UNL d   1      -0.298  -0.699   1.400  0.00  0.00     0.000 A 
ATOM      6  C7  UNL d   1      -1.061  -0.049   0.415  0.00  0.00    -0.073 A 
ATOM      7  C8  UNL d   1      -2.524   0.188   0.674  0.00  0.00     0.078 C 
ENDROOT
BRANCH   1   8
ATOM      8  C1  UNL d   1      -1.171   1.138  -1.852  0.00  0.00     0.053 C 
ATOM      9  C   UNL d   1      -0.325   2.222  -2.501  0.00  0.00     0.018 C 
ENDBRANCH   1   8
TORSDOF 1
ENDMDL
