MODEL 1
REMARK minimizedAffinity -4.03803492
REMARK minimizedRMSD -1
REMARK  1 active torsions:
REMARK  status: ('A' for Active; 'I' for Inactive)
REMARK    1  A    between atoms: C1_2  and  C2_3 
ROOT
ATOM      1  C2  UNL d   1       0.062  -0.155   0.240  0.00  0.00    -0.076 A 
ATOM      2  C3  UNL d   1       1.453  -0.141   0.439  0.00  0.00     0.004 A 
ATOM      3  C4  UNL d   1       1.997  -0.275   1.715  0.00  0.00    -0.003 A 
ATOM      4  C5  UNL d   1       1.157  -0.425   2.814  0.00  0.00     0.000 A 
ATOM      5  C6  UNL d   1      -0.225  -0.460   2.633  0.00  0.00     0.000 A 
ATOM      6  C7  UNL d   1      -0.789  -0.343   1.350  0.00  0.00    -0.073 A 
ATOM      7  C8  UNL d   1      -2.286  -0.380   1.214  0.00  0.00     0.078 C 
ENDROOT
BRANCH   1   8
ATOM      8  C1  UNL d   1      -0.471   0.021  -1.165  0.00  0.00     0.053 C 
ATOM      9  C   UNL d   1      -0.372   1.460  -1.648  0.00  0.00     0.018 C 
ENDBRANCH   1   8
TORSDOF 1
ENDMDL
