MODEL 1
REMARK minimizedAffinity 0.9928689
REMARK minimizedRMSD -1
REMARK  1 active torsions:
REMARK  status: ('A' for Active; 'I' for Inactive)
REMARK    1  A    between atoms: C1_2  and  C2_3 
ROOT
ATOM      1  C2  UNL d   1       1.145  -3.905   4.464  0.00  0.00    -0.077 A 
ATOM      2  C3  UNL d   1       0.810  -2.548   4.346  0.00  0.00     0.002 A 
ATOM      3  C4  UNL d   1       1.593  -1.693   3.568  0.00  0.00     0.002 A 
ATOM      4  C5  UNL d   1       2.712  -2.185   2.899  0.00  0.00    -0.004 A 
ATOM      5  C6  UNL d   1       3.054  -3.532   3.012  0.00  0.00     0.002 A 
ATOM      6  C7  UNL d   1       2.274  -4.388   3.790  0.00  0.00     0.002 A 
ENDROOT
BRANCH   1   7
ATOM      7  C1  UNL d   1       0.274  -4.839   5.263  0.00  0.00     0.055 C 
ATOM      8  C   UNL d   1       1.106  -5.887   5.987  0.00  0.00     0.019 C 
ENDBRANCH   1   7
TORSDOF 1
ENDMDL
