MODEL 1
REMARK minimizedAffinity 4.74548435
REMARK minimizedRMSD -1
REMARK  1 active torsions:
REMARK  status: ('A' for Active; 'I' for Inactive)
REMARK    1  A    between atoms: C1_2  and  C2_3 
ROOT
ATOM      1  C2  UNL d   1      -4.306   3.494   1.251  0.00  0.00    -0.077 A 
ATOM      2  C3  UNL d   1      -4.277   4.330   2.376  0.00  0.00     0.002 A 
ATOM      3  C4  UNL d   1      -3.090   4.515   3.088  0.00  0.00     0.002 A 
ATOM      4  C5  UNL d   1      -1.923   3.871   2.680  0.00  0.00    -0.004 A 
ATOM      5  C6  UNL d   1      -1.943   3.037   1.563  0.00  0.00     0.002 A 
ATOM      6  C7  UNL d   1      -3.128   2.850   0.851  0.00  0.00     0.002 A 
ENDROOT
BRANCH   1   7
ATOM      7  C1  UNL d   1      -5.573   3.333   0.453  0.00  0.00     0.055 C 
ATOM      8  C   UNL d   1      -5.772   4.493  -0.512  0.00  0.00     0.019 C 
ENDBRANCH   1   7
TORSDOF 1
ENDMDL
