MODEL 1
REMARK minimizedAffinity 4.77146006
REMARK minimizedRMSD -1
REMARK  1 active torsions:
REMARK  status: ('A' for Active; 'I' for Inactive)
REMARK    1  A    between atoms: C1_2  and  C2_3 
ROOT
ATOM      1  C2  UNL d   1      -3.373  -0.424  -4.227  0.00  0.00    -0.077 A 
ATOM      2  C3  UNL d   1      -3.014  -0.072  -2.919  0.00  0.00     0.002 A 
ATOM      3  C4  UNL d   1      -3.091   1.258  -2.499  0.00  0.00     0.002 A 
ATOM      4  C5  UNL d   1      -3.530   2.244  -3.380  0.00  0.00    -0.004 A 
ATOM      5  C6  UNL d   1      -3.888   1.904  -4.684  0.00  0.00     0.002 A 
ATOM      6  C7  UNL d   1      -3.811   0.575  -5.105  0.00  0.00     0.002 A 
ENDROOT
BRANCH   1   7
ATOM      7  C1  UNL d   1      -3.338  -1.865  -4.667  0.00  0.00     0.055 C 
ATOM      8  C   UNL d   1      -4.068  -2.058  -5.988  0.00  0.00     0.019 C 
ENDBRANCH   1   7
TORSDOF 1
ENDMDL
