MODEL 1
REMARK minimizedAffinity 5.04871941
REMARK minimizedRMSD -1
REMARK  1 active torsions:
REMARK  status: ('A' for Active; 'I' for Inactive)
REMARK    1  A    between atoms: C1_2  and  C2_3 
ROOT
ATOM      1  C2  UNL d   1       3.660  -3.385   3.383  0.00  0.00    -0.077 A 
ATOM      2  C3  UNL d   1       3.220  -2.245   2.696  0.00  0.00     0.002 A 
ATOM      3  C4  UNL d   1       1.882  -1.852   2.764  0.00  0.00     0.002 A 
ATOM      4  C5  UNL d   1       0.974  -2.590   3.520  0.00  0.00    -0.004 A 
ATOM      5  C6  UNL d   1       1.401  -3.727   4.205  0.00  0.00     0.002 A 
ATOM      6  C7  UNL d   1       2.738  -4.122   4.138  0.00  0.00     0.002 A 
ENDROOT
BRANCH   1   7
ATOM      7  C1  UNL d   1       5.112  -3.783   3.351  0.00  0.00     0.055 C 
ATOM      8  C   UNL d   1       5.999  -2.688   3.926  0.00  0.00     0.019 C 
ENDBRANCH   1   7
TORSDOF 1
ENDMDL
