MODEL 1
REMARK minimizedAffinity 0.856300354
REMARK minimizedRMSD -1
REMARK  1 active torsions:
REMARK  status: ('A' for Active; 'I' for Inactive)
REMARK    1  A    between atoms: C1_2  and  C2_3 
ROOT
ATOM      1  C2  UNL d   1       2.221  -1.403   2.810  0.00  0.00    -0.077 A 
ATOM      2  C3  UNL d   1       2.016  -1.306   4.194  0.00  0.00     0.002 A 
ATOM      3  C4  UNL d   1       1.935  -2.458   4.979  0.00  0.00     0.002 A 
ATOM      4  C5  UNL d   1       2.061  -3.714   4.390  0.00  0.00    -0.004 A 
ATOM      5  C6  UNL d   1       2.262  -3.821   3.014  0.00  0.00     0.002 A 
ATOM      6  C7  UNL d   1       2.343  -2.671   2.228  0.00  0.00     0.002 A 
ENDROOT
BRANCH   1   7
ATOM      7  C1  UNL d   1       2.358  -0.160   1.970  0.00  0.00     0.055 C 
ATOM      8  C   UNL d   1       3.629  -0.195   1.134  0.00  0.00     0.019 C 
ENDBRANCH   1   7
TORSDOF 1
ENDMDL
