MODEL 1
REMARK minimizedAffinity 3.47407651
REMARK minimizedRMSD -1
REMARK  1 active torsions:
REMARK  status: ('A' for Active; 'I' for Inactive)
REMARK    1  A    between atoms: C1_2  and  C2_3 
ROOT
ATOM      1  C2  UNL d   1       2.247  -4.172   4.865  0.00  0.00    -0.077 A 
ATOM      2  C3  UNL d   1       1.495  -4.276   3.687  0.00  0.00     0.002 A 
ATOM      3  C4  UNL d   1       1.489  -3.233   2.758  0.00  0.00     0.002 A 
ATOM      4  C5  UNL d   1       2.238  -2.082   2.996  0.00  0.00    -0.004 A 
ATOM      5  C6  UNL d   1       2.988  -1.969   4.166  0.00  0.00     0.002 A 
ATOM      6  C7  UNL d   1       2.994  -3.009   5.096  0.00  0.00     0.002 A 
ENDROOT
BRANCH   1   7
ATOM      7  C1  UNL d   1       2.294  -5.316   5.845  0.00  0.00     0.055 C 
ATOM      8  C   UNL d   1       0.928  -5.968   5.999  0.00  0.00     0.019 C 
ENDBRANCH   1   7
TORSDOF 1
ENDMDL
