MODEL 1
REMARK minimizedAffinity 4.00074768
REMARK minimizedRMSD -1
REMARK  1 active torsions:
REMARK  status: ('A' for Active; 'I' for Inactive)
REMARK    1  A    between atoms: C1_2  and  C2_3 
ROOT
ATOM      1  C2  UNL d   1      -4.754   2.884  -1.593  0.00  0.00    -0.077 A 
ATOM      2  C3  UNL d   1      -4.650   2.317  -2.871  0.00  0.00     0.002 A 
ATOM      3  C4  UNL d   1      -3.556   1.514  -3.200  0.00  0.00     0.002 A 
ATOM      4  C5  UNL d   1      -2.561   1.268  -2.257  0.00  0.00    -0.004 A 
ATOM      5  C6  UNL d   1      -2.654   1.829  -0.984  0.00  0.00     0.002 A 
ATOM      6  C7  UNL d   1      -3.746   2.633  -0.653  0.00  0.00     0.002 A 
ENDROOT
BRANCH   1   7
ATOM      7  C1  UNL d   1      -5.958   3.709  -1.219  0.00  0.00     0.055 C 
ATOM      8  C   UNL d   1      -5.985   5.025  -1.983  0.00  0.00     0.019 C 
ENDBRANCH   1   7
TORSDOF 1
ENDMDL
