MODEL 1
REMARK minimizedAffinity 15.7990122
REMARK minimizedRMSD -1
REMARK  0 active torsions:
REMARK  status: ('A' for Active; 'I' for Inactive)
ROOT
ATOM      1  N1  IND d   1      -2.634   0.786   3.002  0.00  0.00    -0.196 N 
ATOM      2  C2  IND d   1      -3.158   0.653   1.747  0.00  0.00     0.054 A 
ATOM      3  C3  IND d   1      -2.453  -0.256   1.037  0.00  0.00    -0.031 A 
ATOM      4  C4  IND d   1      -0.468  -1.721   1.770  0.00  0.00     0.051 A 
ATOM      5  C5  IND d   1       0.388  -1.931   2.815  0.00  0.00    -0.031 A 
ATOM      6  C6  IND d   1       0.277  -1.233   4.000  0.00  0.00     0.015 A 
ATOM      7  C7  IND d   1      -0.706  -0.304   4.190  0.00  0.00    -0.016 A 
ATOM      8  C8  IND d   1      -1.573  -0.084   3.129  0.00  0.00    -0.047 A 
ATOM      9  C9  IND d   1      -1.439  -0.758   1.909  0.00  0.00    -0.096 A 
ATOM     10  HN1 IND d   1      -2.919   1.323   3.611  0.00  0.00     0.298 HD
ENDROOT
TORSDOF 0
ENDMDL
