MODEL 1
REMARK minimizedAffinity 6.17744541
REMARK minimizedRMSD -1
REMARK  0 active torsions:
REMARK  status: ('A' for Active; 'I' for Inactive)
ROOT
ATOM      1  N1  IND d   1       4.260   6.000  -1.472  0.00  0.00    -0.196 N 
ATOM      2  C2  IND d   1       5.163   5.607  -2.420  0.00  0.00     0.054 A 
ATOM      3  C3  IND d   1       5.998   4.671  -1.915  0.00  0.00    -0.031 A 
ATOM      4  C4  IND d   1       6.000   3.563   0.409  0.00  0.00     0.051 A 
ATOM      5  C5  IND d   1       5.388   3.620   1.630  0.00  0.00    -0.031 A 
ATOM      6  C6  IND d   1       4.347   4.489   1.883  0.00  0.00     0.015 A 
ATOM      7  C7  IND d   1       3.868   5.329   0.918  0.00  0.00    -0.016 A 
ATOM      8  C8  IND d   1       4.491   5.279  -0.321  0.00  0.00    -0.047 A 
ATOM      9  C9  IND d   1       5.577   4.429  -0.572  0.00  0.00    -0.096 A 
ATOM     10  HN1 IND d   1       3.651   6.597  -1.577  0.00  0.00     0.298 HD
ENDROOT
TORSDOF 0
ENDMDL
