MODEL 1
REMARK minimizedAffinity 17.7531185
REMARK minimizedRMSD -1
REMARK  0 active torsions:
REMARK  status: ('A' for Active; 'I' for Inactive)
ROOT
ATOM      1  N1  IND d   1       1.412  -1.353   4.461  0.00  0.00    -0.196 N 
ATOM      2  C2  IND d   1       1.899  -2.295   3.599  0.00  0.00     0.054 A 
ATOM      3  C3  IND d   1       1.002  -2.545   2.619  0.00  0.00    -0.031 A 
ATOM      4  C4  IND d   1      -1.286  -1.450   2.178  0.00  0.00     0.051 A 
ATOM      5  C5  IND d   1      -2.177  -0.563   2.714  0.00  0.00    -0.031 A 
ATOM      6  C6  IND d   1      -1.911   0.122   3.882  0.00  0.00     0.015 A 
ATOM      7  C7  IND d   1      -0.733  -0.047   4.554  0.00  0.00    -0.016 A 
ATOM      8  C8  IND d   1       0.171  -0.952   4.017  0.00  0.00    -0.047 A 
ATOM      9  C9  IND d   1      -0.112  -1.682   2.855  0.00  0.00    -0.096 A 
ATOM     10  HN1 IND d   1       1.812  -1.060   5.163  0.00  0.00     0.298 HD
ENDROOT
TORSDOF 0
ENDMDL
