MODEL 1
REMARK minimizedAffinity 20.6324539
REMARK minimizedRMSD -1
REMARK  0 active torsions:
REMARK  status: ('A' for Active; 'I' for Inactive)
ROOT
ATOM      1  N1  IND d   1      -3.493   1.693   4.279  0.00  0.00    -0.196 N 
ATOM      2  C2  IND d   1      -2.342   1.419   4.962  0.00  0.00     0.054 A 
ATOM      3  C3  IND d   1      -1.694   0.377   4.394  0.00  0.00    -0.031 A 
ATOM      4  C4  IND d   1      -2.291  -0.962   2.278  0.00  0.00     0.051 A 
ATOM      5  C5  IND d   1      -3.269  -1.105   1.333  0.00  0.00    -0.031 A 
ATOM      6  C6  IND d   1      -4.392  -0.304   1.320  0.00  0.00     0.015 A 
ATOM      7  C7  IND d   1      -4.576   0.681   2.249  0.00  0.00    -0.016 A 
ATOM      8  C8  IND d   1      -3.589   0.824   3.214  0.00  0.00    -0.047 A 
ATOM      9  C9  IND d   1      -2.467  -0.014   3.258  0.00  0.00    -0.096 A 
ATOM     10  HN1 IND d   1      -4.063   2.305   4.480  0.00  0.00     0.298 HD
ENDROOT
TORSDOF 0
ENDMDL
