MODEL 1
REMARK minimizedAffinity 26.0799637
REMARK minimizedRMSD -1
REMARK  0 active torsions:
REMARK  status: ('A' for Active; 'I' for Inactive)
ROOT
ATOM      1  N1  IND d   1       1.000  -5.536  -4.851  0.00  0.00    -0.196 N 
ATOM      2  C2  IND d   1       0.395  -5.996  -5.987  0.00  0.00     0.054 A 
ATOM      3  C3  IND d   1      -0.949  -5.997  -5.838  0.00  0.00    -0.031 A 
ATOM      4  C4  IND d   1      -2.374  -5.190  -3.851  0.00  0.00     0.051 A 
ATOM      5  C5  IND d   1      -2.270  -4.720  -2.572  0.00  0.00    -0.031 A 
ATOM      6  C6  IND d   1      -1.047  -4.492  -1.976  0.00  0.00     0.015 A 
ATOM      7  C7  IND d   1       0.124  -4.714  -2.644  0.00  0.00    -0.016 A 
ATOM      8  C8  IND d   1       0.023  -5.198  -3.941  0.00  0.00    -0.047 A 
ATOM      9  C9  IND d   1      -1.215  -5.472  -4.536  0.00  0.00    -0.096 A 
ATOM     10  HN1 IND d   1       1.848  -5.470  -4.726  0.00  0.00     0.298 HD
ENDROOT
TORSDOF 0
ENDMDL
