MODEL 1
REMARK minimizedAffinity 13.6025734
REMARK minimizedRMSD -1
REMARK  0 active torsions:
REMARK  status: ('A' for Active; 'I' for Inactive)
ROOT
ATOM      1  N1  IND d   1      -2.018   1.512   4.725  0.00  0.00    -0.196 N 
ATOM      2  C2  IND d   1      -3.107   2.243   5.110  0.00  0.00     0.054 A 
ATOM      3  C3  IND d   1      -4.114   2.089   4.221  0.00  0.00    -0.031 A 
ATOM      4  C4  IND d   1      -4.229   0.606   2.120  0.00  0.00     0.051 A 
ATOM      5  C5  IND d   1      -3.468  -0.218   1.340  0.00  0.00    -0.031 A 
ATOM      6  C6  IND d   1      -2.158  -0.516   1.657  0.00  0.00     0.015 A 
ATOM      7  C7  IND d   1      -1.563  -0.007   2.776  0.00  0.00    -0.016 A 
ATOM      8  C8  IND d   1      -2.331   0.836   3.566  0.00  0.00    -0.047 A 
ATOM      9  C9  IND d   1      -3.647   1.176   3.227  0.00  0.00    -0.096 A 
ATOM     10  HN1 IND d   1      -1.265   1.479   5.138  0.00  0.00     0.298 HD
ENDROOT
TORSDOF 0
ENDMDL
