MODEL 1
REMARK minimizedAffinity 13.5205421
REMARK minimizedRMSD -1
REMARK  0 active torsions:
REMARK  status: ('A' for Active; 'I' for Inactive)
ROOT
ATOM      1  N1  IND d   1      -4.720   1.412   3.980  0.00  0.00    -0.196 N 
ATOM      2  C2  IND d   1      -3.676   1.768   4.788  0.00  0.00     0.054 A 
ATOM      3  C3  IND d   1      -2.553   1.111   4.424  0.00  0.00    -0.031 A 
ATOM      4  C4  IND d   1      -2.174  -0.520   2.468  0.00  0.00     0.051 A 
ATOM      5  C5  IND d   1      -2.838  -1.182   1.473  0.00  0.00    -0.031 A 
ATOM      6  C6  IND d   1      -4.190  -1.007   1.257  0.00  0.00     0.015 A 
ATOM      7  C7  IND d   1      -4.929  -0.152   2.024  0.00  0.00    -0.016 A 
ATOM      8  C8  IND d   1      -4.260   0.516   3.040  0.00  0.00    -0.047 A 
ATOM      9  C9  IND d   1      -2.897   0.311   3.291  0.00  0.00    -0.096 A 
ATOM     10  HN1 IND d   1      -5.527   1.699   4.048  0.00  0.00     0.298 HD
ENDROOT
TORSDOF 0
ENDMDL
