MODEL 1
REMARK minimizedAffinity 5.55155849
REMARK minimizedRMSD -1
REMARK  0 active torsions:
REMARK  status: ('A' for Active; 'I' for Inactive)
ROOT
ATOM      1  N1  IND d   1       4.021  -5.515   0.017  0.00  0.00    -0.196 N 
ATOM      2  C2  IND d   1       5.237  -5.999  -0.376  0.00  0.00     0.054 A 
ATOM      3  C3  IND d   1       6.000  -5.002  -0.878  0.00  0.00    -0.031 A 
ATOM      4  C4  IND d   1       5.492  -2.485  -1.056  0.00  0.00     0.051 A 
ATOM      5  C5  IND d   1       4.496  -1.571  -0.859  0.00  0.00    -0.031 A 
ATOM      6  C6  IND d   1       3.266  -1.931  -0.347  0.00  0.00     0.015 A 
ATOM      7  C7  IND d   1       2.990  -3.224  -0.001  0.00  0.00    -0.016 A 
ATOM      8  C8  IND d   1       3.997  -4.156  -0.206  0.00  0.00    -0.047 A 
ATOM      9  C9  IND d   1       5.232  -3.803  -0.765  0.00  0.00    -0.096 A 
ATOM     10  HN1 IND d   1       3.378  -5.981   0.349  0.00  0.00     0.298 HD
ENDROOT
TORSDOF 0
ENDMDL
