MODEL 1
REMARK minimizedAffinity 20.8354893
REMARK minimizedRMSD -1
REMARK  0 active torsions:
REMARK  status: ('A' for Active; 'I' for Inactive)
ROOT
ATOM      1  N1  IND d   1       2.895  -5.004  -0.311  0.00  0.00    -0.196 N 
ATOM      2  C2  IND d   1       4.116  -4.750  -0.871  0.00  0.00     0.054 A 
ATOM      3  C3  IND d   1       4.650  -3.625  -0.345  0.00  0.00    -0.031 A 
ATOM      4  C4  IND d   1       3.742  -2.101   1.521  0.00  0.00     0.051 A 
ATOM      5  C5  IND d   1       2.646  -1.906   2.315  0.00  0.00    -0.031 A 
ATOM      6  C6  IND d   1       1.557  -2.753   2.275  0.00  0.00     0.015 A 
ATOM      7  C7  IND d   1       1.528  -3.837   1.444  0.00  0.00    -0.016 A 
ATOM      8  C8  IND d   1       2.635  -4.034   0.632  0.00  0.00    -0.047 A 
ATOM      9  C9  IND d   1       3.725  -3.154   0.637  0.00  0.00    -0.096 A 
ATOM     10  HN1 IND d   1       2.377  -5.660  -0.514  0.00  0.00     0.298 HD
ENDROOT
TORSDOF 0
ENDMDL
