MODEL 1
REMARK minimizedAffinity 14.1523924
REMARK minimizedRMSD -1
REMARK  0 active torsions:
REMARK  status: ('A' for Active; 'I' for Inactive)
ROOT
ATOM      1  N1  IND d   1      -1.131  -2.843   1.405  0.00  0.00    -0.196 N 
ATOM      2  C2  IND d   1      -2.171  -2.350   0.667  0.00  0.00     0.054 A 
ATOM      3  C3  IND d   1      -2.523  -1.123   1.111  0.00  0.00    -0.031 A 
ATOM      4  C4  IND d   1      -1.463   0.310   2.968  0.00  0.00     0.051 A 
ATOM      5  C5  IND d   1      -0.511   0.272   3.948  0.00  0.00    -0.031 A 
ATOM      6  C6  IND d   1       0.301  -0.829   4.132  0.00  0.00     0.015 A 
ATOM      7  C7  IND d   1       0.199  -1.931   3.332  0.00  0.00    -0.016 A 
ATOM      8  C8  IND d   1      -0.771  -1.898   2.341  0.00  0.00    -0.047 A 
ATOM      9  C9  IND d   1      -1.627  -0.802   2.176  0.00  0.00    -0.096 A 
ATOM     10  HN1 IND d   1      -0.763  -3.613   1.301  0.00  0.00     0.298 HD
ENDROOT
TORSDOF 0
ENDMDL
