MODEL 1
REMARK minimizedAffinity 7.69378805
REMARK minimizedRMSD -1
REMARK  0 active torsions:
REMARK  status: ('A' for Active; 'I' for Inactive)
ROOT
ATOM      1  N1  IND d   1      -5.924   1.874   4.716  0.00  0.00    -0.196 N 
ATOM      2  C2  IND d   1      -5.449   2.351   5.906  0.00  0.00     0.054 A 
ATOM      3  C3  IND d   1      -4.115   2.151   5.994  0.00  0.00    -0.031 A 
ATOM      4  C4  IND d   1      -2.493   1.152   4.263  0.00  0.00     0.051 A 
ATOM      5  C5  IND d   1      -2.464   0.543   3.040  0.00  0.00    -0.031 A 
ATOM      6  C6  IND d   1      -3.610   0.346   2.296  0.00  0.00     0.015 A 
ATOM      7  C7  IND d   1      -4.831   0.761   2.746  0.00  0.00    -0.016 A 
ATOM      8  C8  IND d   1      -4.865   1.374   3.991  0.00  0.00    -0.047 A 
ATOM      9  C9  IND d   1      -3.712   1.539   4.768  0.00  0.00    -0.096 A 
ATOM     10  HN1 IND d   1      -6.746   1.885   4.463  0.00  0.00     0.298 HD
ENDROOT
TORSDOF 0
ENDMDL
