MODEL 1
REMARK minimizedAffinity 0.121243112
REMARK minimizedRMSD -1
REMARK  0 active torsions:
REMARK  status: ('A' for Active; 'I' for Inactive)
ROOT
ATOM      1  N1  IND d   1      -4.143   1.224   5.984  0.00  0.00    -0.196 N 
ATOM      2  C2  IND d   1      -5.475   1.531   5.990  0.00  0.00     0.054 A 
ATOM      3  C3  IND d   1      -6.000   1.369   4.754  0.00  0.00    -0.031 A 
ATOM      4  C4  IND d   1      -4.880   0.511   2.601  0.00  0.00     0.051 A 
ATOM      5  C5  IND d   1      -3.667   0.139   2.092  0.00  0.00    -0.031 A 
ATOM      6  C6  IND d   1      -2.528   0.106   2.871  0.00  0.00     0.015 A 
ATOM      7  C7  IND d   1      -2.563   0.435   4.197  0.00  0.00    -0.016 A 
ATOM      8  C8  IND d   1      -3.791   0.820   4.715  0.00  0.00    -0.047 A 
ATOM      9  C9  IND d   1      -4.941   0.896   3.919  0.00  0.00    -0.096 A 
ATOM     10  HN1 IND d   1      -3.613   1.275   6.660  0.00  0.00     0.298 HD
ENDROOT
TORSDOF 0
ENDMDL
