MODEL 1
REMARK minimizedAffinity 12.113966
REMARK minimizedRMSD -1
REMARK  0 active torsions:
REMARK  status: ('A' for Active; 'I' for Inactive)
ROOT
ATOM      1  N1  IND d   1       1.383   3.141   0.684  0.00  0.00    -0.196 N 
ATOM      2  C2  IND d   1       1.920   1.903   0.900  0.00  0.00     0.054 A 
ATOM      3  C3  IND d   1       2.311   1.349  -0.270  0.00  0.00    -0.031 A 
ATOM      4  C4  IND d   1       2.257   2.338  -2.646  0.00  0.00     0.051 A 
ATOM      5  C5  IND d   1       1.822   3.425  -3.351  0.00  0.00    -0.031 A 
ATOM      6  C6  IND d   1       1.209   4.496  -2.734  0.00  0.00     0.015 A 
ATOM      7  C7  IND d   1       1.017   4.525  -1.381  0.00  0.00    -0.016 A 
ATOM      8  C8  IND d   1       1.451   3.420  -0.664  0.00  0.00    -0.047 A 
ATOM      9  C9  IND d   1       2.035   2.311  -1.290  0.00  0.00    -0.096 A 
ATOM     10  HN1 IND d   1       1.058   3.659   1.288  0.00  0.00     0.298 HD
ENDROOT
TORSDOF 0
ENDMDL
