MODEL 1
REMARK minimizedAffinity 20.3617039
REMARK minimizedRMSD -1
REMARK  0 active torsions:
REMARK  status: ('A' for Active; 'I' for Inactive)
ROOT
ATOM      1  N1  IND d   1       2.703   2.131  -2.778  0.00  0.00    -0.196 N 
ATOM      2  C2  IND d   1       1.509   2.615  -3.235  0.00  0.00     0.054 A 
ATOM      3  C3  IND d   1       0.533   2.395  -2.327  0.00  0.00    -0.031 A 
ATOM      4  C4  IND d   1       0.688   1.348   0.020  0.00  0.00     0.051 A 
ATOM      5  C5  IND d   1       1.562   0.723   0.865  0.00  0.00    -0.031 A 
ATOM      6  C6  IND d   1       2.888   0.535   0.534  0.00  0.00     0.015 A 
ATOM      7  C7  IND d   1       3.395   0.976  -0.656  0.00  0.00    -0.016 A 
ATOM      8  C8  IND d   1       2.509   1.604  -1.520  0.00  0.00    -0.047 A 
ATOM      9  C9  IND d   1       1.152   1.761  -1.207  0.00  0.00    -0.096 A 
ATOM     10  HN1 IND d   1       3.450   2.152  -3.204  0.00  0.00     0.298 HD
ENDROOT
TORSDOF 0
ENDMDL
