MODEL 1
REMARK minimizedAffinity 11.2564011
REMARK minimizedRMSD -1
REMARK  0 active torsions:
REMARK  status: ('A' for Active; 'I' for Inactive)
ROOT
ATOM      1  N1  IND d   1      -1.124   3.172  -4.290  0.00  0.00    -0.196 N 
ATOM      2  C2  IND d   1      -1.242   4.523  -4.458  0.00  0.00     0.054 A 
ATOM      3  C3  IND d   1      -0.467   5.177  -3.563  0.00  0.00    -0.031 A 
ATOM      4  C4  IND d   1       1.154   4.229  -1.802  0.00  0.00     0.051 A 
ATOM      5  C5  IND d   1       1.575   3.053  -1.248  0.00  0.00    -0.031 A 
ATOM      6  C6  IND d   1       1.111   1.831  -1.691  0.00  0.00     0.015 A 
ATOM      7  C7  IND d   1       0.213   1.740  -2.717  0.00  0.00    -0.016 A 
ATOM      8  C8  IND d   1      -0.222   2.932  -3.276  0.00  0.00    -0.047 A 
ATOM      9  C9  IND d   1       0.212   4.177  -2.802  0.00  0.00    -0.096 A 
ATOM     10  HN1 IND d   1      -1.542   2.572  -4.742  0.00  0.00     0.298 HD
ENDROOT
TORSDOF 0
ENDMDL
