MODEL 1
REMARK minimizedAffinity 8.98886395
REMARK minimizedRMSD -1
REMARK  0 active torsions:
REMARK  status: ('A' for Active; 'I' for Inactive)
ROOT
ATOM      1  N1  IND d   1       4.367   3.712   2.499  0.00  0.00    -0.196 N 
ATOM      2  C2  IND d   1       5.603   4.098   2.059  0.00  0.00     0.054 A 
ATOM      3  C3  IND d   1       5.870   3.537   0.858  0.00  0.00    -0.031 A 
ATOM      4  C4  IND d   1       4.384   2.035  -0.613  0.00  0.00     0.051 A 
ATOM      5  C5  IND d   1       3.185   1.380  -0.618  0.00  0.00    -0.031 A 
ATOM      6  C6  IND d   1       2.299   1.473   0.436  0.00  0.00     0.015 A 
ATOM      7  C7  IND d   1       2.577   2.237   1.534  0.00  0.00    -0.016 A 
ATOM      8  C8  IND d   1       3.797   2.898   1.546  0.00  0.00    -0.047 A 
ATOM      9  C9  IND d   1       4.718   2.773   0.498  0.00  0.00    -0.096 A 
ATOM     10  HN1 IND d   1       4.008   3.939   3.246  0.00  0.00     0.298 HD
ENDROOT
TORSDOF 0
ENDMDL
