MODEL 1
REMARK minimizedAffinity 12.2189779
REMARK minimizedRMSD -1
REMARK  0 active torsions:
REMARK  status: ('A' for Active; 'I' for Inactive)
ROOT
ATOM      1  N1  IND d   1      -5.820  -0.985  -2.664  0.00  0.00    -0.196 N 
ATOM      2  C2  IND d   1      -5.997   0.047  -3.543  0.00  0.00     0.054 A 
ATOM      3  C3  IND d   1      -6.000   1.228  -2.887  0.00  0.00    -0.031 A 
ATOM      4  C4  IND d   1      -5.629   1.711  -0.385  0.00  0.00     0.051 A 
ATOM      5  C5  IND d   1      -5.464   1.087   0.819  0.00  0.00    -0.031 A 
ATOM      6  C6  IND d   1      -5.404  -0.287   0.926  0.00  0.00     0.015 A 
ATOM      7  C7  IND d   1      -5.498  -1.092  -0.174  0.00  0.00    -0.016 A 
ATOM      8  C8  IND d   1      -5.673  -0.462  -1.398  0.00  0.00    -0.047 A 
ATOM      9  C9  IND d   1      -5.777   0.931  -1.508  0.00  0.00    -0.096 A 
ATOM     10  HN1 IND d   1      -5.803  -1.820  -2.867  0.00  0.00     0.298 HD
ENDROOT
TORSDOF 0
ENDMDL
