MODEL 1
REMARK minimizedAffinity 14.1247091
REMARK minimizedRMSD -1
REMARK  0 active torsions:
REMARK  status: ('A' for Active; 'I' for Inactive)
ROOT
ATOM      1  N1  IND d   1      -3.839   4.459  -5.981  0.00  0.00    -0.196 N 
ATOM      2  C2  IND d   1      -4.636   5.302  -5.259  0.00  0.00     0.054 A 
ATOM      3  C3  IND d   1      -3.902   5.978  -4.347  0.00  0.00    -0.031 A 
ATOM      4  C4  IND d   1      -1.361   5.932  -3.935  0.00  0.00     0.051 A 
ATOM      5  C5  IND d   1      -0.218   5.291  -4.323  0.00  0.00    -0.031 A 
ATOM      6  C6  IND d   1      -0.224   4.321  -5.305  0.00  0.00     0.015 A 
ATOM      7  C7  IND d   1      -1.375   3.964  -5.946  0.00  0.00    -0.016 A 
ATOM      8  C8  IND d   1      -2.539   4.608  -5.551  0.00  0.00    -0.047 A 
ATOM      9  C9  IND d   1      -2.546   5.563  -4.525  0.00  0.00    -0.096 A 
ATOM     10  HN1 IND d   1      -4.105   3.925  -6.601  0.00  0.00     0.298 HD
ENDROOT
TORSDOF 0
ENDMDL
