MODEL 1
REMARK minimizedAffinity -5.1861124
REMARK minimizedRMSD -1
REMARK  0 active torsions:
REMARK  status: ('A' for Active; 'I' for Inactive)
ROOT
ATOM      1  C   UNL d   1      -2.397  -1.854   1.325  0.00  0.00    -0.002 A 
ATOM      2  C1  UNL d   1      -2.929  -0.737   1.953  0.00  0.00     0.010 A 
ATOM      3  C2  UNL d   1      -2.315   0.511   1.824  0.00  0.00     0.041 A 
ATOM      4  C3  UNL d   1      -1.147   0.617   1.044  0.00  0.00    -0.075 A 
ATOM      5  S   UNL d   1      -0.224   2.043   0.743  0.00  0.00     0.015 SA
ATOM      6  C4  UNL d   1       0.898   1.202  -0.226  0.00  0.00     0.022 A 
ATOM      7  C5  UNL d   1       0.592  -0.134  -0.328  0.00  0.00     0.026 A 
ATOM      8  C6  UNL d   1      -0.592  -0.493   0.402  0.00  0.00    -0.082 A 
ATOM      9  C7  UNL d   1      -1.238  -1.744   0.553  0.00  0.00     0.045 A 
ENDROOT
TORSDOF 0
ENDMDL
