MODEL 1
REMARK minimizedAffinity -3.0354681
REMARK minimizedRMSD -1
REMARK  0 active torsions:
REMARK  status: ('A' for Active; 'I' for Inactive)
ROOT
ATOM      1  C   UNL d   1      -2.654  -2.071   2.019  0.00  0.00    -0.002 A 
ATOM      2  C1  UNL d   1      -1.856  -3.182   1.785  0.00  0.00     0.010 A 
ATOM      3  C2  UNL d   1      -0.682  -3.069   1.038  0.00  0.00     0.041 A 
ATOM      4  C3  UNL d   1      -0.319  -1.808   0.526  0.00  0.00    -0.075 A 
ATOM      5  S   UNL d   1       1.075  -1.430  -0.416  0.00  0.00     0.015 SA
ATOM      6  C4  UNL d   1       0.645   0.215  -0.529  0.00  0.00     0.022 A 
ATOM      7  C5  UNL d   1      -0.531   0.487   0.130  0.00  0.00     0.026 A 
ATOM      8  C6  UNL d   1      -1.105  -0.674   0.749  0.00  0.00    -0.082 A 
ATOM      9  C7  UNL d   1      -2.290  -0.821   1.510  0.00  0.00     0.045 A 
ENDROOT
TORSDOF 0
ENDMDL
