MODEL 1
REMARK minimizedAffinity -3.44562197
REMARK minimizedRMSD -1
REMARK  0 active torsions:
REMARK  status: ('A' for Active; 'I' for Inactive)
ROOT
ATOM      1  C   UNL d   1      -3.901   0.031   1.054  0.00  0.00    -0.002 A 
ATOM      2  C1  UNL d   1      -3.079   1.146   1.138  0.00  0.00     0.010 A 
ATOM      3  C2  UNL d   1      -1.692   1.001   1.219  0.00  0.00     0.041 A 
ATOM      4  C3  UNL d   1      -1.141  -0.296   1.211  0.00  0.00    -0.075 A 
ATOM      5  S   UNL d   1       0.529  -0.716   1.300  0.00  0.00     0.015 SA
ATOM      6  C4  UNL d   1       0.190  -2.384   1.226  0.00  0.00     0.022 A 
ATOM      7  C5  UNL d   1      -1.159  -2.633   1.137  0.00  0.00     0.026 A 
ATOM      8  C6  UNL d   1      -1.949  -1.433   1.126  0.00  0.00    -0.082 A 
ATOM      9  C7  UNL d   1      -3.351  -1.253   1.047  0.00  0.00     0.045 A 
ENDROOT
TORSDOF 0
ENDMDL
