MODEL 1
REMARK minimizedAffinity -1.98347354
REMARK minimizedRMSD -1
REMARK  0 active torsions:
REMARK  status: ('A' for Active; 'I' for Inactive)
ROOT
ATOM      1  C   UNL d   1      -0.415  -2.120   1.206  0.00  0.00    -0.002 A 
ATOM      2  C1  UNL d   1      -1.613  -1.461   0.969  0.00  0.00     0.010 A 
ATOM      3  C2  UNL d   1      -1.641  -0.287   0.213  0.00  0.00     0.041 A 
ATOM      4  C3  UNL d   1      -0.433   0.217  -0.307  0.00  0.00    -0.075 A 
ATOM      5  S   UNL d   1      -0.225   1.638  -1.262  0.00  0.00     0.015 SA
ATOM      6  C4  UNL d   1       1.460   1.403  -1.379  0.00  0.00     0.022 A 
ATOM      7  C5  UNL d   1       1.870   0.273  -0.711  0.00  0.00     0.026 A 
ATOM      8  C6  UNL d   1       0.787  -0.429  -0.083  0.00  0.00    -0.082 A 
ATOM      9  C7  UNL d   1       0.782  -1.616   0.688  0.00  0.00     0.045 A 
ENDROOT
TORSDOF 0
ENDMDL
