MODEL 1
REMARK minimizedAffinity -0.482998908
REMARK minimizedRMSD -1
REMARK  0 active torsions:
REMARK  status: ('A' for Active; 'I' for Inactive)
ROOT
ATOM      1  C   UNL d   1       0.584   2.055  -2.359  0.00  0.00    -0.002 A 
ATOM      2  C1  UNL d   1       0.632   2.005  -3.745  0.00  0.00     0.010 A 
ATOM      3  C2  UNL d   1       1.858   1.980  -4.412  0.00  0.00     0.041 A 
ATOM      4  C3  UNL d   1       3.047   2.006  -3.656  0.00  0.00    -0.075 A 
ATOM      5  S   UNL d   1       4.662   1.983  -4.258  0.00  0.00     0.015 SA
ATOM      6  C4  UNL d   1       5.326   2.038  -2.690  0.00  0.00     0.022 A 
ATOM      7  C5  UNL d   1       4.354   2.074  -1.719  0.00  0.00     0.026 A 
ATOM      8  C6  UNL d   1       3.024   2.056  -2.260  0.00  0.00    -0.082 A 
ATOM      9  C7  UNL d   1       1.765   2.080  -1.612  0.00  0.00     0.045 A 
ENDROOT
TORSDOF 0
ENDMDL
