MODEL 1
REMARK minimizedAffinity -0.509400547
REMARK minimizedRMSD -1
REMARK  0 active torsions:
REMARK  status: ('A' for Active; 'I' for Inactive)
ROOT
ATOM      1  C   UNL d   1       4.796   3.356  -3.845  0.00  0.00    -0.002 A 
ATOM      2  C1  UNL d   1       4.834   2.784  -2.581  0.00  0.00     0.010 A 
ATOM      3  C2  UNL d   1       3.678   2.253  -2.006  0.00  0.00     0.041 A 
ATOM      4  C3  UNL d   1       2.471   2.304  -2.731  0.00  0.00    -0.075 A 
ATOM      5  S   UNL d   1       0.931   1.716  -2.228  0.00  0.00     0.015 SA
ATOM      6  C4  UNL d   1       0.185   2.209  -3.680  0.00  0.00     0.022 A 
ATOM      7  C5  UNL d   1       1.075   2.810  -4.538  0.00  0.00     0.026 A 
ATOM      8  C6  UNL d   1       2.407   2.874  -4.006  0.00  0.00    -0.082 A 
ATOM      9  C7  UNL d   1       3.597   3.405  -4.561  0.00  0.00     0.045 A 
ENDROOT
TORSDOF 0
ENDMDL
