MODEL 1
REMARK minimizedAffinity -2.81989741
REMARK minimizedRMSD -1
REMARK  0 active torsions:
REMARK  status: ('A' for Active; 'I' for Inactive)
ROOT
ATOM      1  C   UNL d   1      -1.952  -2.456   1.591  0.00  0.00    -0.002 A 
ATOM      2  C1  UNL d   1      -2.584  -1.239   1.382  0.00  0.00     0.010 A 
ATOM      3  C2  UNL d   1      -1.915  -0.191   0.747  0.00  0.00     0.041 A 
ATOM      4  C3  UNL d   1      -0.587  -0.389   0.320  0.00  0.00    -0.075 A 
ATOM      5  S   UNL d   1       0.429   0.751  -0.479  0.00  0.00     0.015 SA
ATOM      6  C4  UNL d   1       1.726  -0.351  -0.563  0.00  0.00     0.022 A 
ATOM      7  C5  UNL d   1       1.409  -1.564   0.001  0.00  0.00     0.026 A 
ATOM      8  C6  UNL d   1       0.071  -1.606   0.519  0.00  0.00    -0.082 A 
ATOM      9  C7  UNL d   1      -0.635  -2.650   1.166  0.00  0.00     0.045 A 
ENDROOT
TORSDOF 0
ENDMDL
