MODEL 1
REMARK minimizedAffinity -0.58351928
REMARK minimizedRMSD -1
REMARK  0 active torsions:
REMARK  status: ('A' for Active; 'I' for Inactive)
ROOT
ATOM      1  C   UNL d   1       0.268  -0.238   0.348  0.00  0.00    -0.002 A 
ATOM      2  C1  UNL d   1      -0.066  -1.125  -0.665  0.00  0.00     0.010 A 
ATOM      3  C2  UNL d   1       0.157  -0.793  -2.003  0.00  0.00     0.041 A 
ATOM      4  C3  UNL d   1       0.730   0.458  -2.307  0.00  0.00    -0.075 A 
ATOM      5  S   UNL d   1       1.095   1.080  -3.873  0.00  0.00     0.015 SA
ATOM      6  C4  UNL d   1       1.704   2.538  -3.234  0.00  0.00     0.022 A 
ATOM      7  C5  UNL d   1       1.637   2.566  -1.861  0.00  0.00     0.026 A 
ATOM      8  C6  UNL d   1       1.075   1.368  -1.304  0.00  0.00    -0.082 A 
ATOM      9  C7  UNL d   1       0.835   1.002   0.042  0.00  0.00     0.045 A 
ENDROOT
TORSDOF 0
ENDMDL
