MODEL 1
REMARK minimizedAffinity -3.15272307
REMARK minimizedRMSD -1
REMARK  0 active torsions:
REMARK  status: ('A' for Active; 'I' for Inactive)
ROOT
ATOM      1  C   UNL d   1       0.835   2.207  -2.020  0.00  0.00    -0.002 A 
ATOM      2  C1  UNL d   1       0.776   2.064  -3.399  0.00  0.00     0.010 A 
ATOM      3  C2  UNL d   1       1.946   1.945  -4.151  0.00  0.00     0.041 A 
ATOM      4  C3  UNL d   1       3.189   1.972  -3.488  0.00  0.00    -0.075 A 
ATOM      5  S   UNL d   1       4.752   1.843  -4.203  0.00  0.00     0.015 SA
ATOM      6  C4  UNL d   1       5.535   1.974  -2.694  0.00  0.00     0.022 A 
ATOM      7  C5  UNL d   1       4.640   2.114  -1.660  0.00  0.00     0.026 A 
ATOM      8  C6  UNL d   1       3.273   2.114  -2.100  0.00  0.00    -0.082 A 
ATOM      9  C7  UNL d   1       2.069   2.233  -1.365  0.00  0.00     0.045 A 
ENDROOT
TORSDOF 0
ENDMDL
