MODEL 1
REMARK minimizedAffinity -2.28070974
REMARK minimizedRMSD -1
REMARK  0 active torsions:
REMARK  status: ('A' for Active; 'I' for Inactive)
ROOT
ATOM      1  C   UNL d   1      -2.744  -0.443   2.795  0.00  0.00    -0.002 A 
ATOM      2  C1  UNL d   1      -2.574   0.819   2.244  0.00  0.00     0.010 A 
ATOM      3  C2  UNL d   1      -1.569   1.054   1.303  0.00  0.00     0.041 A 
ATOM      4  C3  UNL d   1      -0.733  -0.013   0.919  0.00  0.00    -0.075 A 
ATOM      5  S   UNL d   1       0.563   0.040  -0.217  0.00  0.00     0.015 SA
ATOM      6  C4  UNL d   1       0.920  -1.612   0.002  0.00  0.00     0.022 A 
ATOM      7  C5  UNL d   1       0.081  -2.205   0.916  0.00  0.00     0.026 A 
ATOM      8  C6  UNL d   1      -0.885  -1.293   1.459  0.00  0.00    -0.082 A 
ATOM      9  C7  UNL d   1      -1.912  -1.498   2.412  0.00  0.00     0.045 A 
ENDROOT
TORSDOF 0
ENDMDL
