MODEL 1
REMARK minimizedAffinity -5.56548262
REMARK minimizedRMSD -1
REMARK  0 active torsions:
REMARK  status: ('A' for Active; 'I' for Inactive)
ROOT
ATOM      1  C   UNL d   1      -2.063  -2.484   1.882  0.00  0.00    -0.002 A 
ATOM      2  C1  UNL d   1      -2.808  -1.316   1.963  0.00  0.00     0.010 A 
ATOM      3  C2  UNL d   1      -2.297  -0.113   1.473  0.00  0.00     0.041 A 
ATOM      4  C3  UNL d   1      -1.013  -0.103   0.893  0.00  0.00    -0.075 A 
ATOM      5  S   UNL d   1      -0.184   1.253   0.226  0.00  0.00     0.015 SA
ATOM      6  C4  UNL d   1       1.178   0.314  -0.183  0.00  0.00     0.022 A 
ATOM      7  C5  UNL d   1       1.022  -1.004   0.174  0.00  0.00     0.026 A 
ATOM      8  C6  UNL d   1      -0.244  -1.267   0.799  0.00  0.00    -0.082 A 
ATOM      9  C7  UNL d   1      -0.790  -2.471   1.306  0.00  0.00     0.045 A 
ENDROOT
TORSDOF 0
ENDMDL
