MODEL 1
REMARK minimizedAffinity -4.17578936
REMARK minimizedRMSD -1
REMARK  0 active torsions:
REMARK  status: ('A' for Active; 'I' for Inactive)
ROOT
ATOM      1  C   UNL d   1      -1.824  -2.585   1.343  0.00  0.00    -0.002 A 
ATOM      2  C1  UNL d   1      -2.573  -1.417   1.355  0.00  0.00     0.010 A 
ATOM      3  C2  UNL d   1      -2.025  -0.217   0.896  0.00  0.00     0.041 A 
ATOM      4  C3  UNL d   1      -0.699  -0.212   0.419  0.00  0.00    -0.075 A 
ATOM      5  S   UNL d   1       0.180   1.139  -0.193  0.00  0.00     0.015 SA
ATOM      6  C4  UNL d   1       1.569   0.197  -0.487  0.00  0.00     0.022 A 
ATOM      7  C5  UNL d   1       1.385  -1.119  -0.132  0.00  0.00     0.026 A 
ATOM      8  C6  UNL d   1       0.074  -1.376   0.395  0.00  0.00    -0.082 A 
ATOM      9  C7  UNL d   1      -0.510  -2.576   0.868  0.00  0.00     0.045 A 
ENDROOT
TORSDOF 0
ENDMDL
