MODEL 1
REMARK minimizedAffinity -2.4358108
REMARK minimizedRMSD -1
REMARK  0 active torsions:
REMARK  status: ('A' for Active; 'I' for Inactive)
ROOT
ATOM      1  C   UNL d   1      -1.053  -2.819   1.007  0.00  0.00    -0.002 A 
ATOM      2  C1  UNL d   1      -2.236  -2.147   0.735  0.00  0.00     0.010 A 
ATOM      3  C2  UNL d   1      -2.213  -0.853   0.209  0.00  0.00     0.041 A 
ATOM      4  C3  UNL d   1      -0.969  -0.242  -0.042  0.00  0.00    -0.075 A 
ATOM      5  S   UNL d   1      -0.697   1.335  -0.684  0.00  0.00     0.015 SA
ATOM      6  C4  UNL d   1       0.996   1.153  -0.612  0.00  0.00     0.022 A 
ATOM      7  C5  UNL d   1       1.362  -0.074  -0.113  0.00  0.00     0.026 A 
ATOM      8  C6  UNL d   1       0.235  -0.899   0.223  0.00  0.00    -0.082 A 
ATOM      9  C7  UNL d   1       0.179  -2.209   0.756  0.00  0.00     0.045 A 
ENDROOT
TORSDOF 0
ENDMDL
