MODEL 1
REMARK minimizedAffinity 0.553542674
REMARK minimizedRMSD -1
REMARK  0 active torsions:
REMARK  status: ('A' for Active; 'I' for Inactive)
ROOT
ATOM      1  C1  BNZ d   1      -4.235  -2.856   6.000  0.00  0.00     0.000 A 
ATOM      2  C2  BNZ d   1      -4.467  -3.533   4.832  0.00  0.00     0.000 A 
ATOM      3  C3  BNZ d   1      -4.612  -2.862   3.651  0.00  0.00     0.000 A 
ATOM      4  C4  BNZ d   1      -4.566  -1.514   3.644  0.00  0.00     0.000 A 
ATOM      5  C5  BNZ d   1      -4.343  -0.816   4.815  0.00  0.00     0.000 A 
ATOM      6  C6  BNZ d   1      -4.158  -1.498   5.996  0.00  0.00     0.000 A 
ENDROOT
TORSDOF 0
ENDMDL
