MODEL 1
REMARK minimizedAffinity 0.693689585
REMARK minimizedRMSD -1
REMARK  0 active torsions:
REMARK  status: ('A' for Active; 'I' for Inactive)
ROOT
ATOM      1  C1  BNZ d   1       3.114  -6.000   3.082  0.00  0.00     0.000 A 
ATOM      2  C2  BNZ d   1       1.822  -6.000   3.535  0.00  0.00     0.000 A 
ATOM      3  C3  BNZ d   1       0.816  -5.460   2.783  0.00  0.00     0.000 A 
ATOM      4  C4  BNZ d   1       1.109  -4.885   1.599  0.00  0.00     0.000 A 
ATOM      5  C5  BNZ d   1       2.408  -4.869   1.132  0.00  0.00     0.000 A 
ATOM      6  C6  BNZ d   1       3.412  -5.448   1.874  0.00  0.00     0.000 A 
ENDROOT
TORSDOF 0
ENDMDL
