MODEL 1
REMARK minimizedAffinity -2.51732159
REMARK minimizedRMSD -1
REMARK  0 active torsions:
REMARK  status: ('A' for Active; 'I' for Inactive)
ROOT
ATOM      1  C1  BNZ d   1       5.024  -4.886   1.516  0.00  0.00     0.000 A 
ATOM      2  C2  BNZ d   1       3.808  -5.455   1.786  0.00  0.00     0.000 A 
ATOM      3  C3  BNZ d   1       3.545  -5.994   3.015  0.00  0.00     0.000 A 
ATOM      4  C4  BNZ d   1       4.510  -5.999   3.957  0.00  0.00     0.000 A 
ATOM      5  C5  BNZ d   1       5.744  -5.437   3.697  0.00  0.00     0.000 A 
ATOM      6  C6  BNZ d   1       5.992  -4.861   2.472  0.00  0.00     0.000 A 
ENDROOT
TORSDOF 0
ENDMDL
