MODEL 1
REMARK minimizedAffinity -3.31404138
REMARK minimizedRMSD -1
REMARK  0 active torsions:
REMARK  status: ('A' for Active; 'I' for Inactive)
ROOT
ATOM      1  C1  BNZ d   1       4.526  -3.938   1.505  0.00  0.00     0.000 A 
ATOM      2  C2  BNZ d   1       5.580  -3.948   2.379  0.00  0.00     0.000 A 
ATOM      3  C3  BNZ d   1       5.762  -4.990   3.245  0.00  0.00     0.000 A 
ATOM      4  C4  BNZ d   1       4.868  -6.000   3.264  0.00  0.00     0.000 A 
ATOM      5  C5  BNZ d   1       3.795  -6.000   2.395  0.00  0.00     0.000 A 
ATOM      6  C6  BNZ d   1       3.637  -4.968   1.498  0.00  0.00     0.000 A 
ENDROOT
TORSDOF 0
ENDMDL
