MODEL 1
REMARK minimizedAffinity 0.751056433
REMARK minimizedRMSD -1
REMARK  0 active torsions:
REMARK  status: ('A' for Active; 'I' for Inactive)
ROOT
ATOM      1  C1  BNZ d   1       0.757  -5.999   2.748  0.00  0.00     0.000 A 
ATOM      2  C2  BNZ d   1       2.024  -5.832   2.258  0.00  0.00     0.000 A 
ATOM      3  C3  BNZ d   1       2.290  -4.885   1.309  0.00  0.00     0.000 A 
ATOM      4  C4  BNZ d   1       1.281  -4.133   0.823  0.00  0.00     0.000 A 
ATOM      5  C5  BNZ d   1      -0.004  -4.295   1.300  0.00  0.00     0.000 A 
ATOM      6  C6  BNZ d   1      -0.261  -5.223   2.283  0.00  0.00     0.000 A 
ENDROOT
TORSDOF 0
ENDMDL
