MODEL 1
REMARK minimizedAffinity -1.49388552
REMARK minimizedRMSD -1
REMARK  0 active torsions:
REMARK  status: ('A' for Active; 'I' for Inactive)
ROOT
ATOM      1  C1  BNZ d   1       3.444  -6.000   3.014  0.00  0.00     0.000 A 
ATOM      2  C2  BNZ d   1       2.138  -6.000   3.427  0.00  0.00     0.000 A 
ATOM      3  C3  BNZ d   1       1.163  -5.420   2.664  0.00  0.00     0.000 A 
ATOM      4  C4  BNZ d   1       1.500  -4.807   1.511  0.00  0.00     0.000 A 
ATOM      5  C5  BNZ d   1       2.814  -4.791   1.086  0.00  0.00     0.000 A 
ATOM      6  C6  BNZ d   1       3.787  -5.409   1.837  0.00  0.00     0.000 A 
ENDROOT
TORSDOF 0
ENDMDL
