MODEL 1
REMARK minimizedAffinity -1.84656775
REMARK minimizedRMSD -1
REMARK  0 active torsions:
REMARK  status: ('A' for Active; 'I' for Inactive)
ROOT
ATOM      1  C1  BNZ d   1      -1.069  -4.890   0.905  0.00  0.00     0.000 A 
ATOM      2  C2  BNZ d   1       0.283  -4.884   1.122  0.00  0.00     0.000 A 
ATOM      3  C3  BNZ d   1       0.814  -5.455   2.245  0.00  0.00     0.000 A 
ATOM      4  C4  BNZ d   1      -0.009  -5.994   3.167  0.00  0.00     0.000 A 
ATOM      5  C5  BNZ d   1      -1.375  -5.999   2.967  0.00  0.00     0.000 A 
ATOM      6  C6  BNZ d   1      -1.903  -5.459   1.817  0.00  0.00     0.000 A 
ENDROOT
TORSDOF 0
ENDMDL
