MODEL 1
REMARK minimizedAffinity -1.48809397
REMARK minimizedRMSD -1
REMARK  0 active torsions:
REMARK  status: ('A' for Active; 'I' for Inactive)
ROOT
ATOM      1  C1  BNZ d   1      -5.991  -4.030   1.075  0.00  0.00     0.000 A 
ATOM      2  C2  BNZ d   1      -6.000  -5.330   1.506  0.00  0.00     0.000 A 
ATOM      3  C3  BNZ d   1      -4.830  -6.000   1.734  0.00  0.00     0.000 A 
ATOM      4  C4  BNZ d   1      -3.655  -5.383   1.491  0.00  0.00     0.000 A 
ATOM      5  C5  BNZ d   1      -3.629  -4.076   1.047  0.00  0.00     0.000 A 
ATOM      6  C6  BNZ d   1      -4.808  -3.392   0.857  0.00  0.00     0.000 A 
ENDROOT
TORSDOF 0
ENDMDL
