MODEL 1
REMARK minimizedAffinity 2.0413835
REMARK minimizedRMSD -1
REMARK  0 active torsions:
REMARK  status: ('A' for Active; 'I' for Inactive)
ROOT
ATOM      1  C1  BNZ d   1       0.085  -4.814   1.321  0.00  0.00     0.000 A 
ATOM      2  C2  BNZ d   1      -0.581  -3.635   1.110  0.00  0.00     0.000 A 
ATOM      3  C3  BNZ d   1      -1.896  -3.631   0.740  0.00  0.00     0.000 A 
ATOM      4  C4  BNZ d   1      -2.534  -4.803   0.543  0.00  0.00     0.000 A 
ATOM      5  C5  BNZ d   1      -1.874  -5.999   0.742  0.00  0.00     0.000 A 
ATOM      6  C6  BNZ d   1      -0.561  -6.000   1.152  0.00  0.00     0.000 A 
ENDROOT
TORSDOF 0
ENDMDL
