MODEL 1
REMARK minimizedAffinity 1.73417938
REMARK minimizedRMSD -1
REMARK  0 active torsions:
REMARK  status: ('A' for Active; 'I' for Inactive)
ROOT
ATOM      1  C1  BNZ d   1      -0.348   1.810   2.177  0.00  0.00     0.000 A 
ATOM      2  C2  BNZ d   1      -0.391   1.057   1.034  0.00  0.00     0.000 A 
ATOM      3  C3  BNZ d   1      -1.586   0.652   0.507  0.00  0.00     0.000 A 
ATOM      4  C4  BNZ d   1      -2.732   0.966   1.144  0.00  0.00     0.000 A 
ATOM      5  C5  BNZ d   1      -2.705   1.717   2.303  0.00  0.00     0.000 A 
ATOM      6  C6  BNZ d   1      -1.503   2.156   2.809  0.00  0.00     0.000 A 
ENDROOT
TORSDOF 0
ENDMDL
