MODEL 1
REMARK minimizedAffinity 2.53275871
REMARK minimizedRMSD -1
REMARK  0 active torsions:
REMARK  status: ('A' for Active; 'I' for Inactive)
ROOT
ATOM      1  C1  BNZ d   1      -5.990   0.137   3.499  0.00  0.00     0.000 A 
ATOM      2  C2  BNZ d   1      -6.000  -0.654   4.617  0.00  0.00     0.000 A 
ATOM      3  C3  BNZ d   1      -6.000  -0.100   5.867  0.00  0.00     0.000 A 
ATOM      4  C4  BNZ d   1      -5.949   1.242   5.997  0.00  0.00     0.000 A 
ATOM      5  C5  BNZ d   1      -5.929   2.052   4.880  0.00  0.00     0.000 A 
ATOM      6  C6  BNZ d   1      -5.968   1.492   3.624  0.00  0.00     0.000 A 
ENDROOT
TORSDOF 0
ENDMDL
