MODEL 1
REMARK minimizedAffinity 6.04083395
REMARK minimizedRMSD -1
REMARK  0 active torsions:
REMARK  status: ('A' for Active; 'I' for Inactive)
ROOT
ATOM      1  C1  BNZ d   1      -1.375   2.590   2.942  0.00  0.00     0.000 A 
ATOM      2  C2  BNZ d   1      -2.494   1.973   2.449  0.00  0.00     0.000 A 
ATOM      3  C3  BNZ d   1      -2.403   1.074   1.423  0.00  0.00     0.000 A 
ATOM      4  C4  BNZ d   1      -1.200   0.823   0.866  0.00  0.00     0.000 A 
ATOM      5  C5  BNZ d   1      -0.064   1.443   1.347  0.00  0.00     0.000 A 
ATOM      6  C6  BNZ d   1      -0.154   2.318   2.405  0.00  0.00     0.000 A 
ENDROOT
TORSDOF 0
ENDMDL
