MODEL 1
REMARK minimizedAffinity 3.56826448
REMARK minimizedRMSD -1
REMARK  0 active torsions:
REMARK  status: ('A' for Active; 'I' for Inactive)
ROOT
ATOM      1  C1  BNZ d   1       4.924   2.804  -0.234  0.00  0.00     0.000 A 
ATOM      2  C2  BNZ d   1       5.980   3.456  -0.813  0.00  0.00     0.000 A 
ATOM      3  C3  BNZ d   1       6.000   4.820  -0.896  0.00  0.00     0.000 A 
ATOM      4  C4  BNZ d   1       4.947   5.528  -0.439  0.00  0.00     0.000 A 
ATOM      5  C5  BNZ d   1       3.870   4.884   0.139  0.00  0.00     0.000 A 
ATOM      6  C6  BNZ d   1       3.872   3.514   0.257  0.00  0.00     0.000 A 
ENDROOT
TORSDOF 0
ENDMDL
