MODEL 1
REMARK minimizedAffinity 9.93266487
REMARK minimizedRMSD -1
REMARK  2 active torsions:
REMARK  status: ('A' for Active; 'I' for Inactive)
REMARK    1  A    between atoms: C2'_3  and  C1'_4 
REMARK    2  A    between atoms: C1'_4  and  C1_5 
ROOT
ATOM      1  C1  I4B d   1       2.288   1.813   1.060  0.00  0.00    -0.075 A 
ATOM      2  C2  I4B d   1       3.151   2.711   0.484  0.00  0.00     0.003 A 
ATOM      3  C3  I4B d   1       3.707   2.447  -0.791  0.00  0.00     0.002 A 
ATOM      4  C4  I4B d   1       3.415   1.258  -1.427  0.00  0.00    -0.004 A 
ATOM      5  C5  I4B d   1       2.522   0.359  -0.851  0.00  0.00     0.002 A 
ATOM      6  C6  I4B d   1       1.945   0.643   0.395  0.00  0.00     0.003 A 
ENDROOT
BRANCH   1   7
ATOM      7  C1' I4B d   1       1.745   2.108   2.422  0.00  0.00     0.060 C 
BRANCH   7   8
ATOM      8  C2' I4B d   1       1.341   0.793   3.059  0.00  0.00    -0.013 C 
ATOM      9  C4' I4B d   1       2.376   0.326   4.048  0.00  0.00     0.013 C 
ATOM     10  C3' I4B d   1       0.010   0.988   3.720  0.00  0.00     0.013 C 
ENDBRANCH   7   8
ENDBRANCH   1   7
TORSDOF 2
ENDMDL
