MODEL 1
REMARK minimizedAffinity 22.0644321
REMARK minimizedRMSD -1
REMARK  2 active torsions:
REMARK  status: ('A' for Active; 'I' for Inactive)
REMARK    1  A    between atoms: C2'_3  and  C1'_4 
REMARK    2  A    between atoms: C1'_4  and  C1_5 
ROOT
ATOM      1  C1  I4B d   1       0.606  -3.299   5.273  0.00  0.00    -0.075 A 
ATOM      2  C2  I4B d   1       1.789  -3.917   5.595  0.00  0.00     0.003 A 
ATOM      3  C3  I4B d   1       1.805  -5.291   5.938  0.00  0.00     0.002 A 
ATOM      4  C4  I4B d   1       0.617  -5.991   5.995  0.00  0.00    -0.004 A 
ATOM      5  C5  I4B d   1      -0.578  -5.368   5.646  0.00  0.00     0.002 A 
ATOM      6  C6  I4B d   1      -0.582  -4.017   5.271  0.00  0.00     0.003 A 
ENDROOT
BRANCH   1   7
ATOM      7  C1' I4B d   1       0.621  -1.839   4.948  0.00  0.00     0.060 C 
BRANCH   7   8
ATOM      8  C2' I4B d   1      -0.020  -1.657   3.587  0.00  0.00    -0.013 C 
ATOM      9  C4' I4B d   1      -0.128  -0.199   3.226  0.00  0.00     0.013 C 
ATOM     10  C3' I4B d   1       0.805  -2.404   2.583  0.00  0.00     0.013 C 
ENDBRANCH   7   8
ENDBRANCH   1   7
TORSDOF 2
ENDMDL
