MODEL 1
REMARK minimizedAffinity 13.1302395
REMARK minimizedRMSD -1
REMARK  2 active torsions:
REMARK  status: ('A' for Active; 'I' for Inactive)
REMARK    1  A    between atoms: C2'_3  and  C1'_4 
REMARK    2  A    between atoms: C1'_4  and  C1_5 
ROOT
ATOM      1  C1  I4B d   1       2.594   1.330   1.893  0.00  0.00    -0.075 A 
ATOM      2  C2  I4B d   1       1.498   0.700   2.429  0.00  0.00     0.003 A 
ATOM      3  C3  I4B d   1       0.732   1.336   3.436  0.00  0.00     0.002 A 
ATOM      4  C4  I4B d   1       1.123   2.572   3.909  0.00  0.00    -0.004 A 
ATOM      5  C5  I4B d   1       2.220   3.219   3.349  0.00  0.00     0.002 A 
ATOM      6  C6  I4B d   1       2.954   2.600   2.326  0.00  0.00     0.003 A 
ENDROOT
BRANCH   1   7
ATOM      7  C1' I4B d   1       3.400   0.616   0.856  0.00  0.00     0.060 C 
BRANCH   7   8
ATOM      8  C2' I4B d   1       2.853   0.998  -0.505  0.00  0.00    -0.013 C 
ATOM      9  C4' I4B d   1       1.355   1.152  -0.467  0.00  0.00     0.013 C 
ATOM     10  C3' I4B d   1       3.518   2.273  -0.930  0.00  0.00     0.013 C 
ENDBRANCH   7   8
ENDBRANCH   1   7
TORSDOF 2
ENDMDL
