MODEL 1
REMARK minimizedAffinity 17.7324944
REMARK minimizedRMSD -1
REMARK  2 active torsions:
REMARK  status: ('A' for Active; 'I' for Inactive)
REMARK    1  A    between atoms: C2'_3  and  C1'_4 
REMARK    2  A    between atoms: C1'_4  and  C1_5 
ROOT
ATOM      1  C1  I4B d   1      -0.228  -1.774   4.136  0.00  0.00    -0.075 A 
ATOM      2  C2  I4B d   1       0.540  -1.787   5.274  0.00  0.00     0.003 A 
ATOM      3  C3  I4B d   1       0.717  -2.990   6.000  0.00  0.00     0.002 A 
ATOM      4  C4  I4B d   1       0.072  -4.137   5.584  0.00  0.00    -0.004 A 
ATOM      5  C5  I4B d   1      -0.688  -4.126   4.417  0.00  0.00     0.002 A 
ATOM      6  C6  I4B d   1      -0.829  -2.941   3.682  0.00  0.00     0.003 A 
ENDROOT
BRANCH   1   7
ATOM      7  C1' I4B d   1      -0.422  -0.479   3.413  0.00  0.00     0.060 C 
BRANCH   7   8
ATOM      8  C2' I4B d   1       0.865   0.314   3.523  0.00  0.00    -0.013 C 
ATOM      9  C4' I4B d   1       1.458   0.584   2.165  0.00  0.00     0.013 C 
ATOM     10  C3' I4B d   1       0.559   1.593   4.244  0.00  0.00     0.013 C 
ENDBRANCH   7   8
ENDBRANCH   1   7
TORSDOF 2
ENDMDL
