MODEL 1
REMARK minimizedAffinity 7.4687767
REMARK minimizedRMSD -1
REMARK  2 active torsions:
REMARK  status: ('A' for Active; 'I' for Inactive)
REMARK    1  A    between atoms: C2'_3  and  C1'_4 
REMARK    2  A    between atoms: C1'_4  and  C1_5 
ROOT
ATOM      1  C1  I4B d   1      -3.781   0.622  -2.825  0.00  0.00    -0.075 A 
ATOM      2  C2  I4B d   1      -2.601   0.791  -3.504  0.00  0.00     0.003 A 
ATOM      3  C3  I4B d   1      -2.610   1.214  -4.855  0.00  0.00     0.002 A 
ATOM      4  C4  I4B d   1      -3.816   1.406  -5.499  0.00  0.00    -0.004 A 
ATOM      5  C5  I4B d   1      -5.011   1.257  -4.802  0.00  0.00     0.002 A 
ATOM      6  C6  I4B d   1      -4.994   0.874  -3.453  0.00  0.00     0.003 A 
ENDROOT
BRANCH   1   7
ATOM      7  C1' I4B d   1      -3.736   0.143  -1.408  0.00  0.00     0.060 C 
BRANCH   7   8
ATOM      8  C2' I4B d   1      -4.949   0.695  -0.689  0.00  0.00    -0.013 C 
ATOM      9  C4' I4B d   1      -5.985  -0.375  -0.467  0.00  0.00     0.013 C 
ATOM     10  C3' I4B d   1      -4.489   1.282   0.612  0.00  0.00     0.013 C 
ENDBRANCH   7   8
ENDBRANCH   1   7
TORSDOF 2
ENDMDL
