MODEL 1
REMARK minimizedAffinity 6.47747707
REMARK minimizedRMSD -1
REMARK  1 active torsions:
REMARK  status: ('A' for Active; 'I' for Inactive)
REMARK    1  A    between atoms: N_2  and  C1_3 
ROOT
ATOM      1  C1  UNL d   1       4.048   2.337   5.259  0.00  0.00     0.143 A 
ATOM      2  C2  UNL d   1       4.665   2.058   4.035  0.00  0.00    -0.057 A 
ATOM      3  C3  UNL d   1       4.733   0.751   3.537  0.00  0.00     0.033 A 
ATOM      4  C4  UNL d   1       4.208  -0.307   4.272  0.00  0.00    -0.042 A 
ATOM      5  C5  UNL d   1       3.611  -0.056   5.502  0.00  0.00     0.033 A 
ATOM      6  C6  UNL d   1       3.541   1.252   5.991  0.00  0.00    -0.057 A 
ENDROOT
BRANCH   1   7
ATOM      7  N   UNL d   1       4.035   3.601   5.853  0.00  0.00    -0.732 N 
ATOM      8  C   UNL d   1       5.237   4.407   5.897  0.00  0.00     0.284 C 
ATOM      9  H3  UNL d   1       3.191   4.125   5.634  0.00  0.00     0.395 HD
ENDBRANCH   1   7
TORSDOF 1
ENDMDL
