MODEL 1
REMARK minimizedAffinity 6.40077257
REMARK minimizedRMSD -1
REMARK  1 active torsions:
REMARK  status: ('A' for Active; 'I' for Inactive)
REMARK    1  A    between atoms: N_2  and  C1_3 
ROOT
ATOM      1  C1  UNL d   1       4.680   1.742   3.263  0.00  0.00     0.143 A 
ATOM      2  C2  UNL d   1       4.436   2.821   4.119  0.00  0.00    -0.057 A 
ATOM      3  C3  UNL d   1       4.155   2.623   5.476  0.00  0.00     0.033 A 
ATOM      4  C4  UNL d   1       4.085   1.335   5.997  0.00  0.00    -0.042 A 
ATOM      5  C5  UNL d   1       4.299   0.246   5.159  0.00  0.00     0.033 A 
ATOM      6  C6  UNL d   1       4.585   0.451   3.806  0.00  0.00    -0.057 A 
ENDROOT
BRANCH   1   7
ATOM      7  N   UNL d   1       4.867   1.869   1.884  0.00  0.00    -0.732 N 
ATOM      8  C   UNL d   1       3.749   2.163   1.013  0.00  0.00     0.284 C 
ATOM      9  H3  UNL d   1       5.719   2.375   1.653  0.00  0.00     0.395 HD
ENDBRANCH   1   7
TORSDOF 1
ENDMDL
