MODEL 1
REMARK minimizedAffinity 7.47303963
REMARK minimizedRMSD -1
REMARK  1 active torsions:
REMARK  status: ('A' for Active; 'I' for Inactive)
REMARK    1  A    between atoms: N_2  and  C1_3 
ROOT
ATOM      1  C1  UNL d   1      -1.514  -1.670   2.234  0.00  0.00     0.143 A 
ATOM      2  C2  UNL d   1      -0.553  -2.686   2.241  0.00  0.00    -0.057 A 
ATOM      3  C3  UNL d   1      -0.532  -3.674   1.248  0.00  0.00     0.033 A 
ATOM      4  C4  UNL d   1      -1.495  -3.680   0.244  0.00  0.00    -0.042 A 
ATOM      5  C5  UNL d   1      -2.476  -2.694   0.232  0.00  0.00     0.033 A 
ATOM      6  C6  UNL d   1      -2.487  -1.707   1.222  0.00  0.00    -0.057 A 
ENDROOT
BRANCH   1   7
ATOM      7  N   UNL d   1      -1.647  -0.718   3.247  0.00  0.00    -0.732 N 
ATOM      8  C   UNL d   1      -1.079  -0.951   4.557  0.00  0.00     0.284 C 
ATOM      9  H3  UNL d   1      -1.526   0.233   2.905  0.00  0.00     0.395 HD
ENDBRANCH   1   7
TORSDOF 1
ENDMDL
