MODEL 1
REMARK minimizedAffinity 12.4829903
REMARK minimizedRMSD -1
REMARK  1 active torsions:
REMARK  status: ('A' for Active; 'I' for Inactive)
REMARK    1  A    between atoms: N_2  and  C1_3 
ROOT
ATOM      1  C1  UNL d   1       3.501  -0.177  -2.713  0.00  0.00     0.143 A 
ATOM      2  C2  UNL d   1       3.949   1.101  -3.064  0.00  0.00    -0.057 A 
ATOM      3  C3  UNL d   1       5.179   1.289  -3.705  0.00  0.00     0.033 A 
ATOM      4  C4  UNL d   1       5.999   0.200  -3.982  0.00  0.00    -0.042 A 
ATOM      5  C5  UNL d   1       5.586  -1.077  -3.620  0.00  0.00     0.033 A 
ATOM      6  C6  UNL d   1       4.353  -1.259  -2.986  0.00  0.00    -0.057 A 
ENDROOT
BRANCH   1   7
ATOM      7  N   UNL d   1       2.333  -0.420  -1.986  0.00  0.00    -0.732 N 
ATOM      8  C   UNL d   1       1.124  -0.850  -2.655  0.00  0.00     0.284 C 
ATOM      9  H3  UNL d   1       2.516  -0.901  -1.108  0.00  0.00     0.395 HD
ENDBRANCH   1   7
TORSDOF 1
ENDMDL
