MODEL 1
REMARK minimizedAffinity 8.67425823
REMARK minimizedRMSD -1
REMARK  1 active torsions:
REMARK  status: ('A' for Active; 'I' for Inactive)
REMARK    1  A    between atoms: N_2  and  C1_3 
ROOT
ATOM      1  C1  UNL d   1      -1.531   0.038   1.823  0.00  0.00     0.143 A 
ATOM      2  C2  UNL d   1      -1.352  -0.730   0.667  0.00  0.00    -0.057 A 
ATOM      3  C3  UNL d   1      -1.113  -2.108   0.740  0.00  0.00     0.033 A 
ATOM      4  C4  UNL d   1      -1.020  -2.739   1.976  0.00  0.00    -0.042 A 
ATOM      5  C5  UNL d   1      -1.170  -1.991   3.139  0.00  0.00     0.033 A 
ATOM      6  C6  UNL d   1      -1.415  -0.617   3.059  0.00  0.00    -0.057 A 
ENDROOT
BRANCH   1   7
ATOM      7  N   UNL d   1      -1.673   1.427   1.819  0.00  0.00    -0.732 N 
ATOM      8  C   UNL d   1      -2.777   2.054   1.122  0.00  0.00     0.284 C 
ATOM      9  H3  UNL d   1      -1.465   1.841   2.725  0.00  0.00     0.395 HD
ENDBRANCH   1   7
TORSDOF 1
ENDMDL
