MODEL 1
REMARK minimizedAffinity 2.77280521
REMARK minimizedRMSD -1
REMARK  1 active torsions:
REMARK  status: ('A' for Active; 'I' for Inactive)
REMARK    1  A    between atoms: N_2  and  C1_3 
ROOT
ATOM      1  C1  UNL d   1      -1.951  -2.297  -0.557  0.00  0.00     0.143 A 
ATOM      2  C2  UNL d   1      -1.012  -3.244  -0.132  0.00  0.00    -0.057 A 
ATOM      3  C3  UNL d   1      -0.774  -3.472   1.229  0.00  0.00     0.033 A 
ATOM      4  C4  UNL d   1      -1.452  -2.733   2.192  0.00  0.00    -0.042 A 
ATOM      5  C5  UNL d   1      -2.372  -1.769   1.793  0.00  0.00     0.033 A 
ATOM      6  C6  UNL d   1      -2.610  -1.551   0.433  0.00  0.00    -0.057 A 
ENDROOT
BRANCH   1   7
ATOM      7  N   UNL d   1      -2.161  -1.956  -1.895  0.00  0.00    -0.732 N 
ATOM      8  C   UNL d   1      -1.833  -2.887  -2.953  0.00  0.00     0.284 C 
ATOM      9  H3  UNL d   1      -3.037  -1.458  -2.036  0.00  0.00     0.395 HD
ENDBRANCH   1   7
TORSDOF 1
ENDMDL
