MODEL 1
REMARK minimizedAffinity 13.5743618
REMARK minimizedRMSD -1
REMARK  1 active torsions:
REMARK  status: ('A' for Active; 'I' for Inactive)
REMARK    1  A    between atoms: N_2  and  C1_3 
ROOT
ATOM      1  C1  UNL d   1      -3.858   4.848  -4.145  0.00  0.00     0.143 A 
ATOM      2  C2  UNL d   1      -4.225   3.658  -4.782  0.00  0.00    -0.057 A 
ATOM      3  C3  UNL d   1      -5.272   3.625  -5.711  0.00  0.00     0.033 A 
ATOM      4  C4  UNL d   1      -5.991   4.781  -6.000  0.00  0.00    -0.042 A 
ATOM      5  C5  UNL d   1      -5.659   5.970  -5.360  0.00  0.00     0.033 A 
ATOM      6  C6  UNL d   1      -4.608   5.998  -4.438  0.00  0.00    -0.057 A 
ENDROOT
BRANCH   1   7
ATOM      7  N   UNL d   1      -2.891   4.926  -3.139  0.00  0.00    -0.732 N 
ATOM      8  C   UNL d   1      -3.273   4.873  -1.744  0.00  0.00     0.284 C 
ATOM      9  H3  UNL d   1      -2.055   4.390  -3.361  0.00  0.00     0.395 HD
ENDBRANCH   1   7
TORSDOF 1
ENDMDL
