MODEL 1
REMARK minimizedAffinity 3.6964097
REMARK minimizedRMSD -1
REMARK  1 active torsions:
REMARK  status: ('A' for Active; 'I' for Inactive)
REMARK    1  A    between atoms: N_2  and  C1_3 
ROOT
ATOM      1  C1  UNL d   1      -1.273  -2.514   0.169  0.00  0.00     0.143 A 
ATOM      2  C2  UNL d   1      -2.177  -1.464  -0.026  0.00  0.00    -0.057 A 
ATOM      3  C3  UNL d   1      -2.744  -1.218  -1.283  0.00  0.00     0.033 A 
ATOM      4  C4  UNL d   1      -2.393  -2.003  -2.377  0.00  0.00    -0.042 A 
ATOM      5  C5  UNL d   1      -1.477  -3.036  -2.211  0.00  0.00     0.033 A 
ATOM      6  C6  UNL d   1      -0.920  -3.280  -0.953  0.00  0.00    -0.057 A 
ENDROOT
BRANCH   1   7
ATOM      7  N   UNL d   1      -0.601  -2.748   1.371  0.00  0.00    -0.732 N 
ATOM      8  C   UNL d   1      -0.872  -1.935   2.537  0.00  0.00     0.284 C 
ATOM      9  H3  UNL d   1      -0.496  -3.740   1.571  0.00  0.00     0.395 HD
ENDBRANCH   1   7
TORSDOF 1
ENDMDL
