MODEL 1
REMARK minimizedAffinity 8.27251053
REMARK minimizedRMSD -1
REMARK  1 active torsions:
REMARK  status: ('A' for Active; 'I' for Inactive)
REMARK    1  A    between atoms: N_2  and  C1_3 
ROOT
ATOM      1  C1  UNL d   1      -1.230  -0.791   2.619  0.00  0.00     0.143 A 
ATOM      2  C2  UNL d   1      -1.024  -0.789   1.235  0.00  0.00    -0.057 A 
ATOM      3  C3  UNL d   1      -1.070  -1.975   0.493  0.00  0.00     0.033 A 
ATOM      4  C4  UNL d   1      -1.294  -3.192   1.128  0.00  0.00    -0.042 A 
ATOM      5  C5  UNL d   1      -1.476  -3.221   2.506  0.00  0.00     0.033 A 
ATOM      6  C6  UNL d   1      -1.436  -2.032   3.241  0.00  0.00    -0.057 A 
ENDROOT
BRANCH   1   7
ATOM      7  N   UNL d   1      -1.099   0.342   3.426  0.00  0.00    -0.732 N 
ATOM      8  C   UNL d   1      -1.241   0.243   4.863  0.00  0.00     0.284 C 
ATOM      9  H3  UNL d   1      -0.341   0.949   3.124  0.00  0.00     0.395 HD
ENDBRANCH   1   7
TORSDOF 1
ENDMDL
