MODEL 1
REMARK minimizedAffinity 10.636898
REMARK minimizedRMSD -1
REMARK  0 active torsions:
REMARK  status: ('A' for Active; 'I' for Inactive)
ROOT
ATOM      1  N1  IND d   1       3.824   2.364  -0.260  0.00  0.00    -0.196 N 
ATOM      2  C2  IND d   1       5.006   2.710  -0.853  0.00  0.00     0.054 A 
ATOM      3  C3  IND d   1       6.000   2.746   0.063  0.00  0.00    -0.031 A 
ATOM      4  C4  IND d   1       5.932   2.173   2.572  0.00  0.00     0.051 A 
ATOM      5  C5  IND d   1       5.068   1.840   3.578  0.00  0.00    -0.031 A 
ATOM      6  C6  IND d   1       3.720   1.658   3.351  0.00  0.00     0.015 A 
ATOM      7  C7  IND d   1       3.183   1.792   2.101  0.00  0.00    -0.016 A 
ATOM      8  C8  IND d   1       4.056   2.137   1.079  0.00  0.00    -0.047 A 
ATOM      9  C9  IND d   1       5.418   2.365   1.311  0.00  0.00    -0.096 A 
ATOM     10  HN1 IND d   1       3.064   2.299  -0.657  0.00  0.00     0.298 HD
ENDROOT
TORSDOF 0
ENDMDL
