MODEL 1
REMARK minimizedAffinity 11.3778954
REMARK minimizedRMSD -1
REMARK  0 active torsions:
REMARK  status: ('A' for Active; 'I' for Inactive)
ROOT
ATOM      1  N1  IND d   1       5.026  -4.919  -3.849  0.00  0.00    -0.196 N 
ATOM      2  C2  IND d   1       5.756  -5.157  -4.980  0.00  0.00     0.054 A 
ATOM      3  C3  IND d   1       4.958  -5.629  -5.964  0.00  0.00    -0.031 A 
ATOM      4  C4  IND d   1       2.410  -5.994  -5.970  0.00  0.00     0.051 A 
ATOM      5  C5  IND d   1       1.314  -5.951  -5.155  0.00  0.00    -0.031 A 
ATOM      6  C6  IND d   1       1.400  -5.552  -3.837  0.00  0.00     0.015 A 
ATOM      7  C7  IND d   1       2.590  -5.168  -3.286  0.00  0.00    -0.016 A 
ATOM      8  C8  IND d   1       3.706  -5.216  -4.109  0.00  0.00    -0.047 A 
ATOM      9  C9  IND d   1       3.632  -5.661  -5.435  0.00  0.00    -0.096 A 
ATOM     10  HN1 IND d   1       5.339  -4.632  -3.101  0.00  0.00     0.298 HD
ENDROOT
TORSDOF 0
ENDMDL
