MODEL 1
REMARK minimizedAffinity 11.0150623
REMARK minimizedRMSD -1
REMARK  0 active torsions:
REMARK  status: ('A' for Active; 'I' for Inactive)
ROOT
ATOM      1  N1  IND d   1       2.119   1.802   2.970  0.00  0.00    -0.196 N 
ATOM      2  C2  IND d   1       3.178   1.869   2.108  0.00  0.00     0.054 A 
ATOM      3  C3  IND d   1       2.769   2.302   0.894  0.00  0.00    -0.031 A 
ATOM      4  C4  IND d   1       0.429   3.055   0.129  0.00  0.00     0.051 A 
ATOM      5  C5  IND d   1      -0.868   3.136   0.552  0.00  0.00    -0.031 A 
ATOM      6  C6  IND d   1      -1.243   2.773   1.829  0.00  0.00     0.015 A 
ATOM      7  C7  IND d   1      -0.328   2.322   2.739  0.00  0.00    -0.016 A 
ATOM      8  C8  IND d   1       0.989   2.231   2.310  0.00  0.00    -0.047 A 
ATOM      9  C9  IND d   1       1.368   2.559   1.002  0.00  0.00    -0.096 A 
ATOM     10  HN1 IND d   1       2.154   1.536   3.787  0.00  0.00     0.298 HD
ENDROOT
TORSDOF 0
ENDMDL
