MODEL 1
REMARK minimizedAffinity 5.95228338
REMARK minimizedRMSD -1
REMARK  0 active torsions:
REMARK  status: ('A' for Active; 'I' for Inactive)
ROOT
ATOM      1  N1  IND d   1       1.700  -5.995  -4.832  0.00  0.00    -0.196 N 
ATOM      2  C2  IND d   1       1.227  -5.365  -3.715  0.00  0.00     0.054 A 
ATOM      3  C3  IND d   1       2.197  -4.606  -3.156  0.00  0.00    -0.031 A 
ATOM      4  C4  IND d   1       4.602  -4.172  -3.965  0.00  0.00     0.051 A 
ATOM      5  C5  IND d   1       5.504  -4.555  -4.918  0.00  0.00    -0.031 A 
ATOM      6  C6  IND d   1       5.177  -5.454  -5.912  0.00  0.00     0.015 A 
ATOM      7  C7  IND d   1       3.926  -5.997  -5.998  0.00  0.00    -0.016 A 
ATOM      8  C8  IND d   1       3.010  -5.615  -5.028  0.00  0.00    -0.047 A 
ATOM      9  C9  IND d   1       3.349  -4.737  -3.991  0.00  0.00    -0.096 A 
ATOM     10  HN1 IND d   1       1.255  -6.538  -5.328  0.00  0.00     0.298 HD
ENDROOT
TORSDOF 0
ENDMDL
