MODEL 1
REMARK minimizedAffinity 10.7610598
REMARK minimizedRMSD -1
REMARK  0 active torsions:
REMARK  status: ('A' for Active; 'I' for Inactive)
ROOT
ATOM      1  N1  IND d   1       2.023   0.253   1.534  0.00  0.00    -0.196 N 
ATOM      2  C2  IND d   1       2.998   1.112   1.112  0.00  0.00     0.054 A 
ATOM      3  C3  IND d   1       2.447   2.247   0.626  0.00  0.00    -0.031 A 
ATOM      4  C4  IND d   1      -0.028   2.948   0.522  0.00  0.00     0.051 A 
ATOM      5  C5  IND d   1      -1.291   2.480   0.756  0.00  0.00    -0.031 A 
ATOM      6  C6  IND d   1      -1.518   1.222   1.275  0.00  0.00     0.015 A 
ATOM      7  C7  IND d   1      -0.486   0.385   1.591  0.00  0.00    -0.016 A 
ATOM      8  C8  IND d   1       0.798   0.854   1.348  0.00  0.00    -0.047 A 
ATOM      9  C9  IND d   1       1.033   2.113   0.781  0.00  0.00    -0.096 A 
ATOM     10  HN1 IND d   1       2.153  -0.532   1.862  0.00  0.00     0.298 HD
ENDROOT
TORSDOF 0
ENDMDL
