MODEL 1
REMARK minimizedAffinity 5.79357767
REMARK minimizedRMSD -1
REMARK  0 active torsions:
REMARK  status: ('A' for Active; 'I' for Inactive)
ROOT
ATOM      1  N1  IND d   1       1.822   1.549   2.643  0.00  0.00    -0.196 N 
ATOM      2  C2  IND d   1       2.872   1.963   1.871  0.00  0.00     0.054 A 
ATOM      3  C3  IND d   1       2.421   2.605   0.770  0.00  0.00    -0.031 A 
ATOM      4  C4  IND d   1       0.007   3.179   0.085  0.00  0.00     0.051 A 
ATOM      5  C5  IND d   1      -1.294   2.977   0.452  0.00  0.00    -0.031 A 
ATOM      6  C6  IND d   1      -1.629   2.278   1.593  0.00  0.00     0.015 A 
ATOM      7  C7  IND d   1      -0.672   1.761   2.419  0.00  0.00    -0.016 A 
ATOM      8  C8  IND d   1       0.650   1.957   2.046  0.00  0.00    -0.047 A 
ATOM      9  C9  IND d   1       0.996   2.630   0.866  0.00  0.00    -0.096 A 
ATOM     10  HN1 IND d   1       1.884   1.107   3.379  0.00  0.00     0.298 HD
ENDROOT
TORSDOF 0
ENDMDL
