MODEL 1
REMARK minimizedAffinity 6.18182421
REMARK minimizedRMSD -1
REMARK  0 active torsions:
REMARK  status: ('A' for Active; 'I' for Inactive)
ROOT
ATOM      1  N1  IND d   1      -0.369   2.479   2.108  0.00  0.00    -0.196 N 
ATOM      2  C2  IND d   1      -0.510   2.385   0.752  0.00  0.00     0.054 A 
ATOM      3  C3  IND d   1       0.660   2.019   0.182  0.00  0.00    -0.031 A 
ATOM      4  C4  IND d   1       2.905   1.424   1.293  0.00  0.00     0.051 A 
ATOM      5  C5  IND d   1       3.532   1.398   2.507  0.00  0.00    -0.031 A 
ATOM      6  C6  IND d   1       2.878   1.735   3.674  0.00  0.00     0.015 A 
ATOM      7  C7  IND d   1       1.561   2.102   3.672  0.00  0.00    -0.016 A 
ATOM      8  C8  IND d   1       0.923   2.136   2.440  0.00  0.00    -0.047 A 
ATOM      9  C9  IND d   1       1.594   1.836   1.248  0.00  0.00    -0.096 A 
ATOM     10  HN1 IND d   1      -0.985   2.714   2.661  0.00  0.00     0.298 HD
ENDROOT
TORSDOF 0
ENDMDL
