MODEL 1
REMARK minimizedAffinity 18.8201847
REMARK minimizedRMSD -1
REMARK  0 active torsions:
REMARK  status: ('A' for Active; 'I' for Inactive)
ROOT
ATOM      1  N1  IND d   1      -2.214   2.742   1.457  0.00  0.00    -0.196 N 
ATOM      2  C2  IND d   1      -2.381   2.043   2.620  0.00  0.00     0.054 A 
ATOM      3  C3  IND d   1      -1.184   1.640   3.102  0.00  0.00    -0.031 A 
ATOM      4  C4  IND d   1       1.182   2.103   2.201  0.00  0.00     0.051 A 
ATOM      5  C5  IND d   1       1.841   2.667   1.145  0.00  0.00    -0.031 A 
ATOM      6  C6  IND d   1       1.169   3.300   0.119  0.00  0.00     0.015 A 
ATOM      7  C7  IND d   1      -0.193   3.402   0.118  0.00  0.00    -0.016 A 
ATOM      8  C8  IND d   1      -0.867   2.825   1.185  0.00  0.00    -0.047 A 
ATOM      9  C9  IND d   1      -0.192   2.145   2.207  0.00  0.00    -0.096 A 
ATOM     10  HN1 IND d   1      -2.845   3.074   0.976  0.00  0.00     0.298 HD
ENDROOT
TORSDOF 0
ENDMDL
