MODEL 1
REMARK minimizedAffinity 13.5013742
REMARK minimizedRMSD -1
REMARK  0 active torsions:
REMARK  status: ('A' for Active; 'I' for Inactive)
ROOT
ATOM      1  N1  IND d   1       1.430   0.506   2.718  0.00  0.00    -0.196 N 
ATOM      2  C2  IND d   1       1.468   0.939   1.421  0.00  0.00     0.054 A 
ATOM      3  C3  IND d   1       2.532   1.749   1.227  0.00  0.00    -0.031 A 
ATOM      4  C4  IND d   1       4.399   2.419   2.868  0.00  0.00     0.051 A 
ATOM      5  C5  IND d   1       4.776   2.303   4.177  0.00  0.00    -0.031 A 
ATOM      6  C6  IND d   1       4.043   1.564   5.083  0.00  0.00     0.015 A 
ATOM      7  C7  IND d   1       2.907   0.903   4.711  0.00  0.00    -0.016 A 
ATOM      8  C8  IND d   1       2.518   1.024   3.385  0.00  0.00    -0.047 A 
ATOM      9  C9  IND d   1       3.234   1.807   2.470  0.00  0.00    -0.096 A 
ATOM     10  HN1 IND d   1       0.827  -0.004   3.059  0.00  0.00     0.298 HD
ENDROOT
TORSDOF 0
ENDMDL
