MODEL 1
REMARK minimizedAffinity 2.12560225
REMARK minimizedRMSD -1
REMARK  0 active torsions:
REMARK  status: ('A' for Active; 'I' for Inactive)
ROOT
ATOM      1  N1  IND d   1       4.649   2.127   5.243  0.00  0.00    -0.196 N 
ATOM      2  C2  IND d   1       4.174   1.652   4.052  0.00  0.00     0.054 A 
ATOM      3  C3  IND d   1       4.147   2.640   3.129  0.00  0.00    -0.031 A 
ATOM      4  C4  IND d   1       4.929   5.084   3.326  0.00  0.00     0.051 A 
ATOM      5  C5  IND d   1       5.404   5.994   4.229  0.00  0.00    -0.031 A 
ATOM      6  C6  IND d   1       5.658   5.654   5.542  0.00  0.00     0.015 A 
ATOM      7  C7  IND d   1       5.458   4.383   6.000  0.00  0.00    -0.016 A 
ATOM      8  C8  IND d   1       4.970   3.458   5.088  0.00  0.00    -0.047 A 
ATOM      9  C9  IND d   1       4.669   3.808   3.765  0.00  0.00    -0.096 A 
ATOM     10  HN1 IND d   1       4.733   1.671   5.967  0.00  0.00     0.298 HD
ENDROOT
TORSDOF 0
ENDMDL
