MODEL 1
REMARK minimizedAffinity -3.15123892
REMARK minimizedRMSD -1
REMARK  0 active torsions:
REMARK  status: ('A' for Active; 'I' for Inactive)
ROOT
ATOM      1  N1  IND d   1       3.048   3.381  -5.984  0.00  0.00    -0.196 N 
ATOM      2  C2  IND d   1       4.010   3.495  -5.020  0.00  0.00     0.054 A 
ATOM      3  C3  IND d   1       3.571   2.972  -3.853  0.00  0.00    -0.031 A 
ATOM      4  C4  IND d   1       1.349   1.785  -3.327  0.00  0.00     0.051 A 
ATOM      5  C5  IND d   1       0.138   1.471  -3.878  0.00  0.00    -0.031 A 
ATOM      6  C6  IND d   1      -0.170   1.782  -5.187  0.00  0.00     0.015 A 
ATOM      7  C7  IND d   1       0.730   2.411  -6.000  0.00  0.00    -0.016 A 
ATOM      8  C8  IND d   1       1.958   2.737  -5.441  0.00  0.00    -0.047 A 
ATOM      9  C9  IND d   1       2.260   2.462  -4.101  0.00  0.00    -0.096 A 
ATOM     10  HN1 IND d   1       3.113   3.664  -6.793  0.00  0.00     0.298 HD
ENDROOT
TORSDOF 0
ENDMDL
