MODEL 1
REMARK minimizedAffinity 7.35597897
REMARK minimizedRMSD -1
REMARK  0 active torsions:
REMARK  status: ('A' for Active; 'I' for Inactive)
ROOT
ATOM      1  N1  IND d   1       4.533  -3.037  -3.779  0.00  0.00    -0.196 N 
ATOM      2  C2  IND d   1       5.856  -3.275  -4.026  0.00  0.00     0.054 A 
ATOM      3  C3  IND d   1       5.998  -4.349  -4.834  0.00  0.00    -0.031 A 
ATOM      4  C4  IND d   1       4.192  -5.805  -5.951  0.00  0.00     0.051 A 
ATOM      5  C5  IND d   1       2.840  -5.999  -5.995  0.00  0.00    -0.031 A 
ATOM      6  C6  IND d   1       1.965  -5.197  -5.291  0.00  0.00     0.015 A 
ATOM      7  C7  IND d   1       2.412  -4.160  -4.522  0.00  0.00    -0.016 A 
ATOM      8  C8  IND d   1       3.785  -3.965  -4.469  0.00  0.00    -0.047 A 
ATOM      9  C9  IND d   1       4.680  -4.802  -5.147  0.00  0.00    -0.096 A 
ATOM     10  HN1 IND d   1       4.221  -2.413  -3.277  0.00  0.00     0.298 HD
ENDROOT
TORSDOF 0
ENDMDL
