MODEL 1
REMARK minimizedAffinity 10.8114204
REMARK minimizedRMSD -1
REMARK  0 active torsions:
REMARK  status: ('A' for Active; 'I' for Inactive)
ROOT
ATOM      1  N1  IND d   1       2.497   6.000   1.500  0.00  0.00    -0.196 N 
ATOM      2  C2  IND d   1       3.749   5.998   2.051  0.00  0.00     0.054 A 
ATOM      3  C3  IND d   1       4.168   4.730   2.263  0.00  0.00    -0.031 A 
ATOM      4  C4  IND d   1       3.006   2.506   1.688  0.00  0.00     0.051 A 
ATOM      5  C5  IND d   1       1.832   1.997   1.207  0.00  0.00    -0.031 A 
ATOM      6  C6  IND d   1       0.801   2.812   0.788  0.00  0.00     0.015 A 
ATOM      7  C7  IND d   1       0.909   4.174   0.824  0.00  0.00    -0.016 A 
ATOM      8  C8  IND d   1       2.096   4.695   1.319  0.00  0.00    -0.047 A 
ATOM      9  C9  IND d   1       3.130   3.872   1.785  0.00  0.00    -0.096 A 
ATOM     10  HN1 IND d   1       2.038   6.699   1.301  0.00  0.00     0.298 HD
ENDROOT
TORSDOF 0
ENDMDL
