MODEL 1
REMARK minimizedAffinity 5.26056147
REMARK minimizedRMSD -1
REMARK  0 active torsions:
REMARK  status: ('A' for Active; 'I' for Inactive)
ROOT
ATOM      1  N1  IND d   1       4.574   2.909  -1.142  0.00  0.00    -0.196 N 
ATOM      2  C2  IND d   1       5.565   3.369  -1.964  0.00  0.00     0.054 A 
ATOM      3  C3  IND d   1       5.986   4.588  -1.557  0.00  0.00    -0.031 A 
ATOM      4  C4  IND d   1       5.261   5.969   0.491  0.00  0.00     0.051 A 
ATOM      5  C5  IND d   1       4.359   5.980   1.518  0.00  0.00    -0.031 A 
ATOM      6  C6  IND d   1       3.467   4.946   1.717  0.00  0.00     0.015 A 
ATOM      7  C7  IND d   1       3.451   3.852   0.899  0.00  0.00    -0.016 A 
ATOM      8  C8  IND d   1       4.360   3.841  -0.150  0.00  0.00    -0.047 A 
ATOM      9  C9  IND d   1       5.239   4.907  -0.382  0.00  0.00    -0.096 A 
ATOM     10  HN1 IND d   1       4.155   2.164  -1.230  0.00  0.00     0.298 HD
ENDROOT
TORSDOF 0
ENDMDL
