MODEL 1
REMARK minimizedAffinity 4.76606417
REMARK minimizedRMSD -1
REMARK  0 active torsions:
REMARK  status: ('A' for Active; 'I' for Inactive)
ROOT
ATOM      1  N1  IND d   1      -1.521   5.220  -4.799  0.00  0.00    -0.196 N 
ATOM      2  C2  IND d   1      -0.915   4.031  -4.501  0.00  0.00     0.054 A 
ATOM      3  C3  IND d   1      -1.769   3.003  -4.704  0.00  0.00    -0.031 A 
ATOM      4  C4  IND d   1      -4.175   3.032  -5.619  0.00  0.00     0.051 A 
ATOM      5  C5  IND d   1      -5.173   3.885  -5.998  0.00  0.00    -0.031 A 
ATOM      6  C6  IND d   1      -5.000   5.255  -6.000  0.00  0.00     0.015 A 
ATOM      7  C7  IND d   1      -3.814   5.823  -5.632  0.00  0.00    -0.016 A 
ATOM      8  C8  IND d   1      -2.801   4.960  -5.239  0.00  0.00    -0.047 A 
ATOM      9  C9  IND d   1      -2.984   3.572  -5.195  0.00  0.00    -0.096 A 
ATOM     10  HN1 IND d   1      -1.164   5.998  -4.725  0.00  0.00     0.298 HD
ENDROOT
TORSDOF 0
ENDMDL
