MODEL 1
REMARK minimizedAffinity 13.0454063
REMARK minimizedRMSD -1
REMARK  0 active torsions:
REMARK  status: ('A' for Active; 'I' for Inactive)
ROOT
ATOM      1  N1  IND d   1       1.935   1.521   2.230  0.00  0.00    -0.196 N 
ATOM      2  C2  IND d   1       2.406   1.449   0.949  0.00  0.00     0.054 A 
ATOM      3  C3  IND d   1       1.438   1.796   0.072  0.00  0.00    -0.031 A 
ATOM      4  C4  IND d   1      -0.961   2.615   0.522  0.00  0.00     0.051 A 
ATOM      5  C5  IND d   1      -1.860   2.810   1.532  0.00  0.00    -0.031 A 
ATOM      6  C6  IND d   1      -1.533   2.584   2.853  0.00  0.00     0.015 A 
ATOM      7  C7  IND d   1      -0.285   2.163   3.217  0.00  0.00    -0.016 A 
ATOM      8  C8  IND d   1       0.628   1.956   2.193  0.00  0.00    -0.047 A 
ATOM      9  C9  IND d   1       0.290   2.143   0.847  0.00  0.00    -0.096 A 
ATOM     10  HN1 IND d   1       2.379   1.326   2.940  0.00  0.00     0.298 HD
ENDROOT
TORSDOF 0
ENDMDL
