MODEL 1
REMARK minimizedAffinity -3.99051046
REMARK minimizedRMSD -1
REMARK  1 active torsions:
REMARK  status: ('A' for Active; 'I' for Inactive)
REMARK    1  A    between atoms: C1_2  and  C2_3 
ROOT
ATOM      1  C2  UNL d   1      -0.881   0.994   0.006  0.00  0.00    -0.076 A 
ATOM      2  C3  UNL d   1      -0.693  -0.347   0.383  0.00  0.00     0.004 A 
ATOM      3  C4  UNL d   1       0.299  -1.127  -0.209  0.00  0.00    -0.003 A 
ATOM      4  C5  UNL d   1       1.120  -0.578  -1.188  0.00  0.00     0.000 A 
ATOM      5  C6  UNL d   1       0.960   0.756  -1.562  0.00  0.00     0.000 A 
ATOM      6  C7  UNL d   1      -0.025   1.561  -0.963  0.00  0.00    -0.073 A 
ATOM      7  C8  UNL d   1      -0.157   2.991  -1.409  0.00  0.00     0.078 C 
ENDROOT
BRANCH   1   8
ATOM      8  C1  UNL d   1      -1.990   1.783   0.663  0.00  0.00     0.053 C 
ATOM      9  C   UNL d   1      -1.643   2.207   2.082  0.00  0.00     0.018 C 
ENDBRANCH   1   8
TORSDOF 1
ENDMDL
