MODEL 1
REMARK minimizedAffinity -3.44292927
REMARK minimizedRMSD -1
REMARK  1 active torsions:
REMARK  status: ('A' for Active; 'I' for Inactive)
REMARK    1  A    between atoms: C1_2  and  C2_3 
ROOT
ATOM      1  C2  UNL d   1      -0.508   0.510   1.897  0.00  0.00    -0.076 A 
ATOM      2  C3  UNL d   1       0.473  -0.326   1.336  0.00  0.00     0.004 A 
ATOM      3  C4  UNL d   1       0.590  -0.469  -0.045  0.00  0.00    -0.003 A 
ATOM      4  C5  UNL d   1      -0.273   0.223  -0.889  0.00  0.00     0.000 A 
ATOM      5  C6  UNL d   1      -1.240   1.070  -0.350  0.00  0.00     0.000 A 
ATOM      6  C7  UNL d   1      -1.361   1.238   1.040  0.00  0.00    -0.073 A 
ATOM      7  C8  UNL d   1      -2.426   2.161   1.566  0.00  0.00     0.078 C 
ENDROOT
BRANCH   1   8
ATOM      8  C1  UNL d   1      -0.605   0.605   3.403  0.00  0.00     0.053 C 
ATOM      9  C   UNL d   1       0.034   1.872   3.949  0.00  0.00     0.018 C 
ENDBRANCH   1   8
TORSDOF 1
ENDMDL
