MODEL 1
REMARK minimizedAffinity -4.41474247
REMARK minimizedRMSD -1
REMARK  1 active torsions:
REMARK  status: ('A' for Active; 'I' for Inactive)
REMARK    1  A    between atoms: C1_2  and  C2_3 
ROOT
ATOM      1  C2  UNL d   1       0.179  -0.059   0.056  0.00  0.00    -0.076 A 
ATOM      2  C3  UNL d   1      -0.174  -0.799   1.199  0.00  0.00     0.004 A 
ATOM      3  C4  UNL d   1      -0.994  -0.250   2.183  0.00  0.00    -0.003 A 
ATOM      4  C5  UNL d   1      -1.475   1.047   2.041  0.00  0.00     0.000 A 
ATOM      5  C6  UNL d   1      -1.149   1.789   0.906  0.00  0.00     0.000 A 
ATOM      6  C7  UNL d   1      -0.337   1.245  -0.103  0.00  0.00    -0.073 A 
ATOM      7  C8  UNL d   1      -0.012   2.092  -1.303  0.00  0.00     0.078 C 
ENDROOT
BRANCH   1   8
ATOM      8  C1  UNL d   1       1.093  -0.697  -0.965  0.00  0.00     0.053 C 
ATOM      9  C   UNL d   1       0.576  -2.042  -1.450  0.00  0.00     0.018 C 
ENDBRANCH   1   8
TORSDOF 1
ENDMDL
