MODEL 1
REMARK minimizedAffinity -2.184232
REMARK minimizedRMSD -1
REMARK  1 active torsions:
REMARK  status: ('A' for Active; 'I' for Inactive)
REMARK    1  A    between atoms: C1_2  and  C2_3 
ROOT
ATOM      1  C2  UNL d   1      -0.219   0.294   0.233  0.00  0.00    -0.076 A 
ATOM      2  C3  UNL d   1      -1.190   1.120  -0.358  0.00  0.00     0.004 A 
ATOM      3  C4  UNL d   1      -2.145   1.774   0.418  0.00  0.00    -0.003 A 
ATOM      4  C5  UNL d   1      -2.144   1.613   1.799  0.00  0.00     0.000 A 
ATOM      5  C6  UNL d   1      -1.178   0.811   2.405  0.00  0.00     0.000 A 
ATOM      6  C7  UNL d   1      -0.198   0.157   1.638  0.00  0.00    -0.073 A 
ATOM      7  C8  UNL d   1       0.817  -0.700   2.343  0.00  0.00     0.078 C 
ENDROOT
BRANCH   1   8
ATOM      8  C1  UNL d   1       0.775  -0.412  -0.662  0.00  0.00     0.053 C 
ATOM      9  C   UNL d   1       0.182  -1.638  -1.338  0.00  0.00     0.018 C 
ENDBRANCH   1   8
TORSDOF 1
ENDMDL
