MODEL 1
REMARK minimizedAffinity -4.68401527
REMARK minimizedRMSD -1
REMARK  1 active torsions:
REMARK  status: ('A' for Active; 'I' for Inactive)
REMARK    1  A    between atoms: C1_2  and  C2_3 
ROOT
ATOM      1  C2  UNL d   1      -0.070  -0.298  -0.039  0.00  0.00    -0.076 A 
ATOM      2  C3  UNL d   1      -0.835   0.490  -0.916  0.00  0.00     0.004 A 
ATOM      3  C4  UNL d   1      -1.774   1.399  -0.431  0.00  0.00    -0.003 A 
ATOM      4  C5  UNL d   1      -1.963   1.534   0.940  0.00  0.00     0.000 A 
ATOM      5  C6  UNL d   1      -1.201   0.773   1.825  0.00  0.00     0.000 A 
ATOM      6  C7  UNL d   1      -0.238  -0.136   1.353  0.00  0.00    -0.073 A 
ATOM      7  C8  UNL d   1       0.552  -0.935   2.352  0.00  0.00     0.078 C 
ENDROOT
BRANCH   1   8
ATOM      8  C1  UNL d   1       0.914  -1.286  -0.624  0.00  0.00     0.053 C 
ATOM      9  C   UNL d   1       0.264  -2.239  -1.614  0.00  0.00     0.018 C 
ENDBRANCH   1   8
TORSDOF 1
ENDMDL
