MODEL 1
REMARK minimizedAffinity -4.29423523
REMARK minimizedRMSD -1
REMARK  1 active torsions:
REMARK  status: ('A' for Active; 'I' for Inactive)
REMARK    1  A    between atoms: C1_2  and  C2_3 
ROOT
ATOM      1  C2  UNL d   1      -0.681   0.916   1.249  0.00  0.00    -0.076 A 
ATOM      2  C3  UNL d   1      -0.528   1.467  -0.036  0.00  0.00     0.004 A 
ATOM      3  C4  UNL d   1       0.303   0.866  -0.980  0.00  0.00    -0.003 A 
ATOM      4  C5  UNL d   1       0.993  -0.297  -0.655  0.00  0.00     0.000 A 
ATOM      5  C6  UNL d   1       0.840  -0.867   0.608  0.00  0.00     0.000 A 
ATOM      6  C7  UNL d   1      -0.006  -0.282   1.566  0.00  0.00    -0.073 A 
ATOM      7  C8  UNL d   1      -0.129  -0.936   2.915  0.00  0.00     0.078 C 
ENDROOT
BRANCH   1   8
ATOM      8  C1  UNL d   1      -1.574   1.628   2.240  0.00  0.00     0.053 C 
ATOM      9  C   UNL d   1      -2.525   2.606   1.569  0.00  0.00     0.018 C 
ENDBRANCH   1   8
TORSDOF 1
ENDMDL
