MODEL 1
REMARK minimizedAffinity -3.17882466
REMARK minimizedRMSD -1
REMARK  1 active torsions:
REMARK  status: ('A' for Active; 'I' for Inactive)
REMARK    1  A    between atoms: C1_2  and  C2_3 
ROOT
ATOM      1  C2  UNL d   1       0.356  -0.861  -0.068  0.00  0.00    -0.076 A 
ATOM      2  C3  UNL d   1       0.012  -2.217   0.068  0.00  0.00     0.004 A 
ATOM      3  C4  UNL d   1       0.009  -3.070  -1.035  0.00  0.00    -0.003 A 
ATOM      4  C5  UNL d   1       0.350  -2.581  -2.291  0.00  0.00     0.000 A 
ATOM      5  C6  UNL d   1       0.711  -1.242  -2.441  0.00  0.00     0.000 A 
ATOM      6  C7  UNL d   1       0.735  -0.373  -1.337  0.00  0.00    -0.073 A 
ATOM      7  C8  UNL d   1       1.126   1.063  -1.557  0.00  0.00     0.078 C 
ENDROOT
BRANCH   1   8
ATOM      8  C1  UNL d   1       0.315   0.023   1.158  0.00  0.00     0.053 C 
ATOM      9  C   UNL d   1      -1.104   0.298   1.631  0.00  0.00     0.018 C 
ENDBRANCH   1   8
TORSDOF 1
ENDMDL
