MODEL 1
REMARK minimizedAffinity -3.36793375
REMARK minimizedRMSD -1
REMARK  1 active torsions:
REMARK  status: ('A' for Active; 'I' for Inactive)
REMARK    1  A    between atoms: C1_2  and  C2_3 
ROOT
ATOM      1  C2  UNL d   1      -0.857   0.482   0.989  0.00  0.00    -0.076 A 
ATOM      2  C3  UNL d   1      -0.616   0.997  -0.297  0.00  0.00     0.004 A 
ATOM      3  C4  UNL d   1       0.225   0.334  -1.189  0.00  0.00    -0.003 A 
ATOM      4  C5  UNL d   1       0.839  -0.855  -0.810  0.00  0.00     0.000 A 
ATOM      5  C6  UNL d   1       0.597  -1.389   0.455  0.00  0.00     0.000 A 
ATOM      6  C7  UNL d   1      -0.261  -0.742   1.361  0.00  0.00    -0.073 A 
ATOM      7  C8  UNL d   1      -0.481  -1.360   2.714  0.00  0.00     0.078 C 
ENDROOT
BRANCH   1   8
ATOM      8  C1  UNL d   1      -1.757   1.259   1.923  0.00  0.00     0.053 C 
ATOM      9  C   UNL d   1      -0.984   1.959   3.029  0.00  0.00     0.018 C 
ENDBRANCH   1   8
TORSDOF 1
ENDMDL
