MODEL 1
REMARK minimizedAffinity -3.02041507
REMARK minimizedRMSD -1
REMARK  1 active torsions:
REMARK  status: ('A' for Active; 'I' for Inactive)
REMARK    1  A    between atoms: C1_2  and  C2_3 
ROOT
ATOM      1  C2  UNL d   1       0.008   0.141   0.540  0.00  0.00    -0.076 A 
ATOM      2  C3  UNL d   1      -1.041   0.795  -0.131  0.00  0.00     0.004 A 
ATOM      3  C4  UNL d   1      -2.126   1.317   0.571  0.00  0.00    -0.003 A 
ATOM      4  C5  UNL d   1      -2.179   1.196   1.955  0.00  0.00     0.000 A 
ATOM      5  C6  UNL d   1      -1.139   0.566   2.638  0.00  0.00     0.000 A 
ATOM      6  C7  UNL d   1      -0.030   0.048   1.947  0.00  0.00    -0.073 A 
ATOM      7  C8  UNL d   1       1.060  -0.626   2.734  0.00  0.00     0.078 C 
ENDROOT
BRANCH   1   8
ATOM      8  C1  UNL d   1       1.145  -0.430  -0.277  0.00  0.00     0.053 C 
ATOM      9  C   UNL d   1       0.718  -1.628  -1.112  0.00  0.00     0.018 C 
ENDBRANCH   1   8
TORSDOF 1
ENDMDL
