MODEL 1
REMARK minimizedAffinity -5.49312639
REMARK minimizedRMSD -1
REMARK  1 active torsions:
REMARK  status: ('A' for Active; 'I' for Inactive)
REMARK    1  A    between atoms: C1_2  and  C2_3 
ROOT
ATOM      1  C2  UNL d   1      -0.231   0.403   0.114  0.00  0.00    -0.076 A 
ATOM      2  C3  UNL d   1      -0.409   1.586  -0.624  0.00  0.00     0.004 A 
ATOM      3  C4  UNL d   1      -1.272   2.586  -0.180  0.00  0.00    -0.003 A 
ATOM      4  C5  UNL d   1      -1.971   2.419   1.011  0.00  0.00     0.000 A 
ATOM      5  C6  UNL d   1      -1.793   1.260   1.765  0.00  0.00     0.000 A 
ATOM      6  C7  UNL d   1      -0.914   0.250   1.339  0.00  0.00    -0.073 A 
ATOM      7  C8  UNL d   1      -0.765  -0.982   2.189  0.00  0.00     0.078 C 
ENDROOT
BRANCH   1   8
ATOM      8  C1  UNL d   1       0.698  -0.658  -0.431  0.00  0.00     0.053 C 
ATOM      9  C   UNL d   1      -0.016  -1.648  -1.338  0.00  0.00     0.018 C 
ENDBRANCH   1   8
TORSDOF 1
ENDMDL
