MODEL 1
REMARK minimizedAffinity -4.16374731
REMARK minimizedRMSD -1
REMARK  1 active torsions:
REMARK  status: ('A' for Active; 'I' for Inactive)
REMARK    1  A    between atoms: C1_2  and  C2_3 
ROOT
ATOM      1  C2  UNL d   1      -0.548  -0.096   0.538  0.00  0.00    -0.076 A 
ATOM      2  C3  UNL d   1      -0.978   0.959  -0.285  0.00  0.00     0.004 A 
ATOM      3  C4  UNL d   1      -1.731   2.012   0.232  0.00  0.00    -0.003 A 
ATOM      4  C5  UNL d   1      -2.065   2.027   1.582  0.00  0.00     0.000 A 
ATOM      5  C6  UNL d   1      -1.631   0.998   2.417  0.00  0.00     0.000 A 
ATOM      6  C7  UNL d   1      -0.858  -0.062   1.915  0.00  0.00    -0.073 A 
ATOM      7  C8  UNL d   1      -0.422  -1.149   2.859  0.00  0.00     0.078 C 
ENDROOT
BRANCH   1   8
ATOM      8  C1  UNL d   1       0.243  -1.224  -0.084  0.00  0.00     0.053 C 
ATOM      9  C   UNL d   1       1.026  -0.780  -1.310  0.00  0.00     0.018 C 
ENDBRANCH   1   8
TORSDOF 1
ENDMDL
