MODEL 1
REMARK minimizedAffinity -3.2520721
REMARK minimizedRMSD -1
REMARK  1 active torsions:
REMARK  status: ('A' for Active; 'I' for Inactive)
REMARK    1  A    between atoms: C1_2  and  C2_3 
ROOT
ATOM      1  C2  UNL d   1      -0.121  -0.017   0.440  0.00  0.00    -0.076 A 
ATOM      2  C3  UNL d   1      -0.825   0.928  -0.328  0.00  0.00     0.004 A 
ATOM      3  C4  UNL d   1      -1.794   1.745   0.252  0.00  0.00    -0.003 A 
ATOM      4  C5  UNL d   1      -2.075   1.631   1.609  0.00  0.00     0.000 A 
ATOM      5  C6  UNL d   1      -1.375   0.712   2.389  0.00  0.00     0.000 A 
ATOM      6  C7  UNL d   1      -0.383  -0.108   1.824  0.00  0.00    -0.073 A 
ATOM      7  C8  UNL d   1       0.338  -1.086   2.711  0.00  0.00     0.078 C 
ENDROOT
BRANCH   1   8
ATOM      8  C1  UNL d   1       0.900  -0.894  -0.249  0.00  0.00     0.053 C 
ATOM      9  C   UNL d   1       0.329  -1.606  -1.465  0.00  0.00     0.018 C 
ENDBRANCH   1   8
TORSDOF 1
ENDMDL
