MODEL 1
REMARK minimizedAffinity 11.0703974
REMARK minimizedRMSD -1
REMARK  0 active torsions:
REMARK  status: ('A' for Active; 'I' for Inactive)
ROOT
ATOM      1  C   UNL d   1      -0.868   0.604  -2.018  0.00  0.00     0.020 A 
ATOM      2  C1  UNL d   1      -1.350   1.419  -0.995  0.00  0.00     0.020 A 
ATOM      3  C2  UNL d   1      -0.806   1.325   0.288  0.00  0.00     0.034 A 
ATOM      4  C3  UNL d   1       0.224   0.414   0.550  0.00  0.00     0.017 A 
ATOM      5  C4  UNL d   1       0.708  -0.404  -0.477  0.00  0.00     0.017 A 
ATOM      6  C5  UNL d   1       0.159  -0.305  -1.760  0.00  0.00     0.034 A 
ATOM      7 Cl   UNL d   1       1.976  -1.551  -0.230  0.00  0.00    -0.070 Cl
ATOM      8 Cl1  UNL d   1       0.851   0.352   2.160  0.00  0.00    -0.070 Cl
ENDROOT
TORSDOF 0
ENDMDL
