MODEL 1
REMARK minimizedAffinity 9.85763264
REMARK minimizedRMSD -1
REMARK  0 active torsions:
REMARK  status: ('A' for Active; 'I' for Inactive)
ROOT
ATOM      1  C   UNL d   1       2.092  -1.197   1.040  0.00  0.00     0.020 A 
ATOM      2  C1  UNL d   1       1.630  -0.965   2.335  0.00  0.00     0.020 A 
ATOM      3  C2  UNL d   1       0.508  -0.159   2.541  0.00  0.00     0.034 A 
ATOM      4  C3  UNL d   1      -0.155   0.417   1.452  0.00  0.00     0.017 A 
ATOM      5  C4  UNL d   1       0.309   0.183   0.153  0.00  0.00     0.017 A 
ATOM      6  C5  UNL d   1       1.433  -0.625  -0.049  0.00  0.00     0.034 A 
ATOM      7 Cl   UNL d   1      -0.456   0.859  -1.242  0.00  0.00    -0.070 Cl
ATOM      8 Cl1  UNL d   1      -1.536   1.402   1.781  0.00  0.00    -0.070 Cl
ENDROOT
TORSDOF 0
ENDMDL
