MODEL 1
REMARK minimizedAffinity 4.2337842
REMARK minimizedRMSD -1
REMARK  0 active torsions:
REMARK  status: ('A' for Active; 'I' for Inactive)
ROOT
ATOM      1  C   UNL d   1      -0.801   1.501  -0.926  0.00  0.00     0.020 A 
ATOM      2  C1  UNL d   1      -0.087   0.482  -1.555  0.00  0.00     0.020 A 
ATOM      3  C2  UNL d   1       0.842  -0.268  -0.831  0.00  0.00     0.034 A 
ATOM      4  C3  UNL d   1       1.060  -0.001   0.525  0.00  0.00     0.017 A 
ATOM      5  C4  UNL d   1       0.342   1.023   1.155  0.00  0.00     0.017 A 
ATOM      6  C5  UNL d   1      -0.587   1.771   0.426  0.00  0.00     0.034 A 
ATOM      7 Cl   UNL d   1       0.557   1.412   2.826  0.00  0.00    -0.070 Cl
ATOM      8 Cl1  UNL d   1       2.224  -0.968   1.358  0.00  0.00    -0.070 Cl
ENDROOT
TORSDOF 0
ENDMDL
