MODEL 1
REMARK minimizedAffinity 5.78915405
REMARK minimizedRMSD -1
REMARK  0 active torsions:
REMARK  status: ('A' for Active; 'I' for Inactive)
ROOT
ATOM      1  C   UNL d   1      -4.136   3.588  -4.117  0.00  0.00     0.020 A 
ATOM      2  C1  UNL d   1      -4.598   3.318  -5.404  0.00  0.00     0.020 A 
ATOM      3  C2  UNL d   1      -4.643   2.001  -5.868  0.00  0.00     0.034 A 
ATOM      4  C3  UNL d   1      -4.226   0.950  -5.044  0.00  0.00     0.017 A 
ATOM      5  C4  UNL d   1      -3.763   1.222  -3.751  0.00  0.00     0.017 A 
ATOM      6  C5  UNL d   1      -3.719   2.542  -3.292  0.00  0.00     0.034 A 
ATOM      7 Cl   UNL d   1      -3.231  -0.023  -2.676  0.00  0.00    -0.070 Cl
ATOM      8 Cl1  UNL d   1      -4.310  -0.654  -5.682  0.00  0.00    -0.070 Cl
ENDROOT
TORSDOF 0
ENDMDL
