MODEL 1
REMARK minimizedAffinity 6.85943651
REMARK minimizedRMSD -1
REMARK  0 active torsions:
REMARK  status: ('A' for Active; 'I' for Inactive)
ROOT
ATOM      1  C   UNL d   1       1.232  -0.523   1.441  0.00  0.00     0.020 A 
ATOM      2  C1  UNL d   1       0.485   0.635   1.231  0.00  0.00     0.020 A 
ATOM      3  C2  UNL d   1      -0.611   0.612   0.365  0.00  0.00     0.034 A 
ATOM      4  C3  UNL d   1      -0.962  -0.572  -0.294  0.00  0.00     0.017 A 
ATOM      5  C4  UNL d   1      -0.211  -1.734  -0.082  0.00  0.00     0.017 A 
ATOM      6  C5  UNL d   1       0.885  -1.705   0.787  0.00  0.00     0.034 A 
ATOM      7 Cl   UNL d   1      -0.583  -3.233  -0.858  0.00  0.00    -0.070 Cl
ATOM      8 Cl1  UNL d   1      -2.329  -0.529  -1.350  0.00  0.00    -0.070 Cl
ENDROOT
TORSDOF 0
ENDMDL
