MODEL 1
REMARK minimizedAffinity 2.54481673
REMARK minimizedRMSD -1
REMARK  0 active torsions:
REMARK  status: ('A' for Active; 'I' for Inactive)
ROOT
ATOM      1  C   UNL d   1       1.316  -0.421  -0.480  0.00  0.00     0.020 A 
ATOM      2  C1  UNL d   1       0.457   0.601  -0.880  0.00  0.00     0.020 A 
ATOM      3  C2  UNL d   1      -0.208   1.369   0.078  0.00  0.00     0.034 A 
ATOM      4  C3  UNL d   1      -0.015   1.117   1.441  0.00  0.00     0.017 A 
ATOM      5  C4  UNL d   1       0.849   0.091   1.842  0.00  0.00     0.017 A 
ATOM      6  C5  UNL d   1       1.512  -0.675   0.878  0.00  0.00     0.034 A 
ATOM      7 Cl   UNL d   1       1.139  -0.280   3.505  0.00  0.00    -0.070 Cl
ATOM      8 Cl1  UNL d   1      -0.869   2.106   2.571  0.00  0.00    -0.070 Cl
ENDROOT
TORSDOF 0
ENDMDL
