MODEL 1
REMARK minimizedAffinity 4.59090996
REMARK minimizedRMSD -1
REMARK  0 active torsions:
REMARK  status: ('A' for Active; 'I' for Inactive)
ROOT
ATOM      1  C   UNL d   1       1.840  -0.819   2.372  0.00  0.00     0.020 A 
ATOM      2  C1  UNL d   1       2.196  -0.967   1.032  0.00  0.00     0.020 A 
ATOM      3  C2  UNL d   1       1.500  -0.268   0.043  0.00  0.00     0.034 A 
ATOM      4  C3  UNL d   1       0.444   0.582   0.393  0.00  0.00     0.017 A 
ATOM      5  C4  UNL d   1       0.087   0.729   1.739  0.00  0.00     0.017 A 
ATOM      6  C5  UNL d   1       0.788   0.027   2.724  0.00  0.00     0.034 A 
ATOM      7 Cl   UNL d   1      -1.204   1.759   2.248  0.00  0.00    -0.070 Cl
ATOM      8 Cl1  UNL d   1      -0.372   1.416  -0.881  0.00  0.00    -0.070 Cl
ENDROOT
TORSDOF 0
ENDMDL
