MODEL 1
REMARK minimizedAffinity 2.84666896
REMARK minimizedRMSD -1
REMARK  0 active torsions:
REMARK  status: ('A' for Active; 'I' for Inactive)
ROOT
ATOM      1  C   UNL d   1      -0.477   1.967   0.305  0.00  0.00     0.020 A 
ATOM      2  C1  UNL d   1      -0.341   1.482  -0.995  0.00  0.00     0.020 A 
ATOM      3  C2  UNL d   1       0.413   0.332  -1.235  0.00  0.00     0.034 A 
ATOM      4  C3  UNL d   1       1.034  -0.338  -0.175  0.00  0.00     0.017 A 
ATOM      5  C4  UNL d   1       0.897   0.150   1.130  0.00  0.00     0.017 A 
ATOM      6  C5  UNL d   1       0.140   1.302   1.366  0.00  0.00     0.034 A 
ATOM      7 Cl   UNL d   1       1.633  -0.622   2.490  0.00  0.00    -0.070 Cl
ATOM      8 Cl1  UNL d   1       1.951  -1.754  -0.545  0.00  0.00    -0.070 Cl
ENDROOT
TORSDOF 0
ENDMDL
