MODEL 1
REMARK minimizedAffinity 1.32537556
REMARK minimizedRMSD -1
REMARK  0 active torsions:
REMARK  status: ('A' for Active; 'I' for Inactive)
ROOT
ATOM      1  C   UNL d   1       1.133  -0.357   1.176  0.00  0.00     0.020 A 
ATOM      2  C1  UNL d   1       1.222  -0.228  -0.209  0.00  0.00     0.020 A 
ATOM      3  C2  UNL d   1       0.453   0.730  -0.872  0.00  0.00     0.034 A 
ATOM      4  C3  UNL d   1      -0.409   1.564  -0.150  0.00  0.00     0.017 A 
ATOM      5  C4  UNL d   1      -0.497   1.434   1.241  0.00  0.00     0.017 A 
ATOM      6  C5  UNL d   1       0.275   0.473   1.899  0.00  0.00     0.034 A 
ATOM      7 Cl   UNL d   1      -1.537   2.427   2.200  0.00  0.00    -0.070 Cl
ATOM      8 Cl1  UNL d   1      -1.330   2.728  -1.035  0.00  0.00    -0.070 Cl
ENDROOT
TORSDOF 0
ENDMDL
