MODEL 1
REMARK minimizedAffinity -2.96177721
REMARK minimizedRMSD -1
REMARK  2 active torsions:
REMARK  status: ('A' for Active; 'I' for Inactive)
REMARK    1  A    between atoms: C2'_3  and  C1'_4 
REMARK    2  A    between atoms: C1'_4  and  C1_5 
ROOT
ATOM      1  C1  I4B d   1       0.075  -0.394   0.095  0.00  0.00    -0.075 A 
ATOM      2  C2  I4B d   1      -1.154   0.166  -0.148  0.00  0.00     0.003 A 
ATOM      3  C3  I4B d   1      -1.915   0.706   0.918  0.00  0.00     0.002 A 
ATOM      4  C4  I4B d   1      -1.434   0.619   2.208  0.00  0.00    -0.004 A 
ATOM      5  C5  I4B d   1      -0.177   0.071   2.450  0.00  0.00     0.002 A 
ATOM      6  C6  I4B d   1       0.588  -0.428   1.385  0.00  0.00     0.003 A 
ENDROOT
BRANCH   1   7
ATOM      7  C1' I4B d   1       0.837  -0.984  -1.049  0.00  0.00     0.060 C 
BRANCH   7   8
ATOM      8  C2' I4B d   1       0.531  -0.165  -2.286  0.00  0.00    -0.013 C 
ATOM      9  C4' I4B d   1       1.756   0.562  -2.775  0.00  0.00     0.013 C 
ATOM     10  C3' I4B d   1      -0.004  -1.093  -3.336  0.00  0.00     0.013 C 
ENDBRANCH   7   8
ENDBRANCH   1   7
TORSDOF 2
ENDMDL
