MODEL 1
REMARK minimizedAffinity -1.4472698
REMARK minimizedRMSD -1
REMARK  2 active torsions:
REMARK  status: ('A' for Active; 'I' for Inactive)
REMARK    1  A    between atoms: C2'_3  and  C1'_4 
REMARK    2  A    between atoms: C1'_4  and  C1_5 
ROOT
ATOM      1  C1  I4B d   1       0.074  -0.306   1.745  0.00  0.00    -0.075 A 
ATOM      2  C2  I4B d   1      -0.421  -0.118   3.012  0.00  0.00     0.003 A 
ATOM      3  C3  I4B d   1       0.386  -0.397   4.141  0.00  0.00     0.002 A 
ATOM      4  C4  I4B d   1       1.655  -0.908   3.960  0.00  0.00    -0.004 A 
ATOM      5  C5  I4B d   1       2.163  -1.077   2.675  0.00  0.00     0.002 A 
ATOM      6  C6  I4B d   1       1.372  -0.763   1.560  0.00  0.00     0.003 A 
ENDROOT
BRANCH   1   7
ATOM      7  C1' I4B d   1      -0.817  -0.032   0.575  0.00  0.00     0.060 C 
BRANCH   7   8
ATOM      8  C2' I4B d   1      -0.652  -1.168  -0.413  0.00  0.00    -0.013 C 
ATOM      9  C4' I4B d   1      -1.934  -1.943  -0.572  0.00  0.00     0.013 C 
ATOM     10  C3' I4B d   1      -0.207  -0.583  -1.721  0.00  0.00     0.013 C 
ENDBRANCH   7   8
ENDBRANCH   1   7
TORSDOF 2
ENDMDL
