MODEL 1
REMARK minimizedAffinity -4.60117435
REMARK minimizedRMSD -1
REMARK  2 active torsions:
REMARK  status: ('A' for Active; 'I' for Inactive)
REMARK    1  A    between atoms: C2'_3  and  C1'_4 
REMARK    2  A    between atoms: C1'_4  and  C1_5 
ROOT
ATOM      1  C1  I4B d   1      -0.189  -0.031  -0.341  0.00  0.00    -0.075 A 
ATOM      2  C2  I4B d   1      -1.075   0.865  -0.886  0.00  0.00     0.003 A 
ATOM      3  C3  I4B d   1      -1.922   1.629  -0.048  0.00  0.00     0.002 A 
ATOM      4  C4  I4B d   1      -1.887   1.431   1.317  0.00  0.00    -0.004 A 
ATOM      5  C5  I4B d   1      -0.973   0.539   1.869  0.00  0.00     0.002 A 
ATOM      6  C6  I4B d   1      -0.110  -0.188   1.037  0.00  0.00     0.003 A 
ENDROOT
BRANCH   1   7
ATOM      7  C1' I4B d   1       0.668  -0.846  -1.257  0.00  0.00     0.060 C 
BRANCH   7   8
ATOM      8  C2' I4B d   1       0.628  -0.203  -2.628  0.00  0.00    -0.013 C 
ATOM      9  C4' I4B d   1       1.896   0.559  -2.910  0.00  0.00     0.013 C 
ATOM     10  C3' I4B d   1       0.411  -1.286  -3.642  0.00  0.00     0.013 C 
ENDBRANCH   7   8
ENDBRANCH   1   7
TORSDOF 2
ENDMDL
