MODEL 1
REMARK minimizedAffinity -4.76056385
REMARK minimizedRMSD -1
REMARK  2 active torsions:
REMARK  status: ('A' for Active; 'I' for Inactive)
REMARK    1  A    between atoms: C2'_3  and  C1'_4 
REMARK    2  A    between atoms: C1'_4  and  C1_5 
ROOT
ATOM      1  C1  I4B d   1      -0.301  -0.513   0.044  0.00  0.00    -0.075 A 
ATOM      2  C2  I4B d   1       0.131  -0.171   1.301  0.00  0.00     0.003 A 
ATOM      3  C3  I4B d   1      -0.777   0.368   2.244  0.00  0.00     0.002 A 
ATOM      4  C4  I4B d   1      -2.087   0.594   1.874  0.00  0.00    -0.004 A 
ATOM      5  C5  I4B d   1      -2.528   0.225   0.607  0.00  0.00     0.002 A 
ATOM      6  C6  I4B d   1      -1.633  -0.343  -0.311  0.00  0.00     0.003 A 
ENDROOT
BRANCH   1   7
ATOM      7  C1' I4B d   1       0.692  -1.049  -0.938  0.00  0.00     0.060 C 
BRANCH   7   8
ATOM      8  C2' I4B d   1       0.535  -0.275  -2.231  0.00  0.00    -0.013 C 
ATOM      9  C4' I4B d   1       1.823   0.400  -2.623  0.00  0.00     0.013 C 
ATOM     10  C3' I4B d   1       0.081  -1.232  -3.292  0.00  0.00     0.013 C 
ENDBRANCH   7   8
ENDBRANCH   1   7
TORSDOF 2
ENDMDL
