MODEL 1
REMARK minimizedAffinity -3.97941971
REMARK minimizedRMSD -1
REMARK  2 active torsions:
REMARK  status: ('A' for Active; 'I' for Inactive)
REMARK    1  A    between atoms: C2'_3  and  C1'_4 
REMARK    2  A    between atoms: C1'_4  and  C1_5 
ROOT
ATOM      1  C1  I4B d   1       0.055  -0.631   0.751  0.00  0.00    -0.075 A 
ATOM      2  C2  I4B d   1      -1.053  -0.187   1.430  0.00  0.00     0.003 A 
ATOM      3  C3  I4B d   1      -0.990   0.038   2.827  0.00  0.00     0.002 A 
ATOM      4  C4  I4B d   1       0.178  -0.239   3.508  0.00  0.00    -0.004 A 
ATOM      5  C5  I4B d   1       1.306  -0.668   2.814  0.00  0.00     0.002 A 
ATOM      6  C6  I4B d   1       1.248  -0.853   1.425  0.00  0.00     0.003 A 
ENDROOT
BRANCH   1   7
ATOM      7  C1' I4B d   1      -0.057  -0.890  -0.718  0.00  0.00     0.060 C 
BRANCH   7   8
ATOM      8  C2' I4B d   1       0.399   0.357  -1.448  0.00  0.00    -0.013 C 
ATOM      9  C4' I4B d   1       0.279   0.190  -2.940  0.00  0.00     0.013 C 
ATOM     10  C3' I4B d   1      -0.431   1.507  -0.962  0.00  0.00     0.013 C 
ENDBRANCH   7   8
ENDBRANCH   1   7
TORSDOF 2
ENDMDL
