MODEL 1
REMARK minimizedAffinity -2.95552492
REMARK minimizedRMSD -1
REMARK  0 active torsions:
REMARK  status: ('A' for Active; 'I' for Inactive)
ROOT
ATOM      1  C1  BNZ d   1      -0.539   2.512  -1.181  0.00  0.00     0.000 A 
ATOM      2  C2  BNZ d   1      -0.138   3.681  -1.770  0.00  0.00     0.000 A 
ATOM      3  C3  BNZ d   1       0.281   4.739  -1.011  0.00  0.00     0.000 A 
ATOM      4  C4  BNZ d   1       0.259   4.640   0.333  0.00  0.00     0.000 A 
ATOM      5  C5  BNZ d   1      -0.152   3.471   0.942  0.00  0.00     0.000 A 
ATOM      6  C6  BNZ d   1      -0.536   2.395   0.175  0.00  0.00     0.000 A 
ENDROOT
TORSDOF 0
ENDMDL
