MODEL 1
REMARK minimizedAffinity -3.27565098
REMARK minimizedRMSD -1
REMARK  0 active torsions:
REMARK  status: ('A' for Active; 'I' for Inactive)
ROOT
ATOM      1  C1  BNZ d   1       0.300   4.289  -0.663  0.00  0.00     0.000 A 
ATOM      2  C2  BNZ d   1       0.736   4.459   0.624  0.00  0.00     0.000 A 
ATOM      3  C3  BNZ d   1       0.459   3.529   1.586  0.00  0.00     0.000 A 
ATOM      4  C4  BNZ d   1      -0.287   2.451   1.270  0.00  0.00     0.000 A 
ATOM      5  C5  BNZ d   1      -0.742   2.269  -0.021  0.00  0.00     0.000 A 
ATOM      6  C6  BNZ d   1      -0.428   3.188  -0.995  0.00  0.00     0.000 A 
ENDROOT
TORSDOF 0
ENDMDL
