MODEL 1
REMARK minimizedAffinity -1.96210551
REMARK minimizedRMSD -1
REMARK  0 active torsions:
REMARK  status: ('A' for Active; 'I' for Inactive)
ROOT
ATOM      1  C1  BNZ d   1       0.139   2.324   0.920  0.00  0.00     0.000 A 
ATOM      2  C2  BNZ d   1       0.129   2.511  -0.437  0.00  0.00     0.000 A 
ATOM      3  C3  BNZ d   1      -0.016   3.761  -0.970  0.00  0.00     0.000 A 
ATOM      4  C4  BNZ d   1      -0.190   4.816  -0.149  0.00  0.00     0.000 A 
ATOM      5  C5  BNZ d   1      -0.191   4.643   1.221  0.00  0.00     0.000 A 
ATOM      6  C6  BNZ d   1      -0.007   3.388   1.755  0.00  0.00     0.000 A 
ENDROOT
TORSDOF 0
ENDMDL
