MODEL 1
REMARK minimizedAffinity 3.61504292
REMARK minimizedRMSD -1
REMARK  0 active torsions:
REMARK  status: ('A' for Active; 'I' for Inactive)
ROOT
ATOM      1  C1  BNZ d   1       0.485   3.213   0.290  0.00  0.00     0.000 A 
ATOM      2  C2  BNZ d   1       0.710   2.160   1.136  0.00  0.00     0.000 A 
ATOM      3  C3  BNZ d   1      -0.314   1.610   1.857  0.00  0.00     0.000 A 
ATOM      4  C4  BNZ d   1      -1.550   2.139   1.761  0.00  0.00     0.000 A 
ATOM      5  C5  BNZ d   1      -1.791   3.207   0.920  0.00  0.00     0.000 A 
ATOM      6  C6  BNZ d   1      -0.766   3.733   0.167  0.00  0.00     0.000 A 
ENDROOT
TORSDOF 0
ENDMDL
