MODEL 1
REMARK minimizedAffinity 0.495735794
REMARK minimizedRMSD -1
REMARK  0 active torsions:
REMARK  status: ('A' for Active; 'I' for Inactive)
ROOT
ATOM      1  C1  BNZ d   1      -4.870  -3.804   5.999  0.00  0.00     0.000 A 
ATOM      2  C2  BNZ d   1      -5.642  -4.935   5.999  0.00  0.00     0.000 A 
ATOM      3  C3  BNZ d   1      -5.989  -5.546   4.827  0.00  0.00     0.000 A 
ATOM      4  C4  BNZ d   1      -5.598  -5.003   3.656  0.00  0.00     0.000 A 
ATOM      5  C5  BNZ d   1      -4.827  -3.858   3.639  0.00  0.00     0.000 A 
ATOM      6  C6  BNZ d   1      -4.447  -3.268   4.822  0.00  0.00     0.000 A 
ENDROOT
TORSDOF 0
ENDMDL
