MODEL 1
REMARK minimizedAffinity 2.61600637
REMARK minimizedRMSD -1
REMARK  0 active torsions:
REMARK  status: ('A' for Active; 'I' for Inactive)
ROOT
ATOM      1  C1  BNZ d   1      -0.695   2.235   0.436  0.00  0.00     0.000 A 
ATOM      2  C2  BNZ d   1      -0.735   2.275  -0.932  0.00  0.00     0.000 A 
ATOM      3  C3  BNZ d   1      -0.339   3.393  -1.611  0.00  0.00     0.000 A 
ATOM      4  C4  BNZ d   1       0.058   4.482  -0.922  0.00  0.00     0.000 A 
ATOM      5  C5  BNZ d   1       0.095   4.460   0.458  0.00  0.00     0.000 A 
ATOM      6  C6  BNZ d   1      -0.267   3.320   1.137  0.00  0.00     0.000 A 
ENDROOT
TORSDOF 0
ENDMDL
