MODEL 1
REMARK minimizedAffinity 8.77469826
REMARK minimizedRMSD -1
REMARK  0 active torsions:
REMARK  status: ('A' for Active; 'I' for Inactive)
ROOT
ATOM      1  C1  BNZ d   1      -1.278   4.019  -3.740  0.00  0.00     0.000 A 
ATOM      2  C2  BNZ d   1      -0.260   4.670  -3.095  0.00  0.00     0.000 A 
ATOM      3  C3  BNZ d   1       0.207   4.220  -1.892  0.00  0.00     0.000 A 
ATOM      4  C4  BNZ d   1      -0.370   3.145  -1.317  0.00  0.00     0.000 A 
ATOM      5  C5  BNZ d   1      -1.403   2.483  -1.950  0.00  0.00     0.000 A 
ATOM      6  C6  BNZ d   1      -1.845   2.916  -3.180  0.00  0.00     0.000 A 
ENDROOT
TORSDOF 0
ENDMDL
