MODEL 1
REMARK minimizedAffinity 8.67495918
REMARK minimizedRMSD -1
REMARK  0 active torsions:
REMARK  status: ('A' for Active; 'I' for Inactive)
ROOT
ATOM      1  C1  BNZ d   1       3.167  -3.379  -3.289  0.00  0.00     0.000 A 
ATOM      2  C2  BNZ d   1       3.930  -4.086  -2.398  0.00  0.00     0.000 A 
ATOM      3  C3  BNZ d   1       5.256  -4.316  -2.641  0.00  0.00     0.000 A 
ATOM      4  C4  BNZ d   1       5.806  -3.875  -3.791  0.00  0.00     0.000 A 
ATOM      5  C5  BNZ d   1       5.047  -3.170  -4.704  0.00  0.00     0.000 A 
ATOM      6  C6  BNZ d   1       3.722  -2.906  -4.438  0.00  0.00     0.000 A 
ENDROOT
TORSDOF 0
ENDMDL
