MODEL 1
REMARK minimizedAffinity 0.683072567
REMARK minimizedRMSD -1
REMARK  0 active torsions:
REMARK  status: ('A' for Active; 'I' for Inactive)
ROOT
ATOM      1  C1  BNZ d   1      -4.963  -2.771   5.999  0.00  0.00     0.000 A 
ATOM      2  C2  BNZ d   1      -5.959  -3.710   5.964  0.00  0.00     0.000 A 
ATOM      3  C3  BNZ d   1      -5.997  -4.653   4.975  0.00  0.00     0.000 A 
ATOM      4  C4  BNZ d   1      -5.064  -4.631   4.001  0.00  0.00     0.000 A 
ATOM      5  C5  BNZ d   1      -4.059  -3.685   4.018  0.00  0.00     0.000 A 
ATOM      6  C6  BNZ d   1      -4.001  -2.762   5.037  0.00  0.00     0.000 A 
ENDROOT
TORSDOF 0
ENDMDL
