MODEL 1
REMARK minimizedAffinity -1.27877927
REMARK minimizedRMSD -1
REMARK  0 active torsions:
REMARK  status: ('A' for Active; 'I' for Inactive)
ROOT
ATOM      1  C1  BNZ d   1      -0.917   2.092   1.039  0.00  0.00     0.000 A 
ATOM      2  C2  BNZ d   1      -0.462   2.995   0.116  0.00  0.00     0.000 A 
ATOM      3  C3  BNZ d   1       0.592   3.818   0.401  0.00  0.00     0.000 A 
ATOM      4  C4  BNZ d   1       1.163   3.764   1.622  0.00  0.00     0.000 A 
ATOM      5  C5  BNZ d   1       0.709   2.866   2.567  0.00  0.00     0.000 A 
ATOM      6  C6  BNZ d   1      -0.326   2.012   2.263  0.00  0.00     0.000 A 
ENDROOT
TORSDOF 0
ENDMDL
