MODEL 1
REMARK minimizedAffinity 5.76752758
REMARK minimizedRMSD -1
REMARK  0 active torsions:
REMARK  status: ('A' for Active; 'I' for Inactive)
ROOT
ATOM      1  C1  BNZ d   1      -0.386   3.038  -2.153  0.00  0.00     0.000 A 
ATOM      2  C2  BNZ d   1       0.171   4.288  -2.119  0.00  0.00     0.000 A 
ATOM      3  C3  BNZ d   1       0.786   4.750  -0.989  0.00  0.00     0.000 A 
ATOM      4  C4  BNZ d   1       0.808   3.978   0.117  0.00  0.00     0.000 A 
ATOM      5  C5  BNZ d   1       0.243   2.719   0.101  0.00  0.00     0.000 A 
ATOM      6  C6  BNZ d   1      -0.341   2.242  -1.050  0.00  0.00     0.000 A 
ENDROOT
TORSDOF 0
ENDMDL
