MODEL 1
REMARK minimizedAffinity -0.545329571
REMARK minimizedRMSD -1
REMARK  0 active torsions:
REMARK  status: ('A' for Active; 'I' for Inactive)
ROOT
ATOM      1  C1  BNZ d   1      -1.081   2.435   1.080  0.00  0.00     0.000 A 
ATOM      2  C2  BNZ d   1      -2.027   1.899   1.914  0.00  0.00     0.000 A 
ATOM      3  C3  BNZ d   1      -1.665   1.295   3.085  0.00  0.00     0.000 A 
ATOM      4  C4  BNZ d   1      -0.358   1.192   3.403  0.00  0.00     0.000 A 
ATOM      5  C5  BNZ d   1       0.607   1.719   2.569  0.00  0.00     0.000 A 
ATOM      6  C6  BNZ d   1       0.237   2.361   1.409  0.00  0.00     0.000 A 
ENDROOT
TORSDOF 0
ENDMDL
