MODEL 1
REMARK minimizedAffinity -2.47655797
REMARK minimizedRMSD -1
REMARK  0 active torsions:
REMARK  status: ('A' for Active; 'I' for Inactive)
ROOT
ATOM      1  C1  BNZ d   1      -0.797   2.206   2.379  0.00  0.00     0.000 A 
ATOM      2  C2  BNZ d   1      -1.192   2.147   1.069  0.00  0.00     0.000 A 
ATOM      3  C3  BNZ d   1      -0.484   2.792   0.094  0.00  0.00     0.000 A 
ATOM      4  C4  BNZ d   1       0.594   3.527   0.435  0.00  0.00     0.000 A 
ATOM      5  C5  BNZ d   1       1.000   3.604   1.752  0.00  0.00     0.000 A 
ATOM      6  C6  BNZ d   1       0.307   2.922   2.726  0.00  0.00     0.000 A 
ENDROOT
TORSDOF 0
ENDMDL
