MODEL 1
REMARK minimizedAffinity -1.08841169
REMARK minimizedRMSD -1
REMARK  0 active torsions:
REMARK  status: ('A' for Active; 'I' for Inactive)
ROOT
ATOM      1  C1  BNZ d   1      -4.864  -3.018   5.998  0.00  0.00     0.000 A 
ATOM      2  C2  BNZ d   1      -5.615  -4.163   6.000  0.00  0.00     0.000 A 
ATOM      3  C3  BNZ d   1      -5.701  -4.945   4.882  0.00  0.00     0.000 A 
ATOM      4  C4  BNZ d   1      -5.069  -4.562   3.754  0.00  0.00     0.000 A 
ATOM      5  C5  BNZ d   1      -4.315  -3.405   3.734  0.00  0.00     0.000 A 
ATOM      6  C6  BNZ d   1      -4.199  -2.641   4.872  0.00  0.00     0.000 A 
ENDROOT
TORSDOF 0
ENDMDL
