MODEL 1
REMARK minimizedAffinity -4.30285072
REMARK minimizedRMSD -1
REMARK  0 active torsions:
REMARK  status: ('A' for Active; 'I' for Inactive)
ROOT
ATOM      1  C1  BNZ d   1      -3.813  -0.368  -1.337  0.00  0.00     0.000 A 
ATOM      2  C2  BNZ d   1      -3.823   0.448  -2.437  0.00  0.00     0.000 A 
ATOM      3  C3  BNZ d   1      -4.924   0.524  -3.242  0.00  0.00     0.000 A 
ATOM      4  C4  BNZ d   1      -5.998  -0.245  -2.971  0.00  0.00     0.000 A 
ATOM      5  C5  BNZ d   1      -6.000  -1.081  -1.872  0.00  0.00     0.000 A 
ATOM      6  C6  BNZ d   1      -4.904  -1.125  -1.041  0.00  0.00     0.000 A 
ENDROOT
TORSDOF 0
ENDMDL
