MODEL 1
REMARK minimizedAffinity 0.259147346
REMARK minimizedRMSD -1
REMARK  0 active torsions:
REMARK  status: ('A' for Active; 'I' for Inactive)
ROOT
ATOM      1  C1  BNZ d   1      -0.737   1.852   2.991  0.00  0.00     0.000 A 
ATOM      2  C2  BNZ d   1       0.033   2.924   2.628  0.00  0.00     0.000 A 
ATOM      3  C3  BNZ d   1       0.324   3.164   1.314  0.00  0.00     0.000 A 
ATOM      4  C4  BNZ d   1      -0.122   2.310   0.370  0.00  0.00     0.000 A 
ATOM      5  C5  BNZ d   1      -0.892   1.219   0.721  0.00  0.00     0.000 A 
ATOM      6  C6  BNZ d   1      -1.215   1.003   2.041  0.00  0.00     0.000 A 
ENDROOT
TORSDOF 0
ENDMDL
