MODEL 1
REMARK minimizedAffinity -4.25314474
REMARK minimizedRMSD -1
REMARK  0 active torsions:
REMARK  status: ('A' for Active; 'I' for Inactive)
ROOT
ATOM      1  C   UNL d   1      -3.219  -2.516   0.778  0.00  0.00    -0.002 A 
ATOM      2  C1  UNL d   1      -2.214  -2.897   1.655  0.00  0.00     0.010 A 
ATOM      3  C2  UNL d   1      -0.972  -2.260   1.632  0.00  0.00     0.041 A 
ATOM      4  C3  UNL d   1      -0.756  -1.221   0.705  0.00  0.00    -0.075 A 
ATOM      5  S   UNL d   1       0.685  -0.298   0.496  0.00  0.00     0.015 SA
ATOM      6  C4  UNL d   1      -0.001   0.626  -0.762  0.00  0.00     0.022 A 
ATOM      7  C5  UNL d   1      -1.296   0.252  -1.029  0.00  0.00     0.026 A 
ATOM      8  C6  UNL d   1      -1.753  -0.819  -0.187  0.00  0.00    -0.082 A 
ATOM      9  C7  UNL d   1      -3.001  -1.485  -0.140  0.00  0.00     0.045 A 
ENDROOT
TORSDOF 0
ENDMDL
