MODEL 1
REMARK minimizedAffinity -2.96123695
REMARK minimizedRMSD -1
REMARK  0 active torsions:
REMARK  status: ('A' for Active; 'I' for Inactive)
ROOT
ATOM      1  C   UNL d   1      -3.094  -1.912  -0.371  0.00  0.00    -0.002 A 
ATOM      2  C1  UNL d   1      -2.440  -2.515   0.693  0.00  0.00     0.010 A 
ATOM      3  C2  UNL d   1      -1.150  -2.118   1.051  0.00  0.00     0.041 A 
ATOM      4  C3  UNL d   1      -0.524  -1.093   0.315  0.00  0.00    -0.075 A 
ATOM      5  S   UNL d   1       1.052  -0.442   0.572  0.00  0.00     0.015 SA
ATOM      6  C4  UNL d   1       0.892   0.653  -0.724  0.00  0.00     0.022 A 
ATOM      7  C5  UNL d   1      -0.327   0.539  -1.349  0.00  0.00     0.026 A 
ATOM      8  C6  UNL d   1      -1.163  -0.469  -0.760  0.00  0.00    -0.082 A 
ATOM      9  C7  UNL d   1      -2.470  -0.895  -1.099  0.00  0.00     0.045 A 
ENDROOT
TORSDOF 0
ENDMDL
