MODEL 1
REMARK minimizedAffinity -6.13402462
REMARK minimizedRMSD -1
REMARK  0 active torsions:
REMARK  status: ('A' for Active; 'I' for Inactive)
ROOT
ATOM      1  C   UNL d   1      -3.432  -1.321   0.163  0.00  0.00    -0.002 A 
ATOM      2  C1  UNL d   1      -3.011  -1.763   1.409  0.00  0.00     0.010 A 
ATOM      3  C2  UNL d   1      -1.704  -1.529   1.841  0.00  0.00     0.041 A 
ATOM      4  C3  UNL d   1      -0.820  -0.834   0.993  0.00  0.00    -0.075 A 
ATOM      5  S   UNL d   1       0.826  -0.431   1.312  0.00  0.00     0.015 SA
ATOM      6  C4  UNL d   1       1.008   0.339  -0.197  0.00  0.00     0.022 A 
ATOM      7  C5  UNL d   1      -0.148   0.299  -0.940  0.00  0.00     0.026 A 
ATOM      8  C6  UNL d   1      -1.221  -0.377  -0.266  0.00  0.00    -0.082 A 
ATOM      9  C7  UNL d   1      -2.552  -0.631  -0.676  0.00  0.00     0.045 A 
ENDROOT
TORSDOF 0
ENDMDL
