MODEL 1
REMARK minimizedAffinity -4.68357706
REMARK minimizedRMSD -1
REMARK  0 active torsions:
REMARK  status: ('A' for Active; 'I' for Inactive)
ROOT
ATOM      1  C   UNL d   1      -3.247  -0.899   0.581  0.00  0.00    -0.002 A 
ATOM      2  C1  UNL d   1      -2.695  -1.888   1.383  0.00  0.00     0.010 A 
ATOM      3  C2  UNL d   1      -1.309  -2.002   1.517  0.00  0.00     0.041 A 
ATOM      4  C3  UNL d   1      -0.481  -1.096   0.826  0.00  0.00    -0.075 A 
ATOM      5  S   UNL d   1       1.242  -1.044   0.840  0.00  0.00     0.015 SA
ATOM      6  C4  UNL d   1       1.285   0.292  -0.217  0.00  0.00     0.022 A 
ATOM      7  C5  UNL d   1       0.024   0.702  -0.582  0.00  0.00     0.026 A 
ATOM      8  C6  UNL d   1      -1.014  -0.091   0.013  0.00  0.00    -0.082 A 
ATOM      9  C7  UNL d   1      -2.423  -0.002  -0.102  0.00  0.00     0.045 A 
ENDROOT
TORSDOF 0
ENDMDL
