MODEL 1
REMARK minimizedAffinity 2.40043449
REMARK minimizedRMSD -1
REMARK  0 active torsions:
REMARK  status: ('A' for Active; 'I' for Inactive)
ROOT
ATOM      1  C   UNL d   1      -0.019  -0.442   0.821  0.00  0.00    -0.002 A 
ATOM      2  C1  UNL d   1       0.473  -0.148  -0.443  0.00  0.00     0.010 A 
ATOM      3  C2  UNL d   1       1.266   0.982  -0.651  0.00  0.00     0.041 A 
ATOM      4  C3  UNL d   1       1.562   1.818   0.444  0.00  0.00    -0.075 A 
ATOM      5  S   UNL d   1       2.515   3.255   0.427  0.00  0.00     0.015 SA
ATOM      6  C4  UNL d   1       2.292   3.511   2.097  0.00  0.00     0.022 A 
ATOM      7  C5  UNL d   1       1.512   2.534   2.670  0.00  0.00     0.026 A 
ATOM      8  C6  UNL d   1       1.079   1.542   1.726  0.00  0.00    -0.082 A 
ATOM      9  C7  UNL d   1       0.276   0.389   1.905  0.00  0.00     0.045 A 
ENDROOT
TORSDOF 0
ENDMDL
