MODEL 1
REMARK minimizedAffinity 2.82707667
REMARK minimizedRMSD -1
REMARK  0 active torsions:
REMARK  status: ('A' for Active; 'I' for Inactive)
ROOT
ATOM      1  C   UNL d   1      -0.549   0.002  -2.611  0.00  0.00    -0.002 A 
ATOM      2  C1  UNL d   1      -0.299   1.286  -2.147  0.00  0.00     0.010 A 
ATOM      3  C2  UNL d   1       0.148   1.495  -0.841  0.00  0.00     0.041 A 
ATOM      4  C3  UNL d   1       0.343   0.380  -0.001  0.00  0.00    -0.075 A 
ATOM      5  S   UNL d   1       0.886   0.394   1.635  0.00  0.00     0.015 SA
ATOM      6  C4  UNL d   1       0.800  -1.304   1.756  0.00  0.00     0.022 A 
ATOM      7  C5  UNL d   1       0.369  -1.883   0.586  0.00  0.00     0.026 A 
ATOM      8  C6  UNL d   1       0.100  -0.922  -0.446  0.00  0.00    -0.082 A 
ATOM      9  C7  UNL d   1      -0.354  -1.100  -1.775  0.00  0.00     0.045 A 
ENDROOT
TORSDOF 0
ENDMDL
