MODEL 1
REMARK minimizedAffinity 0.956981599
REMARK minimizedRMSD -1
REMARK  0 active torsions:
REMARK  status: ('A' for Active; 'I' for Inactive)
ROOT
ATOM      1  C   UNL d   1      -0.458   0.816  -1.818  0.00  0.00    -0.002 A 
ATOM      2  C1  UNL d   1      -1.605   0.064  -2.026  0.00  0.00     0.010 A 
ATOM      3  C2  UNL d   1      -1.895  -1.030  -1.208  0.00  0.00     0.041 A 
ATOM      4  C3  UNL d   1      -1.005  -1.357  -0.167  0.00  0.00    -0.075 A 
ATOM      5  S   UNL d   1      -1.155  -2.653   0.960  0.00  0.00     0.015 SA
ATOM      6  C4  UNL d   1       0.300  -2.238   1.745  0.00  0.00     0.022 A 
ATOM      7  C5  UNL d   1       0.899  -1.141   1.174  0.00  0.00     0.026 A 
ATOM      8  C6  UNL d   1       0.157  -0.614   0.063  0.00  0.00    -0.082 A 
ATOM      9  C7  UNL d   1       0.423   0.488  -0.784  0.00  0.00     0.045 A 
ENDROOT
TORSDOF 0
ENDMDL
