MODEL 1
REMARK minimizedAffinity -4.43203163
REMARK minimizedRMSD -1
REMARK  0 active torsions:
REMARK  status: ('A' for Active; 'I' for Inactive)
ROOT
ATOM      1  C   UNL d   1      -3.342  -1.531  -0.159  0.00  0.00    -0.002 A 
ATOM      2  C1  UNL d   1      -2.779  -2.113   0.969  0.00  0.00     0.010 A 
ATOM      3  C2  UNL d   1      -1.474  -1.800   1.353  0.00  0.00     0.041 A 
ATOM      4  C3  UNL d   1      -0.737  -0.883   0.579  0.00  0.00    -0.075 A 
ATOM      5  S   UNL d   1       0.879  -0.348   0.859  0.00  0.00     0.015 SA
ATOM      6  C4  UNL d   1       0.860   0.665  -0.512  0.00  0.00     0.022 A 
ATOM      7  C5  UNL d   1      -0.341   0.609  -1.178  0.00  0.00     0.026 A 
ATOM      8  C6  UNL d   1      -1.281  -0.283  -0.560  0.00  0.00    -0.082 A 
ATOM      9  C7  UNL d   1      -2.607  -0.622  -0.924  0.00  0.00     0.045 A 
ENDROOT
TORSDOF 0
ENDMDL
