MODEL 1
REMARK minimizedAffinity -2.84204078
REMARK minimizedRMSD -1
REMARK  0 active torsions:
REMARK  status: ('A' for Active; 'I' for Inactive)
ROOT
ATOM      1  C   UNL d   1      -3.025  -1.603  -0.887  0.00  0.00    -0.002 A 
ATOM      2  C1  UNL d   1      -2.778  -2.500   0.142  0.00  0.00     0.010 A 
ATOM      3  C2  UNL d   1      -1.624  -2.389   0.921  0.00  0.00     0.041 A 
ATOM      4  C3  UNL d   1      -0.715  -1.349   0.645  0.00  0.00    -0.075 A 
ATOM      5  S   UNL d   1       0.764  -1.017   1.468  0.00  0.00     0.015 SA
ATOM      6  C4  UNL d   1       1.103   0.324   0.472  0.00  0.00     0.022 A 
ATOM      7  C5  UNL d   1       0.123   0.528  -0.470  0.00  0.00     0.026 A 
ATOM      8  C6  UNL d   1      -0.941  -0.433  -0.386  0.00  0.00    -0.082 A 
ATOM      9  C7  UNL d   1      -2.120  -0.573  -1.157  0.00  0.00     0.045 A 
ENDROOT
TORSDOF 0
ENDMDL
