MODEL 1
REMARK minimizedAffinity -1.72875237
REMARK minimizedRMSD -1
REMARK  1 active torsions:
REMARK  status: ('A' for Active; 'I' for Inactive)
REMARK    1  A    between atoms: C3_4  and  O_7 
ROOT
ATOM      1  C   UNL d   1       0.452   0.083   2.296  0.00  0.00    -0.033 A 
ATOM      2  C1  UNL d   1       0.741  -0.015   0.934  0.00  0.00     0.039 A 
ATOM      3  C2  UNL d   1      -0.269   0.177  -0.011  0.00  0.00    -0.080 A 
ATOM      4  C3  UNL d   1      -1.561   0.466   0.419  0.00  0.00     0.150 A 
ATOM      5  C4  UNL d   1      -1.855   0.568   1.774  0.00  0.00    -0.007 A 
ATOM      6  C5  UNL d   1      -0.845   0.375   2.716  0.00  0.00     0.039 A 
ENDROOT
BRANCH   4   7
ATOM      7  O   UNL d   1      -2.581   0.656  -0.466  0.00  0.00    -0.526 OA
ATOM      8  H5  UNL d   1      -2.236   0.526  -1.366  0.00  0.00     0.418 HD
ENDBRANCH   4   7
TORSDOF 1
ENDMDL
