MODEL 1
REMARK minimizedAffinity -1.69473934
REMARK minimizedRMSD -1
REMARK  1 active torsions:
REMARK  status: ('A' for Active; 'I' for Inactive)
REMARK    1  A    between atoms: C3_4  and  O_7 
ROOT
ATOM      1  C   UNL d   1       1.130   0.135   1.065  0.00  0.00    -0.033 A 
ATOM      2  C1  UNL d   1       0.341   0.227   2.213  0.00  0.00     0.039 A 
ATOM      3  C2  UNL d   1      -1.050   0.292   2.104  0.00  0.00    -0.080 A 
ATOM      4  C3  UNL d   1      -1.638   0.262   0.842  0.00  0.00     0.150 A 
ATOM      5  C4  UNL d   1      -0.858   0.167  -0.306  0.00  0.00    -0.007 A 
ATOM      6  C5  UNL d   1       0.530   0.103  -0.194  0.00  0.00     0.039 A 
ENDROOT
BRANCH   4   7
ATOM      7  O   UNL d   1      -2.990   0.328   0.685  0.00  0.00    -0.526 OA
ATOM      8  H5  UNL d   1      -3.398   0.420   1.562  0.00  0.00     0.418 HD
ENDBRANCH   4   7
TORSDOF 1
ENDMDL
