MODEL 1
REMARK minimizedAffinity -5.0704999
REMARK minimizedRMSD -1
REMARK  1 active torsions:
REMARK  status: ('A' for Active; 'I' for Inactive)
REMARK    1  A    between atoms: C3_4  and  O_7 
ROOT
ATOM      1  C   UNL d   1       1.072   0.581   0.371  0.00  0.00    -0.033 A 
ATOM      2  C1  UNL d   1      -0.226   0.068   0.345  0.00  0.00     0.039 A 
ATOM      3  C2  UNL d   1      -0.691  -0.715   1.403  0.00  0.00    -0.080 A 
ATOM      4  C3  UNL d   1       0.150  -0.976   2.481  0.00  0.00     0.150 A 
ATOM      5  C4  UNL d   1       1.443  -0.465   2.516  0.00  0.00    -0.007 A 
ATOM      6  C5  UNL d   1       1.906   0.316   1.458  0.00  0.00     0.039 A 
ENDROOT
BRANCH   4   7
ATOM      7  O   UNL d   1      -0.258  -1.739   3.534  0.00  0.00    -0.526 OA
ATOM      8  H5  UNL d   1      -1.162  -2.048   3.359  0.00  0.00     0.418 HD
ENDBRANCH   4   7
TORSDOF 1
ENDMDL
