MODEL 1
REMARK minimizedAffinity -2.94208145
REMARK minimizedRMSD -1
REMARK  1 active torsions:
REMARK  status: ('A' for Active; 'I' for Inactive)
REMARK    1  A    between atoms: C3_4  and  O_7 
ROOT
ATOM      1  C   UNL d   1       0.143  -0.742   1.046  0.00  0.00    -0.033 A 
ATOM      2  C1  UNL d   1       0.477   0.007  -0.083  0.00  0.00     0.039 A 
ATOM      3  C2  UNL d   1      -0.525   0.471  -0.938  0.00  0.00    -0.080 A 
ATOM      4  C3  UNL d   1      -1.856   0.181  -0.651  0.00  0.00     0.150 A 
ATOM      5  C4  UNL d   1      -2.197  -0.562   0.475  0.00  0.00    -0.007 A 
ATOM      6  C5  UNL d   1      -1.194  -1.025   1.326  0.00  0.00     0.039 A 
ENDROOT
BRANCH   4   7
ATOM      7  O   UNL d   1      -2.868   0.608  -1.457  0.00  0.00    -0.526 OA
ATOM      8  H5  UNL d   1      -2.481   1.084  -2.211  0.00  0.00     0.418 HD
ENDBRANCH   4   7
TORSDOF 1
ENDMDL
