MODEL 1
REMARK minimizedAffinity -3.74810576
REMARK minimizedRMSD -1
REMARK  1 active torsions:
REMARK  status: ('A' for Active; 'I' for Inactive)
REMARK    1  A    between atoms: C3_4  and  O_7 
ROOT
ATOM      1  C   UNL d   1       0.688   0.628   0.357  0.00  0.00    -0.033 A 
ATOM      2  C1  UNL d   1      -0.568   0.019   0.310  0.00  0.00     0.039 A 
ATOM      3  C2  UNL d   1      -1.073  -0.630   1.438  0.00  0.00    -0.080 A 
ATOM      4  C3  UNL d   1      -0.315  -0.662   2.605  0.00  0.00     0.150 A 
ATOM      5  C4  UNL d   1       0.935  -0.054   2.660  0.00  0.00    -0.007 A 
ATOM      6  C5  UNL d   1       1.438   0.593   1.532  0.00  0.00     0.039 A 
ENDROOT
BRANCH   4   7
ATOM      7  O   UNL d   1      -0.765  -1.287   3.730  0.00  0.00    -0.526 OA
ATOM      8  H5  UNL d   1      -1.629  -1.686   3.536  0.00  0.00     0.418 HD
ENDBRANCH   4   7
TORSDOF 1
ENDMDL
