MODEL 1
REMARK minimizedAffinity -2.59434748
REMARK minimizedRMSD -1
REMARK  1 active torsions:
REMARK  status: ('A' for Active; 'I' for Inactive)
REMARK    1  A    between atoms: C3_4  and  O_7 
ROOT
ATOM      1  C   UNL d   1       1.764   0.052   1.550  0.00  0.00    -0.033 A 
ATOM      2  C1  UNL d   1       0.808  -0.086   2.557  0.00  0.00     0.039 A 
ATOM      3  C2  UNL d   1      -0.549   0.057   2.259  0.00  0.00    -0.080 A 
ATOM      4  C3  UNL d   1      -0.935   0.337   0.951  0.00  0.00     0.150 A 
ATOM      5  C4  UNL d   1       0.013   0.472  -0.059  0.00  0.00    -0.007 A 
ATOM      6  C5  UNL d   1       1.367   0.330   0.242  0.00  0.00     0.039 A 
ENDROOT
BRANCH   4   7
ATOM      7  O   UNL d   1      -2.246   0.490   0.612  0.00  0.00    -0.526 OA
ATOM      8  H5  UNL d   1      -2.785   0.397   1.416  0.00  0.00     0.418 HD
ENDBRANCH   4   7
TORSDOF 1
ENDMDL
