MODEL 1
REMARK minimizedAffinity -2.90919065
REMARK minimizedRMSD -1
REMARK  1 active torsions:
REMARK  status: ('A' for Active; 'I' for Inactive)
REMARK    1  A    between atoms: C3_4  and  O_7 
ROOT
ATOM      1  C   UNL d   1      -3.914   1.508   5.386  0.00  0.00    -0.033 A 
ATOM      2  C1  UNL d   1      -5.246   1.884   5.567  0.00  0.00     0.039 A 
ATOM      3  C2  UNL d   1      -5.965   2.444   4.508  0.00  0.00    -0.080 A 
ATOM      4  C3  UNL d   1      -5.341   2.620   3.276  0.00  0.00     0.150 A 
ATOM      5  C4  UNL d   1      -4.015   2.244   3.089  0.00  0.00    -0.007 A 
ATOM      6  C5  UNL d   1      -3.299   1.686   4.147  0.00  0.00     0.039 A 
ENDROOT
BRANCH   4   7
ATOM      7  O   UNL d   1      -6.000   3.166   2.215  0.00  0.00    -0.526 OA
ATOM      8  H5  UNL d   1      -6.898   3.404   2.500  0.00  0.00     0.418 HD
ENDBRANCH   4   7
TORSDOF 1
ENDMDL
