MODEL 1
REMARK minimizedAffinity 0.0359021313
REMARK minimizedRMSD -1
REMARK  1 active torsions:
REMARK  status: ('A' for Active; 'I' for Inactive)
REMARK    1  A    between atoms: C3_4  and  O_7 
ROOT
ATOM      1  C   UNL d   1       1.934   1.573  -1.371  0.00  0.00    -0.033 A 
ATOM      2  C1  UNL d   1       3.007   1.454  -2.256  0.00  0.00     0.039 A 
ATOM      3  C2  UNL d   1       3.397   0.196  -2.719  0.00  0.00    -0.080 A 
ATOM      4  C3  UNL d   1       2.705  -0.934  -2.291  0.00  0.00     0.150 A 
ATOM      5  C4  UNL d   1       1.632  -0.823  -1.413  0.00  0.00    -0.007 A 
ATOM      6  C5  UNL d   1       1.246   0.435  -0.951  0.00  0.00     0.039 A 
ENDROOT
BRANCH   4   7
ATOM      7  O   UNL d   1       3.051  -2.183  -2.713  0.00  0.00    -0.526 OA
ATOM      8  H5  UNL d   1       3.827  -2.109  -3.293  0.00  0.00     0.418 HD
ENDBRANCH   4   7
TORSDOF 1
ENDMDL
