MODEL 1
REMARK minimizedAffinity -2.22498107
REMARK minimizedRMSD -1
REMARK  1 active torsions:
REMARK  status: ('A' for Active; 'I' for Inactive)
REMARK    1  A    between atoms: C3_4  and  O_7 
ROOT
ATOM      1  C   UNL d   1      -5.997  -4.878   0.838  0.00  0.00    -0.033 A 
ATOM      2  C1  UNL d   1      -5.178  -6.000   0.979  0.00  0.00     0.039 A 
ATOM      3  C2  UNL d   1      -3.854  -5.851   1.397  0.00  0.00    -0.080 A 
ATOM      4  C3  UNL d   1      -3.363  -4.578   1.671  0.00  0.00     0.150 A 
ATOM      5  C4  UNL d   1      -4.175  -3.456   1.537  0.00  0.00    -0.007 A 
ATOM      6  C5  UNL d   1      -5.496  -3.607   1.118  0.00  0.00     0.039 A 
ENDROOT
BRANCH   4   7
ATOM      7  O   UNL d   1      -2.076  -4.382   2.077  0.00  0.00    -0.526 OA
ATOM      8  H5  UNL d   1      -1.626  -5.243   2.098  0.00  0.00     0.418 HD
ENDBRANCH   4   7
TORSDOF 1
ENDMDL
