MODEL 1
REMARK minimizedAffinity -0.507990539
REMARK minimizedRMSD -1
REMARK  1 active torsions:
REMARK  status: ('A' for Active; 'I' for Inactive)
REMARK    1  A    between atoms: C3_4  and  O_7 
ROOT
ATOM      1  C   UNL d   1      -1.862  -4.836   0.388  0.00  0.00    -0.033 A 
ATOM      2  C1  UNL d   1      -2.579  -3.682   0.710  0.00  0.00     0.039 A 
ATOM      3  C2  UNL d   1      -3.973  -3.684   0.646  0.00  0.00    -0.080 A 
ATOM      4  C3  UNL d   1      -4.638  -4.845   0.260  0.00  0.00     0.150 A 
ATOM      5  C4  UNL d   1      -3.930  -5.999  -0.059  0.00  0.00    -0.007 A 
ATOM      6  C5  UNL d   1      -2.537  -5.995   0.005  0.00  0.00     0.039 A 
ENDROOT
BRANCH   4   7
ATOM      7  O   UNL d   1      -5.998  -4.894   0.178  0.00  0.00    -0.526 OA
ATOM      8  H5  UNL d   1      -6.351  -4.016   0.399  0.00  0.00     0.418 HD
ENDBRANCH   4   7
TORSDOF 1
ENDMDL
