MODEL 1
REMARK minimizedAffinity 1.45198917
REMARK minimizedRMSD -1
REMARK  1 active torsions:
REMARK  status: ('A' for Active; 'I' for Inactive)
REMARK    1  A    between atoms: C3_4  and  O_7 
ROOT
ATOM      1  C   UNL d   1      -4.175  -4.126   0.759  0.00  0.00    -0.033 A 
ATOM      2  C1  UNL d   1      -4.112  -5.473   1.119  0.00  0.00     0.039 A 
ATOM      3  C2  UNL d   1      -2.949  -5.991   1.693  0.00  0.00    -0.080 A 
ATOM      4  C3  UNL d   1      -1.859  -5.151   1.903  0.00  0.00     0.150 A 
ATOM      5  C4  UNL d   1      -1.916  -3.807   1.550  0.00  0.00    -0.007 A 
ATOM      6  C5  UNL d   1      -3.077  -3.292   0.976  0.00  0.00     0.039 A 
ENDROOT
BRANCH   4   7
ATOM      7  O   UNL d   1      -0.701  -5.612   2.456  0.00  0.00    -0.526 OA
ATOM      8  H5  UNL d   1      -0.797  -6.565   2.622  0.00  0.00     0.418 HD
ENDBRANCH   4   7
TORSDOF 1
ENDMDL
