MODEL 1
REMARK minimizedAffinity -2.66757417
REMARK minimizedRMSD -1
REMARK  1 active torsions:
REMARK  status: ('A' for Active; 'I' for Inactive)
REMARK    1  A    between atoms: C3_4  and  O_7 
ROOT
ATOM      1  C   UNL d   1      -4.660  -4.595   0.370  0.00  0.00    -0.033 A 
ATOM      2  C1  UNL d   1      -4.203  -5.857   0.753  0.00  0.00     0.039 A 
ATOM      3  C2  UNL d   1      -2.935  -6.000   1.321  0.00  0.00    -0.080 A 
ATOM      4  C3  UNL d   1      -2.136  -4.873   1.501  0.00  0.00     0.150 A 
ATOM      5  C4  UNL d   1      -2.588  -3.612   1.125  0.00  0.00    -0.007 A 
ATOM      6  C5  UNL d   1      -3.853  -3.473   0.557  0.00  0.00     0.039 A 
ENDROOT
BRANCH   4   7
ATOM      7  O   UNL d   1      -0.890  -4.963   2.046  0.00  0.00    -0.526 OA
ATOM      8  H5  UNL d   1      -0.702  -5.898   2.231  0.00  0.00     0.418 HD
ENDBRANCH   4   7
TORSDOF 1
ENDMDL
