MODEL 1
REMARK minimizedAffinity 2.64365911
REMARK minimizedRMSD -1
REMARK  1 active torsions:
REMARK  status: ('A' for Active; 'I' for Inactive)
REMARK    1  A    between atoms: C3_4  and  O_7 
ROOT
ATOM      1  C   UNL d   1      -4.130  -6.000   0.361  0.00  0.00    -0.033 A 
ATOM      2  C1  UNL d   1      -5.480  -5.675   0.214  0.00  0.00     0.039 A 
ATOM      3  C2  UNL d   1      -6.000  -4.542   0.843  0.00  0.00    -0.080 A 
ATOM      4  C3  UNL d   1      -5.160  -3.743   1.613  0.00  0.00     0.150 A 
ATOM      5  C4  UNL d   1      -3.814  -4.058   1.761  0.00  0.00    -0.007 A 
ATOM      6  C5  UNL d   1      -3.296  -5.190   1.133  0.00  0.00     0.039 A 
ENDROOT
BRANCH   4   7
ATOM      7  O   UNL d   1      -5.623  -2.630   2.250  0.00  0.00    -0.526 OA
ATOM      8  H5  UNL d   1      -6.577  -2.553   2.082  0.00  0.00     0.418 HD
ENDBRANCH   4   7
TORSDOF 1
ENDMDL
