MODEL 1
REMARK minimizedAffinity 15.1348286
REMARK minimizedRMSD -1
REMARK  0 active torsions:
REMARK  status: ('A' for Active; 'I' for Inactive)
ROOT
ATOM      1  C   UNL d   1      -2.253   5.896   4.186  0.00  0.00     0.124 A 
ATOM      2  C1  UNL d   1      -2.019   5.931   2.818  0.00  0.00     0.062 A 
ATOM      3  C2  UNL d   1      -3.087   5.960   1.926  0.00  0.00     0.162 A 
ATOM      4  C3  UNL d   1      -4.400   5.955   2.399  0.00  0.00    -0.034 A 
ATOM      5  C4  UNL d   1      -4.626   5.919   3.776  0.00  0.00     0.162 A 
ATOM      6  C5  UNL d   1      -3.556   5.890   4.664  0.00  0.00     0.062 A 
ATOM      7  F   UNL d   1      -3.783   5.855   5.985  0.00  0.00    -0.097 F 
ATOM      8  F1  UNL d   1      -5.875   5.913   4.265  0.00  0.00    -0.096 F 
ATOM      9  I   UNL d   1      -5.999   5.999   1.069  0.00  0.00    -0.060 I 
ATOM     10  F2  UNL d   1      -2.832   5.994   0.610  0.00  0.00    -0.096 F 
ATOM     11  F3  UNL d   1      -0.761   5.937   2.354  0.00  0.00    -0.097 F 
ATOM     12  F4  UNL d   1      -1.223   5.867   5.042  0.00  0.00    -0.092 F 
ENDROOT
TORSDOF 0
ENDMDL
