MODEL 1
REMARK minimizedAffinity 10.5432682
REMARK minimizedRMSD -1
REMARK  0 active torsions:
REMARK  status: ('A' for Active; 'I' for Inactive)
ROOT
ATOM      1  C   UNL d   1      -3.389  -0.311   3.315  0.00  0.00     0.124 A 
ATOM      2  C1  UNL d   1      -2.727   0.704   2.639  0.00  0.00     0.062 A 
ATOM      3  C2  UNL d   1      -2.812   2.018   3.092  0.00  0.00     0.162 A 
ATOM      4  C3  UNL d   1      -3.561   2.323   4.229  0.00  0.00    -0.034 A 
ATOM      5  C4  UNL d   1      -4.225   1.296   4.903  0.00  0.00     0.162 A 
ATOM      6  C5  UNL d   1      -4.137  -0.015   4.446  0.00  0.00     0.062 A 
ATOM      7  F   UNL d   1      -4.777  -0.995   5.100  0.00  0.00    -0.097 F 
ATOM      8  F1  UNL d   1      -4.953   1.554   5.999  0.00  0.00    -0.096 F 
ATOM      9  I   UNL d   1      -3.690   4.285   4.910  0.00  0.00    -0.060 I 
ATOM     10  F2  UNL d   1      -2.162   2.979   2.420  0.00  0.00    -0.096 F 
ATOM     11  F3  UNL d   1      -2.005   0.420   1.546  0.00  0.00    -0.097 F 
ATOM     12  F4  UNL d   1      -3.307  -1.574   2.876  0.00  0.00    -0.092 F 
ENDROOT
TORSDOF 0
ENDMDL
