MODEL 1
REMARK minimizedAffinity 13.3769932
REMARK minimizedRMSD -1
REMARK  0 active torsions:
REMARK  status: ('A' for Active; 'I' for Inactive)
ROOT
ATOM      1  C   UNL d   1      -3.619   5.838   1.133  0.00  0.00     0.124 A 
ATOM      2  C1  UNL d   1      -2.383   5.919   1.758  0.00  0.00     0.062 A 
ATOM      3  C2  UNL d   1      -2.299   5.917   3.147  0.00  0.00     0.162 A 
ATOM      4  C3  UNL d   1      -3.457   5.834   3.922  0.00  0.00    -0.034 A 
ATOM      5  C4  UNL d   1      -4.697   5.755   3.286  0.00  0.00     0.162 A 
ATOM      6  C5  UNL d   1      -4.775   5.757   1.897  0.00  0.00     0.062 A 
ATOM      7  F   UNL d   1      -5.971   5.679   1.295  0.00  0.00    -0.097 F 
ATOM      8  F1  UNL d   1      -5.829   5.674   4.000  0.00  0.00    -0.096 F 
ATOM      9  I   UNL d   1      -3.336   5.832   5.999  0.00  0.00    -0.060 I 
ATOM     10  F2  UNL d   1      -1.091   5.996   3.724  0.00  0.00    -0.096 F 
ATOM     11  F3  UNL d   1      -1.265   5.999   1.022  0.00  0.00    -0.097 F 
ATOM     12  F4  UNL d   1      -3.697   5.841  -0.204  0.00  0.00    -0.092 F 
ENDROOT
TORSDOF 0
ENDMDL
