MODEL 1
REMARK minimizedAffinity 21.8356953
REMARK minimizedRMSD -1
REMARK  0 active torsions:
REMARK  status: ('A' for Active; 'I' for Inactive)
ROOT
ATOM      1  C   UNL d   1       1.233  -0.578  -2.277  0.00  0.00     0.124 A 
ATOM      2  C1  UNL d   1       1.970   0.568  -2.012  0.00  0.00     0.062 A 
ATOM      3  C2  UNL d   1       1.773   1.718  -2.771  0.00  0.00     0.162 A 
ATOM      4  C3  UNL d   1       0.834   1.728  -3.803  0.00  0.00    -0.034 A 
ATOM      5  C4  UNL d   1       0.098   0.571  -4.064  0.00  0.00     0.162 A 
ATOM      6  C5  UNL d   1       0.298  -0.576  -3.303  0.00  0.00     0.062 A 
ATOM      7  F   UNL d   1      -0.414  -1.682  -3.561  0.00  0.00    -0.097 F 
ATOM      8  F1  UNL d   1      -0.813   0.547  -5.049  0.00  0.00    -0.096 F 
ATOM      9  I   UNL d   1       0.537   3.446  -4.940  0.00  0.00    -0.060 I 
ATOM     10  F2  UNL d   1       2.499   2.811  -2.492  0.00  0.00    -0.096 F 
ATOM     11  F3  UNL d   1       2.874   0.567  -1.022  0.00  0.00    -0.097 F 
ATOM     12  F4  UNL d   1       1.425  -1.684  -1.546  0.00  0.00    -0.092 F 
ENDROOT
TORSDOF 0
ENDMDL
