MODEL 1
REMARK minimizedAffinity 20.6398449
REMARK minimizedRMSD -1
REMARK  0 active torsions:
REMARK  status: ('A' for Active; 'I' for Inactive)
ROOT
ATOM      1  C   UNL d   1      -3.164   2.402   4.127  0.00  0.00     0.124 A 
ATOM      2  C1  UNL d   1      -3.365   3.713   4.537  0.00  0.00     0.062 A 
ATOM      3  C2  UNL d   1      -3.421   4.739   3.599  0.00  0.00     0.162 A 
ATOM      4  C3  UNL d   1      -3.277   4.459   2.240  0.00  0.00    -0.034 A 
ATOM      5  C4  UNL d   1      -3.074   3.138   1.835  0.00  0.00     0.162 A 
ATOM      6  C5  UNL d   1      -3.019   2.116   2.777  0.00  0.00     0.062 A 
ATOM      7  F   UNL d   1      -2.824   0.850   2.378  0.00  0.00    -0.097 F 
ATOM      8  F1  UNL d   1      -2.931   2.834   0.537  0.00  0.00    -0.096 F 
ATOM      9  I   UNL d   1      -3.360   5.991   0.834  0.00  0.00    -0.060 I 
ATOM     10  F2  UNL d   1      -3.616   5.996   4.024  0.00  0.00    -0.096 F 
ATOM     11  F3  UNL d   1      -3.505   3.991   5.841  0.00  0.00    -0.097 F 
ATOM     12  F4  UNL d   1      -3.110   1.416   5.032  0.00  0.00    -0.092 F 
ENDROOT
TORSDOF 0
ENDMDL
