MODEL 1
REMARK minimizedAffinity 0.51356709
REMARK minimizedRMSD -1
REMARK  0 active torsions:
REMARK  status: ('A' for Active; 'I' for Inactive)
ROOT
ATOM      1  C   UNL d   1      -3.323   5.984   1.140  0.00  0.00     0.124 A 
ATOM      2  C1  UNL d   1      -2.210   5.992   1.969  0.00  0.00     0.062 A 
ATOM      3  C2  UNL d   1      -2.368   5.992   3.352  0.00  0.00     0.162 A 
ATOM      4  C3  UNL d   1      -3.644   5.984   3.915  0.00  0.00    -0.034 A 
ATOM      5  C4  UNL d   1      -4.758   5.977   3.075  0.00  0.00     0.162 A 
ATOM      6  C5  UNL d   1      -4.596   5.977   1.693  0.00  0.00     0.062 A 
ATOM      7  F   UNL d   1      -5.672   5.970   0.893  0.00  0.00    -0.097 F 
ATOM      8  F1  UNL d   1      -6.000   5.969   3.583  0.00  0.00    -0.096 F 
ATOM      9  I   UNL d   1      -3.884   5.984   5.983  0.00  0.00    -0.060 I 
ATOM     10  F2  UNL d   1      -1.274   5.999   4.129  0.00  0.00    -0.096 F 
ATOM     11  F3  UNL d   1      -0.979   5.999   1.437  0.00  0.00    -0.097 F 
ATOM     12  F4  UNL d   1      -3.168   5.985  -0.190  0.00  0.00    -0.092 F 
ENDROOT
TORSDOF 0
ENDMDL
