MODEL 1
REMARK minimizedAffinity 10.3211298
REMARK minimizedRMSD -1
REMARK  0 active torsions:
REMARK  status: ('A' for Active; 'I' for Inactive)
ROOT
ATOM      1  C   UNL d   1      -3.631   5.862   1.125  0.00  0.00     0.124 A 
ATOM      2  C1  UNL d   1      -2.424   5.918   1.808  0.00  0.00     0.062 A 
ATOM      3  C2  UNL d   1      -2.407   5.945   3.199  0.00  0.00     0.162 A 
ATOM      4  C3  UNL d   1      -3.602   5.915   3.918  0.00  0.00    -0.034 A 
ATOM      5  C4  UNL d   1      -4.812   5.860   3.224  0.00  0.00     0.162 A 
ATOM      6  C5  UNL d   1      -4.824   5.833   1.834  0.00  0.00     0.062 A 
ATOM      7  F   UNL d   1      -5.991   5.779   1.176  0.00  0.00    -0.097 F 
ATOM      8  F1  UNL d   1      -5.980   5.830   3.884  0.00  0.00    -0.096 F 
ATOM      9  I   UNL d   1      -3.582   5.955   5.999  0.00  0.00    -0.060 I 
ATOM     10  F2  UNL d   1      -1.226   5.999   3.833  0.00  0.00    -0.096 F 
ATOM     11  F3  UNL d   1      -1.270   5.947   1.126  0.00  0.00    -0.097 F 
ATOM     12  F4  UNL d   1      -3.644   5.837  -0.214  0.00  0.00    -0.092 F 
ENDROOT
TORSDOF 0
ENDMDL
