MODEL 1
REMARK minimizedAffinity 8.40459919
REMARK minimizedRMSD -1
REMARK  0 active torsions:
REMARK  status: ('A' for Active; 'I' for Inactive)
ROOT
ATOM      1  C   UNL d   1      -3.591   5.540   1.118  0.00  0.00     0.124 A 
ATOM      2  C1  UNL d   1      -4.788   5.370   1.799  0.00  0.00     0.062 A 
ATOM      3  C2  UNL d   1      -4.812   5.398   3.190  0.00  0.00     0.162 A 
ATOM      4  C3  UNL d   1      -3.635   5.599   3.911  0.00  0.00    -0.034 A 
ATOM      5  C4  UNL d   1      -2.434   5.769   3.219  0.00  0.00     0.162 A 
ATOM      6  C5  UNL d   1      -2.415   5.740   1.828  0.00  0.00     0.062 A 
ATOM      7  F   UNL d   1      -1.258   5.905   1.172  0.00  0.00    -0.097 F 
ATOM      8  F1  UNL d   1      -1.283   5.964   3.880  0.00  0.00    -0.096 F 
ATOM      9  I   UNL d   1      -3.666   5.642   5.991  0.00  0.00    -0.060 I 
ATOM     10  F2  UNL d   1      -5.983   5.231   3.822  0.00  0.00    -0.096 F 
ATOM     11  F3  UNL d   1      -5.925   5.176   1.115  0.00  0.00    -0.097 F 
ATOM     12  F4  UNL d   1      -3.571   5.512  -0.221  0.00  0.00    -0.092 F 
ENDROOT
TORSDOF 0
ENDMDL
