MODEL 1
REMARK minimizedAffinity 23.4875565
REMARK minimizedRMSD -1
REMARK  0 active torsions:
REMARK  status: ('A' for Active; 'I' for Inactive)
ROOT
ATOM      1  C   UNL d   1      -3.125   5.954   4.442  0.00  0.00     0.124 A 
ATOM      2  C1  UNL d   1      -2.070   5.966   3.540  0.00  0.00     0.062 A 
ATOM      3  C2  UNL d   1      -2.319   5.965   2.171  0.00  0.00     0.162 A 
ATOM      4  C3  UNL d   1      -3.630   5.953   1.694  0.00  0.00    -0.034 A 
ATOM      5  C4  UNL d   1      -4.686   5.941   2.607  0.00  0.00     0.162 A 
ATOM      6  C5  UNL d   1      -4.432   5.942   3.974  0.00  0.00     0.062 A 
ATOM      7  F   UNL d   1      -5.453   5.931   4.844  0.00  0.00    -0.097 F 
ATOM      8  F1  UNL d   1      -5.958   5.929   2.183  0.00  0.00    -0.096 F 
ATOM      9  I   UNL d   1      -4.007   5.951  -0.353  0.00  0.00    -0.060 I 
ATOM     10  F2  UNL d   1      -1.280   5.976   1.322  0.00  0.00    -0.096 F 
ATOM     11  F3  UNL d   1      -0.806   5.977   3.989  0.00  0.00    -0.097 F 
ATOM     12  F4  UNL d   1      -2.882   5.955   5.759  0.00  0.00    -0.092 F 
ENDROOT
TORSDOF 0
ENDMDL
