MODEL 1
REMARK minimizedAffinity 6.41787434
REMARK minimizedRMSD -1
REMARK  0 active torsions:
REMARK  status: ('A' for Active; 'I' for Inactive)
ROOT
ATOM      1  C   UNL d   1      -3.371   1.125   3.752  0.00  0.00     0.124 A 
ATOM      2  C1  UNL d   1      -3.757   1.825   4.887  0.00  0.00     0.062 A 
ATOM      3  C2  UNL d   1      -3.762   3.216   4.884  0.00  0.00     0.162 A 
ATOM      4  C3  UNL d   1      -3.382   3.919   3.740  0.00  0.00    -0.034 A 
ATOM      5  C4  UNL d   1      -2.994   3.208   2.603  0.00  0.00     0.162 A 
ATOM      6  C5  UNL d   1      -2.990   1.817   2.611  0.00  0.00     0.062 A 
ATOM      7  F   UNL d   1      -2.617   1.143   1.514  0.00  0.00    -0.097 F 
ATOM      8  F1  UNL d   1      -2.622   3.852   1.486  0.00  0.00    -0.096 F 
ATOM      9  I   UNL d   1      -3.388   6.000   3.731  0.00  0.00    -0.060 I 
ATOM     10  F2  UNL d   1      -4.140   3.866   5.995  0.00  0.00    -0.096 F 
ATOM     11  F3  UNL d   1      -4.125   1.158   5.991  0.00  0.00    -0.097 F 
ATOM     12  F4  UNL d   1      -3.366  -0.214   3.759  0.00  0.00    -0.092 F 
ENDROOT
TORSDOF 0
ENDMDL
