MODEL 1
REMARK minimizedAffinity 14.6408863
REMARK minimizedRMSD -1
REMARK  0 active torsions:
REMARK  status: ('A' for Active; 'I' for Inactive)
ROOT
ATOM      1  C   UNL d   1      -4.660   5.866   3.969  0.00  0.00     0.124 A 
ATOM      2  C1  UNL d   1      -4.765   5.897   2.585  0.00  0.00     0.062 A 
ATOM      3  C2  UNL d   1      -3.619   5.936   1.796  0.00  0.00     0.162 A 
ATOM      4  C3  UNL d   1      -2.357   5.942   2.390  0.00  0.00    -0.034 A 
ATOM      5  C4  UNL d   1      -2.259   5.912   3.782  0.00  0.00     0.162 A 
ATOM      6  C5  UNL d   1      -3.408   5.874   4.566  0.00  0.00     0.062 A 
ATOM      7  F   UNL d   1      -3.304   5.844   5.902  0.00  0.00    -0.097 F 
ATOM      8  F1  UNL d   1      -1.061   5.917   4.385  0.00  0.00    -0.096 F 
ATOM      9  I   UNL d   1      -0.640   6.000   1.214  0.00  0.00    -0.060 I 
ATOM     10  F2  UNL d   1      -3.751   5.965   0.462  0.00  0.00    -0.096 F 
ATOM     11  F3  UNL d   1      -5.975   5.891   2.006  0.00  0.00    -0.097 F 
ATOM     12  F4  UNL d   1      -5.765   5.830   4.725  0.00  0.00    -0.092 F 
ENDROOT
TORSDOF 0
ENDMDL
