MODEL 1
REMARK minimizedAffinity 13.9451876
REMARK minimizedRMSD -1
REMARK  0 active torsions:
REMARK  status: ('A' for Active; 'I' for Inactive)
ROOT
ATOM      1  C   UNL d   1       4.001   1.073  -4.928  0.00  0.00     0.124 A 
ATOM      2  C1  UNL d   1       4.662   0.570  -3.816  0.00  0.00     0.062 A 
ATOM      3  C2  UNL d   1       3.940   0.155  -2.701  0.00  0.00     0.162 A 
ATOM      4  C3  UNL d   1       2.548   0.240  -2.692  0.00  0.00    -0.034 A 
ATOM      5  C4  UNL d   1       1.890   0.747  -3.814  0.00  0.00     0.162 A 
ATOM      6  C5  UNL d   1       2.616   1.161  -4.926  0.00  0.00     0.062 A 
ATOM      7  F   UNL d   1       1.975   1.646  -6.000  0.00  0.00    -0.097 F 
ATOM      8  F1  UNL d   1       0.552   0.842  -3.839  0.00  0.00    -0.096 F 
ATOM      9  I   UNL d   1       1.465  -0.380  -1.026  0.00  0.00    -0.060 I 
ATOM     10  F2  UNL d   1       4.605  -0.326  -1.640  0.00  0.00    -0.096 F 
ATOM     11  F3  UNL d   1       6.000   0.485  -3.816  0.00  0.00    -0.097 F 
ATOM     12  F4  UNL d   1       4.698   1.472  -6.000  0.00  0.00    -0.092 F 
ENDROOT
TORSDOF 0
ENDMDL
