MODEL 1
REMARK minimizedAffinity 8.99450397
REMARK minimizedRMSD -1
REMARK  0 active torsions:
REMARK  status: ('A' for Active; 'I' for Inactive)
ROOT
ATOM      1  C   UNL d   1       1.664   2.022  -2.380  0.00  0.00     0.124 A 
ATOM      2  C1  UNL d   1       2.032   3.329  -2.095  0.00  0.00     0.062 A 
ATOM      3  C2  UNL d   1       2.226   4.243  -3.126  0.00  0.00     0.162 A 
ATOM      4  C3  UNL d   1       2.051   3.853  -4.454  0.00  0.00    -0.034 A 
ATOM      5  C4  UNL d   1       1.682   2.536  -4.734  0.00  0.00     0.162 A 
ATOM      6  C5  UNL d   1       1.489   1.627  -3.699  0.00  0.00     0.062 A 
ATOM      7  F   UNL d   1       1.133   0.364  -3.977  0.00  0.00    -0.097 F 
ATOM      8  F1  UNL d   1       1.505   2.128  -5.999  0.00  0.00    -0.096 F 
ATOM      9  I   UNL d   1       2.340   5.217  -6.000  0.00  0.00    -0.060 I 
ATOM     10  F2  UNL d   1       2.582   5.500  -2.821  0.00  0.00    -0.096 F 
ATOM     11  F3  UNL d   1       2.203   3.713  -0.821  0.00  0.00    -0.097 F 
ATOM     12  F4  UNL d   1       1.479   1.144  -1.386  0.00  0.00    -0.092 F 
ENDROOT
TORSDOF 0
ENDMDL
