MODEL 1
REMARK minimizedAffinity 11.6892223
REMARK minimizedRMSD -1
REMARK  0 active torsions:
REMARK  status: ('A' for Active; 'I' for Inactive)
ROOT
ATOM      1  C   UNL d   1      -2.899   1.991   1.511  0.00  0.00     0.124 A 
ATOM      2  C1  UNL d   1      -2.904   3.245   0.917  0.00  0.00     0.062 A 
ATOM      3  C2  UNL d   1      -2.987   4.391   1.703  0.00  0.00     0.162 A 
ATOM      4  C3  UNL d   1      -3.065   4.288   3.092  0.00  0.00    -0.034 A 
ATOM      5  C4  UNL d   1      -3.060   3.022   3.681  0.00  0.00     0.162 A 
ATOM      6  C5  UNL d   1      -2.977   1.880   2.892  0.00  0.00     0.062 A 
ATOM      7  F   UNL d   1      -2.972   0.669   3.467  0.00  0.00    -0.097 F 
ATOM      8  F1  UNL d   1      -3.133   2.887   5.014  0.00  0.00    -0.096 F 
ATOM      9  I   UNL d   1      -3.189   5.999   4.270  0.00  0.00    -0.060 I 
ATOM     10  F2  UNL d   1      -2.990   5.591   1.102  0.00  0.00    -0.096 F 
ATOM     11  F3  UNL d   1      -2.830   3.355  -0.417  0.00  0.00    -0.097 F 
ATOM     12  F4  UNL d   1      -2.820   0.890   0.752  0.00  0.00    -0.092 F 
ENDROOT
TORSDOF 0
ENDMDL
