MODEL 1
REMARK minimizedAffinity 10.7233047
REMARK minimizedRMSD -1
REMARK  0 active torsions:
REMARK  status: ('A' for Active; 'I' for Inactive)
ROOT
ATOM      1  C   UNL d   1      -4.245   5.910   2.265  0.00  0.00     0.124 A 
ATOM      2  C1  UNL d   1      -4.683   5.901   3.583  0.00  0.00     0.062 A 
ATOM      3  C2  UNL d   1      -3.762   5.908   4.626  0.00  0.00     0.162 A 
ATOM      4  C3  UNL d   1      -2.393   5.925   4.357  0.00  0.00    -0.034 A 
ATOM      5  C4  UNL d   1      -1.961   5.933   3.029  0.00  0.00     0.162 A 
ATOM      6  C5  UNL d   1      -2.885   5.926   1.990  0.00  0.00     0.062 A 
ATOM      7  F   UNL d   1      -2.461   5.934   0.718  0.00  0.00    -0.097 F 
ATOM      8  F1  UNL d   1      -0.652   5.949   2.735  0.00  0.00    -0.096 F 
ATOM      9  I   UNL d   1      -1.013   5.935   5.914  0.00  0.00    -0.060 I 
ATOM     10  F2  UNL d   1      -4.213   5.899   5.889  0.00  0.00    -0.096 F 
ATOM     11  F3  UNL d   1      -5.996   5.885   3.851  0.00  0.00    -0.097 F 
ATOM     12  F4  UNL d   1      -5.134   5.902   1.263  0.00  0.00    -0.092 F 
ENDROOT
TORSDOF 0
ENDMDL
