MODEL 1
REMARK minimizedAffinity 16.8276424
REMARK minimizedRMSD -1
REMARK  0 active torsions:
REMARK  status: ('A' for Active; 'I' for Inactive)
ROOT
ATOM      1  C   UNL d   1       2.407   4.273  -4.027  0.00  0.00     0.124 A 
ATOM      2  C1  UNL d   1       3.719   4.687  -3.842  0.00  0.00     0.062 A 
ATOM      3  C2  UNL d   1       4.741   3.748  -3.739  0.00  0.00     0.162 A 
ATOM      4  C3  UNL d   1       4.456   2.385  -3.821  0.00  0.00    -0.034 A 
ATOM      5  C4  UNL d   1       3.134   1.976  -4.007  0.00  0.00     0.162 A 
ATOM      6  C5  UNL d   1       2.116   2.919  -4.109  0.00  0.00     0.062 A 
ATOM      7  F   UNL d   1       0.849   2.517  -4.288  0.00  0.00    -0.097 F 
ATOM      8  F1  UNL d   1       2.825   0.674  -4.091  0.00  0.00    -0.096 F 
ATOM      9  I   UNL d   1       5.982   0.978  -3.668  0.00  0.00    -0.060 I 
ATOM     10  F2  UNL d   1       6.000   4.176  -3.560  0.00  0.00    -0.096 F 
ATOM     11  F3  UNL d   1       4.003   5.995  -3.761  0.00  0.00    -0.097 F 
ATOM     12  F4  UNL d   1       1.426   5.179  -4.125  0.00  0.00    -0.092 F 
ENDROOT
TORSDOF 0
ENDMDL
