MODEL 1
REMARK minimizedAffinity 11.2878866
REMARK minimizedRMSD -1
REMARK  0 active torsions:
REMARK  status: ('A' for Active; 'I' for Inactive)
ROOT
ATOM      1  C   UNL d   1       0.502   1.050  -3.913  0.00  0.00     0.124 A 
ATOM      2  C1  UNL d   1       0.660   2.279  -4.538  0.00  0.00     0.062 A 
ATOM      3  C2  UNL d   1       1.350   3.306  -3.900  0.00  0.00     0.162 A 
ATOM      4  C3  UNL d   1       1.888   3.108  -2.628  0.00  0.00    -0.034 A 
ATOM      5  C4  UNL d   1       1.725   1.869  -2.006  0.00  0.00     0.162 A 
ATOM      6  C5  UNL d   1       1.035   0.846  -2.648  0.00  0.00     0.062 A 
ATOM      7  F   UNL d   1       0.883  -0.341  -2.042  0.00  0.00    -0.097 F 
ATOM      8  F1  UNL d   1       2.229   1.644  -0.783  0.00  0.00    -0.096 F 
ATOM      9  I   UNL d   1       2.920   4.640  -1.670  0.00  0.00    -0.060 I 
ATOM     10  F2  UNL d   1       1.487   4.483  -4.527  0.00  0.00    -0.096 F 
ATOM     11  F3  UNL d   1       0.146   2.479  -5.760  0.00  0.00    -0.097 F 
ATOM     12  F4  UNL d   1      -0.162   0.064  -4.529  0.00  0.00    -0.092 F 
ENDROOT
TORSDOF 0
ENDMDL
