MODEL 1
REMARK minimizedAffinity 0.870216429
REMARK minimizedRMSD -1
REMARK  1 active torsions:
REMARK  status: ('A' for Active; 'I' for Inactive)
REMARK    1  A    between atoms: N_2  and  C1_3 
ROOT
ATOM      1  C1  UNL d   1       0.523   0.258   0.648  0.00  0.00     0.143 A 
ATOM      2  C2  UNL d   1       0.734   1.291  -0.272  0.00  0.00    -0.057 A 
ATOM      3  C3  UNL d   1       1.892   2.076  -0.229  0.00  0.00     0.033 A 
ATOM      4  C4  UNL d   1       2.850   1.861   0.757  0.00  0.00    -0.042 A 
ATOM      5  C5  UNL d   1       2.649   0.857   1.697  0.00  0.00     0.033 A 
ATOM      6  C6  UNL d   1       1.494   0.071   1.645  0.00  0.00    -0.057 A 
ENDROOT
BRANCH   1   7
ATOM      7  N   UNL d   1      -0.652  -0.493   0.718  0.00  0.00    -0.732 N 
ATOM      8  C   UNL d   1      -0.600  -1.929   0.888  0.00  0.00     0.284 C 
ATOM      9  H3  UNL d   1      -1.374  -0.035   1.270  0.00  0.00     0.395 HD
ENDBRANCH   1   7
TORSDOF 1
ENDMDL
