MODEL 1
REMARK minimizedAffinity 0.613927245
REMARK minimizedRMSD -1
REMARK  1 active torsions:
REMARK  status: ('A' for Active; 'I' for Inactive)
REMARK    1  A    between atoms: N_2  and  C1_3 
ROOT
ATOM      1  C1  UNL d   1       2.667   2.043   0.103  0.00  0.00     0.143 A 
ATOM      2  C2  UNL d   1       2.125   1.809   1.371  0.00  0.00    -0.057 A 
ATOM      3  C3  UNL d   1       2.511   0.699   2.132  0.00  0.00     0.033 A 
ATOM      4  C4  UNL d   1       3.427  -0.215   1.624  0.00  0.00    -0.042 A 
ATOM      5  C5  UNL d   1       3.960  -0.016   0.355  0.00  0.00     0.033 A 
ATOM      6  C6  UNL d   1       3.576   1.098  -0.397  0.00  0.00    -0.057 A 
ENDROOT
BRANCH   1   7
ATOM      7  N   UNL d   1       2.250   3.074  -0.743  0.00  0.00    -0.732 N 
ATOM      8  C   UNL d   1       1.848   4.355  -0.202  0.00  0.00     0.284 C 
ATOM      9  H3  UNL d   1       2.817   3.139  -1.585  0.00  0.00     0.395 HD
ENDBRANCH   1   7
TORSDOF 1
ENDMDL
