MODEL 1
REMARK minimizedAffinity 9.61301327
REMARK minimizedRMSD -1
REMARK  1 active torsions:
REMARK  status: ('A' for Active; 'I' for Inactive)
REMARK    1  A    between atoms: N_2  and  C1_3 
ROOT
ATOM      1  C1  UNL d   1       2.667   2.198   0.005  0.00  0.00     0.143 A 
ATOM      2  C2  UNL d   1       3.199   1.002  -0.488  0.00  0.00    -0.057 A 
ATOM      3  C3  UNL d   1       3.342  -0.123   0.333  0.00  0.00     0.033 A 
ATOM      4  C4  UNL d   1       2.979  -0.063   1.674  0.00  0.00    -0.042 A 
ATOM      5  C5  UNL d   1       2.471   1.123   2.193  0.00  0.00     0.033 A 
ATOM      6  C6  UNL d   1       2.325   2.241   1.366  0.00  0.00    -0.057 A 
ENDROOT
BRANCH   1   7
ATOM      7  N   UNL d   1       2.592   3.380  -0.735  0.00  0.00    -0.732 N 
ATOM      8  C   UNL d   1       1.655   4.421  -0.369  0.00  0.00     0.284 C 
ATOM      9  H3  UNL d   1       3.508   3.724  -1.011  0.00  0.00     0.395 HD
ENDBRANCH   1   7
TORSDOF 1
ENDMDL
