MODEL 1
REMARK minimizedAffinity 0.484465361
REMARK minimizedRMSD -1
REMARK  1 active torsions:
REMARK  status: ('A' for Active; 'I' for Inactive)
REMARK    1  A    between atoms: N_2  and  C1_3 
ROOT
ATOM      1  C1  UNL d   1       1.003   0.888   1.023  0.00  0.00     0.143 A 
ATOM      2  C2  UNL d   1       2.325   1.059   1.448  0.00  0.00    -0.057 A 
ATOM      3  C3  UNL d   1       3.060  -0.007   1.980  0.00  0.00     0.033 A 
ATOM      4  C4  UNL d   1       2.475  -1.260   2.123  0.00  0.00    -0.042 A 
ATOM      5  C5  UNL d   1       1.154  -1.447   1.730  0.00  0.00     0.033 A 
ATOM      6  C6  UNL d   1       0.427  -0.380   1.194  0.00  0.00    -0.057 A 
ENDROOT
BRANCH   1   7
ATOM      7  N   UNL d   1       0.188   1.932   0.578  0.00  0.00    -0.732 N 
ATOM      8  C   UNL d   1       0.740   3.014  -0.209  0.00  0.00     0.284 C 
ATOM      9  H3  UNL d   1      -0.720   1.605   0.256  0.00  0.00     0.395 HD
ENDBRANCH   1   7
TORSDOF 1
ENDMDL
