MODEL 1
REMARK minimizedAffinity 3.12092233
REMARK minimizedRMSD -1
REMARK  1 active torsions:
REMARK  status: ('A' for Active; 'I' for Inactive)
REMARK    1  A    between atoms: N_2  and  C1_3 
ROOT
ATOM      1  C1  UNL d   1       1.216  -1.950   4.561  0.00  0.00     0.143 A 
ATOM      2  C2  UNL d   1       2.354  -2.192   5.338  0.00  0.00    -0.057 A 
ATOM      3  C3  UNL d   1       2.697  -3.489   5.738  0.00  0.00     0.033 A 
ATOM      4  C4  UNL d   1       1.890  -4.568   5.390  0.00  0.00    -0.042 A 
ATOM      5  C5  UNL d   1       0.741  -4.348   4.639  0.00  0.00     0.033 A 
ATOM      6  C6  UNL d   1       0.407  -3.051   4.238  0.00  0.00    -0.057 A 
ENDROOT
BRANCH   1   7
ATOM      7  N   UNL d   1       0.767  -0.673   4.216  0.00  0.00    -0.732 N 
ATOM      8  C   UNL d   1       1.102  -0.096   2.931  0.00  0.00     0.284 C 
ATOM      9  H3  UNL d   1      -0.193  -0.506   4.509  0.00  0.00     0.395 HD
ENDBRANCH   1   7
TORSDOF 1
ENDMDL
