MODEL 1
REMARK minimizedAffinity 4.50871992
REMARK minimizedRMSD -1
REMARK  0 active torsions:
REMARK  status: ('A' for Active; 'I' for Inactive)
ROOT
ATOM      1  N1  IND d   1       4.811   4.215  -2.010  0.00  0.00    -0.196 N 
ATOM      2  C2  IND d   1       5.416   5.368  -1.592  0.00  0.00     0.054 A 
ATOM      3  C3  IND d   1       5.999   5.998  -2.635  0.00  0.00    -0.031 A 
ATOM      4  C4  IND d   1       5.999   5.372  -5.132  0.00  0.00     0.051 A 
ATOM      5  C5  IND d   1       5.609   4.387  -5.996  0.00  0.00    -0.031 A 
ATOM      6  C6  IND d   1       4.916   3.273  -5.567  0.00  0.00     0.015 A 
ATOM      7  C7  IND d   1       4.577   3.108  -4.254  0.00  0.00    -0.016 A 
ATOM      8  C8  IND d   1       4.978   4.103  -3.373  0.00  0.00    -0.047 A 
ATOM      9  C9  IND d   1       5.718   5.214  -3.796  0.00  0.00    -0.096 A 
ATOM     10  HN1 IND d   1       4.397   3.655  -1.507  0.00  0.00     0.298 HD
ENDROOT
TORSDOF 0
ENDMDL
