MODEL 1
REMARK minimizedAffinity 7.41560793
REMARK minimizedRMSD -1
REMARK  0 active torsions:
REMARK  status: ('A' for Active; 'I' for Inactive)
ROOT
ATOM      1  N1  IND d   1       3.753  -5.263   5.302  0.00  0.00    -0.196 N 
ATOM      2  C2  IND d   1       4.928  -5.208   5.998  0.00  0.00     0.054 A 
ATOM      3  C3  IND d   1       5.416  -3.947   6.000  0.00  0.00    -0.031 A 
ATOM      4  C4  IND d   1       4.398  -1.799   5.011  0.00  0.00     0.051 A 
ATOM      5  C5  IND d   1       3.353  -1.353   4.252  0.00  0.00    -0.031 A 
ATOM      6  C6  IND d   1       2.367  -2.203   3.797  0.00  0.00     0.015 A 
ATOM      7  C7  IND d   1       2.382  -3.537   4.096  0.00  0.00    -0.016 A 
ATOM      8  C8  IND d   1       3.446  -3.995   4.860  0.00  0.00    -0.047 A 
ATOM      9  C9  IND d   1       4.472  -3.144   5.289  0.00  0.00    -0.096 A 
ATOM     10  HN1 IND d   1       3.284  -5.970   5.164  0.00  0.00     0.298 HD
ENDROOT
TORSDOF 0
ENDMDL
