MODEL 1
REMARK minimizedAffinity 2.04879761
REMARK minimizedRMSD -1
REMARK  0 active torsions:
REMARK  status: ('A' for Active; 'I' for Inactive)
ROOT
ATOM      1  N1  IND d   1       5.868  -3.184   2.342  0.00  0.00    -0.196 N 
ATOM      2  C2  IND d   1       5.248  -2.272   1.535  0.00  0.00     0.054 A 
ATOM      3  C3  IND d   1       4.574  -1.367   2.280  0.00  0.00    -0.031 A 
ATOM      4  C4  IND d   1       4.435  -1.133   4.840  0.00  0.00     0.051 A 
ATOM      5  C5  IND d   1       4.806  -1.754   6.000  0.00  0.00    -0.031 A 
ATOM      6  C6  IND d   1       5.568  -2.904   6.000  0.00  0.00     0.015 A 
ATOM      7  C7  IND d   1       5.999  -3.473   4.835  0.00  0.00    -0.016 A 
ATOM      8  C8  IND d   1       5.618  -2.850   3.655  0.00  0.00    -0.047 A 
ATOM      9  C9  IND d   1       4.809  -1.706   3.647  0.00  0.00    -0.096 A 
ATOM     10  HN1 IND d   1       6.337  -3.854   2.075  0.00  0.00     0.298 HD
ENDROOT
TORSDOF 0
ENDMDL
