MODEL 1
REMARK minimizedAffinity 6.41049099
REMARK minimizedRMSD -1
REMARK  0 active torsions:
REMARK  status: ('A' for Active; 'I' for Inactive)
ROOT
ATOM      1  N1  IND d   1       5.100  -4.103   4.101  0.00  0.00    -0.196 N 
ATOM      2  C2  IND d   1       6.000  -4.201   5.126  0.00  0.00     0.054 A 
ATOM      3  C3  IND d   1       5.830  -3.183   6.000  0.00  0.00    -0.031 A 
ATOM      4  C4  IND d   1       4.073  -1.302   5.999  0.00  0.00     0.051 A 
ATOM      5  C5  IND d   1       3.060  -0.774   5.248  0.00  0.00    -0.031 A 
ATOM      6  C6  IND d   1       2.666  -1.342   4.053  0.00  0.00     0.015 A 
ATOM      7  C7  IND d   1       3.265  -2.470   3.569  0.00  0.00    -0.016 A 
ATOM      8  C8  IND d   1       4.299  -3.005   4.326  0.00  0.00    -0.047 A 
ATOM      9  C9  IND d   1       4.731  -2.409   5.517  0.00  0.00    -0.096 A 
ATOM     10  HN1 IND d   1       5.045  -4.636   3.430  0.00  0.00     0.298 HD
ENDROOT
TORSDOF 0
ENDMDL
