MODEL 1
REMARK minimizedAffinity -0.0442165546
REMARK minimizedRMSD -1
REMARK  0 active torsions:
REMARK  status: ('A' for Active; 'I' for Inactive)
ROOT
ATOM      1  N1  IND d   1       3.739  -1.577   4.893  0.00  0.00    -0.196 N 
ATOM      2  C2  IND d   1       4.685  -0.766   5.454  0.00  0.00     0.054 A 
ATOM      3  C3  IND d   1       5.676  -1.506   6.000  0.00  0.00    -0.031 A 
ATOM      4  C4  IND d   1       5.999  -4.060   6.000  0.00  0.00     0.051 A 
ATOM      5  C5  IND d   1       5.379  -5.224   5.642  0.00  0.00    -0.031 A 
ATOM      6  C6  IND d   1       4.157  -5.232   5.000  0.00  0.00     0.015 A 
ATOM      7  C7  IND d   1       3.512  -4.071   4.682  0.00  0.00    -0.016 A 
ATOM      8  C8  IND d   1       4.136  -2.887   5.050  0.00  0.00    -0.047 A 
ATOM      9  C9  IND d   1       5.355  -2.874   5.739  0.00  0.00    -0.096 A 
ATOM     10  HN1 IND d   1       3.017  -1.313   4.508  0.00  0.00     0.298 HD
ENDROOT
TORSDOF 0
ENDMDL
