MODEL 1
REMARK minimizedAffinity 1.92086577
REMARK minimizedRMSD -1
REMARK  0 active torsions:
REMARK  status: ('A' for Active; 'I' for Inactive)
ROOT
ATOM      1  N1  IND d   1      -0.115  -2.629  -4.860  0.00  0.00    -0.196 N 
ATOM      2  C2  IND d   1       0.692  -1.868  -4.062  0.00  0.00     0.054 A 
ATOM      3  C3  IND d   1       0.993  -2.534  -2.925  0.00  0.00    -0.031 A 
ATOM      4  C4  IND d   1       0.351  -4.923  -2.210  0.00  0.00     0.051 A 
ATOM      5  C5  IND d   1      -0.407  -5.994  -2.592  0.00  0.00    -0.031 A 
ATOM      6  C6  IND d   1      -1.118  -6.000  -3.774  0.00  0.00     0.015 A 
ATOM      7  C7  IND d   1      -1.089  -4.934  -4.628  0.00  0.00    -0.016 A 
ATOM      8  C8  IND d   1      -0.327  -3.841  -4.241  0.00  0.00    -0.047 A 
ATOM      9  C9  IND d   1       0.363  -3.813  -3.022  0.00  0.00    -0.096 A 
ATOM     10  HN1 IND d   1      -0.437  -2.391  -5.621  0.00  0.00     0.298 HD
ENDROOT
TORSDOF 0
ENDMDL
