MODEL 1
REMARK minimizedAffinity -1.94945657
REMARK minimizedRMSD -1
REMARK  0 active torsions:
REMARK  status: ('A' for Active; 'I' for Inactive)
ROOT
ATOM      1  N1  IND d   1       6.000   3.921  -2.477  0.00  0.00    -0.196 N 
ATOM      2  C2  IND d   1       5.788   5.017  -1.688  0.00  0.00     0.054 A 
ATOM      3  C3  IND d   1       5.190   6.000  -2.398  0.00  0.00    -0.031 A 
ATOM      4  C4  IND d   1       4.377   5.990  -4.840  0.00  0.00     0.051 A 
ATOM      5  C5  IND d   1       4.381   5.227  -5.974  0.00  0.00    -0.031 A 
ATOM      6  C6  IND d   1       4.933   3.963  -6.000  0.00  0.00     0.015 A 
ATOM      7  C7  IND d   1       5.495   3.408  -4.885  0.00  0.00    -0.016 A 
ATOM      8  C8  IND d   1       5.499   4.183  -3.734  0.00  0.00    -0.047 A 
ATOM      9  C9  IND d   1       4.978   5.483  -3.713  0.00  0.00    -0.096 A 
ATOM     10  HN1 IND d   1       6.382   3.191  -2.231  0.00  0.00     0.298 HD
ENDROOT
TORSDOF 0
ENDMDL
