MODEL 1
REMARK minimizedAffinity 5.65455532
REMARK minimizedRMSD -1
REMARK  0 active torsions:
REMARK  status: ('A' for Active; 'I' for Inactive)
ROOT
ATOM      1  N1  IND d   1       5.578   3.750  -2.097  0.00  0.00    -0.196 N 
ATOM      2  C2  IND d   1       5.999   4.892  -1.475  0.00  0.00     0.054 A 
ATOM      3  C3  IND d   1       6.000   5.928  -2.343  0.00  0.00    -0.031 A 
ATOM      4  C4  IND d   1       5.250   5.999  -4.805  0.00  0.00     0.051 A 
ATOM      5  C5  IND d   1       4.822   5.195  -5.824  0.00  0.00    -0.031 A 
ATOM      6  C6  IND d   1       4.617   3.842  -5.649  0.00  0.00     0.015 A 
ATOM      7  C7  IND d   1       4.822   3.241  -4.439  0.00  0.00    -0.016 A 
ATOM      8  C8  IND d   1       5.264   4.053  -3.404  0.00  0.00    -0.047 A 
ATOM      9  C9  IND d   1       5.515   5.419  -3.587  0.00  0.00    -0.096 A 
ATOM     10  HN1 IND d   1       5.518   2.974  -1.733  0.00  0.00     0.298 HD
ENDROOT
TORSDOF 0
ENDMDL
