MODEL 1
REMARK minimizedAffinity -0.770650625
REMARK minimizedRMSD -1
REMARK  0 active torsions:
REMARK  status: ('A' for Active; 'I' for Inactive)
ROOT
ATOM      1  N1  IND d   1       4.675  -1.124   2.341  0.00  0.00    -0.196 N 
ATOM      2  C2  IND d   1       5.326  -2.017   1.536  0.00  0.00     0.054 A 
ATOM      3  C3  IND d   1       5.967  -2.943   2.284  0.00  0.00    -0.031 A 
ATOM      4  C4  IND d   1       5.999  -3.245   4.840  0.00  0.00     0.051 A 
ATOM      5  C5  IND d   1       5.582  -2.655   6.000  0.00  0.00    -0.031 A 
ATOM      6  C6  IND d   1       4.823  -1.502   5.999  0.00  0.00     0.015 A 
ATOM      7  C7  IND d   1       4.442  -0.901   4.833  0.00  0.00    -0.016 A 
ATOM      8  C8  IND d   1       4.870  -1.493   3.654  0.00  0.00    -0.047 A 
ATOM      9  C9  IND d   1       5.676  -2.639   3.649  0.00  0.00    -0.096 A 
ATOM     10  HN1 IND d   1       4.220  -0.446   2.072  0.00  0.00     0.298 HD
ENDROOT
TORSDOF 0
ENDMDL
