MODEL 1
REMARK minimizedAffinity 4.20773172
REMARK minimizedRMSD -1
REMARK  0 active torsions:
REMARK  status: ('A' for Active; 'I' for Inactive)
ROOT
ATOM      1  N1  IND d   1       5.249   5.947  -1.410  0.00  0.00    -0.196 N 
ATOM      2  C2  IND d   1       5.696   4.989  -0.544  0.00  0.00     0.054 A 
ATOM      3  C3  IND d   1       5.999   3.854  -1.213  0.00  0.00    -0.031 A 
ATOM      4  C4  IND d   1       5.936   3.381  -3.743  0.00  0.00     0.051 A 
ATOM      5  C5  IND d   1       5.562   3.938  -4.934  0.00  0.00    -0.031 A 
ATOM      6  C6  IND d   1       5.057   5.219  -5.013  0.00  0.00     0.015 A 
ATOM      7  C7  IND d   1       4.917   6.000  -3.900  0.00  0.00    -0.016 A 
ATOM      8  C8  IND d   1       5.289   5.436  -2.689  0.00  0.00    -0.047 A 
ATOM      9  C9  IND d   1       5.763   4.120  -2.597  0.00  0.00    -0.096 A 
ATOM     10  HN1 IND d   1       4.987   6.737  -1.193  0.00  0.00     0.298 HD
ENDROOT
TORSDOF 0
ENDMDL
