MODEL 1
REMARK minimizedAffinity 7.02297306
REMARK minimizedRMSD -1
REMARK  0 active torsions:
REMARK  status: ('A' for Active; 'I' for Inactive)
ROOT
ATOM      1  N1  IND d   1       6.000   4.189  -2.037  0.00  0.00    -0.196 N 
ATOM      2  C2  IND d   1       5.851   5.127  -1.053  0.00  0.00     0.054 A 
ATOM      3  C3  IND d   1       4.863   5.993  -1.374  0.00  0.00    -0.031 A 
ATOM      4  C4  IND d   1       3.294   5.999  -3.415  0.00  0.00     0.051 A 
ATOM      5  C5  IND d   1       3.070   5.363  -4.604  0.00  0.00    -0.031 A 
ATOM      6  C6  IND d   1       3.824   4.279  -5.004  0.00  0.00     0.015 A 
ATOM      7  C7  IND d   1       4.828   3.782  -4.222  0.00  0.00    -0.016 A 
ATOM      8  C8  IND d   1       5.063   4.430  -3.018  0.00  0.00    -0.047 A 
ATOM      9  C9  IND d   1       4.329   5.557  -2.626  0.00  0.00    -0.096 A 
ATOM     10  HN1 IND d   1       6.581   3.556  -2.042  0.00  0.00     0.298 HD
ENDROOT
TORSDOF 0
ENDMDL
