MODEL 1
REMARK minimizedAffinity 5.31296778
REMARK minimizedRMSD -1
REMARK  0 active torsions:
REMARK  status: ('A' for Active; 'I' for Inactive)
ROOT
ATOM      1  N1  IND d   1       0.940  -2.406  -3.814  0.00  0.00    -0.196 N 
ATOM      2  C2  IND d   1       2.126  -1.752  -3.630  0.00  0.00     0.054 A 
ATOM      3  C3  IND d   1       2.338  -1.524  -2.314  0.00  0.00    -0.031 A 
ATOM      4  C4  IND d   1       0.922  -2.230  -0.283  0.00  0.00     0.051 A 
ATOM      5  C5  IND d   1      -0.267  -2.816   0.049  0.00  0.00    -0.031 A 
ATOM      6  C6  IND d   1      -1.130  -3.309  -0.908  0.00  0.00     0.015 A 
ATOM      7  C7  IND d   1      -0.830  -3.243  -2.239  0.00  0.00    -0.016 A 
ATOM      8  C8  IND d   1       0.373  -2.641  -2.581  0.00  0.00    -0.047 A 
ATOM      9  C9  IND d   1       1.233  -2.101  -1.616  0.00  0.00    -0.096 A 
ATOM     10  HN1 IND d   1       0.605  -2.633  -4.573  0.00  0.00     0.298 HD
ENDROOT
TORSDOF 0
ENDMDL
