MODEL 1
REMARK minimizedAffinity 6.98189974
REMARK minimizedRMSD -1
REMARK  0 active torsions:
REMARK  status: ('A' for Active; 'I' for Inactive)
ROOT
ATOM      1  N1  IND d   1      -1.024  -2.074  -3.435  0.00  0.00    -0.196 N 
ATOM      2  C2  IND d   1       0.097  -2.540  -4.062  0.00  0.00     0.054 A 
ATOM      3  C3  IND d   1       0.916  -3.146  -3.173  0.00  0.00    -0.031 A 
ATOM      4  C4  IND d   1       0.567  -3.578  -0.660  0.00  0.00     0.051 A 
ATOM      5  C5  IND d   1      -0.288  -3.307   0.372  0.00  0.00    -0.031 A 
ATOM      6  C6  IND d   1      -1.457  -2.599   0.182  0.00  0.00     0.015 A 
ATOM      7  C7  IND d   1      -1.822  -2.144  -1.053  0.00  0.00    -0.016 A 
ATOM      8  C8  IND d   1      -0.953  -2.411  -2.101  0.00  0.00    -0.047 A 
ATOM      9  C9  IND d   1       0.256  -3.092  -1.907  0.00  0.00    -0.096 A 
ATOM     10  HN1 IND d   1      -1.667  -1.642  -3.810  0.00  0.00     0.298 HD
ENDROOT
TORSDOF 0
ENDMDL
