MODEL 1
REMARK minimizedAffinity -1.42585397
REMARK minimizedRMSD -1
REMARK  0 active torsions:
REMARK  status: ('A' for Active; 'I' for Inactive)
ROOT
ATOM      1  N1  IND d   1       3.798   4.507  -5.301  0.00  0.00    -0.196 N 
ATOM      2  C2  IND d   1       4.971   4.426  -5.999  0.00  0.00     0.054 A 
ATOM      3  C3  IND d   1       5.998   4.881  -5.247  0.00  0.00    -0.031 A 
ATOM      4  C4  IND d   1       5.999   5.707  -2.809  0.00  0.00     0.051 A 
ATOM      5  C5  IND d   1       5.160   5.997  -1.769  0.00  0.00    -0.031 A 
ATOM      6  C6  IND d   1       3.798   5.798  -1.854  0.00  0.00     0.015 A 
ATOM      7  C7  IND d   1       3.222   5.289  -2.984  0.00  0.00    -0.016 A 
ATOM      8  C8  IND d   1       4.069   5.000  -4.044  0.00  0.00    -0.047 A 
ATOM      9  C9  IND d   1       5.448   5.240  -3.978  0.00  0.00    -0.096 A 
ATOM     10  HN1 IND d   1       3.022   4.286  -5.598  0.00  0.00     0.298 HD
ENDROOT
TORSDOF 0
ENDMDL
