MODEL 1
REMARK minimizedAffinity 1.83692396
REMARK minimizedRMSD -1
REMARK  0 active torsions:
REMARK  status: ('A' for Active; 'I' for Inactive)
ROOT
ATOM      1  N1  IND d   1       1.310  -1.775  -2.258  0.00  0.00    -0.196 N 
ATOM      2  C2  IND d   1       1.137  -2.466  -3.425  0.00  0.00     0.054 A 
ATOM      3  C3  IND d   1      -0.043  -3.126  -3.410  0.00  0.00    -0.031 A 
ATOM      4  C4  IND d   1      -1.890  -3.134  -1.617  0.00  0.00     0.051 A 
ATOM      5  C5  IND d   1      -2.171  -2.682  -0.358  0.00  0.00    -0.031 A 
ATOM      6  C6  IND d   1      -1.290  -1.886   0.345  0.00  0.00     0.015 A 
ATOM      7  C7  IND d   1      -0.094  -1.502  -0.192  0.00  0.00    -0.016 A 
ATOM      8  C8  IND d   1       0.198  -1.965  -1.467  0.00  0.00    -0.047 A 
ATOM      9  C9  IND d   1      -0.674  -2.807  -2.168  0.00  0.00    -0.096 A 
ATOM     10  HN1 IND d   1       1.998  -1.302  -2.052  0.00  0.00     0.298 HD
ENDROOT
TORSDOF 0
ENDMDL
