MODEL 1
REMARK minimizedAffinity 1.20902252
REMARK minimizedRMSD -1
REMARK  0 active torsions:
REMARK  status: ('A' for Active; 'I' for Inactive)
ROOT
ATOM      1  N1  IND d   1       5.991  -1.725   2.405  0.00  0.00    -0.196 N 
ATOM      2  C2  IND d   1       4.996  -1.751   1.468  0.00  0.00     0.054 A 
ATOM      3  C3  IND d   1       3.789  -1.862   2.065  0.00  0.00    -0.031 A 
ATOM      4  C4  IND d   1       3.203  -1.915   4.572  0.00  0.00     0.051 A 
ATOM      5  C5  IND d   1       3.777  -1.954   5.811  0.00  0.00    -0.031 A 
ATOM      6  C6  IND d   1       5.146  -1.915   5.983  0.00  0.00     0.015 A 
ATOM      7  C7  IND d   1       5.995  -1.824   4.916  0.00  0.00    -0.016 A 
ATOM      8  C8  IND d   1       5.416  -1.791   3.656  0.00  0.00    -0.047 A 
ATOM      9  C9  IND d   1       4.029  -1.873   3.473  0.00  0.00    -0.096 A 
ATOM     10  HN1 IND d   1       6.833  -1.675   2.242  0.00  0.00     0.298 HD
ENDROOT
TORSDOF 0
ENDMDL
