MODEL 1
REMARK minimizedAffinity 9.38197136
REMARK minimizedRMSD -1
REMARK  1 active torsions:
REMARK  status: ('A' for Active; 'I' for Inactive)
REMARK    1  A    between atoms: N_2  and  C1_3 
ROOT
ATOM      1  C1  UNL d   1      -3.055  -0.439  -2.696  0.00  0.00     0.143 A 
ATOM      2  C2  UNL d   1      -2.239   0.692  -2.591  0.00  0.00    -0.057 A 
ATOM      3  C3  UNL d   1      -2.641   1.812  -1.853  0.00  0.00     0.033 A 
ATOM      4  C4  UNL d   1      -3.885   1.832  -1.230  0.00  0.00    -0.042 A 
ATOM      5  C5  UNL d   1      -4.723   0.728  -1.342  0.00  0.00     0.033 A 
ATOM      6  C6  UNL d   1      -4.313  -0.390  -2.075  0.00  0.00    -0.057 A 
ENDROOT
BRANCH   1   7
ATOM      7  N   UNL d   1      -2.753  -1.544  -3.496  0.00  0.00    -0.732 N 
ATOM      8  C   UNL d   1      -2.039  -2.678  -2.948  0.00  0.00     0.284 C 
ATOM      9  H3  UNL d   1      -3.520  -1.796  -4.115  0.00  0.00     0.395 HD
ENDBRANCH   1   7
TORSDOF 1
ENDMDL
