MODEL 1
REMARK minimizedAffinity 4.57383013
REMARK minimizedRMSD -1
REMARK  1 active torsions:
REMARK  status: ('A' for Active; 'I' for Inactive)
REMARK    1  A    between atoms: N_2  and  C1_3 
ROOT
ATOM      1  C1  UNL d   1       4.077  -1.843  -0.038  0.00  0.00     0.143 A 
ATOM      2  C2  UNL d   1       4.632  -2.993   0.533  0.00  0.00    -0.057 A 
ATOM      3  C3  UNL d   1       5.411  -3.876  -0.225  0.00  0.00     0.033 A 
ATOM      4  C4  UNL d   1       5.625  -3.639  -1.578  0.00  0.00    -0.042 A 
ATOM      5  C5  UNL d   1       5.063  -2.515  -2.173  0.00  0.00     0.033 A 
ATOM      6  C6  UNL d   1       4.291  -1.633  -1.409  0.00  0.00    -0.057 A 
ENDROOT
BRANCH   1   7
ATOM      7  N   UNL d   1       3.213  -0.978   0.638  0.00  0.00    -0.732 N 
ATOM      8  C   UNL d   1       2.019  -0.475  -0.008  0.00  0.00     0.284 C 
ATOM      9  H3  UNL d   1       3.078  -1.246   1.610  0.00  0.00     0.395 HD
ENDBRANCH   1   7
TORSDOF 1
ENDMDL
