MODEL 1
REMARK minimizedAffinity 8.51281166
REMARK minimizedRMSD -1
REMARK  1 active torsions:
REMARK  status: ('A' for Active; 'I' for Inactive)
REMARK    1  A    between atoms: N_2  and  C1_3 
ROOT
ATOM      1  C1  UNL d   1       0.503   0.923  -0.215  0.00  0.00     0.143 A 
ATOM      2  C2  UNL d   1       1.407   0.309  -1.089  0.00  0.00    -0.057 A 
ATOM      3  C3  UNL d   1       2.045  -0.890  -0.749  0.00  0.00     0.033 A 
ATOM      4  C4  UNL d   1       1.811  -1.484   0.487  0.00  0.00    -0.042 A 
ATOM      5  C5  UNL d   1       0.936  -0.879   1.382  0.00  0.00     0.033 A 
ATOM      6  C6  UNL d   1       0.297   0.315   1.034  0.00  0.00    -0.057 A 
ENDROOT
BRANCH   1   7
ATOM      7  N   UNL d   1      -0.088   2.166  -0.453  0.00  0.00    -0.732 N 
ATOM      8  C   UNL d   1       0.612   3.389  -0.127  0.00  0.00     0.284 C 
ATOM      9  H3  UNL d   1      -0.586   2.195  -1.340  0.00  0.00     0.395 HD
ENDBRANCH   1   7
TORSDOF 1
ENDMDL
