MODEL 1
REMARK minimizedAffinity -3.10070133
REMARK minimizedRMSD -1
REMARK  0 active torsions:
REMARK  status: ('A' for Active; 'I' for Inactive)
ROOT
ATOM      1  C1  BNZ d   1      -1.642   0.522   1.265  0.00  0.00     0.000 A 
ATOM      2  C2  BNZ d   1      -0.700   0.406   2.252  0.00  0.00     0.000 A 
ATOM      3  C3  BNZ d   1       0.614   0.192   1.943  0.00  0.00     0.000 A 
ATOM      4  C4  BNZ d   1       0.978   0.055   0.652  0.00  0.00     0.000 A 
ATOM      5  C5  BNZ d   1       0.038   0.160  -0.354  0.00  0.00     0.000 A 
ATOM      6  C6  BNZ d   1      -1.278   0.415  -0.041  0.00  0.00     0.000 A 
ENDROOT
TORSDOF 0
ENDMDL
