MODEL 1
REMARK minimizedAffinity -2.84009576
REMARK minimizedRMSD -1
REMARK  0 active torsions:
REMARK  status: ('A' for Active; 'I' for Inactive)
ROOT
ATOM      1  C1  BNZ d   1       0.680   0.417  -3.045  0.00  0.00     0.000 A 
ATOM      2  C2  BNZ d   1       0.260   1.119  -1.946  0.00  0.00     0.000 A 
ATOM      3  C3  BNZ d   1       0.173   0.517  -0.722  0.00  0.00     0.000 A 
ATOM      4  C4  BNZ d   1       0.468  -0.794  -0.606  0.00  0.00     0.000 A 
ATOM      5  C5  BNZ d   1       0.884  -1.517  -1.705  0.00  0.00     0.000 A 
ATOM      6  C6  BNZ d   1       1.007  -0.899  -2.928  0.00  0.00     0.000 A 
ENDROOT
TORSDOF 0
ENDMDL
