MODEL 1
REMARK minimizedAffinity -1.8951751
REMARK minimizedRMSD -1
REMARK  0 active torsions:
REMARK  status: ('A' for Active; 'I' for Inactive)
ROOT
ATOM      1  C1  BNZ d   1       0.195   1.047  -2.063  0.00  0.00     0.000 A 
ATOM      2  C2  BNZ d   1       0.630   0.423  -3.201  0.00  0.00     0.000 A 
ATOM      3  C3  BNZ d   1       0.688  -0.940  -3.274  0.00  0.00     0.000 A 
ATOM      4  C4  BNZ d   1       0.350  -1.676  -2.195  0.00  0.00     0.000 A 
ATOM      5  C5  BNZ d   1      -0.082  -1.062  -1.037  0.00  0.00     0.000 A 
ATOM      6  C6  BNZ d   1      -0.176   0.310  -0.981  0.00  0.00     0.000 A 
ENDROOT
TORSDOF 0
ENDMDL
