MODEL 1
REMARK minimizedAffinity -3.52395654
REMARK minimizedRMSD -1
REMARK  0 active torsions:
REMARK  status: ('A' for Active; 'I' for Inactive)
ROOT
ATOM      1  C1  BNZ d   1       0.499   0.162  -0.707  0.00  0.00     0.000 A 
ATOM      2  C2  BNZ d   1      -0.868   0.242  -0.742  0.00  0.00     0.000 A 
ATOM      3  C3  BNZ d   1      -1.594   0.330   0.413  0.00  0.00     0.000 A 
ATOM      4  C4  BNZ d   1      -0.956   0.298   1.601  0.00  0.00     0.000 A 
ATOM      5  C5  BNZ d   1       0.421   0.209   1.653  0.00  0.00     0.000 A 
ATOM      6  C6  BNZ d   1       1.151   0.160   0.487  0.00  0.00     0.000 A 
ENDROOT
TORSDOF 0
ENDMDL
