MODEL 1
REMARK minimizedAffinity -3.85564446
REMARK minimizedRMSD -1
REMARK  0 active torsions:
REMARK  status: ('A' for Active; 'I' for Inactive)
ROOT
ATOM      1  C1  BNZ d   1      -0.080   0.299   2.249  0.00  0.00     0.000 A 
ATOM      2  C2  BNZ d   1      -1.384   0.621   2.515  0.00  0.00     0.000 A 
ATOM      3  C3  BNZ d   1      -2.311   0.670   1.511  0.00  0.00     0.000 A 
ATOM      4  C4  BNZ d   1      -1.925   0.437   0.240  0.00  0.00     0.000 A 
ATOM      5  C5  BNZ d   1      -0.612   0.121  -0.045  0.00  0.00     0.000 A 
ATOM      6  C6  BNZ d   1       0.310   0.034   0.973  0.00  0.00     0.000 A 
ENDROOT
TORSDOF 0
ENDMDL
