MODEL 1
REMARK minimizedAffinity -2.80156302
REMARK minimizedRMSD -1
REMARK  0 active torsions:
REMARK  status: ('A' for Active; 'I' for Inactive)
ROOT
ATOM      1  C1  BNZ d   1       2.085  -0.723  -0.163  0.00  0.00     0.000 A 
ATOM      2  C2  BNZ d   1       2.236  -0.026   1.006  0.00  0.00     0.000 A 
ATOM      3  C3  BNZ d   1       1.170   0.596   1.594  0.00  0.00     0.000 A 
ATOM      4  C4  BNZ d   1      -0.036   0.553   0.992  0.00  0.00     0.000 A 
ATOM      5  C5  BNZ d   1      -0.203  -0.139  -0.191  0.00  0.00     0.000 A 
ATOM      6  C6  BNZ d   1       0.864  -0.796  -0.759  0.00  0.00     0.000 A 
ENDROOT
TORSDOF 0
ENDMDL
