MODEL 1
REMARK minimizedAffinity -3.37635827
REMARK minimizedRMSD -1
REMARK  0 active torsions:
REMARK  status: ('A' for Active; 'I' for Inactive)
ROOT
ATOM      1  C1  BNZ d   1       1.091  -0.129   1.127  0.00  0.00     0.000 A 
ATOM      2  C2  BNZ d   1       0.833   0.999   0.394  0.00  0.00     0.000 A 
ATOM      3  C3  BNZ d   1       0.447   0.910  -0.915  0.00  0.00     0.000 A 
ATOM      4  C4  BNZ d   1       0.358  -0.303  -1.499  0.00  0.00     0.000 A 
ATOM      5  C5  BNZ d   1       0.624  -1.448  -0.776  0.00  0.00     0.000 A 
ATOM      6  C6  BNZ d   1       0.975  -1.357   0.552  0.00  0.00     0.000 A 
ENDROOT
TORSDOF 0
ENDMDL
