MODEL 1
REMARK minimizedAffinity -3.73419952
REMARK minimizedRMSD -1
REMARK  0 active torsions:
REMARK  status: ('A' for Active; 'I' for Inactive)
ROOT
ATOM      1  C1  BNZ d   1       0.153  -1.154  -0.602  0.00  0.00     0.000 A 
ATOM      2  C2  BNZ d   1       0.645  -1.590  -1.804  0.00  0.00     0.000 A 
ATOM      3  C3  BNZ d   1       0.623  -0.780  -2.904  0.00  0.00     0.000 A 
ATOM      4  C4  BNZ d   1       0.075   0.449  -2.812  0.00  0.00     0.000 A 
ATOM      5  C5  BNZ d   1      -0.434   0.899  -1.610  0.00  0.00     0.000 A 
ATOM      6  C6  BNZ d   1      -0.375   0.095  -0.495  0.00  0.00     0.000 A 
ENDROOT
TORSDOF 0
ENDMDL
