MODEL 1
REMARK minimizedAffinity -3.48656726
REMARK minimizedRMSD -1
REMARK  0 active torsions:
REMARK  status: ('A' for Active; 'I' for Inactive)
ROOT
ATOM      1  C1  BNZ d   1      -2.000   0.648   1.434  0.00  0.00     0.000 A 
ATOM      2  C2  BNZ d   1      -1.310   0.561   0.254  0.00  0.00     0.000 A 
ATOM      3  C3  BNZ d   1       0.048   0.409   0.247  0.00  0.00     0.000 A 
ATOM      4  C4  BNZ d   1       0.719   0.385   1.417  0.00  0.00     0.000 A 
ATOM      5  C5  BNZ d   1       0.038   0.481   2.615  0.00  0.00     0.000 A 
ATOM      6  C6  BNZ d   1      -1.333   0.595   2.619  0.00  0.00     0.000 A 
ENDROOT
TORSDOF 0
ENDMDL
