MODEL 1
REMARK minimizedAffinity -0.292088687
REMARK minimizedRMSD -1
REMARK  0 active torsions:
REMARK  status: ('A' for Active; 'I' for Inactive)
ROOT
ATOM      1  C1  BNZ d   1       1.141  -0.027   1.757  0.00  0.00     0.000 A 
ATOM      2  C2  BNZ d   1       0.509   0.227   2.945  0.00  0.00     0.000 A 
ATOM      3  C3  BNZ d   1      -0.828   0.509   2.981  0.00  0.00     0.000 A 
ATOM      4  C4  BNZ d   1      -1.522   0.576   1.826  0.00  0.00     0.000 A 
ATOM      5  C5  BNZ d   1      -0.898   0.331   0.620  0.00  0.00     0.000 A 
ATOM      6  C6  BNZ d   1       0.440   0.009   0.591  0.00  0.00     0.000 A 
ENDROOT
TORSDOF 0
ENDMDL
