MODEL 1
REMARK minimizedAffinity -1.25965142
REMARK minimizedRMSD -1
REMARK  0 active torsions:
REMARK  status: ('A' for Active; 'I' for Inactive)
ROOT
ATOM      1  C1  BNZ d   1      -0.546   0.393  -0.987  0.00  0.00     0.000 A 
ATOM      2  C2  BNZ d   1      -0.681   0.331   0.375  0.00  0.00     0.000 A 
ATOM      3  C3  BNZ d   1       0.312  -0.195   1.153  0.00  0.00     0.000 A 
ATOM      4  C4  BNZ d   1       1.419  -0.695   0.567  0.00  0.00     0.000 A 
ATOM      5  C5  BNZ d   1       1.566  -0.648  -0.805  0.00  0.00     0.000 A 
ATOM      6  C6  BNZ d   1       0.582  -0.082  -1.582  0.00  0.00     0.000 A 
ENDROOT
TORSDOF 0
ENDMDL
