MODEL 1
REMARK minimizedAffinity -2.02338886
REMARK minimizedRMSD -1
REMARK  0 active torsions:
REMARK  status: ('A' for Active; 'I' for Inactive)
ROOT
ATOM      1  C1  BNZ d   1      -0.065   0.618  -0.109  0.00  0.00     0.000 A 
ATOM      2  C2  BNZ d   1       0.247   1.087   1.140  0.00  0.00     0.000 A 
ATOM      3  C3  BNZ d   1       1.041   0.360   1.982  0.00  0.00     0.000 A 
ATOM      4  C4  BNZ d   1       1.487  -0.852   1.591  0.00  0.00     0.000 A 
ATOM      5  C5  BNZ d   1       1.173  -1.342   0.339  0.00  0.00     0.000 A 
ATOM      6  C6  BNZ d   1       0.406  -0.590  -0.520  0.00  0.00     0.000 A 
ENDROOT
TORSDOF 0
ENDMDL
