MODEL 1
REMARK minimizedAffinity -3.56980014
REMARK minimizedRMSD -1
REMARK  0 active torsions:
REMARK  status: ('A' for Active; 'I' for Inactive)
ROOT
ATOM      1  C1  BNZ d   1      -1.921   0.433   1.438  0.00  0.00     0.000 A 
ATOM      2  C2  BNZ d   1      -1.299   0.330   0.223  0.00  0.00     0.000 A 
ATOM      3  C3  BNZ d   1       0.048   0.108   0.143  0.00  0.00     0.000 A 
ATOM      4  C4  BNZ d   1       0.776   0.030   1.275  0.00  0.00     0.000 A 
ATOM      5  C5  BNZ d   1       0.164   0.142   2.508  0.00  0.00     0.000 A 
ATOM      6  C6  BNZ d   1      -1.197   0.326   2.586  0.00  0.00     0.000 A 
ENDROOT
TORSDOF 0
ENDMDL
