MODEL 1
REMARK minimizedAffinity -2.17212868
REMARK minimizedRMSD -1
REMARK  0 active torsions:
REMARK  status: ('A' for Active; 'I' for Inactive)
ROOT
ATOM      1  C1  BNZ d   1       0.568  -0.096  -0.010  0.00  0.00     0.000 A 
ATOM      2  C2  BNZ d   1       1.408  -0.329   1.046  0.00  0.00     0.000 A 
ATOM      3  C3  BNZ d   1       1.001  -0.096   2.330  0.00  0.00     0.000 A 
ATOM      4  C4  BNZ d   1      -0.230   0.408   2.554  0.00  0.00     0.000 A 
ATOM      5  C5  BNZ d   1      -1.086   0.657   1.500  0.00  0.00     0.000 A 
ATOM      6  C6  BNZ d   1      -0.687   0.384   0.211  0.00  0.00     0.000 A 
ENDROOT
TORSDOF 0
ENDMDL
