MODEL 1
REMARK minimizedAffinity -1.29026103
REMARK minimizedRMSD -1
REMARK  0 active torsions:
REMARK  status: ('A' for Active; 'I' for Inactive)
ROOT
ATOM      1  C1  BNZ d   1       0.434  -0.902  -0.136  0.00  0.00     0.000 A 
ATOM      2  C2  BNZ d   1       0.658  -1.684  -1.238  0.00  0.00     0.000 A 
ATOM      3  C3  BNZ d   1       0.610  -1.151  -2.496  0.00  0.00     0.000 A 
ATOM      4  C4  BNZ d   1       0.299   0.152  -2.653  0.00  0.00     0.000 A 
ATOM      5  C5  BNZ d   1       0.060   0.951  -1.552  0.00  0.00     0.000 A 
ATOM      6  C6  BNZ d   1       0.148   0.420  -0.286  0.00  0.00     0.000 A 
ENDROOT
TORSDOF 0
ENDMDL
