MODEL 1
REMARK minimizedAffinity -3.77357507
REMARK minimizedRMSD -1
REMARK  0 active torsions:
REMARK  status: ('A' for Active; 'I' for Inactive)
ROOT
ATOM      1  C1  BNZ d   1       0.485  -0.096  -3.326  0.00  0.00     0.000 A 
ATOM      2  C2  BNZ d   1      -0.402   0.591  -2.542  0.00  0.00     0.000 A 
ATOM      3  C3  BNZ d   1      -0.278   0.592  -1.180  0.00  0.00     0.000 A 
ATOM      4  C4  BNZ d   1       0.708  -0.125  -0.604  0.00  0.00     0.000 A 
ATOM      5  C5  BNZ d   1       1.606  -0.830  -1.381  0.00  0.00     0.000 A 
ATOM      6  C6  BNZ d   1       1.501  -0.797  -2.753  0.00  0.00     0.000 A 
ENDROOT
TORSDOF 0
ENDMDL
