MODEL 1
REMARK minimizedAffinity -4.0458436
REMARK minimizedRMSD -1
REMARK  0 active torsions:
REMARK  status: ('A' for Active; 'I' for Inactive)
ROOT
ATOM      1  C   UNL d   1      -0.344   1.575   3.400  0.00  0.00     0.077 C 
ATOM      2  C1  UNL d   1      -0.653   0.950   2.072  0.00  0.00    -0.074 A 
ATOM      3  C2  UNL d   1      -1.951   0.974   1.551  0.00  0.00    -0.005 A 
ATOM      4  C3  UNL d   1      -2.221   0.396   0.310  0.00  0.00     0.006 A 
ATOM      5  C4  UNL d   1      -1.199  -0.210  -0.420  0.00  0.00    -0.005 A 
ATOM      6  C5  UNL d   1       0.105  -0.243   0.084  0.00  0.00    -0.074 A 
ATOM      7  C6  UNL d   1       1.218  -0.882  -0.693  0.00  0.00     0.077 C 
ATOM      8  C7  UNL d   1       0.370   0.346   1.329  0.00  0.00    -0.001 A 
ENDROOT
TORSDOF 0
ENDMDL
