MODEL 1
REMARK minimizedAffinity -3.87287784
REMARK minimizedRMSD -1
REMARK  0 active torsions:
REMARK  status: ('A' for Active; 'I' for Inactive)
ROOT
ATOM      1  C   UNL d   1      -0.177   1.655   2.709  0.00  0.00     0.077 C 
ATOM      2  C1  UNL d   1      -0.614   0.830   1.535  0.00  0.00    -0.074 A 
ATOM      3  C2  UNL d   1      -1.969   0.576   1.300  0.00  0.00    -0.005 A 
ATOM      4  C3  UNL d   1      -2.362  -0.185   0.199  0.00  0.00     0.006 A 
ATOM      5  C4  UNL d   1      -1.405  -0.699  -0.677  0.00  0.00    -0.005 A 
ATOM      6  C5  UNL d   1      -0.045  -0.455  -0.458  0.00  0.00    -0.074 A 
ATOM      7  C6  UNL d   1       0.996  -0.992  -1.395  0.00  0.00     0.077 C 
ATOM      8  C7  UNL d   1       0.341   0.316   0.647  0.00  0.00    -0.001 A 
ENDROOT
TORSDOF 0
ENDMDL
