MODEL 1
REMARK minimizedAffinity -5.26758909
REMARK minimizedRMSD -1
REMARK  0 active torsions:
REMARK  status: ('A' for Active; 'I' for Inactive)
ROOT
ATOM      1  C   UNL d   1      -0.060  -0.385  -1.889  0.00  0.00     0.077 C 
ATOM      2  C1  UNL d   1       0.362  -0.156  -0.468  0.00  0.00    -0.074 A 
ATOM      3  C2  UNL d   1       1.634  -0.533  -0.026  0.00  0.00    -0.005 A 
ATOM      4  C3  UNL d   1       2.015  -0.305   1.296  0.00  0.00     0.006 A 
ATOM      5  C4  UNL d   1       1.130   0.301   2.188  0.00  0.00    -0.005 A 
ATOM      6  C5  UNL d   1      -0.146   0.686   1.764  0.00  0.00    -0.074 A 
ATOM      7  C6  UNL d   1      -1.106   1.348   2.708  0.00  0.00     0.077 C 
ATOM      8  C7  UNL d   1      -0.519   0.460   0.432  0.00  0.00    -0.001 A 
ENDROOT
TORSDOF 0
ENDMDL
