MODEL 1
REMARK minimizedAffinity -1.74479771
REMARK minimizedRMSD -1
REMARK  0 active torsions:
REMARK  status: ('A' for Active; 'I' for Inactive)
ROOT
ATOM      1  C   UNL d   1      -0.410  -0.346  -5.732  0.00  0.00     0.077 C 
ATOM      2  C1  UNL d   1       0.724   0.215  -4.927  0.00  0.00    -0.074 A 
ATOM      3  C2  UNL d   1       0.513   1.253  -4.014  0.00  0.00    -0.005 A 
ATOM      4  C3  UNL d   1       1.576   1.758  -3.265  0.00  0.00     0.006 A 
ATOM      5  C4  UNL d   1       2.859   1.231  -3.422  0.00  0.00    -0.005 A 
ATOM      6  C5  UNL d   1       3.089   0.192  -4.330  0.00  0.00    -0.074 A 
ATOM      7  C6  UNL d   1       4.459  -0.392  -4.503  0.00  0.00     0.077 C 
ATOM      8  C7  UNL d   1       2.014  -0.314  -5.073  0.00  0.00    -0.001 A 
ENDROOT
TORSDOF 0
ENDMDL
