MODEL 1
REMARK minimizedAffinity -3.80313253
REMARK minimizedRMSD -1
REMARK  0 active torsions:
REMARK  status: ('A' for Active; 'I' for Inactive)
ROOT
ATOM      1  C   UNL d   1       2.219  -1.074  -0.060  0.00  0.00     0.077 C 
ATOM      2  C1  UNL d   1       0.895  -0.451   0.268  0.00  0.00    -0.074 A 
ATOM      3  C2  UNL d   1      -0.215  -0.641  -0.562  0.00  0.00    -0.005 A 
ATOM      4  C3  UNL d   1      -1.442  -0.063  -0.238  0.00  0.00     0.006 A 
ATOM      5  C4  UNL d   1      -1.573   0.710   0.916  0.00  0.00    -0.005 A 
ATOM      6  C5  UNL d   1      -0.475   0.910   1.759  0.00  0.00    -0.074 A 
ATOM      7  C6  UNL d   1      -0.600   1.730   3.008  0.00  0.00     0.077 C 
ATOM      8  C7  UNL d   1       0.754   0.320   1.431  0.00  0.00    -0.001 A 
ENDROOT
TORSDOF 0
ENDMDL
