MODEL 1
REMARK minimizedAffinity -4.8220191
REMARK minimizedRMSD -1
REMARK  0 active torsions:
REMARK  status: ('A' for Active; 'I' for Inactive)
ROOT
ATOM      1  C   UNL d   1      -0.876   1.651   3.098  0.00  0.00     0.077 C 
ATOM      2  C1  UNL d   1      -0.648   0.944   1.795  0.00  0.00    -0.074 A 
ATOM      3  C2  UNL d   1       0.647   0.660   1.348  0.00  0.00    -0.005 A 
ATOM      4  C3  UNL d   1       0.843  -0.007   0.139  0.00  0.00     0.006 A 
ATOM      5  C4  UNL d   1      -0.251  -0.395  -0.635  0.00  0.00    -0.005 A 
ATOM      6  C5  UNL d   1      -1.553  -0.120  -0.205  0.00  0.00    -0.074 A 
ATOM      7  C6  UNL d   1      -2.740  -0.538  -1.020  0.00  0.00     0.077 C 
ATOM      8  C7  UNL d   1      -1.742   0.544   1.015  0.00  0.00    -0.001 A 
ENDROOT
TORSDOF 0
ENDMDL
