MODEL 1
REMARK minimizedAffinity 12.238409
REMARK minimizedRMSD -1
REMARK  0 active torsions:
REMARK  status: ('A' for Active; 'I' for Inactive)
ROOT
ATOM      1  C1  DEN d   1       2.145  -0.168   1.748  0.00  0.00     0.130 A 
ATOM      2  C2  DEN d   1       3.505   0.199   2.134  0.00  0.00    -0.031 A 
ATOM      3  C3  DEN d   1       3.508   0.476   3.585  0.00  0.00     0.027 A 
ATOM      4  C4  DEN d   1       1.551   0.370   5.261  0.00  0.00     0.027 A 
ATOM      5  C5  DEN d   1       0.204   0.117   5.400  0.00  0.00    -0.003 A 
ATOM      6  C6  DEN d   1      -0.590  -0.212   4.334  0.00  0.00     0.001 A 
ATOM      7  C7  DEN d   1      -0.035  -0.342   3.088  0.00  0.00     0.017 A 
ATOM      8  C8  DEN d   1       1.321  -0.082   2.939  0.00  0.00    -0.094 A 
ATOM      9  C9  DEN d   1       2.109   0.238   4.031  0.00  0.00    -0.072 A 
ENDROOT
TORSDOF 0
ENDMDL
