MODEL 1
REMARK minimizedAffinity 12.674077
REMARK minimizedRMSD -1
REMARK  0 active torsions:
REMARK  status: ('A' for Active; 'I' for Inactive)
ROOT
ATOM      1  C1  DEN d   1       1.269  -0.621   2.950  0.00  0.00     0.130 A 
ATOM      2  C2  DEN d   1       0.920  -1.538   1.868  0.00  0.00    -0.031 A 
ATOM      3  C3  DEN d   1      -0.337  -2.221   2.235  0.00  0.00     0.027 A 
ATOM      4  C4  DEN d   1      -1.772  -1.944   4.361  0.00  0.00     0.027 A 
ATOM      5  C5  DEN d   1      -1.875  -1.290   5.568  0.00  0.00    -0.003 A 
ATOM      6  C6  DEN d   1      -0.927  -0.400   6.000  0.00  0.00     0.001 A 
ATOM      7  C7  DEN d   1       0.143  -0.105   5.197  0.00  0.00     0.017 A 
ATOM      8  C8  DEN d   1       0.257  -0.766   3.981  0.00  0.00    -0.094 A 
ATOM      9  C9  DEN d   1      -0.718  -1.653   3.557  0.00  0.00    -0.072 A 
ENDROOT
TORSDOF 0
ENDMDL
