MODEL 1
REMARK minimizedAffinity 20.9508247
REMARK minimizedRMSD -1
REMARK  0 active torsions:
REMARK  status: ('A' for Active; 'I' for Inactive)
ROOT
ATOM      1  C1  DEN d   1      -4.694   4.707  -0.658  0.00  0.00     0.130 A 
ATOM      2  C2  DEN d   1      -5.162   3.324  -0.640  0.00  0.00    -0.031 A 
ATOM      3  C3  DEN d   1      -4.402   2.572  -1.659  0.00  0.00     0.027 A 
ATOM      4  C4  DEN d   1      -2.553   3.410  -3.251  0.00  0.00     0.027 A 
ATOM      5  C5  DEN d   1      -1.824   4.510  -3.644  0.00  0.00    -0.003 A 
ATOM      6  C6  DEN d   1      -2.022   5.751  -3.098  0.00  0.00     0.001 A 
ATOM      7  C7  DEN d   1      -2.942   5.912  -2.095  0.00  0.00     0.017 A 
ATOM      8  C8  DEN d   1      -3.686   4.808  -1.699  0.00  0.00    -0.094 A 
ATOM      9  C9  DEN d   1      -3.463   3.560  -2.255  0.00  0.00    -0.072 A 
ENDROOT
TORSDOF 0
ENDMDL
