MODEL 1
REMARK minimizedAffinity 27.9580212
REMARK minimizedRMSD -1
REMARK  0 active torsions:
REMARK  status: ('A' for Active; 'I' for Inactive)
ROOT
ATOM      1  C1  DEN d   1       2.182  -0.597   2.565  0.00  0.00     0.130 A 
ATOM      2  C2  DEN d   1       1.252  -1.025   1.524  0.00  0.00    -0.031 A 
ATOM      3  C3  DEN d   1      -0.111  -1.002   2.093  0.00  0.00     0.027 A 
ATOM      4  C4  DEN d   1      -0.867  -0.345   4.469  0.00  0.00     0.027 A 
ATOM      5  C5  DEN d   1      -0.436   0.077   5.708  0.00  0.00    -0.003 A 
ATOM      6  C6  DEN d   1       0.889   0.269   5.994  0.00  0.00     0.001 A 
ATOM      7  C7  DEN d   1       1.829   0.083   5.014  0.00  0.00     0.017 A 
ATOM      8  C8  DEN d   1       1.403  -0.349   3.765  0.00  0.00    -0.094 A 
ATOM      9  C9  DEN d   1       0.057  -0.526   3.492  0.00  0.00    -0.072 A 
ENDROOT
TORSDOF 0
ENDMDL
