MODEL 1
REMARK minimizedAffinity 24.2494335
REMARK minimizedRMSD -1
REMARK  0 active torsions:
REMARK  status: ('A' for Active; 'I' for Inactive)
ROOT
ATOM      1  C1  DEN d   1      -3.229   1.917  -2.176  0.00  0.00     0.130 A 
ATOM      2  C2  DEN d   1      -2.024   1.854  -3.000  0.00  0.00    -0.031 A 
ATOM      3  C3  DEN d   1      -1.518   3.230  -3.174  0.00  0.00     0.027 A 
ATOM      4  C4  DEN d   1      -2.474   5.440  -2.250  0.00  0.00     0.027 A 
ATOM      5  C5  DEN d   1      -3.490   6.000  -1.507  0.00  0.00    -0.003 A 
ATOM      6  C6  DEN d   1      -4.500   5.248  -0.967  0.00  0.00     0.001 A 
ATOM      7  C7  DEN d   1      -4.492   3.888  -1.126  0.00  0.00     0.017 A 
ATOM      8  C8  DEN d   1      -3.476   3.317  -1.880  0.00  0.00    -0.094 A 
ATOM      9  C9  DEN d   1      -2.457   4.092  -2.407  0.00  0.00    -0.072 A 
ENDROOT
TORSDOF 0
ENDMDL
