MODEL 1
REMARK minimizedAffinity 3.91659474
REMARK minimizedRMSD -1
REMARK  0 active torsions:
REMARK  status: ('A' for Active; 'I' for Inactive)
ROOT
ATOM      1  C1  DEN d   1      -1.779  -4.154   4.030  0.00  0.00     0.130 A 
ATOM      2  C2  DEN d   1      -2.640  -4.100   5.208  0.00  0.00    -0.031 A 
ATOM      3  C3  DEN d   1      -2.259  -2.913   5.999  0.00  0.00     0.027 A 
ATOM      4  C4  DEN d   1      -0.430  -1.160   5.516  0.00  0.00     0.027 A 
ATOM      5  C5  DEN d   1       0.568  -0.791   4.641  0.00  0.00    -0.003 A 
ATOM      6  C6  DEN d   1       0.874  -1.529   3.529  0.00  0.00     0.001 A 
ATOM      7  C7  DEN d   1       0.144  -2.651   3.237  0.00  0.00     0.017 A 
ATOM      8  C8  DEN d   1      -0.859  -3.034   4.118  0.00  0.00    -0.094 A 
ATOM      9  C9  DEN d   1      -1.161  -2.268   5.231  0.00  0.00    -0.072 A 
ENDROOT
TORSDOF 0
ENDMDL
