MODEL 1
REMARK minimizedAffinity 11.6349154
REMARK minimizedRMSD -1
REMARK  0 active torsions:
REMARK  status: ('A' for Active; 'I' for Inactive)
ROOT
ATOM      1  C1  DEN d   1       0.730  -3.372   2.350  0.00  0.00     0.130 A 
ATOM      2  C2  DEN d   1       1.266  -2.111   1.846  0.00  0.00    -0.031 A 
ATOM      3  C3  DEN d   1       0.431  -1.683   0.705  0.00  0.00     0.027 A 
ATOM      4  C4  DEN d   1      -1.633  -2.843  -0.319  0.00  0.00     0.027 A 
ATOM      5  C5  DEN d   1      -2.459  -3.942  -0.237  0.00  0.00    -0.003 A 
ATOM      6  C6  DEN d   1      -2.261  -4.937   0.683  0.00  0.00     0.001 A 
ATOM      7  C7  DEN d   1      -1.239  -4.831   1.589  0.00  0.00     0.017 A 
ATOM      8  C8  DEN d   1      -0.397  -3.729   1.508  0.00  0.00    -0.094 A 
ATOM      9  C9  DEN d   1      -0.621  -2.727   0.579  0.00  0.00    -0.072 A 
ENDROOT
TORSDOF 0
ENDMDL
