MODEL 1
REMARK minimizedAffinity 6.70168543
REMARK minimizedRMSD -1
REMARK  0 active torsions:
REMARK  status: ('A' for Active; 'I' for Inactive)
ROOT
ATOM      1  C1  DEN d   1       0.858   5.211   0.720  0.00  0.00     0.130 A 
ATOM      2  C2  DEN d   1       1.537   6.000  -0.304  0.00  0.00    -0.031 A 
ATOM      3  C3  DEN d   1       1.396   5.292  -1.593  0.00  0.00     0.027 A 
ATOM      4  C4  DEN d   1       0.196   3.066  -2.099  0.00  0.00     0.027 A 
ATOM      5  C5  DEN d   1      -0.518   2.025  -1.548  0.00  0.00    -0.003 A 
ATOM      6  C6  DEN d   1      -0.791   1.956  -0.208  0.00  0.00     0.001 A 
ATOM      7  C7  DEN d   1      -0.387   2.970   0.621  0.00  0.00     0.017 A 
ATOM      8  C8  DEN d   1       0.339   4.019   0.073  0.00  0.00    -0.094 A 
ATOM      9  C9  DEN d   1       0.595   4.077  -1.286  0.00  0.00    -0.072 A 
ENDROOT
TORSDOF 0
ENDMDL
