MODEL 1
REMARK minimizedAffinity 14.5007963
REMARK minimizedRMSD -1
REMARK  0 active torsions:
REMARK  status: ('A' for Active; 'I' for Inactive)
ROOT
ATOM      1  C1  DEN d   1       1.144   4.862   0.668  0.00  0.00     0.130 A 
ATOM      2  C2  DEN d   1       1.232   5.999  -0.244  0.00  0.00    -0.031 A 
ATOM      3  C3  DEN d   1       0.646   5.594  -1.537  0.00  0.00     0.027 A 
ATOM      4  C4  DEN d   1      -0.390   3.330  -2.211  0.00  0.00     0.027 A 
ATOM      5  C5  DEN d   1      -0.679   2.055  -1.778  0.00  0.00    -0.003 A 
ATOM      6  C6  DEN d   1      -0.353   1.619  -0.521  0.00  0.00     0.001 A 
ATOM      7  C7  DEN d   1       0.241   2.480   0.363  0.00  0.00     0.017 A 
ATOM      8  C8  DEN d   1       0.543   3.765  -0.069  0.00  0.00    -0.094 A 
ATOM      9  C9  DEN d   1       0.194   4.190  -1.339  0.00  0.00    -0.072 A 
ENDROOT
TORSDOF 0
ENDMDL
