MODEL 1
REMARK minimizedAffinity 8.46476936
REMARK minimizedRMSD -1
REMARK  0 active torsions:
REMARK  status: ('A' for Active; 'I' for Inactive)
ROOT
ATOM      1  C1  DEN d   1       1.501   5.390  -1.983  0.00  0.00     0.130 A 
ATOM      2  C2  DEN d   1       2.059   5.999  -0.779  0.00  0.00    -0.031 A 
ATOM      3  C3  DEN d   1       1.570   5.238   0.388  0.00  0.00     0.027 A 
ATOM      4  C4  DEN d   1       0.014   3.181   0.446  0.00  0.00     0.027 A 
ATOM      5  C5  DEN d   1      -0.724   2.310  -0.325  0.00  0.00    -0.003 A 
ATOM      6  C6  DEN d   1      -0.799   2.424  -1.687  0.00  0.00     0.001 A 
ATOM      7  C7  DEN d   1      -0.087   3.405  -2.327  0.00  0.00     0.017 A 
ATOM      8  C8  DEN d   1       0.653   4.291  -1.556  0.00  0.00    -0.094 A 
ATOM      9  C9  DEN d   1       0.726   4.152  -0.181  0.00  0.00    -0.072 A 
ENDROOT
TORSDOF 0
ENDMDL
