MODEL 1
REMARK minimizedAffinity 21.4325924
REMARK minimizedRMSD -1
REMARK  0 active torsions:
REMARK  status: ('A' for Active; 'I' for Inactive)
ROOT
ATOM      1  C1  DEN d   1       4.695  -0.844  -2.043  0.00  0.00     0.130 A 
ATOM      2  C2  DEN d   1       4.505   0.182  -3.065  0.00  0.00    -0.031 A 
ATOM      3  C3  DEN d   1       4.070   1.422  -2.391  0.00  0.00     0.027 A 
ATOM      4  C4  DEN d   1       3.679   1.852   0.122  0.00  0.00     0.027 A 
ATOM      5  C5  DEN d   1       3.700   1.280   1.375  0.00  0.00    -0.003 A 
ATOM      6  C6  DEN d   1       4.018  -0.037   1.571  0.00  0.00     0.001 A 
ATOM      7  C7  DEN d   1       4.373  -0.817   0.502  0.00  0.00     0.017 A 
ATOM      8  C8  DEN d   1       4.347  -0.250  -0.765  0.00  0.00    -0.094 A 
ATOM      9  C9  DEN d   1       4.034   1.088  -0.942  0.00  0.00    -0.072 A 
ENDROOT
TORSDOF 0
ENDMDL
