MODEL 1
REMARK minimizedAffinity 12.9826555
REMARK minimizedRMSD -1
REMARK  0 active torsions:
REMARK  status: ('A' for Active; 'I' for Inactive)
ROOT
ATOM      1  C1  DEN d   1      -0.220  -0.370   4.749  0.00  0.00     0.130 A 
ATOM      2  C2  DEN d   1      -1.377  -0.639   5.600  0.00  0.00    -0.031 A 
ATOM      3  C3  DEN d   1      -2.168  -1.713   4.968  0.00  0.00     0.027 A 
ATOM      4  C4  DEN d   1      -1.716  -2.983   2.769  0.00  0.00     0.027 A 
ATOM      5  C5  DEN d   1      -0.862  -3.097   1.693  0.00  0.00    -0.003 A 
ATOM      6  C6  DEN d   1       0.237  -2.293   1.545  0.00  0.00     0.001 A 
ATOM      7  C7  DEN d   1       0.537  -1.369   2.511  0.00  0.00     0.017 A 
ATOM      8  C8  DEN d   1      -0.322  -1.244   3.595  0.00  0.00    -0.094 A 
ATOM      9  C9  DEN d   1      -1.422  -2.074   3.732  0.00  0.00    -0.072 A 
ENDROOT
TORSDOF 0
ENDMDL
