MODEL 1
REMARK minimizedAffinity 9.74599552
REMARK minimizedRMSD -1
REMARK  0 active torsions:
REMARK  status: ('A' for Active; 'I' for Inactive)
ROOT
ATOM      1  C2' OXE d   1       2.226   5.822  -5.955  0.00  0.00     0.078 C 
ATOM      2  C1' OXE d   1       5.017   5.518  -5.948  0.00  0.00     0.078 C 
ATOM      3  C1  OXE d   1       4.173   4.268  -5.963  0.00  0.00    -0.078 A 
ATOM      4  C2  OXE d   1       2.809   4.425  -5.919  0.00  0.00    -0.078 A 
ATOM      5  C3  OXE d   1       1.983   3.307  -5.986  0.00  0.00     0.003 A 
ATOM      6  C4  OXE d   1       2.530   2.019  -5.943  0.00  0.00    -0.002 A 
ATOM      7  C5  OXE d   1       3.917   1.836  -5.947  0.00  0.00    -0.002 A 
ATOM      8  C6  OXE d   1       4.751   2.947  -6.000  0.00  0.00     0.003 A 
ENDROOT
TORSDOF 0
ENDMDL
