MODEL 1
REMARK minimizedAffinity 8.08713436
REMARK minimizedRMSD -1
REMARK  0 active torsions:
REMARK  status: ('A' for Active; 'I' for Inactive)
ROOT
ATOM      1  C2' OXE d   1       2.238   5.950   5.588  0.00  0.00     0.078 C 
ATOM      2  C1' OXE d   1      -0.102   6.000   4.037  0.00  0.00     0.078 C 
ATOM      3  C1  OXE d   1       1.007   5.071   3.609  0.00  0.00    -0.078 A 
ATOM      4  C2  OXE d   1       2.166   5.088   4.346  0.00  0.00    -0.078 A 
ATOM      5  C3  OXE d   1       3.199   4.211   4.027  0.00  0.00     0.003 A 
ATOM      6  C4  OXE d   1       3.129   3.424   2.871  0.00  0.00    -0.002 A 
ATOM      7  C5  OXE d   1       1.973   3.422   2.083  0.00  0.00    -0.002 A 
ATOM      8  C6  OXE d   1       0.889   4.206   2.461  0.00  0.00     0.003 A 
ENDROOT
TORSDOF 0
ENDMDL
