MODEL 1
REMARK minimizedAffinity 0.422400177
REMARK minimizedRMSD -1
REMARK  0 active torsions:
REMARK  status: ('A' for Active; 'I' for Inactive)
ROOT
ATOM      1  C2' OXE d   1       4.944  -3.762   1.972  0.00  0.00     0.078 C 
ATOM      2  C1' OXE d   1       5.999  -2.289   4.115  0.00  0.00     0.078 C 
ATOM      3  C1  OXE d   1       5.315  -3.596   4.429  0.00  0.00    -0.078 A 
ATOM      4  C2  OXE d   1       4.761  -4.288   3.379  0.00  0.00    -0.078 A 
ATOM      5  C3  OXE d   1       4.167  -5.526   3.606  0.00  0.00     0.003 A 
ATOM      6  C4  OXE d   1       3.993  -6.000   4.912  0.00  0.00    -0.002 A 
ATOM      7  C5  OXE d   1       4.515  -5.292   6.000  0.00  0.00    -0.002 A 
ATOM      8  C6  OXE d   1       5.215  -4.112   5.772  0.00  0.00     0.003 A 
ENDROOT
TORSDOF 0
ENDMDL
