MODEL 1
REMARK minimizedAffinity 6.39365339
REMARK minimizedRMSD -1
REMARK  0 active torsions:
REMARK  status: ('A' for Active; 'I' for Inactive)
ROOT
ATOM      1  C2' OXE d   1       4.489  -3.470   1.708  0.00  0.00     0.078 C 
ATOM      2  C1' OXE d   1       3.962  -5.990   2.827  0.00  0.00     0.078 C 
ATOM      3  C1  OXE d   1       4.318  -4.865   3.766  0.00  0.00    -0.078 A 
ATOM      4  C2  OXE d   1       4.620  -3.646   3.206  0.00  0.00    -0.078 A 
ATOM      5  C3  OXE d   1       4.901  -2.560   4.030  0.00  0.00     0.003 A 
ATOM      6  C4  OXE d   1       5.030  -2.734   5.413  0.00  0.00    -0.002 A 
ATOM      7  C5  OXE d   1       4.766  -3.976   6.000  0.00  0.00    -0.002 A 
ATOM      8  C6  OXE d   1       4.368  -5.039   5.196  0.00  0.00     0.003 A 
ENDROOT
TORSDOF 0
ENDMDL
