MODEL 1
REMARK minimizedAffinity -2.65441775
REMARK minimizedRMSD -1
REMARK  0 active torsions:
REMARK  status: ('A' for Active; 'I' for Inactive)
ROOT
ATOM      1  C2' OXE d   1       5.707   3.074  -5.743  0.00  0.00     0.078 C 
ATOM      2  C1' OXE d   1       5.393   5.859  -5.901  0.00  0.00     0.078 C 
ATOM      3  C1  OXE d   1       4.147   5.010  -5.895  0.00  0.00    -0.078 A 
ATOM      4  C2  OXE d   1       4.311   3.646  -5.865  0.00  0.00    -0.078 A 
ATOM      5  C3  OXE d   1       3.194   2.818  -5.803  0.00  0.00     0.003 A 
ATOM      6  C4  OXE d   1       1.906   3.354  -5.926  0.00  0.00    -0.002 A 
ATOM      7  C5  OXE d   1       1.718   4.739  -5.998  0.00  0.00    -0.002 A 
ATOM      8  C6  OXE d   1       2.823   5.581  -5.941  0.00  0.00     0.003 A 
ENDROOT
TORSDOF 0
ENDMDL
