MODEL 1
REMARK minimizedAffinity -3.584692
REMARK minimizedRMSD -1
REMARK  0 active torsions:
REMARK  status: ('A' for Active; 'I' for Inactive)
ROOT
ATOM      1  C2' OXE d   1       5.660   2.499  -5.606  0.00  0.00     0.078 C 
ATOM      2  C1' OXE d   1       2.946   1.893  -5.987  0.00  0.00     0.078 C 
ATOM      3  C1  OXE d   1       3.334   3.347  -5.881  0.00  0.00    -0.078 A 
ATOM      4  C2  OXE d   1       4.658   3.632  -5.648  0.00  0.00    -0.078 A 
ATOM      5  C3  OXE d   1       5.079   4.958  -5.597  0.00  0.00     0.003 A 
ATOM      6  C4  OXE d   1       4.144   6.000  -5.627  0.00  0.00    -0.002 A 
ATOM      7  C5  OXE d   1       2.785   5.729  -5.824  0.00  0.00    -0.002 A 
ATOM      8  C6  OXE d   1       2.371   4.413  -5.996  0.00  0.00     0.003 A 
ENDROOT
TORSDOF 0
ENDMDL
