MODEL 1
REMARK minimizedAffinity -2.3287034
REMARK minimizedRMSD -1
REMARK  0 active torsions:
REMARK  status: ('A' for Active; 'I' for Inactive)
ROOT
ATOM      1  C2' OXE d   1       4.089  -2.968   3.297  0.00  0.00     0.078 C 
ATOM      2  C1' OXE d   1       1.791  -1.612   2.426  0.00  0.00     0.078 C 
ATOM      3  C1  OXE d   1       2.620  -2.328   1.390  0.00  0.00    -0.078 A 
ATOM      4  C2  OXE d   1       3.768  -2.950   1.818  0.00  0.00    -0.078 A 
ATOM      5  C3  OXE d   1       4.540  -3.672   0.913  0.00  0.00     0.003 A 
ATOM      6  C4  OXE d   1       4.242  -3.643  -0.455  0.00  0.00    -0.002 A 
ATOM      7  C5  OXE d   1       3.099  -2.982  -0.918  0.00  0.00    -0.002 A 
ATOM      8  C6  OXE d   1       2.256  -2.357  -0.005  0.00  0.00     0.003 A 
ENDROOT
TORSDOF 0
ENDMDL
