MODEL 1
REMARK minimizedAffinity -2.3460393
REMARK minimizedRMSD -1
REMARK  0 active torsions:
REMARK  status: ('A' for Active; 'I' for Inactive)
ROOT
ATOM      1  C2' OXE d   1       1.689   3.459  -5.982  0.00  0.00     0.078 C 
ATOM      2  C1' OXE d   1       2.851   6.000  -5.710  0.00  0.00     0.078 C 
ATOM      3  C1  OXE d   1       3.774   4.809  -5.786  0.00  0.00    -0.078 A 
ATOM      4  C2  OXE d   1       3.195   3.565  -5.872  0.00  0.00    -0.078 A 
ATOM      5  C3  OXE d   1       4.000   2.437  -5.999  0.00  0.00     0.003 A 
ATOM      6  C4  OXE d   1       5.392   2.543  -5.886  0.00  0.00    -0.002 A 
ATOM      7  C5  OXE d   1       6.000   3.797  -5.759  0.00  0.00    -0.002 A 
ATOM      8  C6  OXE d   1       5.209   4.940  -5.750  0.00  0.00     0.003 A 
ENDROOT
TORSDOF 0
ENDMDL
