MODEL 1
REMARK minimizedAffinity 16.1787109
REMARK minimizedRMSD -1
REMARK  2 active torsions:
REMARK  status: ('A' for Active; 'I' for Inactive)
REMARK    1  A    between atoms: C2'_3  and  C1'_4 
REMARK    2  A    between atoms: C1'_4  and  C1_5 
ROOT
ATOM      1  C1  I4B d   1      -5.083   2.604  -1.715  0.00  0.00    -0.075 A 
ATOM      2  C2  I4B d   1      -5.388   3.070  -2.970  0.00  0.00     0.003 A 
ATOM      3  C3  I4B d   1      -4.526   2.800  -4.060  0.00  0.00     0.002 A 
ATOM      4  C4  I4B d   1      -3.351   2.109  -3.842  0.00  0.00    -0.004 A 
ATOM      5  C5  I4B d   1      -3.055   1.618  -2.574  0.00  0.00     0.002 A 
ATOM      6  C6  I4B d   1      -3.932   1.856  -1.506  0.00  0.00     0.003 A 
ENDROOT
BRANCH   1   7
ATOM      7  C1' I4B d   1      -6.000   2.935  -0.580  0.00  0.00     0.060 C 
BRANCH   7   8
ATOM      8  C2' I4B d   1      -5.403   4.105   0.175  0.00  0.00    -0.013 C 
ATOM      9  C4' I4B d   1      -5.883   5.418  -0.386  0.00  0.00     0.013 C 
ATOM     10  C3' I4B d   1      -5.780   3.964   1.620  0.00  0.00     0.013 C 
ENDBRANCH   7   8
ENDBRANCH   1   7
TORSDOF 2
ENDMDL
