MODEL 1
REMARK minimizedAffinity 3.28940368
REMARK minimizedRMSD -1
REMARK  2 active torsions:
REMARK  status: ('A' for Active; 'I' for Inactive)
REMARK    1  A    between atoms: C2'_3  and  C1'_4 
REMARK    2  A    between atoms: C1'_4  and  C1_5 
ROOT
ATOM      1  C1  I4B d   1       2.285  -2.184   3.113  0.00  0.00    -0.075 A 
ATOM      2  C2  I4B d   1       1.961  -3.456   2.711  0.00  0.00     0.003 A 
ATOM      3  C3  I4B d   1       2.484  -4.576   3.401  0.00  0.00     0.002 A 
ATOM      4  C4  I4B d   1       3.361  -4.381   4.448  0.00  0.00    -0.004 A 
ATOM      5  C5  I4B d   1       3.670  -3.091   4.869  0.00  0.00     0.002 A 
ATOM      6  C6  I4B d   1       3.119  -1.985   4.205  0.00  0.00     0.003 A 
ENDROOT
BRANCH   1   7
ATOM      7  C1' I4B d   1       1.741  -1.024   2.342  0.00  0.00     0.060 C 
BRANCH   7   8
ATOM      8  C2' I4B d   1       2.840   0.012   2.219  0.00  0.00    -0.013 C 
ATOM      9  C4' I4B d   1       3.267   0.187   0.785  0.00  0.00     0.013 C 
ATOM     10  C3' I4B d   1       2.329   1.300   2.793  0.00  0.00     0.013 C 
ENDBRANCH   7   8
ENDBRANCH   1   7
TORSDOF 2
ENDMDL
