MODEL 1
REMARK minimizedAffinity 8.21419907
REMARK minimizedRMSD -1
REMARK  2 active torsions:
REMARK  status: ('A' for Active; 'I' for Inactive)
REMARK    1  A    between atoms: C2'_3  and  C1'_4 
REMARK    2  A    between atoms: C1'_4  and  C1_5 
ROOT
ATOM      1  C1  I4B d   1       2.505  -2.052   3.147  0.00  0.00    -0.075 A 
ATOM      2  C2  I4B d   1       2.586  -3.420   3.077  0.00  0.00     0.003 A 
ATOM      3  C3  I4B d   1       2.109  -4.217   4.146  0.00  0.00     0.002 A 
ATOM      4  C4  I4B d   1       1.610  -3.608   5.278  0.00  0.00    -0.004 A 
ATOM      5  C5  I4B d   1       1.508  -2.221   5.338  0.00  0.00     0.002 A 
ATOM      6  C6  I4B d   1       1.947  -1.438   4.260  0.00  0.00     0.003 A 
ENDROOT
BRANCH   1   7
ATOM      7  C1' I4B d   1       3.048  -1.239   2.014  0.00  0.00     0.060 C 
BRANCH   7   8
ATOM      8  C2' I4B d   1       1.960  -0.288   1.558  0.00  0.00    -0.013 C 
ATOM      9  C4' I4B d   1       0.596  -0.796   1.943  0.00  0.00     0.013 C 
ATOM     10  C3' I4B d   1       2.231   1.053   2.170  0.00  0.00     0.013 C 
ENDBRANCH   7   8
ENDBRANCH   1   7
TORSDOF 2
ENDMDL
