MODEL 1
REMARK minimizedAffinity -3.53011227
REMARK minimizedRMSD -1
REMARK  0 active torsions:
REMARK  status: ('A' for Active; 'I' for Inactive)
ROOT
ATOM      1  C4' PXY d   1      -2.293  -0.326   2.483  0.00  0.00     0.077 C 
ATOM      2  C1' PXY d   1       1.613   1.606  -1.316  0.00  0.00     0.077 C 
ATOM      3  C1  PXY d   1       0.586   1.089  -0.327  0.00  0.00    -0.082 A 
ATOM      4  C2  PXY d   1       0.004   1.931   0.512  0.00  0.00     0.003 A 
ATOM      5  C3  PXY d   1      -0.903   1.475   1.434  0.00  0.00     0.003 A 
ATOM      6  C4  PXY d   1      -1.258   0.153   1.462  0.00  0.00    -0.082 A 
ATOM      7  C5  PXY d   1      -0.677  -0.710   0.602  0.00  0.00     0.003 A 
ATOM      8  C6  PXY d   1       0.272  -0.235  -0.299  0.00  0.00     0.003 A 
ENDROOT
TORSDOF 0
ENDMDL
