MODEL 1
REMARK minimizedAffinity -2.57243133
REMARK minimizedRMSD -1
REMARK  0 active torsions:
REMARK  status: ('A' for Active; 'I' for Inactive)
ROOT
ATOM      1  C4' PXY d   1      -0.789  -2.771  -0.872  0.00  0.00     0.077 C 
ATOM      2  C1' PXY d   1       0.027   2.915  -0.232  0.00  0.00     0.077 C 
ATOM      3  C1  PXY d   1      -0.174   1.422  -0.402  0.00  0.00    -0.082 A 
ATOM      4  C2  PXY d   1      -1.350   0.962  -0.795  0.00  0.00     0.003 A 
ATOM      5  C3  PXY d   1      -1.559  -0.388  -0.923  0.00  0.00     0.003 A 
ATOM      6  C4  PXY d   1      -0.538  -1.271  -0.697  0.00  0.00    -0.082 A 
ATOM      7  C5  PXY d   1       0.668  -0.808  -0.306  0.00  0.00     0.003 A 
ATOM      8  C6  PXY d   1       0.848   0.562  -0.142  0.00  0.00     0.003 A 
ENDROOT
TORSDOF 0
ENDMDL
