MODEL 1
REMARK minimizedAffinity -3.38840628
REMARK minimizedRMSD -1
REMARK  0 active torsions:
REMARK  status: ('A' for Active; 'I' for Inactive)
ROOT
ATOM      1  C4' PXY d   1      -0.250   2.848   0.898  0.00  0.00     0.077 C 
ATOM      2  C1' PXY d   1      -0.397  -2.604  -1.017  0.00  0.00     0.077 C 
ATOM      3  C1  PXY d   1      -0.346  -1.173  -0.520  0.00  0.00    -0.082 A 
ATOM      4  C2  PXY d   1      -1.079  -0.816   0.522  0.00  0.00     0.003 A 
ATOM      5  C3  PXY d   1      -1.070   0.482   0.965  0.00  0.00     0.003 A 
ATOM      6  C4  PXY d   1      -0.262   1.412   0.367  0.00  0.00    -0.082 A 
ATOM      7  C5  PXY d   1       0.497   1.053  -0.690  0.00  0.00     0.003 A 
ATOM      8  C6  PXY d   1       0.442  -0.259  -1.150  0.00  0.00     0.003 A 
ENDROOT
TORSDOF 0
ENDMDL
