MODEL 1
REMARK minimizedAffinity -5.20546341
REMARK minimizedRMSD -1
REMARK  0 active torsions:
REMARK  status: ('A' for Active; 'I' for Inactive)
ROOT
ATOM      1  C4' PXY d   1      -0.020  -2.072  -0.607  0.00  0.00     0.077 C 
ATOM      2  C1' PXY d   1       0.496   3.606   0.348  0.00  0.00     0.077 C 
ATOM      3  C1  PXY d   1       0.373   2.117   0.092  0.00  0.00    -0.082 A 
ATOM      4  C2  PXY d   1      -0.826   1.558   0.046  0.00  0.00     0.003 A 
ATOM      5  C3  PXY d   1      -0.955   0.208  -0.152  0.00  0.00     0.003 A 
ATOM      6  C4  PXY d   1       0.152  -0.571  -0.360  0.00  0.00    -0.082 A 
ATOM      7  C5  PXY d   1       1.378  -0.007  -0.326  0.00  0.00     0.003 A 
ATOM      8  C6  PXY d   1       1.489   1.359  -0.081  0.00  0.00     0.003 A 
ENDROOT
TORSDOF 0
ENDMDL
