MODEL 1
REMARK minimizedAffinity -4.69956636
REMARK minimizedRMSD -1
REMARK  0 active torsions:
REMARK  status: ('A' for Active; 'I' for Inactive)
ROOT
ATOM      1  C4' PXY d   1       0.421  -2.151   0.073  0.00  0.00     0.077 C 
ATOM      2  C1' PXY d   1       0.235   3.619  -0.222  0.00  0.00     0.077 C 
ATOM      3  C1  PXY d   1       0.277   2.106  -0.133  0.00  0.00    -0.082 A 
ATOM      4  C2  PXY d   1       1.255   1.443  -0.728  0.00  0.00     0.003 A 
ATOM      5  C3  PXY d   1       1.290   0.073  -0.686  0.00  0.00     0.003 A 
ATOM      6  C4  PXY d   1       0.344  -0.623   0.018  0.00  0.00    -0.082 A 
ATOM      7  C5  PXY d   1      -0.651   0.047   0.637  0.00  0.00     0.003 A 
ATOM      8  C6  PXY d   1      -0.692   1.436   0.547  0.00  0.00     0.003 A 
ENDROOT
TORSDOF 0
ENDMDL
