MODEL 1
REMARK minimizedAffinity -3.94258809
REMARK minimizedRMSD -1
REMARK  0 active torsions:
REMARK  status: ('A' for Active; 'I' for Inactive)
ROOT
ATOM      1  C4' PXY d   1       0.045  -2.045   0.208  0.00  0.00     0.077 C 
ATOM      2  C1' PXY d   1       0.659   3.701   0.371  0.00  0.00     0.077 C 
ATOM      3  C1  PXY d   1       0.510   2.193   0.323  0.00  0.00    -0.082 A 
ATOM      4  C2  PXY d   1      -0.698   1.656   0.281  0.00  0.00     0.003 A 
ATOM      5  C3  PXY d   1      -0.852   0.294   0.269  0.00  0.00     0.003 A 
ATOM      6  C4  PXY d   1       0.243  -0.527   0.247  0.00  0.00    -0.082 A 
ATOM      7  C5  PXY d   1       1.480   0.013   0.280  0.00  0.00     0.003 A 
ATOM      8  C6  PXY d   1       1.614   1.397   0.333  0.00  0.00     0.003 A 
ENDROOT
TORSDOF 0
ENDMDL
