MODEL 1
REMARK minimizedAffinity -3.4816556
REMARK minimizedRMSD -1
REMARK  0 active torsions:
REMARK  status: ('A' for Active; 'I' for Inactive)
ROOT
ATOM      1  C4' PXY d   1      -0.554  -2.040   0.019  0.00  0.00     0.077 C 
ATOM      2  C1' PXY d   1       0.842   3.568   0.127  0.00  0.00     0.077 C 
ATOM      3  C1  PXY d   1       0.465   2.100   0.105  0.00  0.00    -0.082 A 
ATOM      4  C2  PXY d   1       1.408   1.184  -0.044  0.00  0.00     0.003 A 
ATOM      5  C3  PXY d   1       1.082  -0.146  -0.097  0.00  0.00     0.003 A 
ATOM      6  C4  PXY d   1      -0.219  -0.547   0.056  0.00  0.00    -0.082 A 
ATOM      7  C5  PXY d   1      -1.186   0.381   0.220  0.00  0.00     0.003 A 
ATOM      8  C6  PXY d   1      -0.838   1.728   0.230  0.00  0.00     0.003 A 
ENDROOT
TORSDOF 0
ENDMDL
