MODEL 1
REMARK minimizedAffinity -2.91765857
REMARK minimizedRMSD -1
REMARK  0 active torsions:
REMARK  status: ('A' for Active; 'I' for Inactive)
ROOT
ATOM      1  C4' PXY d   1       0.428   3.279   0.776  0.00  0.00     0.077 C 
ATOM      2  C1' PXY d   1      -0.540  -2.318  -0.298  0.00  0.00     0.077 C 
ATOM      3  C1  PXY d   1      -0.273  -0.853  -0.016  0.00  0.00    -0.082 A 
ATOM      4  C2  PXY d   1      -1.240  -0.095   0.476  0.00  0.00     0.003 A 
ATOM      5  C3  PXY d   1      -1.026   1.239   0.708  0.00  0.00     0.003 A 
ATOM      6  C4  PXY d   1       0.206   1.792   0.484  0.00  0.00    -0.082 A 
ATOM      7  C5  PXY d   1       1.201   1.023  -0.008  0.00  0.00     0.003 A 
ATOM      8  C6  PXY d   1       0.951  -0.320  -0.275  0.00  0.00     0.003 A 
ENDROOT
TORSDOF 0
ENDMDL
