MODEL 1
REMARK minimizedAffinity -3.25170588
REMARK minimizedRMSD -1
REMARK  0 active torsions:
REMARK  status: ('A' for Active; 'I' for Inactive)
ROOT
ATOM      1  C4' PXY d   1      -0.799  -2.011  -0.166  0.00  0.00     0.077 C 
ATOM      2  C1' PXY d   1       0.289   3.653   0.219  0.00  0.00     0.077 C 
ATOM      3  C1  PXY d   1      -0.003   2.168   0.129  0.00  0.00    -0.082 A 
ATOM      4  C2  PXY d   1       0.793   1.387  -0.583  0.00  0.00     0.003 A 
ATOM      5  C3  PXY d   1       0.526   0.047  -0.701  0.00  0.00     0.003 A 
ATOM      6  C4  PXY d   1      -0.537  -0.508  -0.040  0.00  0.00    -0.082 A 
ATOM      7  C5  PXY d   1      -1.348   0.280   0.697  0.00  0.00     0.003 A 
ATOM      8  C6  PXY d   1      -1.083   1.645   0.771  0.00  0.00     0.003 A 
ENDROOT
TORSDOF 0
ENDMDL
