MODEL 1
REMARK minimizedAffinity -3.78035831
REMARK minimizedRMSD -1
REMARK  0 active torsions:
REMARK  status: ('A' for Active; 'I' for Inactive)
ROOT
ATOM      1  C4' PXY d   1       0.093  -1.689  -1.250  0.00  0.00     0.077 C 
ATOM      2  C1' PXY d   1      -0.471   3.106   1.930  0.00  0.00     0.077 C 
ATOM      3  C1  PXY d   1      -0.328   1.841   1.106  0.00  0.00    -0.082 A 
ATOM      4  C2  PXY d   1       0.564   1.794   0.130  0.00  0.00     0.003 A 
ATOM      5  C3  PXY d   1       0.684   0.669  -0.646  0.00  0.00     0.003 A 
ATOM      6  C4  PXY d   1      -0.080  -0.437  -0.386  0.00  0.00    -0.082 A 
ATOM      7  C5  PXY d   1      -0.985  -0.400   0.615  0.00  0.00     0.003 A 
ATOM      8  C6  PXY d   1      -1.120   0.765   1.364  0.00  0.00     0.003 A 
ENDROOT
TORSDOF 0
ENDMDL
