MODEL 1
REMARK minimizedAffinity -4.11124563
REMARK minimizedRMSD -1
REMARK  0 active torsions:
REMARK  status: ('A' for Active; 'I' for Inactive)
ROOT
ATOM      1  C4' PXY d   1      -0.177  -2.428  -0.350  0.00  0.00     0.077 C 
ATOM      2  C1' PXY d   1      -0.203   3.213   0.911  0.00  0.00     0.077 C 
ATOM      3  C1  PXY d   1      -0.190   1.736   0.569  0.00  0.00    -0.082 A 
ATOM      4  C2  PXY d   1      -1.127   0.942   1.061  0.00  0.00     0.003 A 
ATOM      5  C3  PXY d   1      -1.112  -0.401   0.788  0.00  0.00     0.003 A 
ATOM      6  C4  PXY d   1      -0.157  -0.929  -0.039  0.00  0.00    -0.082 A 
ATOM      7  C5  PXY d   1       0.797  -0.124  -0.554  0.00  0.00     0.003 A 
ATOM      8  C6  PXY d   1       0.787   1.230  -0.232  0.00  0.00     0.003 A 
ENDROOT
TORSDOF 0
ENDMDL
