MODEL 1
REMARK minimizedAffinity 1.63892722
REMARK minimizedRMSD -1
REMARK  0 active torsions:
REMARK  status: ('A' for Active; 'I' for Inactive)
ROOT
ATOM      1  C4' PXY d   1       2.882  -0.791   0.388  0.00  0.00     0.077 C 
ATOM      2  C1' PXY d   1      -1.785   2.552   1.062  0.00  0.00     0.077 C 
ATOM      3  C1  PXY d   1      -0.554   1.686   0.882  0.00  0.00    -0.082 A 
ATOM      4  C2  PXY d   1      -0.694   0.399   0.608  0.00  0.00     0.003 A 
ATOM      5  C3  PXY d   1       0.408  -0.406   0.474  0.00  0.00     0.003 A 
ATOM      6  C4  PXY d   1       1.667   0.123   0.568  0.00  0.00    -0.082 A 
ATOM      7  C5  PXY d   1       1.819   1.438   0.836  0.00  0.00     0.003 A 
ATOM      8  C6  PXY d   1       0.687   2.229   1.010  0.00  0.00     0.003 A 
ENDROOT
TORSDOF 0
ENDMDL
