MODEL 1
REMARK minimizedAffinity -4.01156044
REMARK minimizedRMSD -1
REMARK  0 active torsions:
REMARK  status: ('A' for Active; 'I' for Inactive)
ROOT
ATOM      1  C4' PXY d   1       0.043  -2.094  -0.046  0.00  0.00     0.077 C 
ATOM      2  C1' PXY d   1       0.293   3.669   0.330  0.00  0.00     0.077 C 
ATOM      3  C1  PXY d   1       0.239   2.157   0.227  0.00  0.00    -0.082 A 
ATOM      4  C2  PXY d   1      -0.931   1.550   0.113  0.00  0.00     0.003 A 
ATOM      5  C3  PXY d   1      -0.999   0.182   0.051  0.00  0.00     0.003 A 
ATOM      6  C4  PXY d   1       0.145  -0.569   0.052  0.00  0.00    -0.082 A 
ATOM      7  C5  PXY d   1       1.343   0.043   0.157  0.00  0.00     0.003 A 
ATOM      8  C6  PXY d   1       1.389   1.430   0.260  0.00  0.00     0.003 A 
ENDROOT
TORSDOF 0
ENDMDL
