MODEL 1
REMARK minimizedAffinity -2.27857232
REMARK minimizedRMSD -1
REMARK  0 active torsions:
REMARK  status: ('A' for Active; 'I' for Inactive)
ROOT
ATOM      1  C4' PXY d   1       1.621  -1.440  -2.633  0.00  0.00     0.077 C 
ATOM      2  C1' PXY d   1      -0.497   2.232   1.297  0.00  0.00     0.077 C 
ATOM      3  C1  PXY d   1       0.071   1.272   0.270  0.00  0.00    -0.082 A 
ATOM      4  C2  PXY d   1      -0.630   0.986  -0.815  0.00  0.00     0.003 A 
ATOM      5  C3  PXY d   1      -0.146   0.095  -1.738  0.00  0.00     0.003 A 
ATOM      6  C4  PXY d   1       1.091  -0.469  -1.575  0.00  0.00    -0.082 A 
ATOM      7  C5  PXY d   1       1.817  -0.174  -0.475  0.00  0.00     0.003 A 
ATOM      8  C6  PXY d   1       1.290   0.701   0.470  0.00  0.00     0.003 A 
ENDROOT
TORSDOF 0
ENDMDL
