MODEL 1
REMARK minimizedAffinity -4.15573978
REMARK minimizedRMSD -1
REMARK  0 active torsions:
REMARK  status: ('A' for Active; 'I' for Inactive)
ROOT
ATOM      1  C4' PXY d   1       0.155   3.203   0.190  0.00  0.00     0.077 C 
ATOM      2  C1' PXY d   1       0.503  -2.537  -0.394  0.00  0.00     0.077 C 
ATOM      3  C1  PXY d   1       0.422  -1.032  -0.233  0.00  0.00    -0.082 A 
ATOM      4  C2  PXY d   1      -0.718  -0.409  -0.480  0.00  0.00     0.003 A 
ATOM      5  C3  PXY d   1      -0.801   0.956  -0.370  0.00  0.00     0.003 A 
ATOM      6  C4  PXY d   1       0.281   1.684   0.049  0.00  0.00    -0.082 A 
ATOM      7  C5  PXY d   1       1.445   1.053   0.314  0.00  0.00     0.003 A 
ATOM      8  C6  PXY d   1       1.519  -0.328   0.156  0.00  0.00     0.003 A 
ENDROOT
TORSDOF 0
ENDMDL
