MODEL 1
REMARK minimizedAffinity 2.85173798
REMARK minimizedRMSD -1
REMARK  0 active torsions:
REMARK  status: ('A' for Active; 'I' for Inactive)
ROOT
ATOM      1  C4' PXY d   1       4.048   1.618  -0.696  0.00  0.00     0.077 C 
ATOM      2  C1' PXY d   1      -0.998  -1.142  -0.118  0.00  0.00     0.077 C 
ATOM      3  C1  PXY d   1       0.321  -0.412  -0.281  0.00  0.00    -0.082 A 
ATOM      4  C2  PXY d   1       1.423  -0.930   0.236  0.00  0.00     0.003 A 
ATOM      5  C3  PXY d   1       2.618  -0.268   0.127  0.00  0.00     0.003 A 
ATOM      6  C4  PXY d   1       2.696   0.911  -0.565  0.00  0.00    -0.082 A 
ATOM      7  C5  PXY d   1       1.578   1.441  -1.104  0.00  0.00     0.003 A 
ATOM      8  C6  PXY d   1       0.367   0.774  -0.946  0.00  0.00     0.003 A 
ENDROOT
TORSDOF 0
ENDMDL
