MODEL 1
REMARK minimizedAffinity -3.94725704
REMARK minimizedRMSD -1
REMARK  0 active torsions:
REMARK  status: ('A' for Active; 'I' for Inactive)
ROOT
ATOM      1  C4' PXY d   1      -0.593  -2.028   0.359  0.00  0.00     0.077 C 
ATOM      2  C1' PXY d   1       0.351   3.652  -0.148  0.00  0.00     0.077 C 
ATOM      3  C1  PXY d   1       0.111   2.160  -0.025  0.00  0.00    -0.082 A 
ATOM      4  C2  PXY d   1      -0.998   1.721   0.548  0.00  0.00     0.003 A 
ATOM      5  C3  PXY d   1      -1.216   0.375   0.696  0.00  0.00     0.003 A 
ATOM      6  C4  PXY d   1      -0.314  -0.531   0.205  0.00  0.00    -0.082 A 
ATOM      7  C5  PXY d   1       0.815  -0.090  -0.391  0.00  0.00     0.003 A 
ATOM      8  C6  PXY d   1       1.036   1.280  -0.494  0.00  0.00     0.003 A 
ENDROOT
TORSDOF 0
ENDMDL
