MODEL 1
REMARK minimizedAffinity -2.35237432
REMARK minimizedRMSD -1
REMARK  0 active torsions:
REMARK  status: ('A' for Active; 'I' for Inactive)
ROOT
ATOM      1  C4' PXY d   1      -0.556  -3.320  -1.473  0.00  0.00     0.077 C 
ATOM      2  C1' PXY d   1       0.433   1.879   0.853  0.00  0.00     0.077 C 
ATOM      3  C1  PXY d   1       0.166   0.521   0.234  0.00  0.00    -0.082 A 
ATOM      4  C2  PXY d   1       0.335  -0.573   0.959  0.00  0.00     0.003 A 
ATOM      5  C3  PXY d   1       0.128  -1.810   0.406  0.00  0.00     0.003 A 
ATOM      6  C4  PXY d   1      -0.307  -1.927  -0.887  0.00  0.00    -0.082 A 
ATOM      7  C5  PXY d   1      -0.492  -0.815  -1.630  0.00  0.00     0.003 A 
ATOM      8  C6  PXY d   1      -0.238   0.430  -1.062  0.00  0.00     0.003 A 
ENDROOT
TORSDOF 0
ENDMDL
