MODEL 1
REMARK minimizedAffinity -3.79735327
REMARK minimizedRMSD -1
REMARK  0 active torsions:
REMARK  status: ('A' for Active; 'I' for Inactive)
ROOT
ATOM      1  C4' PXY d   1      -0.353   0.040   1.651  0.00  0.00     0.077 C 
ATOM      2  C1' PXY d   1       0.701  -2.877  -3.227  0.00  0.00     0.077 C 
ATOM      3  C1  PXY d   1       0.436  -2.117  -1.942  0.00  0.00    -0.082 A 
ATOM      4  C2  PXY d   1      -0.802  -1.765  -1.635  0.00  0.00     0.003 A 
ATOM      5  C3  PXY d   1      -1.056  -1.049  -0.493  0.00  0.00     0.003 A 
ATOM      6  C4  PXY d   1      -0.039  -0.737   0.369  0.00  0.00    -0.082 A 
ATOM      7  C5  PXY d   1       1.225  -1.102   0.068  0.00  0.00     0.003 A 
ATOM      8  C6  PXY d   1       1.467  -1.792  -1.117  0.00  0.00     0.003 A 
ENDROOT
TORSDOF 0
ENDMDL
