MODEL 1
REMARK minimizedAffinity -0.379921108
REMARK minimizedRMSD -1
REMARK  0 active torsions:
REMARK  status: ('A' for Active; 'I' for Inactive)
ROOT
ATOM      1  C4' PXY d   1      -0.736  -1.338   1.865  0.00  0.00     0.077 C 
ATOM      2  C1' PXY d   1      -0.144   4.021  -0.222  0.00  0.00     0.077 C 
ATOM      3  C1  PXY d   1      -0.300   2.620   0.337  0.00  0.00    -0.082 A 
ATOM      4  C2  PXY d   1       0.179   1.589  -0.339  0.00  0.00     0.003 A 
ATOM      5  C3  PXY d   1       0.018   0.313   0.137  0.00  0.00     0.003 A 
ATOM      6  C4  PXY d   1      -0.592   0.095   1.343  0.00  0.00    -0.082 A 
ATOM      7  C5  PXY d   1      -1.074   1.143   2.044  0.00  0.00     0.003 A 
ATOM      8  C6  PXY d   1      -0.937   2.427   1.524  0.00  0.00     0.003 A 
ENDROOT
TORSDOF 0
ENDMDL
