MODEL 1
REMARK minimizedAffinity -0.990716457
REMARK minimizedRMSD -1
REMARK  0 active torsions:
REMARK  status: ('A' for Active; 'I' for Inactive)
ROOT
ATOM      1  C4' PXY d   1       0.391  -4.361  -2.443  0.00  0.00     0.077 C 
ATOM      2  C1' PXY d   1       0.178   0.974  -0.226  0.00  0.00     0.077 C 
ATOM      3  C1  PXY d   1       0.224  -0.422  -0.815  0.00  0.00    -0.082 A 
ATOM      4  C2  PXY d   1       0.777  -1.406  -0.124  0.00  0.00     0.003 A 
ATOM      5  C3  PXY d   1       0.856  -2.668  -0.655  0.00  0.00     0.003 A 
ATOM      6  C4  PXY d   1       0.314  -2.937  -1.884  0.00  0.00    -0.082 A 
ATOM      7  C5  PXY d   1      -0.261  -1.942  -2.590  0.00  0.00     0.003 A 
ATOM      8  C6  PXY d   1      -0.294  -0.659  -2.051  0.00  0.00     0.003 A 
ENDROOT
TORSDOF 0
ENDMDL
