MODEL 1
REMARK minimizedAffinity -4.20922899
REMARK minimizedRMSD -1
REMARK  0 active torsions:
REMARK  status: ('A' for Active; 'I' for Inactive)
ROOT
ATOM      1  C4' PXY d   1       1.319  -2.029  -1.562  0.00  0.00     0.077 C 
ATOM      2  C1' PXY d   1      -1.211   1.713   2.045  0.00  0.00     0.077 C 
ATOM      3  C1  PXY d   1      -0.551   0.739   1.089  0.00  0.00    -0.082 A 
ATOM      4  C2  PXY d   1      -0.314  -0.503   1.481  0.00  0.00     0.003 A 
ATOM      5  C3  PXY d   1       0.310  -1.388   0.640  0.00  0.00     0.003 A 
ATOM      6  C4  PXY d   1       0.647  -1.014  -0.633  0.00  0.00    -0.082 A 
ATOM      7  C5  PXY d   1       0.399   0.248  -1.044  0.00  0.00     0.003 A 
ATOM      8  C6  PXY d   1      -0.199   1.143  -0.161  0.00  0.00     0.003 A 
ENDROOT
TORSDOF 0
ENDMDL
