MODEL 1
REMARK minimizedAffinity -3.87544155
REMARK minimizedRMSD -1
REMARK  0 active torsions:
REMARK  status: ('A' for Active; 'I' for Inactive)
ROOT
ATOM      1  C4' PXY d   1       0.753  -1.112   0.208  0.00  0.00     0.077 C 
ATOM      2  C1' PXY d   1      -2.215   3.734   1.265  0.00  0.00     0.077 C 
ATOM      3  C1  PXY d   1      -1.434   2.462   1.001  0.00  0.00    -0.082 A 
ATOM      4  C2  PXY d   1      -0.865   2.277  -0.179  0.00  0.00     0.003 A 
ATOM      5  C3  PXY d   1      -0.183   1.118  -0.446  0.00  0.00     0.003 A 
ATOM      6  C4  PXY d   1      -0.036   0.162   0.523  0.00  0.00    -0.082 A 
ATOM      7  C5  PXY d   1      -0.605   0.348   1.733  0.00  0.00     0.003 A 
ATOM      8  C6  PXY d   1      -1.328   1.513   1.970  0.00  0.00     0.003 A 
ENDROOT
TORSDOF 0
ENDMDL
