MODEL 1
REMARK minimizedAffinity -2.4820509
REMARK minimizedRMSD -1
REMARK  0 active torsions:
REMARK  status: ('A' for Active; 'I' for Inactive)
ROOT
ATOM      1  C4' PXY d   1       1.159  -2.167  -1.718  0.00  0.00     0.077 C 
ATOM      2  C1' PXY d   1      -1.272   1.050   2.423  0.00  0.00     0.077 C 
ATOM      3  C1  PXY d   1      -0.644   0.209   1.329  0.00  0.00    -0.082 A 
ATOM      4  C2  PXY d   1       0.162  -0.789   1.652  0.00  0.00     0.003 A 
ATOM      5  C3  PXY d   1       0.764  -1.538   0.674  0.00  0.00     0.003 A 
ATOM      6  C4  PXY d   1       0.496  -1.298  -0.647  0.00  0.00    -0.082 A 
ATOM      7  C5  PXY d   1      -0.335  -0.289  -0.984  0.00  0.00     0.003 A 
ATOM      8  C6  PXY d   1      -0.903   0.487   0.022  0.00  0.00     0.003 A 
ENDROOT
TORSDOF 0
ENDMDL
