MODEL 1
REMARK minimizedAffinity -2.7712028
REMARK minimizedRMSD -1
REMARK  0 active torsions:
REMARK  status: ('A' for Active; 'I' for Inactive)
ROOT
ATOM      1  C4' PXY d   1       1.132  -1.556  -1.160  0.00  0.00     0.077 C 
ATOM      2  C1' PXY d   1      -1.033   2.948   1.745  0.00  0.00     0.077 C 
ATOM      3  C1  PXY d   1      -0.465   1.774   0.972  0.00  0.00    -0.082 A 
ATOM      4  C2  PXY d   1      -0.626   0.546   1.437  0.00  0.00     0.003 A 
ATOM      5  C3  PXY d   1      -0.091  -0.525   0.768  0.00  0.00     0.003 A 
ATOM      6  C4  PXY d   1       0.568  -0.341  -0.418  0.00  0.00    -0.082 A 
ATOM      7  C5  PXY d   1       0.727   0.908  -0.905  0.00  0.00     0.003 A 
ATOM      8  C6  PXY d   1       0.212   1.985  -0.188  0.00  0.00     0.003 A 
ENDROOT
TORSDOF 0
ENDMDL
