MODEL 1
REMARK minimizedAffinity -3.06881309
REMARK minimizedRMSD -1
REMARK  0 active torsions:
REMARK  status: ('A' for Active; 'I' for Inactive)
ROOT
ATOM      1  C4' PXY d   1      -0.295   3.720   1.131  0.00  0.00     0.077 C 
ATOM      2  C1' PXY d   1       1.134  -1.604  -0.607  0.00  0.00     0.077 C 
ATOM      3  C1  PXY d   1       0.768  -0.203  -0.159  0.00  0.00    -0.082 A 
ATOM      4  C2  PXY d   1       0.134  -0.028   0.989  0.00  0.00     0.003 A 
ATOM      5  C3  PXY d   1      -0.232   1.229   1.395  0.00  0.00     0.003 A 
ATOM      6  C4  PXY d   1       0.101   2.324   0.643  0.00  0.00    -0.082 A 
ATOM      7  C5  PXY d   1       0.758   2.155  -0.524  0.00  0.00     0.003 A 
ATOM      8  C6  PXY d   1       1.084   0.867  -0.938  0.00  0.00     0.003 A 
ENDROOT
TORSDOF 0
ENDMDL
