MODEL 1
REMARK minimizedAffinity -1.10009825
REMARK minimizedRMSD -1
REMARK  0 active torsions:
REMARK  status: ('A' for Active; 'I' for Inactive)
ROOT
ATOM      1  C4' PXY d   1       0.997  -2.709  -2.086  0.00  0.00     0.077 C 
ATOM      2  C1' PXY d   1      -0.669   1.181   1.853  0.00  0.00     0.077 C 
ATOM      3  C1  PXY d   1      -0.234   0.170   0.810  0.00  0.00    -0.082 A 
ATOM      4  C2  PXY d   1      -0.323  -1.124   1.077  0.00  0.00     0.003 A 
ATOM      5  C3  PXY d   1       0.096  -2.051   0.158  0.00  0.00     0.003 A 
ATOM      6  C4  PXY d   1       0.561  -1.652  -1.067  0.00  0.00    -0.082 A 
ATOM      7  C5  PXY d   1       0.644  -0.335  -1.350  0.00  0.00     0.003 A 
ATOM      8  C6  PXY d   1       0.253   0.591  -0.388  0.00  0.00     0.003 A 
ENDROOT
TORSDOF 0
ENDMDL
