MODEL 1
REMARK minimizedAffinity -2.01905775
REMARK minimizedRMSD -1
REMARK  0 active torsions:
REMARK  status: ('A' for Active; 'I' for Inactive)
ROOT
ATOM      1  C4' PXY d   1       1.177  -2.690  -1.179  0.00  0.00     0.077 C 
ATOM      2  C1' PXY d   1      -1.090   1.439   2.171  0.00  0.00     0.077 C 
ATOM      3  C1  PXY d   1      -0.498   0.363   1.282  0.00  0.00    -0.082 A 
ATOM      4  C2  PXY d   1      -0.429  -0.883   1.721  0.00  0.00     0.003 A 
ATOM      5  C3  PXY d   1       0.132  -1.862   0.942  0.00  0.00     0.003 A 
ATOM      6  C4  PXY d   1       0.579  -1.573  -0.319  0.00  0.00    -0.082 A 
ATOM      7  C5  PXY d   1       0.502  -0.306  -0.778  0.00  0.00     0.003 A 
ATOM      8  C6  PXY d   1      -0.033   0.682   0.044  0.00  0.00     0.003 A 
ENDROOT
TORSDOF 0
ENDMDL
