MODEL 1
REMARK minimizedAffinity -2.49142027
REMARK minimizedRMSD -1
REMARK  0 active torsions:
REMARK  status: ('A' for Active; 'I' for Inactive)
ROOT
ATOM      1  C4' PXY d   1       1.003  -2.129  -1.262  0.00  0.00     0.077 C 
ATOM      2  C1' PXY d   1      -1.388   2.021   1.975  0.00  0.00     0.077 C 
ATOM      3  C1  PXY d   1      -0.763   0.940   1.116  0.00  0.00    -0.082 A 
ATOM      4  C2  PXY d   1      -0.761  -0.313   1.539  0.00  0.00     0.003 A 
ATOM      5  C3  PXY d   1      -0.172  -1.298   0.789  0.00  0.00     0.003 A 
ATOM      6  C4  PXY d   1       0.374  -1.006  -0.431  0.00  0.00    -0.082 A 
ATOM      7  C5  PXY d   1       0.368   0.268  -0.876  0.00  0.00     0.003 A 
ATOM      8  C6  PXY d   1      -0.199   1.260  -0.081  0.00  0.00     0.003 A 
ENDROOT
TORSDOF 0
ENDMDL
