MODEL 1
REMARK minimizedAffinity -2.25769329
REMARK minimizedRMSD -1
REMARK  0 active torsions:
REMARK  status: ('A' for Active; 'I' for Inactive)
ROOT
ATOM      1  C4' PXY d   1       0.393   3.431  -1.005  0.00  0.00     0.077 C 
ATOM      2  C1' PXY d   1      -1.214  -0.637   2.775  0.00  0.00     0.077 C 
ATOM      3  C1  PXY d   1      -0.784   0.421   1.778  0.00  0.00    -0.082 A 
ATOM      4  C2  PXY d   1      -0.936   1.701   2.077  0.00  0.00     0.003 A 
ATOM      5  C3  PXY d   1      -0.583   2.671   1.174  0.00  0.00     0.003 A 
ATOM      6  C4  PXY d   1      -0.018   2.328  -0.025  0.00  0.00    -0.082 A 
ATOM      7  C5  PXY d   1       0.150   1.025  -0.333  0.00  0.00     0.003 A 
ATOM      8  C6  PXY d   1      -0.253   0.055   0.580  0.00  0.00     0.003 A 
ENDROOT
TORSDOF 0
ENDMDL
