MODEL 1
REMARK minimizedAffinity -4.22149324
REMARK minimizedRMSD -1
REMARK  0 active torsions:
REMARK  status: ('A' for Active; 'I' for Inactive)
ROOT
ATOM      1  C4' PXY d   1       0.550  -1.908  -0.615  0.00  0.00     0.077 C 
ATOM      2  C1' PXY d   1      -0.656   3.400   1.329  0.00  0.00     0.077 C 
ATOM      3  C1  PXY d   1      -0.339   2.004   0.832  0.00  0.00    -0.082 A 
ATOM      4  C2  PXY d   1       0.162   1.840  -0.382  0.00  0.00     0.003 A 
ATOM      5  C3  PXY d   1       0.425   0.582  -0.860  0.00  0.00     0.003 A 
ATOM      6  C4  PXY d   1       0.223  -0.516  -0.067  0.00  0.00    -0.082 A 
ATOM      7  C5  PXY d   1      -0.278  -0.356   1.176  0.00  0.00     0.003 A 
ATOM      8  C6  PXY d   1      -0.577   0.926   1.627  0.00  0.00     0.003 A 
ENDROOT
TORSDOF 0
ENDMDL
