MODEL 1
REMARK minimizedAffinity -3.62765026
REMARK minimizedRMSD -1
REMARK  0 active torsions:
REMARK  status: ('A' for Active; 'I' for Inactive)
ROOT
ATOM      1  C4' PXY d   1       0.208   3.742  -0.392  0.00  0.00     0.077 C 
ATOM      2  C1' PXY d   1      -0.742  -1.552   1.726  0.00  0.00     0.077 C 
ATOM      3  C1  PXY d   1      -0.482  -0.168   1.165  0.00  0.00    -0.082 A 
ATOM      4  C2  PXY d   1      -0.998   0.890   1.769  0.00  0.00     0.003 A 
ATOM      5  C3  PXY d   1      -0.799   2.146   1.257  0.00  0.00     0.003 A 
ATOM      6  C4  PXY d   1      -0.021   2.326   0.145  0.00  0.00    -0.082 A 
ATOM      7  C5  PXY d   1       0.518   1.252  -0.471  0.00  0.00     0.003 A 
ATOM      8  C6  PXY d   1       0.271  -0.018   0.041  0.00  0.00     0.003 A 
ENDROOT
TORSDOF 0
ENDMDL
