MODEL 1
REMARK minimizedAffinity -3.45962238
REMARK minimizedRMSD -1
REMARK  0 active torsions:
REMARK  status: ('A' for Active; 'I' for Inactive)
ROOT
ATOM      1  C4' PXY d   1       0.113   4.486   0.689  0.00  0.00     0.077 C 
ATOM      2  C1' PXY d   1      -0.309  -1.201   1.635  0.00  0.00     0.077 C 
ATOM      3  C1  PXY d   1      -0.189   0.288   1.378  0.00  0.00    -0.082 A 
ATOM      4  C2  PXY d   1      -0.536   1.146   2.325  0.00  0.00     0.003 A 
ATOM      5  C3  PXY d   1      -0.464   2.496   2.097  0.00  0.00     0.003 A 
ATOM      6  C4  PXY d   1       0.017   2.974   0.908  0.00  0.00    -0.082 A 
ATOM      7  C5  PXY d   1       0.383   2.105  -0.059  0.00  0.00     0.003 A 
ATOM      8  C6  PXY d   1       0.264   0.739   0.177  0.00  0.00     0.003 A 
ENDROOT
TORSDOF 0
ENDMDL
