MODEL 1
REMARK minimizedAffinity -2.93002605
REMARK minimizedRMSD -1
REMARK  0 active torsions:
REMARK  status: ('A' for Active; 'I' for Inactive)
ROOT
ATOM      1  C4' PXY d   1      -0.759   3.355   1.546  0.00  0.00     0.077 C 
ATOM      2  C1' PXY d   1       1.110  -1.634  -0.698  0.00  0.00     0.077 C 
ATOM      3  C1  PXY d   1       0.610  -0.332  -0.103  0.00  0.00    -0.082 A 
ATOM      4  C2  PXY d   1       0.890   0.812  -0.706  0.00  0.00     0.003 A 
ATOM      5  C3  PXY d   1       0.473   2.001  -0.165  0.00  0.00     0.003 A 
ATOM      6  C4  PXY d   1      -0.283   2.015   0.976  0.00  0.00    -0.082 A 
ATOM      7  C5  PXY d   1      -0.582   0.851   1.591  0.00  0.00     0.003 A 
ATOM      8  C6  PXY d   1      -0.114  -0.342   1.048  0.00  0.00     0.003 A 
ENDROOT
TORSDOF 0
ENDMDL
