MODEL 1
REMARK minimizedAffinity -4.80711412
REMARK minimizedRMSD -1
REMARK  0 active torsions:
REMARK  status: ('A' for Active; 'I' for Inactive)
ROOT
ATOM      1  C4' PXY d   1      -1.186  -0.231   2.250  0.00  0.00     0.077 C 
ATOM      2  C1' PXY d   1       0.899  -2.597  -2.595  0.00  0.00     0.077 C 
ATOM      3  C1  PXY d   1       0.363  -1.980  -1.318  0.00  0.00    -0.082 A 
ATOM      4  C2  PXY d   1      -0.943  -1.874  -1.141  0.00  0.00     0.003 A 
ATOM      5  C3  PXY d   1      -1.445  -1.289  -0.007  0.00  0.00     0.003 A 
ATOM      6  C4  PXY d   1      -0.600  -0.856   0.981  0.00  0.00    -0.082 A 
ATOM      7  C5  PXY d   1       0.734  -0.971   0.812  0.00  0.00     0.003 A 
ATOM      8  C6  PXY d   1       1.224  -1.529  -0.365  0.00  0.00     0.003 A 
ENDROOT
TORSDOF 0
ENDMDL
