MODEL 1
REMARK minimizedAffinity -3.17642283
REMARK minimizedRMSD -1
REMARK  0 active torsions:
REMARK  status: ('A' for Active; 'I' for Inactive)
ROOT
ATOM      1  C4' PXY d   1       1.241  -2.516  -1.876  0.00  0.00     0.077 C 
ATOM      2  C1' PXY d   1      -0.330   1.287   2.183  0.00  0.00     0.077 C 
ATOM      3  C1  PXY d   1       0.080   0.298   1.110  0.00  0.00    -0.082 A 
ATOM      4  C2  PXY d   1      -0.039  -1.000   1.335  0.00  0.00     0.003 A 
ATOM      5  C3  PXY d   1       0.357  -1.908   0.388  0.00  0.00     0.003 A 
ATOM      6  C4  PXY d   1       0.831  -1.482  -0.825  0.00  0.00    -0.082 A 
ATOM      7  C5  PXY d   1       0.945  -0.159  -1.067  0.00  0.00     0.003 A 
ATOM      8  C6  PXY d   1       0.576   0.746  -0.076  0.00  0.00     0.003 A 
ENDROOT
TORSDOF 0
ENDMDL
