MODEL 1
REMARK minimizedAffinity -2.21093321
REMARK minimizedRMSD -1
REMARK  0 active torsions:
REMARK  status: ('A' for Active; 'I' for Inactive)
ROOT
ATOM      1  C4' PXY d   1      -0.009   0.786   1.318  0.00  0.00     0.077 C 
ATOM      2  C1' PXY d   1       1.024  -3.054  -2.878  0.00  0.00     0.077 C 
ATOM      3  C1  PXY d   1       0.766  -2.046  -1.775  0.00  0.00    -0.082 A 
ATOM      4  C2  PXY d   1      -0.406  -2.034  -1.162  0.00  0.00     0.003 A 
ATOM      5  C3  PXY d   1      -0.668  -1.108  -0.184  0.00  0.00     0.003 A 
ATOM      6  C4  PXY d   1       0.299  -0.220   0.205  0.00  0.00    -0.082 A 
ATOM      7  C5  PXY d   1       1.501  -0.234  -0.409  0.00  0.00     0.003 A 
ATOM      8  C6  PXY d   1       1.732  -1.154  -1.427  0.00  0.00     0.003 A 
ENDROOT
TORSDOF 0
ENDMDL
