MODEL 1
REMARK minimizedAffinity -1.87707126
REMARK minimizedRMSD -1
REMARK  0 active torsions:
REMARK  status: ('A' for Active; 'I' for Inactive)
ROOT
ATOM      1  C4' PXY d   1      -0.589   4.632   0.746  0.00  0.00     0.077 C 
ATOM      2  C1' PXY d   1      -0.059  -1.124   0.677  0.00  0.00     0.077 C 
ATOM      3  C1  PXY d   1      -0.208   0.385   0.703  0.00  0.00    -0.082 A 
ATOM      4  C2  PXY d   1       0.245   1.105  -0.310  0.00  0.00     0.003 A 
ATOM      5  C3  PXY d   1       0.147   2.472  -0.288  0.00  0.00     0.003 A 
ATOM      6  C4  PXY d   1      -0.468   3.106   0.758  0.00  0.00    -0.082 A 
ATOM      7  C5  PXY d   1      -0.943   2.377   1.791  0.00  0.00     0.003 A 
ATOM      8  C6  PXY d   1      -0.796   0.993   1.768  0.00  0.00     0.003 A 
ENDROOT
TORSDOF 0
ENDMDL
