MODEL 1
REMARK minimizedAffinity -3.86075449
REMARK minimizedRMSD -1
REMARK  0 active torsions:
REMARK  status: ('A' for Active; 'I' for Inactive)
ROOT
ATOM      1  C   UNL d   1      -0.686   0.440  -0.344  0.00  0.00     0.172 C 
ATOM      2  N   UNL d   1       0.539  -0.250  -0.015  0.00  0.00    -0.070 N 
ATOM      3  C1  UNL d   1       0.747  -1.600  -0.115  0.00  0.00    -0.004 A 
ATOM      4  C2  UNL d   1       2.039  -1.859   0.291  0.00  0.00    -0.047 A 
ATOM      5  C3  UNL d   1       2.627  -0.622   0.648  0.00  0.00    -0.047 A 
ATOM      6  C4  UNL d   1       1.676   0.357   0.449  0.00  0.00    -0.004 A 
ENDROOT
TORSDOF 0
ENDMDL
