MODEL 1
REMARK minimizedAffinity -3.27961874
REMARK minimizedRMSD -1
REMARK  0 active torsions:
REMARK  status: ('A' for Active; 'I' for Inactive)
ROOT
ATOM      1  C   UNL d   1       2.446  -1.476   1.622  0.00  0.00     0.172 C 
ATOM      2  N   UNL d   1       1.390  -0.808   0.899  0.00  0.00    -0.070 N 
ATOM      3  C1  UNL d   1       0.567  -1.388  -0.029  0.00  0.00    -0.004 A 
ATOM      4  C2  UNL d   1      -0.303  -0.421  -0.485  0.00  0.00    -0.047 A 
ATOM      5  C3  UNL d   1       0.008   0.782   0.192  0.00  0.00    -0.047 A 
ATOM      6  C4  UNL d   1       1.060   0.514   1.043  0.00  0.00    -0.004 A 
ENDROOT
TORSDOF 0
ENDMDL
