MODEL 1
REMARK minimizedAffinity -2.83813715
REMARK minimizedRMSD -1
REMARK  0 active torsions:
REMARK  status: ('A' for Active; 'I' for Inactive)
ROOT
ATOM      1  C   UNL d   1       2.350  -1.428   1.115  0.00  0.00     0.172 C 
ATOM      2  N   UNL d   1       1.339  -0.552   0.571  0.00  0.00    -0.070 N 
ATOM      3  C1  UNL d   1       0.307  -0.934  -0.245  0.00  0.00    -0.004 A 
ATOM      4  C2  UNL d   1      -0.432   0.190  -0.544  0.00  0.00    -0.047 A 
ATOM      5  C3  UNL d   1       0.177   1.285   0.114  0.00  0.00    -0.047 A 
ATOM      6  C4  UNL d   1       1.271   0.797   0.797  0.00  0.00    -0.004 A 
ENDROOT
TORSDOF 0
ENDMDL
