MODEL 1
REMARK minimizedAffinity -4.00525713
REMARK minimizedRMSD -1
REMARK  0 active torsions:
REMARK  status: ('A' for Active; 'I' for Inactive)
ROOT
ATOM      1  C   UNL d   1      -0.152   0.718   0.045  0.00  0.00     0.172 C 
ATOM      2  N   UNL d   1       1.168   0.184   0.288  0.00  0.00    -0.070 N 
ATOM      3  C1  UNL d   1       2.305   0.923   0.481  0.00  0.00    -0.004 A 
ATOM      4  C2  UNL d   1       3.349   0.045   0.681  0.00  0.00    -0.047 A 
ATOM      5  C3  UNL d   1       2.821  -1.265   0.605  0.00  0.00    -0.047 A 
ATOM      6  C4  UNL d   1       1.469  -1.150   0.361  0.00  0.00    -0.004 A 
ENDROOT
TORSDOF 0
ENDMDL
