MODEL 1
REMARK minimizedAffinity -2.70032454
REMARK minimizedRMSD -1
REMARK  0 active torsions:
REMARK  status: ('A' for Active; 'I' for Inactive)
ROOT
ATOM      1  C   UNL d   1       0.103   1.358   0.217  0.00  0.00     0.172 C 
ATOM      2  N   UNL d   1       1.314   0.597   0.415  0.00  0.00    -0.070 N 
ATOM      3  C1  UNL d   1       1.388  -0.762   0.560  0.00  0.00    -0.004 A 
ATOM      4  C2  UNL d   1       2.714  -1.098   0.725  0.00  0.00    -0.047 A 
ATOM      5  C3  UNL d   1       3.464   0.102   0.679  0.00  0.00    -0.047 A 
ATOM      6  C4  UNL d   1       2.572   1.135   0.485  0.00  0.00    -0.004 A 
ENDROOT
TORSDOF 0
ENDMDL
