MODEL 1
REMARK minimizedAffinity -4.1938014
REMARK minimizedRMSD -1
REMARK  0 active torsions:
REMARK  status: ('A' for Active; 'I' for Inactive)
ROOT
ATOM      1  C   UNL d   1      -0.456   0.317  -0.049  0.00  0.00     0.172 C 
ATOM      2  N   UNL d   1       0.935   0.020   0.204  0.00  0.00    -0.070 N 
ATOM      3  C1  UNL d   1       1.463  -1.230   0.393  0.00  0.00    -0.004 A 
ATOM      4  C2  UNL d   1       2.817  -1.088   0.604  0.00  0.00    -0.047 A 
ATOM      5  C3  UNL d   1       3.113   0.294   0.542  0.00  0.00    -0.047 A 
ATOM      6  C4  UNL d   1       1.930   0.957   0.293  0.00  0.00    -0.004 A 
ENDROOT
TORSDOF 0
ENDMDL
