MODEL 1
REMARK minimizedAffinity -3.47763562
REMARK minimizedRMSD -1
REMARK  0 active torsions:
REMARK  status: ('A' for Active; 'I' for Inactive)
ROOT
ATOM      1  C   UNL d   1      -1.312   0.538  -0.022  0.00  0.00     0.172 C 
ATOM      2  N   UNL d   1      -0.079  -0.213   0.010  0.00  0.00    -0.070 N 
ATOM      3  C1  UNL d   1       1.122   0.244   0.483  0.00  0.00    -0.004 A 
ATOM      4  C2  UNL d   1       2.045  -0.769   0.340  0.00  0.00    -0.047 A 
ATOM      5  C3  UNL d   1       1.377  -1.872  -0.241  0.00  0.00    -0.047 A 
ATOM      6  C4  UNL d   1       0.063  -1.501  -0.435  0.00  0.00    -0.004 A 
ENDROOT
TORSDOF 0
ENDMDL
