MODEL 1
REMARK minimizedAffinity -4.20283747
REMARK minimizedRMSD -1
REMARK  0 active torsions:
REMARK  status: ('A' for Active; 'I' for Inactive)
ROOT
ATOM      1  C   UNL d   1      -0.016  -1.356  -1.115  0.00  0.00     0.172 C 
ATOM      2  N   UNL d   1       1.185  -0.844  -0.496  0.00  0.00    -0.070 N 
ATOM      3  C1  UNL d   1       2.326  -1.561  -0.253  0.00  0.00    -0.004 A 
ATOM      4  C2  UNL d   1       3.235  -0.717   0.346  0.00  0.00    -0.047 A 
ATOM      5  C3  UNL d   1       2.620   0.552   0.467  0.00  0.00    -0.047 A 
ATOM      6  C4  UNL d   1       1.351   0.445  -0.063  0.00  0.00    -0.004 A 
ENDROOT
TORSDOF 0
ENDMDL
