MODEL 1
REMARK minimizedAffinity -1.75965142
REMARK minimizedRMSD -1
REMARK  0 active torsions:
REMARK  status: ('A' for Active; 'I' for Inactive)
ROOT
ATOM      1  C   UNL d   1      -1.165   0.749  -0.574  0.00  0.00     0.172 C 
ATOM      2  N   UNL d   1       0.133   0.645   0.051  0.00  0.00    -0.070 N 
ATOM      3  C1  UNL d   1       1.051   1.656   0.157  0.00  0.00    -0.004 A 
ATOM      4  C2  UNL d   1       2.154   1.157   0.816  0.00  0.00    -0.047 A 
ATOM      5  C3  UNL d   1       1.890  -0.200   1.115  0.00  0.00    -0.047 A 
ATOM      6  C4  UNL d   1       0.632  -0.491   0.631  0.00  0.00    -0.004 A 
ENDROOT
TORSDOF 0
ENDMDL
