MODEL 1
REMARK minimizedAffinity -2.40674973
REMARK minimizedRMSD -1
REMARK  0 active torsions:
REMARK  status: ('A' for Active; 'I' for Inactive)
ROOT
ATOM      1  C   UNL d   1      -1.052   0.905  -0.207  0.00  0.00     0.172 C 
ATOM      2  N   UNL d   1       0.026  -0.039  -0.031  0.00  0.00    -0.070 N 
ATOM      3  C1  UNL d   1       1.090   0.113   0.818  0.00  0.00    -0.004 A 
ATOM      4  C2  UNL d   1       1.892  -1.001   0.694  0.00  0.00    -0.047 A 
ATOM      5  C3  UNL d   1       1.289  -1.853  -0.263  0.00  0.00    -0.047 A 
ATOM      6  C4  UNL d   1       0.136  -1.233  -0.695  0.00  0.00    -0.004 A 
ENDROOT
TORSDOF 0
ENDMDL
