MODEL 1
REMARK minimizedAffinity -2.41451359
REMARK minimizedRMSD -1
REMARK  0 active torsions:
REMARK  status: ('A' for Active; 'I' for Inactive)
ROOT
ATOM      1  C   UNL d   1      -0.733   0.173   0.013  0.00  0.00     0.172 C 
ATOM      2  N   UNL d   1       0.599  -0.359   0.181  0.00  0.00    -0.070 N 
ATOM      3  C1  UNL d   1       1.723   0.373   0.456  0.00  0.00    -0.004 A 
ATOM      4  C2  UNL d   1       2.786  -0.501   0.540  0.00  0.00    -0.047 A 
ATOM      5  C3  UNL d   1       2.283  -1.803   0.306  0.00  0.00    -0.047 A 
ATOM      6  C4  UNL d   1       0.927  -1.686   0.087  0.00  0.00    -0.004 A 
ENDROOT
TORSDOF 0
ENDMDL
