MODEL 1
REMARK minimizedAffinity -3.18073702
REMARK minimizedRMSD -1
REMARK  0 active torsions:
REMARK  status: ('A' for Active; 'I' for Inactive)
ROOT
ATOM      1  C   UNL d   1       2.387  -1.855  -0.036  0.00  0.00     0.172 C 
ATOM      2  N   UNL d   1       1.161  -1.092  -0.070  0.00  0.00    -0.070 N 
ATOM      3  C1  UNL d   1      -0.071  -1.577  -0.418  0.00  0.00    -0.004 A 
ATOM      4  C2  UNL d   1      -0.974  -0.540  -0.324  0.00  0.00    -0.047 A 
ATOM      5  C3  UNL d   1      -0.259   0.608   0.093  0.00  0.00    -0.047 A 
ATOM      6  C4  UNL d   1       1.060   0.237   0.243  0.00  0.00    -0.004 A 
ENDROOT
TORSDOF 0
ENDMDL
