MODEL 1
REMARK minimizedAffinity 6.60977554
REMARK minimizedRMSD -1
REMARK  1 active torsions:
REMARK  status: ('A' for Active; 'I' for Inactive)
REMARK    1  A    between atoms: C1_2  and  C2_3 
ROOT
ATOM      1  C2  UNL d   1      -5.288   3.565   2.540  0.00  0.00    -0.073 A 
ATOM      2  C3  UNL d   1      -5.835   4.673   1.883  0.00  0.00    -0.002 A 
ATOM      3  C4  UNL d   1      -5.998   5.883   2.559  0.00  0.00     0.004 A 
ATOM      4  C5  UNL d   1      -5.610   6.000   3.894  0.00  0.00    -0.004 A 
ATOM      5  C6  UNL d   1      -5.050   4.907   4.564  0.00  0.00    -0.075 A 
ATOM      6  C7  UNL d   1      -4.630   5.015   6.000  0.00  0.00     0.076 C 
ATOM      7  C8  UNL d   1      -4.892   3.694   3.879  0.00  0.00     0.001 A 
ENDROOT
BRANCH   1   8
ATOM      8  C1  UNL d   1      -5.104   2.258   1.812  0.00  0.00     0.053 C 
ATOM      9  C   UNL d   1      -4.875   2.462   0.323  0.00  0.00     0.018 C 
ENDBRANCH   1   8
TORSDOF 1
ENDMDL
