MODEL 1
REMARK minimizedAffinity 10.3806429
REMARK minimizedRMSD -1
REMARK  1 active torsions:
REMARK  status: ('A' for Active; 'I' for Inactive)
REMARK    1  A    between atoms: C1_2  and  C2_3 
ROOT
ATOM      1  C2  UNL d   1       3.096   0.740  -0.425  0.00  0.00    -0.073 A 
ATOM      2  C3  UNL d   1       3.684   0.428   0.806  0.00  0.00    -0.002 A 
ATOM      3  C4  UNL d   1       3.434  -0.802   1.415  0.00  0.00     0.004 A 
ATOM      4  C5  UNL d   1       2.601  -1.735   0.797  0.00  0.00    -0.004 A 
ATOM      5  C6  UNL d   1       2.015  -1.447  -0.440  0.00  0.00    -0.075 A 
ATOM      6  C7  UNL d   1       1.115  -2.438  -1.117  0.00  0.00     0.076 C 
ATOM      7  C8  UNL d   1       2.268  -0.208  -1.044  0.00  0.00     0.001 A 
ENDROOT
BRANCH   1   8
ATOM      8  C1  UNL d   1       3.369   2.065  -1.090  0.00  0.00     0.053 C 
ATOM      9  C   UNL d   1       4.409   1.947  -2.192  0.00  0.00     0.018 C 
ENDBRANCH   1   8
TORSDOF 1
ENDMDL
