MODEL 1
REMARK minimizedAffinity 14.2982473
REMARK minimizedRMSD -1
REMARK  1 active torsions:
REMARK  status: ('A' for Active; 'I' for Inactive)
REMARK    1  A    between atoms: C1_2  and  C2_3 
ROOT
ATOM      1  C2  UNL d   1      -4.374   2.746   0.739  0.00  0.00    -0.073 A 
ATOM      2  C3  UNL d   1      -5.434   3.366   0.068  0.00  0.00    -0.002 A 
ATOM      3  C4  UNL d   1      -6.000   2.769  -1.060  0.00  0.00     0.004 A 
ATOM      4  C5  UNL d   1      -5.518   1.546  -1.523  0.00  0.00    -0.004 A 
ATOM      5  C6  UNL d   1      -4.467   0.904  -0.859  0.00  0.00    -0.075 A 
ATOM      6  C7  UNL d   1      -3.935  -0.412  -1.346  0.00  0.00     0.076 C 
ATOM      7  C8  UNL d   1      -3.902   1.511   0.271  0.00  0.00     0.001 A 
ENDROOT
BRANCH   1   8
ATOM      8  C1  UNL d   1      -3.764   3.383   1.961  0.00  0.00     0.053 C 
ATOM      9  C   UNL d   1      -4.822   3.916   2.914  0.00  0.00     0.018 C 
ENDBRANCH   1   8
TORSDOF 1
ENDMDL
