MODEL 1
REMARK minimizedAffinity 8.92961216
REMARK minimizedRMSD -1
REMARK  1 active torsions:
REMARK  status: ('A' for Active; 'I' for Inactive)
REMARK    1  A    between atoms: C1_2  and  C2_3 
ROOT
ATOM      1  C2  UNL d   1      -4.579   0.821  -0.324  0.00  0.00    -0.073 A 
ATOM      2  C3  UNL d   1      -4.118  -0.399  -0.832  0.00  0.00    -0.002 A 
ATOM      3  C4  UNL d   1      -4.273  -0.703  -2.185  0.00  0.00     0.004 A 
ATOM      4  C5  UNL d   1      -4.883   0.211  -3.044  0.00  0.00    -0.004 A 
ATOM      5  C6  UNL d   1      -5.340   1.440  -2.558  0.00  0.00    -0.075 A 
ATOM      6  C7  UNL d   1      -6.000   2.433  -3.469  0.00  0.00     0.076 C 
ATOM      7  C8  UNL d   1      -5.182   1.737  -1.197  0.00  0.00     0.001 A 
ENDROOT
BRANCH   1   8
ATOM      8  C1  UNL d   1      -4.407   1.156   1.135  0.00  0.00     0.053 C 
ATOM      9  C   UNL d   1      -5.183   2.403   1.528  0.00  0.00     0.018 C 
ENDBRANCH   1   8
TORSDOF 1
ENDMDL
