MODEL 1
REMARK minimizedAffinity 10.9007587
REMARK minimizedRMSD -1
REMARK  1 active torsions:
REMARK  status: ('A' for Active; 'I' for Inactive)
REMARK    1  A    between atoms: C1_2  and  C2_3 
ROOT
ATOM      1  C2  UNL d   1       4.284   1.897  -0.661  0.00  0.00    -0.073 A 
ATOM      2  C3  UNL d   1       5.008   2.624  -1.613  0.00  0.00    -0.002 A 
ATOM      3  C4  UNL d   1       5.858   3.656  -1.216  0.00  0.00     0.004 A 
ATOM      4  C5  UNL d   1       5.999   3.968   0.136  0.00  0.00    -0.004 A 
ATOM      5  C6  UNL d   1       5.293   3.246   1.104  0.00  0.00    -0.075 A 
ATOM      6  C7  UNL d   1       5.432   3.571   2.563  0.00  0.00     0.076 C 
ATOM      7  C8  UNL d   1       4.439   2.212   0.697  0.00  0.00     0.001 A 
ENDROOT
BRANCH   1   8
ATOM      8  C1  UNL d   1       3.370   0.777  -1.085  0.00  0.00     0.053 C 
ATOM      9  C   UNL d   1       2.712   0.096   0.105  0.00  0.00     0.018 C 
ENDBRANCH   1   8
TORSDOF 1
ENDMDL
