MODEL 1
REMARK minimizedAffinity 12.1636953
REMARK minimizedRMSD -1
REMARK  1 active torsions:
REMARK  status: ('A' for Active; 'I' for Inactive)
REMARK    1  A    between atoms: C1_2  and  C2_3 
ROOT
ATOM      1  C2  UNL d   1      -3.746  -0.124  -1.914  0.00  0.00    -0.073 A 
ATOM      2  C3  UNL d   1      -4.881   0.167  -2.679  0.00  0.00    -0.002 A 
ATOM      3  C4  UNL d   1      -5.999   0.754  -2.085  0.00  0.00     0.004 A 
ATOM      4  C5  UNL d   1      -5.991   1.063  -0.725  0.00  0.00    -0.004 A 
ATOM      5  C6  UNL d   1      -4.862   0.791   0.053  0.00  0.00    -0.075 A 
ATOM      6  C7  UNL d   1      -4.838   1.114   1.518  0.00  0.00     0.076 C 
ATOM      7  C8  UNL d   1      -3.744   0.198  -0.549  0.00  0.00     0.001 A 
ENDROOT
BRANCH   1   8
ATOM      8  C1  UNL d   1      -2.534  -0.752  -2.552  0.00  0.00     0.053 C 
ATOM      9  C   UNL d   1      -1.368   0.219  -2.640  0.00  0.00     0.018 C 
ENDBRANCH   1   8
TORSDOF 1
ENDMDL
