MODEL 1
REMARK minimizedAffinity 16.9926853
REMARK minimizedRMSD -1
REMARK  1 active torsions:
REMARK  status: ('A' for Active; 'I' for Inactive)
REMARK    1  A    between atoms: C1_2  and  C2_3 
ROOT
ATOM      1  C2  UNL d   1       1.659   0.874   1.843  0.00  0.00    -0.073 A 
ATOM      2  C3  UNL d   1       0.948   0.135   2.796  0.00  0.00    -0.002 A 
ATOM      3  C4  UNL d   1       0.758   0.641   4.082  0.00  0.00     0.004 A 
ATOM      4  C5  UNL d   1       1.270   1.892   4.427  0.00  0.00    -0.004 A 
ATOM      5  C6  UNL d   1       1.973   2.651   3.486  0.00  0.00    -0.075 A 
ATOM      6  C7  UNL d   1       2.531   3.997   3.841  0.00  0.00     0.076 C 
ATOM      7  C8  UNL d   1       2.162   2.134   2.197  0.00  0.00     0.001 A 
ENDROOT
BRANCH   1   8
ATOM      8  C1  UNL d   1       1.861   0.334   0.451  0.00  0.00     0.053 C 
ATOM      9  C   UNL d   1       2.638   1.301  -0.428  0.00  0.00     0.018 C 
ENDBRANCH   1   8
TORSDOF 1
ENDMDL
