MODEL 1
REMARK minimizedAffinity 5.20021915
REMARK minimizedRMSD -1
REMARK  1 active torsions:
REMARK  status: ('A' for Active; 'I' for Inactive)
REMARK    1  A    between atoms: C1_2  and  C2_3 
ROOT
ATOM      1  C2  UNL d   1      -3.897   0.050  -2.121  0.00  0.00    -0.073 A 
ATOM      2  C3  UNL d   1      -2.619   0.347  -2.608  0.00  0.00    -0.002 A 
ATOM      3  C4  UNL d   1      -2.436   0.681  -3.950  0.00  0.00     0.004 A 
ATOM      4  C5  UNL d   1      -3.528   0.729  -4.817  0.00  0.00    -0.004 A 
ATOM      5  C6  UNL d   1      -4.815   0.447  -4.346  0.00  0.00    -0.075 A 
ATOM      6  C7  UNL d   1      -6.000   0.492  -5.265  0.00  0.00     0.076 C 
ATOM      7  C8  UNL d   1      -4.990   0.110  -2.997  0.00  0.00     0.001 A 
ENDROOT
BRANCH   1   8
ATOM      8  C1  UNL d   1      -4.099  -0.305  -0.670  0.00  0.00     0.053 C 
ATOM      9  C   UNL d   1      -4.844   0.785   0.085  0.00  0.00     0.018 C 
ENDBRANCH   1   8
TORSDOF 1
ENDMDL
