MODEL 1
REMARK minimizedAffinity 8.69523907
REMARK minimizedRMSD -1
REMARK  1 active torsions:
REMARK  status: ('A' for Active; 'I' for Inactive)
REMARK    1  A    between atoms: C1_2  and  C2_3 
ROOT
ATOM      1  C2  UNL d   1       0.029  -3.147   4.102  0.00  0.00    -0.073 A 
ATOM      2  C3  UNL d   1       1.261  -3.291   4.750  0.00  0.00    -0.002 A 
ATOM      3  C4  UNL d   1       1.447  -4.301   5.694  0.00  0.00     0.004 A 
ATOM      4  C5  UNL d   1       0.407  -5.181   5.995  0.00  0.00    -0.004 A 
ATOM      5  C6  UNL d   1      -0.828  -5.061   5.349  0.00  0.00    -0.075 A 
ATOM      6  C7  UNL d   1      -1.956  -5.998   5.663  0.00  0.00     0.076 C 
ATOM      7  C8  UNL d   1      -1.008  -4.042   4.404  0.00  0.00     0.001 A 
ENDROOT
BRANCH   1   8
ATOM      8  C1  UNL d   1      -0.175  -2.062   3.076  0.00  0.00     0.053 C 
ATOM      9  C   UNL d   1       0.572  -0.788   3.439  0.00  0.00     0.018 C 
ENDBRANCH   1   8
TORSDOF 1
ENDMDL
