MODEL 1
REMARK minimizedAffinity -6.27863836
REMARK minimizedRMSD -1
REMARK  2 active torsions:
REMARK  status: ('A' for Active; 'I' for Inactive)
REMARK    1  A    between atoms: C2'_3  and  C1'_4 
REMARK    2  A    between atoms: C1'_4  and  C1_5 
ROOT
ATOM      1  C1  I4B d   1      -0.485  -0.422  -1.200  0.00  0.00    -0.075 A 
ATOM      2  C2  I4B d   1      -1.846  -0.312  -1.062  0.00  0.00     0.003 A 
ATOM      3  C3  I4B d   1      -2.679  -0.293  -2.207  0.00  0.00     0.002 A 
ATOM      4  C4  I4B d   1      -2.109  -0.335  -3.463  0.00  0.00    -0.004 A 
ATOM      5  C5  I4B d   1      -0.731  -0.470  -3.600  0.00  0.00     0.002 A 
ATOM      6  C6  I4B d   1       0.086  -0.526  -2.462  0.00  0.00     0.003 A 
ENDROOT
BRANCH   1   7
ATOM      7  C1' I4B d   1       0.368  -0.407   0.029  0.00  0.00     0.060 C 
BRANCH   7   8
ATOM      8  C2' I4B d   1       1.418   0.671  -0.145  0.00  0.00    -0.013 C 
ATOM      9  C4' I4B d   1       0.801   2.045  -0.103  0.00  0.00     0.013 C 
ATOM     10  C3' I4B d   1       2.439   0.503   0.940  0.00  0.00     0.013 C 
ENDBRANCH   7   8
ENDBRANCH   1   7
TORSDOF 2
ENDMDL
