MODEL 1
REMARK minimizedAffinity -1.16561604
REMARK minimizedRMSD -1
REMARK  2 active torsions:
REMARK  status: ('A' for Active; 'I' for Inactive)
REMARK    1  A    between atoms: C2'_3  and  C1'_4 
REMARK    2  A    between atoms: C1'_4  and  C1_5 
ROOT
ATOM      1  C1  I4B d   1       1.067  -0.414   0.577  0.00  0.00    -0.075 A 
ATOM      2  C2  I4B d   1       1.567   0.590   1.369  0.00  0.00     0.003 A 
ATOM      3  C3  I4B d   1       2.966   0.779   1.481  0.00  0.00     0.002 A 
ATOM      4  C4  I4B d   1       3.823  -0.085   0.829  0.00  0.00    -0.004 A 
ATOM      5  C5  I4B d   1       3.314  -1.087   0.009  0.00  0.00     0.002 A 
ATOM      6  C6  I4B d   1       1.927  -1.245  -0.128  0.00  0.00     0.003 A 
ENDROOT
BRANCH   1   7
ATOM      7  C1' I4B d   1      -0.415  -0.605   0.507  0.00  0.00     0.060 C 
BRANCH   7   8
ATOM      8  C2' I4B d   1      -1.023   0.660  -0.064  0.00  0.00    -0.013 C 
ATOM      9  C4' I4B d   1      -0.048   1.806  -0.009  0.00  0.00     0.013 C 
ATOM     10  C3' I4B d   1      -1.445   0.375  -1.474  0.00  0.00     0.013 C 
ENDBRANCH   7   8
ENDBRANCH   1   7
TORSDOF 2
ENDMDL
