MODEL 1
REMARK minimizedAffinity -6.35792303
REMARK minimizedRMSD -1
REMARK  2 active torsions:
REMARK  status: ('A' for Active; 'I' for Inactive)
REMARK    1  A    between atoms: C2'_3  and  C1'_4 
REMARK    2  A    between atoms: C1'_4  and  C1_5 
ROOT
ATOM      1  C1  I4B d   1      -0.443  -0.105   0.201  0.00  0.00    -0.075 A 
ATOM      2  C2  I4B d   1       0.201  -1.219   0.679  0.00  0.00     0.003 A 
ATOM      3  C3  I4B d   1       1.591  -1.178   0.947  0.00  0.00     0.002 A 
ATOM      4  C4  I4B d   1       2.302  -0.026   0.676  0.00  0.00    -0.004 A 
ATOM      5  C5  I4B d   1       1.643   1.109   0.213  0.00  0.00     0.002 A 
ATOM      6  C6  I4B d   1       0.259   1.073  -0.014  0.00  0.00     0.003 A 
ENDROOT
BRANCH   1   7
ATOM      7  C1' I4B d   1      -1.905  -0.193  -0.102  0.00  0.00     0.060 C 
BRANCH   7   8
ATOM      8  C2' I4B d   1      -2.129   0.373  -1.489  0.00  0.00    -0.013 C 
ATOM      9  C4' I4B d   1      -2.430  -0.718  -2.482  0.00  0.00     0.013 C 
ATOM     10  C3' I4B d   1      -3.257   1.359  -1.410  0.00  0.00     0.013 C 
ENDBRANCH   7   8
ENDBRANCH   1   7
TORSDOF 2
ENDMDL
