MODEL 1
REMARK minimizedAffinity -3.58511782
REMARK minimizedRMSD -1
REMARK  2 active torsions:
REMARK  status: ('A' for Active; 'I' for Inactive)
REMARK    1  A    between atoms: C2'_3  and  C1'_4 
REMARK    2  A    between atoms: C1'_4  and  C1_5 
ROOT
ATOM      1  C1  I4B d   1      -0.276   0.086   0.017  0.00  0.00    -0.075 A 
ATOM      2  C2  I4B d   1       0.435  -1.069   0.224  0.00  0.00     0.003 A 
ATOM      3  C3  I4B d   1       1.821  -1.012   0.506  0.00  0.00     0.002 A 
ATOM      4  C4  I4B d   1       2.462   0.210   0.521  0.00  0.00    -0.004 A 
ATOM      5  C5  I4B d   1       1.735   1.382   0.333  0.00  0.00     0.002 A 
ATOM      6  C6  I4B d   1       0.355   1.321   0.091  0.00  0.00     0.003 A 
ENDROOT
BRANCH   1   7
ATOM      7  C1' I4B d   1      -1.732  -0.013  -0.311  0.00  0.00     0.060 C 
BRANCH   7   8
ATOM      8  C2' I4B d   1      -1.898   0.265  -1.792  0.00  0.00    -0.013 C 
ATOM      9  C4' I4B d   1      -2.144  -1.006  -2.560  0.00  0.00     0.013 C 
ATOM     10  C3' I4B d   1      -3.035   1.228  -1.958  0.00  0.00     0.013 C 
ENDBRANCH   7   8
ENDBRANCH   1   7
TORSDOF 2
ENDMDL
