MODEL 1
REMARK minimizedAffinity -4.42477274
REMARK minimizedRMSD -1
REMARK  2 active torsions:
REMARK  status: ('A' for Active; 'I' for Inactive)
REMARK    1  A    between atoms: C2'_3  and  C1'_4 
REMARK    2  A    between atoms: C1'_4  and  C1_5 
ROOT
ATOM      1  C1  I4B d   1      -0.071   0.117  -0.017  0.00  0.00    -0.075 A 
ATOM      2  C2  I4B d   1       0.435   1.391  -0.087  0.00  0.00     0.003 A 
ATOM      3  C3  I4B d   1       1.785   1.642   0.261  0.00  0.00     0.002 A 
ATOM      4  C4  I4B d   1       2.573   0.606   0.718  0.00  0.00    -0.004 A 
ATOM      5  C5  I4B d   1       2.065  -0.689   0.766  0.00  0.00     0.002 A 
ATOM      6  C6  I4B d   1       0.739  -0.938   0.385  0.00  0.00     0.003 A 
ENDROOT
BRANCH   1   7
ATOM      7  C1' I4B d   1      -1.509  -0.107  -0.360  0.00  0.00     0.060 C 
BRANCH   7   8
ATOM      8  C2' I4B d   1      -1.708   0.278  -1.812  0.00  0.00    -0.013 C 
ATOM      9  C4' I4B d   1      -1.440  -0.888  -2.726  0.00  0.00     0.013 C 
ATOM     10  C3' I4B d   1      -3.113   0.778  -1.970  0.00  0.00     0.013 C 
ENDBRANCH   7   8
ENDBRANCH   1   7
TORSDOF 2
ENDMDL
