MODEL 1
REMARK minimizedAffinity 2.33807421
REMARK minimizedRMSD -1
REMARK  1 active torsions:
REMARK  status: ('A' for Active; 'I' for Inactive)
REMARK    1  A    between atoms: C3_4  and  O_7 
ROOT
ATOM      1  C   UNL d   1       5.991  -4.748   3.340  0.00  0.00    -0.033 A 
ATOM      2  C1  UNL d   1       5.999  -5.003   4.712  0.00  0.00     0.039 A 
ATOM      3  C2  UNL d   1       5.998  -3.944   5.622  0.00  0.00    -0.080 A 
ATOM      4  C3  UNL d   1       5.986  -2.635   5.146  0.00  0.00     0.150 A 
ATOM      5  C4  UNL d   1       5.974  -2.373   3.780  0.00  0.00    -0.007 A 
ATOM      6  C5  UNL d   1       5.977  -3.433   2.873  0.00  0.00     0.039 A 
ENDROOT
BRANCH   4   7
ATOM      7  O   UNL d   1       5.989  -1.568   5.995  0.00  0.00    -0.526 OA
ATOM      8  H5  UNL d   1       6.027  -1.901   6.907  0.00  0.00     0.418 HD
ENDBRANCH   4   7
TORSDOF 1
ENDMDL
