MODEL 1
REMARK minimizedAffinity 0.439634115
REMARK minimizedRMSD -1
REMARK  1 active torsions:
REMARK  status: ('A' for Active; 'I' for Inactive)
REMARK    1  A    between atoms: C3_4  and  O_7 
ROOT
ATOM      1  C   UNL d   1      -0.224  -1.522  -1.464  0.00  0.00    -0.033 A 
ATOM      2  C1  UNL d   1      -1.257  -2.449  -1.311  0.00  0.00     0.039 A 
ATOM      3  C2  UNL d   1      -2.129  -2.354  -0.225  0.00  0.00    -0.080 A 
ATOM      4  C3  UNL d   1      -1.959  -1.327   0.700  0.00  0.00     0.150 A 
ATOM      5  C4  UNL d   1      -0.934  -0.398   0.552  0.00  0.00    -0.007 A 
ATOM      6  C5  UNL d   1      -0.064  -0.495  -0.533  0.00  0.00     0.039 A 
ENDROOT
BRANCH   4   7
ATOM      7  O   UNL d   1      -2.782  -1.196   1.778  0.00  0.00    -0.526 OA
ATOM      8  H5  UNL d   1      -3.424  -1.925   1.766  0.00  0.00     0.418 HD
ENDBRANCH   4   7
TORSDOF 1
ENDMDL
