MODEL 1
REMARK minimizedAffinity 5.72677088
REMARK minimizedRMSD -1
REMARK  1 active torsions:
REMARK  status: ('A' for Active; 'I' for Inactive)
REMARK    1  A    between atoms: C3_4  and  O_7 
ROOT
ATOM      1  C   UNL d   1      -4.147   1.361   1.761  0.00  0.00    -0.033 A 
ATOM      2  C1  UNL d   1      -4.717   1.262   3.032  0.00  0.00     0.039 A 
ATOM      3  C2  UNL d   1      -4.259   0.297   3.931  0.00  0.00    -0.080 A 
ATOM      4  C3  UNL d   1      -3.231  -0.560   3.549  0.00  0.00     0.150 A 
ATOM      5  C4  UNL d   1      -2.656  -0.464   2.286  0.00  0.00    -0.007 A 
ATOM      6  C5  UNL d   1      -3.116   0.499   1.389  0.00  0.00     0.039 A 
ENDROOT
BRANCH   4   7
ATOM      7  O   UNL d   1      -2.753  -1.521   4.390  0.00  0.00    -0.526 OA
ATOM      8  H5  UNL d   1      -3.264  -1.488   5.216  0.00  0.00     0.418 HD
ENDBRANCH   4   7
TORSDOF 1
ENDMDL
