MODEL 1
REMARK minimizedAffinity 0.583477139
REMARK minimizedRMSD -1
REMARK  1 active torsions:
REMARK  status: ('A' for Active; 'I' for Inactive)
REMARK    1  A    between atoms: C3_4  and  O_7 
ROOT
ATOM      1  C   UNL d   1      -4.070   1.282   2.266  0.00  0.00    -0.033 A 
ATOM      2  C1  UNL d   1      -4.690   1.214   3.516  0.00  0.00     0.039 A 
ATOM      3  C2  UNL d   1      -4.296   0.244   4.440  0.00  0.00    -0.080 A 
ATOM      4  C3  UNL d   1      -3.283  -0.649   4.103  0.00  0.00     0.150 A 
ATOM      5  C4  UNL d   1      -2.659  -0.584   2.862  0.00  0.00    -0.007 A 
ATOM      6  C5  UNL d   1      -3.054   0.384   1.940  0.00  0.00     0.039 A 
ENDROOT
BRANCH   4   7
ATOM      7  O   UNL d   1      -2.868  -1.616   4.971  0.00  0.00    -0.526 OA
ATOM      8  H5  UNL d   1      -3.408  -1.558   5.777  0.00  0.00     0.418 HD
ENDBRANCH   4   7
TORSDOF 1
ENDMDL
