MODEL 1
REMARK minimizedAffinity 10.4899607
REMARK minimizedRMSD -1
REMARK  1 active torsions:
REMARK  status: ('A' for Active; 'I' for Inactive)
REMARK    1  A    between atoms: C3_4  and  O_7 
ROOT
ATOM      1  C   UNL d   1      -1.756  -1.699   0.061  0.00  0.00    -0.033 A 
ATOM      2  C1  UNL d   1      -0.873  -0.778   0.629  0.00  0.00     0.039 A 
ATOM      3  C2  UNL d   1       0.255  -0.361  -0.080  0.00  0.00    -0.080 A 
ATOM      4  C3  UNL d   1       0.488  -0.870  -1.355  0.00  0.00     0.150 A 
ATOM      5  C4  UNL d   1      -0.390  -1.784  -1.929  0.00  0.00    -0.007 A 
ATOM      6  C5  UNL d   1      -1.515  -2.200  -1.219  0.00  0.00     0.039 A 
ENDROOT
BRANCH   4   7
ATOM      7  O   UNL d   1       1.578  -0.497  -2.083  0.00  0.00    -0.526 OA
ATOM      8  H5  UNL d   1       2.110   0.117  -1.549  0.00  0.00     0.418 HD
ENDBRANCH   4   7
TORSDOF 1
ENDMDL
