MODEL 1
REMARK minimizedAffinity -1.56770527
REMARK minimizedRMSD -1
REMARK  1 active torsions:
REMARK  status: ('A' for Active; 'I' for Inactive)
REMARK    1  A    between atoms: C3_4  and  O_7 
ROOT
ATOM      1  C   UNL d   1       4.855  -2.999  -1.893  0.00  0.00    -0.033 A 
ATOM      2  C1  UNL d   1       5.976  -3.564  -2.504  0.00  0.00     0.039 A 
ATOM      3  C2  UNL d   1       5.999  -3.752  -3.887  0.00  0.00    -0.080 A 
ATOM      4  C3  UNL d   1       4.897  -3.369  -4.647  0.00  0.00     0.150 A 
ATOM      5  C4  UNL d   1       3.778  -2.802  -4.045  0.00  0.00    -0.007 A 
ATOM      6  C5  UNL d   1       3.757  -2.616  -2.663  0.00  0.00     0.039 A 
ENDROOT
BRANCH   4   7
ATOM      7  O   UNL d   1       4.871  -3.537  -5.999  0.00  0.00    -0.526 OA
ATOM      8  H5  UNL d   1       5.698  -3.967  -6.272  0.00  0.00     0.418 HD
ENDBRANCH   4   7
TORSDOF 1
ENDMDL
