MODEL 1
REMARK minimizedAffinity 4.99708986
REMARK minimizedRMSD -1
REMARK  1 active torsions:
REMARK  status: ('A' for Active; 'I' for Inactive)
REMARK    1  A    between atoms: C3_4  and  O_7 
ROOT
ATOM      1  C   UNL d   1       4.806  -3.005  -1.449  0.00  0.00    -0.033 A 
ATOM      2  C1  UNL d   1       5.989  -3.054  -2.190  0.00  0.00     0.039 A 
ATOM      3  C2  UNL d   1       5.973  -2.757  -3.554  0.00  0.00    -0.080 A 
ATOM      4  C3  UNL d   1       4.770  -2.412  -4.164  0.00  0.00     0.150 A 
ATOM      5  C4  UNL d   1       3.589  -2.358  -3.431  0.00  0.00    -0.007 A 
ATOM      6  C5  UNL d   1       3.607  -2.656  -2.069  0.00  0.00     0.039 A 
ENDROOT
BRANCH   4   7
ATOM      7  O   UNL d   1       4.703  -2.119  -5.494  0.00  0.00    -0.526 OA
ATOM      8  H5  UNL d   1       5.590  -2.226  -5.877  0.00  0.00     0.418 HD
ENDBRANCH   4   7
TORSDOF 1
ENDMDL
