MODEL 1
REMARK minimizedAffinity -0.678108275
REMARK minimizedRMSD -1
REMARK  1 active torsions:
REMARK  status: ('A' for Active; 'I' for Inactive)
REMARK    1  A    between atoms: C3_4  and  O_7 
ROOT
ATOM      1  C   UNL d   1       0.162  -1.171  -0.977  0.00  0.00    -0.033 A 
ATOM      2  C1  UNL d   1      -1.001  -1.942  -0.921  0.00  0.00     0.039 A 
ATOM      3  C2  UNL d   1      -1.963  -1.688   0.058  0.00  0.00    -0.080 A 
ATOM      4  C3  UNL d   1      -1.751  -0.661   0.975  0.00  0.00     0.150 A 
ATOM      5  C4  UNL d   1      -0.596   0.113   0.923  0.00  0.00    -0.007 A 
ATOM      6  C5  UNL d   1       0.364  -0.143  -0.056  0.00  0.00     0.039 A 
ENDROOT
BRANCH   4   7
ATOM      7  O   UNL d   1      -2.659  -0.379   1.952  0.00  0.00    -0.526 OA
ATOM      8  H5  UNL d   1      -3.392  -1.014   1.883  0.00  0.00     0.418 HD
ENDBRANCH   4   7
TORSDOF 1
ENDMDL
