MODEL 1
REMARK minimizedAffinity 6.2086401
REMARK minimizedRMSD -1
REMARK  1 active torsions:
REMARK  status: ('A' for Active; 'I' for Inactive)
REMARK    1  A    between atoms: C3_4  and  O_7 
ROOT
ATOM      1  C   UNL d   1       4.844  -3.035  -1.887  0.00  0.00    -0.033 A 
ATOM      2  C1  UNL d   1       3.708  -2.721  -2.635  0.00  0.00     0.039 A 
ATOM      3  C2  UNL d   1       3.716  -2.881  -4.022  0.00  0.00    -0.080 A 
ATOM      4  C3  UNL d   1       4.865  -3.356  -4.648  0.00  0.00     0.150 A 
ATOM      5  C4  UNL d   1       6.000  -3.674  -3.909  0.00  0.00    -0.007 A 
ATOM      6  C5  UNL d   1       5.990  -3.513  -2.524  0.00  0.00     0.039 A 
ENDROOT
BRANCH   4   7
ATOM      7  O   UNL d   1       4.923  -3.524  -6.000  0.00  0.00    -0.526 OA
ATOM      8  H5  UNL d   1       4.077  -3.237  -6.382  0.00  0.00     0.418 HD
ENDBRANCH   4   7
TORSDOF 1
ENDMDL
