MODEL 1
REMARK minimizedAffinity 0.743341863
REMARK minimizedRMSD -1
REMARK  1 active torsions:
REMARK  status: ('A' for Active; 'I' for Inactive)
REMARK    1  A    between atoms: C3_4  and  O_7 
ROOT
ATOM      1  C   UNL d   1       5.959  -2.330   3.950  0.00  0.00    -0.033 A 
ATOM      2  C1  UNL d   1       5.998  -3.511   3.205  0.00  0.00     0.039 A 
ATOM      3  C2  UNL d   1       5.985  -4.747   3.852  0.00  0.00    -0.080 A 
ATOM      4  C3  UNL d   1       5.931  -4.790   5.243  0.00  0.00     0.150 A 
ATOM      5  C4  UNL d   1       5.888  -3.619   5.991  0.00  0.00    -0.007 A 
ATOM      6  C5  UNL d   1       5.902  -2.384   5.343  0.00  0.00     0.039 A 
ENDROOT
BRANCH   4   7
ATOM      7  O   UNL d   1       5.920  -5.974   5.919  0.00  0.00    -0.526 OA
ATOM      8  H5  UNL d   1       5.983  -6.698   5.274  0.00  0.00     0.418 HD
ENDBRANCH   4   7
TORSDOF 1
ENDMDL
