MODEL 1
REMARK minimizedAffinity 7.17122793
REMARK minimizedRMSD -1
REMARK  1 active torsions:
REMARK  status: ('A' for Active; 'I' for Inactive)
REMARK    1  A    between atoms: C3_4  and  O_7 
ROOT
ATOM      1  C   UNL d   1      -4.177   1.108   2.183  0.00  0.00    -0.033 A 
ATOM      2  C1  UNL d   1      -3.244   0.164   1.751  0.00  0.00     0.039 A 
ATOM      3  C2  UNL d   1      -2.705  -0.752   2.657  0.00  0.00    -0.080 A 
ATOM      4  C3  UNL d   1      -3.109  -0.714   3.989  0.00  0.00     0.150 A 
ATOM      5  C4  UNL d   1      -4.041   0.222   4.425  0.00  0.00    -0.007 A 
ATOM      6  C5  UNL d   1      -4.577   1.136   3.519  0.00  0.00     0.039 A 
ENDROOT
BRANCH   4   7
ATOM      7  O   UNL d   1      -2.607  -1.584   4.911  0.00  0.00    -0.526 OA
ATOM      8  H5  UNL d   1      -1.953  -2.154   4.472  0.00  0.00     0.418 HD
ENDBRANCH   4   7
TORSDOF 1
ENDMDL
