MODEL 1
REMARK minimizedAffinity 6.86410427
REMARK minimizedRMSD -1
REMARK  1 active torsions:
REMARK  status: ('A' for Active; 'I' for Inactive)
REMARK    1  A    between atoms: C3_4  and  O_7 
ROOT
ATOM      1  C   UNL d   1      -1.935  -0.659   0.766  0.00  0.00    -0.033 A 
ATOM      2  C1  UNL d   1      -1.709  -1.884   0.137  0.00  0.00     0.039 A 
ATOM      3  C2  UNL d   1      -0.900  -1.949  -0.999  0.00  0.00    -0.080 A 
ATOM      4  C3  UNL d   1      -0.323  -0.783  -1.495  0.00  0.00     0.150 A 
ATOM      5  C4  UNL d   1      -0.541   0.441  -0.870  0.00  0.00    -0.007 A 
ATOM      6  C5  UNL d   1      -1.349   0.504   0.264  0.00  0.00     0.039 A 
ENDROOT
BRANCH   4   7
ATOM      7  O   UNL d   1       0.470  -0.795  -2.604  0.00  0.00    -0.526 OA
ATOM      8  H5  UNL d   1       0.508  -1.704  -2.945  0.00  0.00     0.418 HD
ENDBRANCH   4   7
TORSDOF 1
ENDMDL
