MODEL 1
REMARK minimizedAffinity 3.60075426
REMARK minimizedRMSD -1
REMARK  1 active torsions:
REMARK  status: ('A' for Active; 'I' for Inactive)
REMARK    1  A    between atoms: C3_4  and  O_7 
ROOT
ATOM      1  C   UNL d   1      -0.603  -1.499  -1.512  0.00  0.00    -0.033 A 
ATOM      2  C1  UNL d   1       0.271  -0.532  -2.012  0.00  0.00     0.039 A 
ATOM      3  C2  UNL d   1       0.691   0.520  -1.195  0.00  0.00    -0.080 A 
ATOM      4  C3  UNL d   1       0.232   0.592   0.117  0.00  0.00     0.150 A 
ATOM      5  C4  UNL d   1      -0.635  -0.371   0.623  0.00  0.00    -0.007 A 
ATOM      6  C5  UNL d   1      -1.055  -1.420  -0.195  0.00  0.00     0.039 A 
ENDROOT
BRANCH   4   7
ATOM      7  O   UNL d   1       0.611   1.602   0.951  0.00  0.00    -0.526 OA
ATOM      8  H5  UNL d   1       1.188   2.208   0.457  0.00  0.00     0.418 HD
ENDBRANCH   4   7
TORSDOF 1
ENDMDL
