MODEL 1
REMARK minimizedAffinity 3.82978535
REMARK minimizedRMSD -1
REMARK  1 active torsions:
REMARK  status: ('A' for Active; 'I' for Inactive)
REMARK    1  A    between atoms: C3_4  and  O_7 
ROOT
ATOM      1  C   UNL d   1      -1.963  -4.783  -5.621  0.00  0.00    -0.033 A 
ATOM      2  C1  UNL d   1      -2.537  -5.270  -4.445  0.00  0.00     0.039 A 
ATOM      3  C2  UNL d   1      -2.676  -4.434  -3.335  0.00  0.00    -0.080 A 
ATOM      4  C3  UNL d   1      -2.238  -3.115  -3.415  0.00  0.00     0.150 A 
ATOM      5  C4  UNL d   1      -1.669  -2.622  -4.584  0.00  0.00    -0.007 A 
ATOM      6  C5  UNL d   1      -1.531  -3.458  -5.691  0.00  0.00     0.039 A 
ENDROOT
BRANCH   4   7
ATOM      7  O   UNL d   1      -2.348  -2.263  -2.356  0.00  0.00    -0.526 OA
ATOM      8  H5  UNL d   1      -2.733  -2.749  -1.608  0.00  0.00     0.418 HD
ENDBRANCH   4   7
TORSDOF 1
ENDMDL
