MODEL 1
REMARK minimizedAffinity 10.6802521
REMARK minimizedRMSD -1
REMARK  0 active torsions:
REMARK  status: ('A' for Active; 'I' for Inactive)
ROOT
ATOM      1  C   UNL d   1       2.781   0.384  -0.204  0.00  0.00     0.020 A 
ATOM      2  C1  UNL d   1       2.126   0.127   1.000  0.00  0.00     0.020 A 
ATOM      3  C2  UNL d   1       1.863   1.172   1.888  0.00  0.00     0.034 A 
ATOM      4  C3  UNL d   1       2.255   2.478   1.574  0.00  0.00     0.017 A 
ATOM      5  C4  UNL d   1       2.912   2.735   0.365  0.00  0.00     0.017 A 
ATOM      6  C5  UNL d   1       3.174   1.685  -0.520  0.00  0.00     0.034 A 
ATOM      7 Cl   UNL d   1       3.426   4.321  -0.092  0.00  0.00    -0.070 Cl
ATOM      8 Cl1  UNL d   1       1.897   3.722   2.719  0.00  0.00    -0.070 Cl
ENDROOT
TORSDOF 0
ENDMDL
