MODEL 1
REMARK minimizedAffinity 11.4416027
REMARK minimizedRMSD -1
REMARK  0 active torsions:
REMARK  status: ('A' for Active; 'I' for Inactive)
ROOT
ATOM      1  C   UNL d   1       6.000   2.615   0.536  0.00  0.00     0.020 A 
ATOM      2  C1  UNL d   1       5.923   1.676  -0.492  0.00  0.00     0.020 A 
ATOM      3  C2  UNL d   1       4.701   1.072  -0.797  0.00  0.00     0.034 A 
ATOM      4  C3  UNL d   1       3.551   1.407  -0.074  0.00  0.00     0.017 A 
ATOM      5  C4  UNL d   1       3.629   2.350   0.958  0.00  0.00     0.017 A 
ATOM      6  C5  UNL d   1       4.855   2.952   1.259  0.00  0.00     0.034 A 
ATOM      7 Cl   UNL d   1       2.252   2.815   1.894  0.00  0.00    -0.070 Cl
ATOM      8 Cl1  UNL d   1       2.073   0.622  -0.505  0.00  0.00    -0.070 Cl
ENDROOT
TORSDOF 0
ENDMDL
