MODEL 1
REMARK minimizedAffinity -2.94283438
REMARK minimizedRMSD -1
REMARK  0 active torsions:
REMARK  status: ('A' for Active; 'I' for Inactive)
ROOT
ATOM      1  C   UNL d   1      -4.791   5.998   5.568  0.00  0.00     0.020 A 
ATOM      2  C1  UNL d   1      -5.952   5.994   4.796  0.00  0.00     0.020 A 
ATOM      3  C2  UNL d   1      -5.863   5.992   3.402  0.00  0.00     0.034 A 
ATOM      4  C3  UNL d   1      -4.611   5.993   2.776  0.00  0.00     0.017 A 
ATOM      5  C4  UNL d   1      -3.447   5.998   3.553  0.00  0.00     0.017 A 
ATOM      6  C5  UNL d   1      -3.541   6.000   4.948  0.00  0.00     0.034 A 
ATOM      7 Cl   UNL d   1      -1.866   6.000   2.853  0.00  0.00    -0.070 Cl
ATOM      8 Cl1  UNL d   1      -4.576   5.990   1.049  0.00  0.00    -0.070 Cl
ENDROOT
TORSDOF 0
ENDMDL
