MODEL 1
REMARK minimizedAffinity 7.93154573
REMARK minimizedRMSD -1
REMARK  0 active torsions:
REMARK  status: ('A' for Active; 'I' for Inactive)
ROOT
ATOM      1  C   UNL d   1       1.521  -2.916   4.045  0.00  0.00     0.020 A 
ATOM      2  C1  UNL d   1       1.598  -3.165   5.415  0.00  0.00     0.020 A 
ATOM      3  C2  UNL d   1       0.764  -4.121   5.998  0.00  0.00     0.034 A 
ATOM      4  C3  UNL d   1      -0.150  -4.831   5.212  0.00  0.00     0.017 A 
ATOM      5  C4  UNL d   1      -0.226  -4.581   3.837  0.00  0.00     0.017 A 
ATOM      6  C5  UNL d   1       0.611  -3.622   3.258  0.00  0.00     0.034 A 
ATOM      7 Cl   UNL d   1      -1.329  -5.417   2.802  0.00  0.00    -0.070 Cl
ATOM      8 Cl1  UNL d   1      -1.151  -5.999   6.000  0.00  0.00    -0.070 Cl
ENDROOT
TORSDOF 0
ENDMDL
