MODEL 1
REMARK minimizedAffinity 6.13452673
REMARK minimizedRMSD -1
REMARK  0 active torsions:
REMARK  status: ('A' for Active; 'I' for Inactive)
ROOT
ATOM      1  C   UNL d   1      -5.999   5.899   3.735  0.00  0.00     0.020 A 
ATOM      2  C1  UNL d   1      -4.816   5.998   4.466  0.00  0.00     0.020 A 
ATOM      3  C2  UNL d   1      -3.585   5.986   3.808  0.00  0.00     0.034 A 
ATOM      4  C3  UNL d   1      -3.533   5.875   2.413  0.00  0.00     0.017 A 
ATOM      5  C4  UNL d   1      -4.721   5.776   1.680  0.00  0.00     0.017 A 
ATOM      6  C5  UNL d   1      -5.951   5.789   2.345  0.00  0.00     0.034 A 
ATOM      7 Cl   UNL d   1      -4.738   5.637  -0.043  0.00  0.00    -0.070 Cl
ATOM      8 Cl1  UNL d   1      -1.976   5.868   1.665  0.00  0.00    -0.070 Cl
ENDROOT
TORSDOF 0
ENDMDL
