MODEL 1
REMARK minimizedAffinity -3.08732438
REMARK minimizedRMSD -1
REMARK  0 active torsions:
REMARK  status: ('A' for Active; 'I' for Inactive)
ROOT
ATOM      1  C   UNL d   1      -5.921   5.992   5.152  0.00  0.00     0.020 A 
ATOM      2  C1  UNL d   1      -4.737   5.991   5.888  0.00  0.00     0.020 A 
ATOM      3  C2  UNL d   1      -3.506   5.993   5.229  0.00  0.00     0.034 A 
ATOM      4  C3  UNL d   1      -3.456   5.995   3.830  0.00  0.00     0.017 A 
ATOM      5  C4  UNL d   1      -4.646   5.996   3.093  0.00  0.00     0.017 A 
ATOM      6  C5  UNL d   1      -5.876   5.994   3.758  0.00  0.00     0.034 A 
ATOM      7 Cl   UNL d   1      -4.665   5.999   1.364  0.00  0.00    -0.070 Cl
ATOM      8 Cl1  UNL d   1      -1.899   5.998   3.081  0.00  0.00    -0.070 Cl
ENDROOT
TORSDOF 0
ENDMDL
