MODEL 1
REMARK minimizedAffinity 2.10094714
REMARK minimizedRMSD -1
REMARK  0 active torsions:
REMARK  status: ('A' for Active; 'I' for Inactive)
ROOT
ATOM      1  C   UNL d   1      -3.915   5.915   0.608  0.00  0.00     0.020 A 
ATOM      2  C1  UNL d   1      -5.307   5.913   0.695  0.00  0.00     0.020 A 
ATOM      3  C2  UNL d   1      -5.928   5.937   1.946  0.00  0.00     0.034 A 
ATOM      4  C3  UNL d   1      -5.157   5.963   3.114  0.00  0.00     0.017 A 
ATOM      5  C4  UNL d   1      -3.761   5.965   3.025  0.00  0.00     0.017 A 
ATOM      6  C5  UNL d   1      -3.144   5.941   1.770  0.00  0.00     0.034 A 
ATOM      7 Cl   UNL d   1      -2.743   5.997   4.422  0.00  0.00    -0.070 Cl
ATOM      8 Cl1  UNL d   1      -5.992   5.992   4.627  0.00  0.00    -0.070 Cl
ENDROOT
TORSDOF 0
ENDMDL
