MODEL 1
REMARK minimizedAffinity -1.68195701
REMARK minimizedRMSD -1
REMARK  0 active torsions:
REMARK  status: ('A' for Active; 'I' for Inactive)
ROOT
ATOM      1  C   UNL d   1      -5.997   5.817   4.737  0.00  0.00     0.020 A 
ATOM      2  C1  UNL d   1      -4.798   5.943   5.437  0.00  0.00     0.020 A 
ATOM      3  C2  UNL d   1      -3.587   5.997   4.743  0.00  0.00     0.034 A 
ATOM      4  C3  UNL d   1      -3.573   5.926   3.345  0.00  0.00     0.017 A 
ATOM      5  C4  UNL d   1      -4.778   5.800   2.644  0.00  0.00     0.017 A 
ATOM      6  C5  UNL d   1      -5.987   5.746   3.344  0.00  0.00     0.034 A 
ATOM      7 Cl   UNL d   1      -4.841   5.706   0.919  0.00  0.00    -0.070 Cl
ATOM      8 Cl1  UNL d   1      -2.040   6.000   2.552  0.00  0.00    -0.070 Cl
ENDROOT
TORSDOF 0
ENDMDL
