MODEL 1
REMARK minimizedAffinity -3.85467124
REMARK minimizedRMSD -1
REMARK  0 active torsions:
REMARK  status: ('A' for Active; 'I' for Inactive)
ROOT
ATOM      1  C   UNL d   1      -0.009  -0.016  -1.096  0.00  0.00     0.172 C 
ATOM      2  N   UNL d   1      -0.054  -0.223   0.333  0.00  0.00    -0.070 N 
ATOM      3  C1  UNL d   1      -1.125  -0.706   1.036  0.00  0.00    -0.004 A 
ATOM      4  C2  UNL d   1      -0.769  -0.754   2.367  0.00  0.00    -0.047 A 
ATOM      5  C3  UNL d   1       0.561  -0.283   2.466  0.00  0.00    -0.047 A 
ATOM      6  C4  UNL d   1       0.980   0.039   1.192  0.00  0.00    -0.004 A 
ENDROOT
TORSDOF 0
ENDMDL
