MODEL 1
REMARK minimizedAffinity -1.69680452
REMARK minimizedRMSD -1
REMARK  0 active torsions:
REMARK  status: ('A' for Active; 'I' for Inactive)
ROOT
ATOM      1  C   UNL d   1       0.097   0.326   2.876  0.00  0.00     0.172 C 
ATOM      2  N   UNL d   1      -0.135   0.507   1.463  0.00  0.00    -0.070 N 
ATOM      3  C1  UNL d   1       0.832   0.699   0.513  0.00  0.00    -0.004 A 
ATOM      4  C2  UNL d   1       0.205   0.828  -0.708  0.00  0.00    -0.047 A 
ATOM      5  C3  UNL d   1      -1.187   0.712  -0.483  0.00  0.00    -0.047 A 
ATOM      6  C4  UNL d   1      -1.370   0.513   0.869  0.00  0.00    -0.004 A 
ENDROOT
TORSDOF 0
ENDMDL
