MODEL 1
REMARK minimizedAffinity -3.58731127
REMARK minimizedRMSD -1
REMARK  0 active torsions:
REMARK  status: ('A' for Active; 'I' for Inactive)
ROOT
ATOM      1  C   UNL d   1       0.797  -0.719  -0.503  0.00  0.00     0.172 C 
ATOM      2  N   UNL d   1       0.450  -0.539   0.887  0.00  0.00    -0.070 N 
ATOM      3  C1  UNL d   1       0.616   0.613   1.608  0.00  0.00    -0.004 A 
ATOM      4  C2  UNL d   1       0.165   0.378   2.889  0.00  0.00    -0.047 A 
ATOM      5  C3  UNL d   1      -0.289  -0.962   2.939  0.00  0.00    -0.047 A 
ATOM      6  C4  UNL d   1      -0.101  -1.506   1.686  0.00  0.00    -0.004 A 
ENDROOT
TORSDOF 0
ENDMDL
