MODEL 1
REMARK minimizedAffinity -2.53494191
REMARK minimizedRMSD -1
REMARK  0 active torsions:
REMARK  status: ('A' for Active; 'I' for Inactive)
ROOT
ATOM      1  C   UNL d   1       0.010  -0.688   3.074  0.00  0.00     0.172 C 
ATOM      2  N   UNL d   1       0.060  -0.405   1.659  0.00  0.00    -0.070 N 
ATOM      3  C1  UNL d   1      -0.979  -0.549   0.778  0.00  0.00    -0.004 A 
ATOM      4  C2  UNL d   1      -0.530  -0.177  -0.470  0.00  0.00    -0.047 A 
ATOM      5  C3  UNL d   1       0.827   0.202  -0.336  0.00  0.00    -0.047 A 
ATOM      6  C4  UNL d   1       1.166   0.052   0.992  0.00  0.00    -0.004 A 
ENDROOT
TORSDOF 0
ENDMDL
