MODEL 1
REMARK minimizedAffinity -3.71068454
REMARK minimizedRMSD -1
REMARK  0 active torsions:
REMARK  status: ('A' for Active; 'I' for Inactive)
ROOT
ATOM      1  C   UNL d   1       0.337  -0.070  -1.012  0.00  0.00     0.172 C 
ATOM      2  N   UNL d   1       0.123  -0.142   0.414  0.00  0.00    -0.070 N 
ATOM      3  C1  UNL d   1      -1.055   0.124   1.059  0.00  0.00    -0.004 A 
ATOM      4  C2  UNL d   1      -0.848  -0.058   2.409  0.00  0.00    -0.047 A 
ATOM      5  C3  UNL d   1       0.502  -0.446   2.582  0.00  0.00    -0.047 A 
ATOM      6  C4  UNL d   1       1.080  -0.490   1.331  0.00  0.00    -0.004 A 
ENDROOT
TORSDOF 0
ENDMDL
