MODEL 1
REMARK minimizedAffinity -2.85127497
REMARK minimizedRMSD -1
REMARK  0 active torsions:
REMARK  status: ('A' for Active; 'I' for Inactive)
ROOT
ATOM      1  C   UNL d   1      -0.057  -0.392   0.054  0.00  0.00     0.172 C 
ATOM      2  N   UNL d   1      -1.107  -0.276   1.039  0.00  0.00    -0.070 N 
ATOM      3  C1  UNL d   1      -2.428  -0.031   0.773  0.00  0.00    -0.004 A 
ATOM      4  C2  UNL d   1      -3.101   0.006   1.975  0.00  0.00    -0.047 A 
ATOM      5  C3  UNL d   1      -2.151  -0.223   2.999  0.00  0.00    -0.047 A 
ATOM      6  C4  UNL d   1      -0.925  -0.394   2.392  0.00  0.00    -0.004 A 
ENDROOT
TORSDOF 0
ENDMDL
