MODEL 1
REMARK minimizedAffinity -2.22744417
REMARK minimizedRMSD -1
REMARK  0 active torsions:
REMARK  status: ('A' for Active; 'I' for Inactive)
ROOT
ATOM      1  C   UNL d   1      -0.087   0.663  -1.682  0.00  0.00     0.172 C 
ATOM      2  N   UNL d   1      -0.065   0.302  -0.284  0.00  0.00    -0.070 N 
ATOM      3  C1  UNL d   1      -0.960  -0.523   0.342  0.00  0.00    -0.004 A 
ATOM      4  C2  UNL d   1      -0.595  -0.615   1.667  0.00  0.00    -0.047 A 
ATOM      5  C3  UNL d   1       0.560   0.183   1.844  0.00  0.00    -0.047 A 
ATOM      6  C4  UNL d   1       0.867   0.740   0.620  0.00  0.00    -0.004 A 
ENDROOT
TORSDOF 0
ENDMDL
