MODEL 1
REMARK minimizedAffinity -2.12031102
REMARK minimizedRMSD -1
REMARK  0 active torsions:
REMARK  status: ('A' for Active; 'I' for Inactive)
ROOT
ATOM      1  C   UNL d   1       0.335  -0.033  -0.849  0.00  0.00     0.172 C 
ATOM      2  N   UNL d   1       0.032  -0.178   0.556  0.00  0.00    -0.070 N 
ATOM      3  C1  UNL d   1       0.740   0.381   1.587  0.00  0.00    -0.004 A 
ATOM      4  C2  UNL d   1       0.133   0.008   2.766  0.00  0.00    -0.047 A 
ATOM      5  C3  UNL d   1      -0.978  -0.803   2.433  0.00  0.00    -0.047 A 
ATOM      6  C4  UNL d   1      -1.017  -0.902   1.058  0.00  0.00    -0.004 A 
ENDROOT
TORSDOF 0
ENDMDL
