MODEL 1
REMARK minimizedAffinity -3.09919715
REMARK minimizedRMSD -1
REMARK  0 active torsions:
REMARK  status: ('A' for Active; 'I' for Inactive)
ROOT
ATOM      1  C   UNL d   1       0.356  -0.072  -1.269  0.00  0.00     0.172 C 
ATOM      2  N   UNL d   1       0.250  -0.161   0.169  0.00  0.00    -0.070 N 
ATOM      3  C1  UNL d   1       1.298  -0.149   1.049  0.00  0.00    -0.004 A 
ATOM      4  C2  UNL d   1       0.782  -0.254   2.323  0.00  0.00    -0.047 A 
ATOM      5  C3  UNL d   1      -0.626  -0.332   2.203  0.00  0.00    -0.047 A 
ATOM      6  C4  UNL d   1      -0.928  -0.273   0.859  0.00  0.00    -0.004 A 
ENDROOT
TORSDOF 0
ENDMDL
