MODEL 1
REMARK minimizedAffinity -2.48106503
REMARK minimizedRMSD -1
REMARK  0 active torsions:
REMARK  status: ('A' for Active; 'I' for Inactive)
ROOT
ATOM      1  C   UNL d   1      -1.506  -0.719   1.012  0.00  0.00     0.172 C 
ATOM      2  N   UNL d   1      -0.375  -0.066   0.396  0.00  0.00    -0.070 N 
ATOM      3  C1  UNL d   1      -0.291   0.320  -0.915  0.00  0.00    -0.004 A 
ATOM      4  C2  UNL d   1       0.942   0.904  -1.105  0.00  0.00    -0.047 A 
ATOM      5  C3  UNL d   1       1.625   0.866   0.134  0.00  0.00    -0.047 A 
ATOM      6  C4  UNL d   1       0.787   0.260   1.046  0.00  0.00    -0.004 A 
ENDROOT
TORSDOF 0
ENDMDL
