MODEL 1
REMARK minimizedAffinity -4.01957226
REMARK minimizedRMSD -1
REMARK  0 active torsions:
REMARK  status: ('A' for Active; 'I' for Inactive)
ROOT
ATOM      1  C   UNL d   1       1.105   0.422   0.670  0.00  0.00     0.172 C 
ATOM      2  N   UNL d   1      -0.076   0.055   1.415  0.00  0.00    -0.070 N 
ATOM      3  C1  UNL d   1      -0.138  -0.138   2.769  0.00  0.00    -0.004 A 
ATOM      4  C2  UNL d   1      -1.436  -0.475   3.088  0.00  0.00    -0.047 A 
ATOM      5  C3  UNL d   1      -2.179  -0.487   1.884  0.00  0.00    -0.047 A 
ATOM      6  C4  UNL d   1      -1.312  -0.155   0.864  0.00  0.00    -0.004 A 
ENDROOT
TORSDOF 0
ENDMDL
