MODEL 1
REMARK minimizedAffinity -2.98912334
REMARK minimizedRMSD -1
REMARK  0 active torsions:
REMARK  status: ('A' for Active; 'I' for Inactive)
ROOT
ATOM      1  C   UNL d   1      -2.217  -0.058   0.053  0.00  0.00     0.172 C 
ATOM      2  N   UNL d   1      -1.061  -0.205   0.907  0.00  0.00    -0.070 N 
ATOM      3  C1  UNL d   1       0.219   0.162   0.587  0.00  0.00    -0.004 A 
ATOM      4  C2  UNL d   1       1.026  -0.141   1.663  0.00  0.00    -0.047 A 
ATOM      5  C3  UNL d   1       0.202  -0.711   2.663  0.00  0.00    -0.047 A 
ATOM      6  C4  UNL d   1      -1.084  -0.738   2.168  0.00  0.00    -0.004 A 
ENDROOT
TORSDOF 0
ENDMDL
