MODEL 1
REMARK minimizedAffinity -2.93027854
REMARK minimizedRMSD -1
REMARK  0 active torsions:
REMARK  status: ('A' for Active; 'I' for Inactive)
ROOT
ATOM      1  C   UNL d   1      -0.793   0.018  -0.664  0.00  0.00     0.172 C 
ATOM      2  N   UNL d   1      -0.667  -0.264   0.747  0.00  0.00    -0.070 N 
ATOM      3  C1  UNL d   1      -1.650  -0.780   1.548  0.00  0.00    -0.004 A 
ATOM      4  C2  UNL d   1      -1.137  -0.901   2.821  0.00  0.00    -0.047 A 
ATOM      5  C3  UNL d   1       0.201  -0.441   2.784  0.00  0.00    -0.047 A 
ATOM      6  C4  UNL d   1       0.466  -0.053   1.487  0.00  0.00    -0.004 A 
ENDROOT
TORSDOF 0
ENDMDL
