MODEL 1
REMARK minimizedAffinity -2.41598678
REMARK minimizedRMSD -1
REMARK  0 active torsions:
REMARK  status: ('A' for Active; 'I' for Inactive)
ROOT
ATOM      1  C   UNL d   1       0.282   0.205  -0.405  0.00  0.00     0.172 C 
ATOM      2  N   UNL d   1      -0.246   0.012   0.925  0.00  0.00    -0.070 N 
ATOM      3  C1  UNL d   1      -1.452  -0.563   1.229  0.00  0.00    -0.004 A 
ATOM      4  C2  UNL d   1      -1.585  -0.561   2.601  0.00  0.00    -0.047 A 
ATOM      5  C3  UNL d   1      -0.421   0.036   3.139  0.00  0.00    -0.047 A 
ATOM      6  C4  UNL d   1       0.391   0.381   2.080  0.00  0.00    -0.004 A 
ENDROOT
TORSDOF 0
ENDMDL
