MODEL 1
REMARK minimizedAffinity -3.05927777
REMARK minimizedRMSD -1
REMARK  0 active torsions:
REMARK  status: ('A' for Active; 'I' for Inactive)
ROOT
ATOM      1  C   UNL d   1      -0.314  -0.685   2.645  0.00  0.00     0.078 C 
ATOM      2  C1  UNL d   1      -0.355  -0.106   1.263  0.00  0.00    -0.077 A 
ATOM      3  C2  UNL d   1      -0.856  -0.846   0.185  0.00  0.00    -0.001 A 
ATOM      4  C3  UNL d   1      -0.878  -0.298  -1.099  0.00  0.00     0.003 A 
ATOM      5  C4  UNL d   1      -0.401   0.993  -1.316  0.00  0.00    -0.005 A 
ATOM      6  C5  UNL d   1       0.101   1.737  -0.250  0.00  0.00     0.003 A 
ATOM      7  C6  UNL d   1       0.124   1.190   1.034  0.00  0.00    -0.001 A 
ENDROOT
TORSDOF 0
ENDMDL
