MODEL 1
REMARK minimizedAffinity -5.19540739
REMARK minimizedRMSD -1
REMARK  0 active torsions:
REMARK  status: ('A' for Active; 'I' for Inactive)
ROOT
ATOM      1  C   UNL d   1       0.064   0.477  -0.619  0.00  0.00     0.078 C 
ATOM      2  C1  UNL d   1       0.897  -0.307   0.351  0.00  0.00    -0.077 A 
ATOM      3  C2  UNL d   1       1.947  -1.119  -0.094  0.00  0.00    -0.001 A 
ATOM      4  C3  UNL d   1       2.708  -1.851   0.819  0.00  0.00     0.003 A 
ATOM      5  C4  UNL d   1       2.426  -1.780   2.181  0.00  0.00    -0.005 A 
ATOM      6  C5  UNL d   1       1.381  -0.976   2.633  0.00  0.00     0.003 A 
ATOM      7  C6  UNL d   1       0.619  -0.243   1.722  0.00  0.00    -0.001 A 
ENDROOT
TORSDOF 0
ENDMDL
