MODEL 1
REMARK minimizedAffinity -3.80533934
REMARK minimizedRMSD -1
REMARK  0 active torsions:
REMARK  status: ('A' for Active; 'I' for Inactive)
ROOT
ATOM      1  C   UNL d   1      -0.033   0.594  -0.786  0.00  0.00     0.078 C 
ATOM      2  C1  UNL d   1      -0.402   1.809  -1.584  0.00  0.00    -0.077 A 
ATOM      3  C2  UNL d   1       0.580   2.691  -2.051  0.00  0.00    -0.001 A 
ATOM      4  C3  UNL d   1       0.220   3.823  -2.785  0.00  0.00     0.003 A 
ATOM      5  C4  UNL d   1      -1.121   4.084  -3.057  0.00  0.00    -0.005 A 
ATOM      6  C5  UNL d   1      -2.105   3.213  -2.595  0.00  0.00     0.003 A 
ATOM      7  C6  UNL d   1      -1.748   2.080  -1.861  0.00  0.00    -0.001 A 
ENDROOT
TORSDOF 0
ENDMDL
