MODEL 1
REMARK minimizedAffinity -3.52391696
REMARK minimizedRMSD -1
REMARK  0 active torsions:
REMARK  status: ('A' for Active; 'I' for Inactive)
ROOT
ATOM      1  C   UNL d   1       2.870  -2.018   0.789  0.00  0.00     0.078 C 
ATOM      2  C1  UNL d   1       1.695  -1.175   1.186  0.00  0.00    -0.077 A 
ATOM      3  C2  UNL d   1       1.503  -0.786   2.517  0.00  0.00    -0.001 A 
ATOM      4  C3  UNL d   1       0.399  -0.010   2.874  0.00  0.00     0.003 A 
ATOM      5  C4  UNL d   1      -0.523   0.383   1.905  0.00  0.00    -0.005 A 
ATOM      6  C5  UNL d   1      -0.341  -0.002   0.578  0.00  0.00     0.003 A 
ATOM      7  C6  UNL d   1       0.762  -0.778   0.220  0.00  0.00    -0.001 A 
ENDROOT
TORSDOF 0
ENDMDL
