MODEL 1
REMARK minimizedAffinity -6.22575712
REMARK minimizedRMSD -1
REMARK  0 active torsions:
REMARK  status: ('A' for Active; 'I' for Inactive)
ROOT
ATOM      1  C   UNL d   1       0.320   0.243  -0.864  0.00  0.00     0.078 C 
ATOM      2  C1  UNL d   1       0.936  -0.439   0.321  0.00  0.00    -0.077 A 
ATOM      3  C2  UNL d   1       2.105  -1.198   0.190  0.00  0.00    -0.001 A 
ATOM      4  C3  UNL d   1       2.662  -1.835   1.300  0.00  0.00     0.003 A 
ATOM      5  C4  UNL d   1       2.057  -1.720   2.549  0.00  0.00    -0.005 A 
ATOM      6  C5  UNL d   1       0.892  -0.968   2.690  0.00  0.00     0.003 A 
ATOM      7  C6  UNL d   1       0.333  -0.331   1.581  0.00  0.00    -0.001 A 
ENDROOT
TORSDOF 0
ENDMDL
