MODEL 1
REMARK minimizedAffinity 5.34056425
REMARK minimizedRMSD -1
REMARK  1 active torsions:
REMARK  status: ('A' for Active; 'I' for Inactive)
REMARK    1  A    between atoms: C1_2  and  C2_3 
ROOT
ATOM      1  C2  UNL d   1      -0.624  -1.104  -5.254  0.00  0.00    -0.077 A 
ATOM      2  C3  UNL d   1      -1.847  -0.418  -5.259  0.00  0.00     0.002 A 
ATOM      3  C4  UNL d   1      -3.022  -1.072  -5.633  0.00  0.00     0.002 A 
ATOM      4  C5  UNL d   1      -2.987  -2.416  -6.000  0.00  0.00    -0.004 A 
ATOM      5  C6  UNL d   1      -1.776  -3.106  -6.000  0.00  0.00     0.002 A 
ATOM      6  C7  UNL d   1      -0.600  -2.453  -5.628  0.00  0.00     0.002 A 
ENDROOT
BRANCH   1   7
ATOM      7  C1  UNL d   1       0.637  -0.413  -4.804  0.00  0.00     0.055 C 
ATOM      8  C   UNL d   1       0.974  -0.762  -3.361  0.00  0.00     0.019 C 
ENDBRANCH   1   7
TORSDOF 1
ENDMDL
