MODEL 1
REMARK minimizedAffinity 1.28965855
REMARK minimizedRMSD -1
REMARK  1 active torsions:
REMARK  status: ('A' for Active; 'I' for Inactive)
REMARK    1  A    between atoms: C1_2  and  C2_3 
ROOT
ATOM      1  C2  UNL d   1      -4.645   0.604   3.713  0.00  0.00    -0.077 A 
ATOM      2  C3  UNL d   1      -3.950  -0.344   2.948  0.00  0.00     0.002 A 
ATOM      3  C4  UNL d   1      -3.490  -0.021   1.670  0.00  0.00     0.002 A 
ATOM      4  C5  UNL d   1      -3.716   1.251   1.148  0.00  0.00    -0.004 A 
ATOM      5  C6  UNL d   1      -4.408   2.200   1.899  0.00  0.00     0.002 A 
ATOM      6  C7  UNL d   1      -4.869   1.878   3.176  0.00  0.00     0.002 A 
ENDROOT
BRANCH   1   7
ATOM      7  C1  UNL d   1      -5.099   0.273   5.111  0.00  0.00     0.055 C 
ATOM      8  C   UNL d   1      -4.457  -1.013   5.611  0.00  0.00     0.019 C 
ENDBRANCH   1   7
TORSDOF 1
ENDMDL
