MODEL 1
REMARK minimizedAffinity 6.74288797
REMARK minimizedRMSD -1
REMARK  1 active torsions:
REMARK  status: ('A' for Active; 'I' for Inactive)
REMARK    1  A    between atoms: C1_2  and  C2_3 
ROOT
ATOM      1  C2  UNL d   1      -5.249   3.787   5.275  0.00  0.00    -0.077 A 
ATOM      2  C3  UNL d   1      -5.136   3.794   3.878  0.00  0.00     0.002 A 
ATOM      3  C4  UNL d   1      -4.587   4.896   3.219  0.00  0.00     0.002 A 
ATOM      4  C5  UNL d   1      -4.144   5.996   3.949  0.00  0.00    -0.004 A 
ATOM      5  C6  UNL d   1      -4.254   6.000   5.339  0.00  0.00     0.002 A 
ATOM      6  C7  UNL d   1      -4.803   4.900   5.999  0.00  0.00     0.002 A 
ENDROOT
BRANCH   1   7
ATOM      7  C1  UNL d   1      -5.795   2.579   5.991  0.00  0.00     0.055 C 
ATOM      8  C   UNL d   1      -5.439   1.294   5.258  0.00  0.00     0.019 C 
ENDBRANCH   1   7
TORSDOF 1
ENDMDL
