MODEL 1
REMARK minimizedAffinity 4.74897766
REMARK minimizedRMSD -1
REMARK  1 active torsions:
REMARK  status: ('A' for Active; 'I' for Inactive)
REMARK    1  A    between atoms: C1_2  and  C2_3 
ROOT
ATOM      1  C2  UNL d   1      -0.937  -1.860  -5.250  0.00  0.00    -0.077 A 
ATOM      2  C3  UNL d   1      -1.654  -3.004  -5.629  0.00  0.00     0.002 A 
ATOM      3  C4  UNL d   1      -2.996  -2.906  -6.000  0.00  0.00     0.002 A 
ATOM      4  C5  UNL d   1      -3.632  -1.667  -6.000  0.00  0.00    -0.004 A 
ATOM      5  C6  UNL d   1      -2.929  -0.523  -5.623  0.00  0.00     0.002 A 
ATOM      6  C7  UNL d   1      -1.588  -0.619  -5.250  0.00  0.00     0.002 A 
ENDROOT
BRANCH   1   7
ATOM      7  C1  UNL d   1       0.524  -1.956  -4.897  0.00  0.00     0.055 C 
ATOM      8  C   UNL d   1       0.873  -1.043  -3.731  0.00  0.00     0.019 C 
ENDBRANCH   1   7
TORSDOF 1
ENDMDL
