MODEL 1
REMARK minimizedAffinity 1.31197155
REMARK minimizedRMSD -1
REMARK  1 active torsions:
REMARK  status: ('A' for Active; 'I' for Inactive)
REMARK    1  A    between atoms: C1_2  and  C2_3 
ROOT
ATOM      1  C2  UNL d   1       5.475  -2.389   3.281  0.00  0.00    -0.077 A 
ATOM      2  C3  UNL d   1       5.479  -1.502   4.366  0.00  0.00     0.002 A 
ATOM      3  C4  UNL d   1       5.738  -1.966   5.657  0.00  0.00     0.002 A 
ATOM      4  C5  UNL d   1       6.000  -3.317   5.874  0.00  0.00    -0.004 A 
ATOM      5  C6  UNL d   1       5.996  -4.208   4.801  0.00  0.00     0.002 A 
ATOM      6  C7  UNL d   1       5.736  -3.746   3.511  0.00  0.00     0.002 A 
ENDROOT
BRANCH   1   7
ATOM      7  C1  UNL d   1       5.245  -1.882   1.881  0.00  0.00     0.055 C 
ATOM      8  C   UNL d   1       4.683  -0.468   1.890  0.00  0.00     0.019 C 
ENDBRANCH   1   7
TORSDOF 1
ENDMDL
