MODEL 1
REMARK minimizedAffinity 4.78979254
REMARK minimizedRMSD -1
REMARK  1 active torsions:
REMARK  status: ('A' for Active; 'I' for Inactive)
REMARK    1  A    between atoms: C1_2  and  C2_3 
ROOT
ATOM      1  C2  UNL d   1      -2.234  -1.994  -5.936  0.00  0.00    -0.077 A 
ATOM      2  C3  UNL d   1      -3.066  -3.121  -5.983  0.00  0.00     0.002 A 
ATOM      3  C4  UNL d   1      -4.455  -2.973  -6.000  0.00  0.00     0.002 A 
ATOM      4  C5  UNL d   1      -5.022  -1.701  -5.974  0.00  0.00    -0.004 A 
ATOM      5  C6  UNL d   1      -4.202  -0.574  -5.924  0.00  0.00     0.002 A 
ATOM      6  C7  UNL d   1      -2.815  -0.720  -5.906  0.00  0.00     0.002 A 
ENDROOT
BRANCH   1   7
ATOM      7  C1  UNL d   1      -0.736  -2.150  -5.967  0.00  0.00     0.055 C 
ATOM      8  C   UNL d   1      -0.069  -1.313  -4.885  0.00  0.00     0.019 C 
ENDBRANCH   1   7
TORSDOF 1
ENDMDL
