MODEL 1
REMARK minimizedAffinity 0.483815849
REMARK minimizedRMSD -1
REMARK  1 active torsions:
REMARK  status: ('A' for Active; 'I' for Inactive)
REMARK    1  A    between atoms: C1_2  and  C2_3 
ROOT
ATOM      1  C2  UNL d   1      -2.982  -2.176  -5.962  0.00  0.00    -0.077 A 
ATOM      2  C3  UNL d   1      -3.642  -0.939  -5.976  0.00  0.00     0.002 A 
ATOM      3  C4  UNL d   1      -5.037  -0.883  -5.994  0.00  0.00     0.002 A 
ATOM      4  C5  UNL d   1      -5.784  -2.060  -5.994  0.00  0.00    -0.004 A 
ATOM      5  C6  UNL d   1      -5.137  -3.295  -5.982  0.00  0.00     0.002 A 
ATOM      6  C7  UNL d   1      -3.742  -3.353  -5.965  0.00  0.00     0.002 A 
ENDROOT
BRANCH   1   7
ATOM      7  C1  UNL d   1      -1.479  -2.239  -5.892  0.00  0.00     0.055 C 
ATOM      8  C   UNL d   1      -0.890  -0.911  -5.438  0.00  0.00     0.019 C 
ENDBRANCH   1   7
TORSDOF 1
ENDMDL
