MODEL 1
REMARK minimizedAffinity 4.28233957
REMARK minimizedRMSD -1
REMARK  1 active torsions:
REMARK  status: ('A' for Active; 'I' for Inactive)
REMARK    1  A    between atoms: C1_2  and  C2_3 
ROOT
ATOM      1  C2  UNL d   1      -3.319  -2.428  -5.938  0.00  0.00    -0.077 A 
ATOM      2  C3  UNL d   1      -3.729  -1.088  -5.889  0.00  0.00     0.002 A 
ATOM      3  C4  UNL d   1      -2.785  -0.060  -5.878  0.00  0.00     0.002 A 
ATOM      4  C5  UNL d   1      -1.425  -0.360  -5.920  0.00  0.00    -0.004 A 
ATOM      5  C6  UNL d   1      -1.007  -1.690  -5.967  0.00  0.00     0.002 A 
ATOM      6  C7  UNL d   1      -1.949  -2.719  -5.977  0.00  0.00     0.002 A 
ENDROOT
BRANCH   1   7
ATOM      7  C1  UNL d   1      -4.337  -3.537  -6.000  0.00  0.00     0.055 C 
ATOM      8  C   UNL d   1      -3.668  -4.903  -5.998  0.00  0.00     0.019 C 
ENDBRANCH   1   7
TORSDOF 1
ENDMDL
