MODEL 1
REMARK minimizedAffinity 1.56899667
REMARK minimizedRMSD -1
REMARK  1 active torsions:
REMARK  status: ('A' for Active; 'I' for Inactive)
REMARK    1  A    between atoms: C1_2  and  C2_3 
ROOT
ATOM      1  C2  UNL d   1      -0.998  -0.500  -4.983  0.00  0.00    -0.077 A 
ATOM      2  C3  UNL d   1      -0.788  -1.828  -5.382  0.00  0.00     0.002 A 
ATOM      3  C4  UNL d   1      -1.845  -2.589  -5.886  0.00  0.00     0.002 A 
ATOM      4  C5  UNL d   1      -3.116  -2.030  -5.999  0.00  0.00    -0.004 A 
ATOM      5  C6  UNL d   1      -3.335  -0.711  -5.603  0.00  0.00     0.002 A 
ATOM      6  C7  UNL d   1      -2.281   0.050  -5.098  0.00  0.00     0.002 A 
ENDROOT
BRANCH   1   7
ATOM      7  C1  UNL d   1       0.151   0.337  -4.485  0.00  0.00     0.055 C 
ATOM      8  C   UNL d   1       1.133  -0.495  -3.674  0.00  0.00     0.019 C 
ENDBRANCH   1   7
TORSDOF 1
ENDMDL
