MODEL 1
REMARK minimizedAffinity 5.4072361
REMARK minimizedRMSD -1
REMARK  1 active torsions:
REMARK  status: ('A' for Active; 'I' for Inactive)
REMARK    1  A    between atoms: C1_2  and  C2_3 
ROOT
ATOM      1  C2  UNL d   1      -3.735  -1.008  -5.920  0.00  0.00    -0.077 A 
ATOM      2  C3  UNL d   1      -5.123  -0.817  -5.903  0.00  0.00     0.002 A 
ATOM      3  C4  UNL d   1      -5.988  -1.913  -5.936  0.00  0.00     0.002 A 
ATOM      4  C5  UNL d   1      -5.473  -3.207  -5.981  0.00  0.00    -0.004 A 
ATOM      5  C6  UNL d   1      -4.093  -3.408  -5.999  0.00  0.00     0.002 A 
ATOM      6  C7  UNL d   1      -3.228  -2.313  -5.968  0.00  0.00     0.002 A 
ENDROOT
BRANCH   1   7
ATOM      7  C1  UNL d   1      -2.801   0.171  -5.835  0.00  0.00     0.055 C 
ATOM      8  C   UNL d   1      -1.348  -0.263  -5.971  0.00  0.00     0.019 C 
ENDBRANCH   1   7
TORSDOF 1
ENDMDL
