MODEL 1
REMARK minimizedAffinity 8.03506756
REMARK minimizedRMSD -1
REMARK  1 active torsions:
REMARK  status: ('A' for Active; 'I' for Inactive)
REMARK    1  A    between atoms: C1_2  and  C2_3 
ROOT
ATOM      1  C2  UNL d   1       2.962   0.360  -4.328  0.00  0.00    -0.077 A 
ATOM      2  C3  UNL d   1       1.656  -0.144  -4.265  0.00  0.00     0.002 A 
ATOM      3  C4  UNL d   1       0.903  -0.010  -3.096  0.00  0.00     0.002 A 
ATOM      4  C5  UNL d   1       1.446   0.631  -1.985  0.00  0.00    -0.004 A 
ATOM      5  C6  UNL d   1       2.745   1.135  -2.038  0.00  0.00     0.002 A 
ATOM      6  C7  UNL d   1       3.499   1.001  -3.204  0.00  0.00     0.002 A 
ENDROOT
BRANCH   1   7
ATOM      7  C1  UNL d   1       3.758   0.261  -5.603  0.00  0.00     0.055 C 
ATOM      8  C   UNL d   1       4.344   1.609  -5.997  0.00  0.00     0.019 C 
ENDBRANCH   1   7
TORSDOF 1
ENDMDL
