MODEL 1
REMARK minimizedAffinity 1.09896147
REMARK minimizedRMSD -1
REMARK  1 active torsions:
REMARK  status: ('A' for Active; 'I' for Inactive)
REMARK    1  A    between atoms: C1_2  and  C2_3 
ROOT
ATOM      1  C2  UNL d   1      -3.951  -1.867  -5.522  0.00  0.00    -0.077 A 
ATOM      2  C3  UNL d   1      -3.228  -2.969  -6.000  0.00  0.00     0.002 A 
ATOM      3  C4  UNL d   1      -1.832  -2.952  -6.000  0.00  0.00     0.002 A 
ATOM      4  C5  UNL d   1      -1.147  -1.838  -5.520  0.00  0.00    -0.004 A 
ATOM      5  C6  UNL d   1      -1.857  -0.736  -5.045  0.00  0.00     0.002 A 
ATOM      6  C7  UNL d   1      -3.252  -0.750  -5.045  0.00  0.00     0.002 A 
ENDROOT
BRANCH   1   7
ATOM      7  C1  UNL d   1      -5.456  -1.903  -5.476  0.00  0.00     0.055 C 
ATOM      8  C   UNL d   1      -5.959  -2.262  -4.085  0.00  0.00     0.019 C 
ENDBRANCH   1   7
TORSDOF 1
ENDMDL
