MODEL 1
REMARK minimizedAffinity -5.01208878
REMARK minimizedRMSD -1
REMARK  1 active torsions:
REMARK  status: ('A' for Active; 'I' for Inactive)
REMARK    1  A    between atoms: C1_2  and  C2_3 
ROOT
ATOM      1  C2  UNL d   1       0.264   0.947  -0.291  0.00  0.00    -0.076 A 
ATOM      2  C3  UNL d   1       0.020   1.663  -1.476  0.00  0.00     0.004 A 
ATOM      3  C4  UNL d   1      -0.525   2.946  -1.440  0.00  0.00    -0.003 A 
ATOM      4  C5  UNL d   1      -0.834   3.533  -0.218  0.00  0.00     0.000 A 
ATOM      5  C6  UNL d   1      -0.582   2.844   0.968  0.00  0.00     0.000 A 
ATOM      6  C7  UNL d   1      -0.018   1.557   0.950  0.00  0.00    -0.073 A 
ATOM      7  C8  UNL d   1       0.226   0.857   2.259  0.00  0.00     0.078 C 
ENDROOT
BRANCH   1   8
ATOM      8  C1  UNL d   1       0.830  -0.451  -0.394  0.00  0.00     0.053 C 
ATOM      9  C   UNL d   1      -0.179  -1.450  -0.939  0.00  0.00     0.018 C 
ENDBRANCH   1   8
TORSDOF 1
ENDMDL
