MODEL 1
REMARK minimizedAffinity -5.32871199
REMARK minimizedRMSD -1
REMARK  1 active torsions:
REMARK  status: ('A' for Active; 'I' for Inactive)
REMARK    1  A    between atoms: C1_2  and  C2_3 
ROOT
ATOM      1  C2  UNL d   1       0.162   0.220   0.018  0.00  0.00    -0.076 A 
ATOM      2  C3  UNL d   1       0.187  -0.073   1.392  0.00  0.00     0.004 A 
ATOM      3  C4  UNL d   1      -0.099   0.908   2.340  0.00  0.00    -0.003 A 
ATOM      4  C5  UNL d   1      -0.416   2.198   1.929  0.00  0.00     0.000 A 
ATOM      5  C6  UNL d   1      -0.462   2.502   0.569  0.00  0.00     0.000 A 
ATOM      6  C7  UNL d   1      -0.193   1.521  -0.400  0.00  0.00    -0.073 A 
ATOM      7  C8  UNL d   1      -0.252   1.905  -1.853  0.00  0.00     0.078 C 
ENDROOT
BRANCH   1   8
ATOM      8  C1  UNL d   1       0.507  -0.877  -0.963  0.00  0.00     0.053 C 
ATOM      9  C   UNL d   1      -0.565  -1.954  -1.034  0.00  0.00     0.018 C 
ENDBRANCH   1   8
TORSDOF 1
ENDMDL
