MODEL 1
REMARK minimizedAffinity -3.6290977
REMARK minimizedRMSD -1
REMARK  1 active torsions:
REMARK  status: ('A' for Active; 'I' for Inactive)
REMARK    1  A    between atoms: C1_2  and  C2_3 
ROOT
ATOM      1  C2  UNL d   1       0.642  -0.084  -0.437  0.00  0.00    -0.076 A 
ATOM      2  C3  UNL d   1       0.270   0.912  -1.357  0.00  0.00     0.004 A 
ATOM      3  C4  UNL d   1      -0.071   2.194  -0.927  0.00  0.00    -0.003 A 
ATOM      4  C5  UNL d   1      -0.045   2.500   0.429  0.00  0.00     0.000 A 
ATOM      5  C6  UNL d   1       0.339   1.529   1.354  0.00  0.00     0.000 A 
ATOM      6  C7  UNL d   1       0.701   0.237   0.936  0.00  0.00    -0.073 A 
ATOM      7  C8  UNL d   1       1.101  -0.773   1.977  0.00  0.00     0.078 C 
ENDROOT
BRANCH   1   8
ATOM      8  C1  UNL d   1       0.975  -1.463  -0.959  0.00  0.00     0.053 C 
ATOM      9  C   UNL d   1      -0.267  -2.288  -1.261  0.00  0.00     0.018 C 
ENDBRANCH   1   8
TORSDOF 1
ENDMDL
