MODEL 1
REMARK minimizedAffinity -0.802222788
REMARK minimizedRMSD -1
REMARK  1 active torsions:
REMARK  status: ('A' for Active; 'I' for Inactive)
REMARK    1  A    between atoms: C1_2  and  C2_3 
ROOT
ATOM      1  C2  UNL d   1      -0.126   1.394  -0.212  0.00  0.00    -0.076 A 
ATOM      2  C3  UNL d   1      -0.409   2.450   0.672  0.00  0.00     0.004 A 
ATOM      3  C4  UNL d   1      -0.474   2.235   2.048  0.00  0.00    -0.003 A 
ATOM      4  C5  UNL d   1      -0.256   0.961   2.561  0.00  0.00     0.000 A 
ATOM      5  C6  UNL d   1       0.044  -0.093   1.700  0.00  0.00     0.000 A 
ATOM      6  C7  UNL d   1       0.129   0.109   0.312  0.00  0.00    -0.073 A 
ATOM      7  C8  UNL d   1       0.450  -1.066  -0.571  0.00  0.00     0.078 C 
ENDROOT
BRANCH   1   8
ATOM      8  C1  UNL d   1      -0.095   1.682  -1.697  0.00  0.00     0.053 C 
ATOM      9  C   UNL d   1      -0.881   2.931  -2.065  0.00  0.00     0.018 C 
ENDBRANCH   1   8
TORSDOF 1
ENDMDL
