MODEL 1
REMARK minimizedAffinity -2.77154398
REMARK minimizedRMSD -1
REMARK  1 active torsions:
REMARK  status: ('A' for Active; 'I' for Inactive)
REMARK    1  A    between atoms: C1_2  and  C2_3 
ROOT
ATOM      1  C2  UNL d   1      -0.381  -1.695  -0.527  0.00  0.00    -0.076 A 
ATOM      2  C3  UNL d   1      -1.177  -1.671   0.632  0.00  0.00     0.004 A 
ATOM      3  C4  UNL d   1      -0.897  -0.792   1.676  0.00  0.00    -0.003 A 
ATOM      4  C5  UNL d   1       0.184   0.078   1.580  0.00  0.00     0.000 A 
ATOM      5  C6  UNL d   1       0.974   0.080   0.430  0.00  0.00     0.000 A 
ATOM      6  C7  UNL d   1       0.695  -0.788  -0.639  0.00  0.00    -0.073 A 
ATOM      7  C8  UNL d   1       1.584  -0.748  -1.852  0.00  0.00     0.078 C 
ENDROOT
BRANCH   1   8
ATOM      8  C1  UNL d   1      -0.716  -2.689  -1.616  0.00  0.00     0.053 C 
ATOM      9  C   UNL d   1      -0.234  -4.094  -1.291  0.00  0.00     0.018 C 
ENDBRANCH   1   8
TORSDOF 1
ENDMDL
