MODEL 1
REMARK minimizedAffinity -4.07745695
REMARK minimizedRMSD -1
REMARK  1 active torsions:
REMARK  status: ('A' for Active; 'I' for Inactive)
REMARK    1  A    between atoms: C1_2  and  C2_3 
ROOT
ATOM      1  C2  UNL d   1       0.103   0.202  -0.171  0.00  0.00    -0.076 A 
ATOM      2  C3  UNL d   1      -0.627   1.195  -0.847  0.00  0.00     0.004 A 
ATOM      3  C4  UNL d   1      -1.251   2.227  -0.148  0.00  0.00    -0.003 A 
ATOM      4  C5  UNL d   1      -1.156   2.282   1.238  0.00  0.00     0.000 A 
ATOM      5  C6  UNL d   1      -0.421   1.315   1.923  0.00  0.00     0.000 A 
ATOM      6  C7  UNL d   1       0.229   0.278   1.232  0.00  0.00    -0.073 A 
ATOM      7  C8  UNL d   1       1.003  -0.742   2.022  0.00  0.00     0.078 C 
ENDROOT
BRANCH   1   8
ATOM      8  C1  UNL d   1       0.736  -0.907  -0.980  0.00  0.00     0.053 C 
ATOM      9  C   UNL d   1      -0.203  -2.085  -1.190  0.00  0.00     0.018 C 
ENDBRANCH   1   8
TORSDOF 1
ENDMDL
