MODEL 1
REMARK minimizedAffinity 7.51303625
REMARK minimizedRMSD -1
REMARK  2 active torsions:
REMARK  status: ('A' for Active; 'I' for Inactive)
REMARK    1  A    between atoms: C1_2  and  C2_3 
REMARK    2  A    between atoms: C2_3  and  C3_4 
ROOT
ATOM      1  C3  UNL d   1       0.598  -1.907   1.938  0.00  0.00    -0.075 A 
ATOM      2  C4  UNL d   1       1.044  -0.893   1.077  0.00  0.00     0.002 A 
ATOM      3  C5  UNL d   1       2.040  -1.152   0.135  0.00  0.00     0.002 A 
ATOM      4  C6  UNL d   1       2.609  -2.420   0.048  0.00  0.00    -0.004 A 
ATOM      5  C7  UNL d   1       2.185  -3.430   0.908  0.00  0.00     0.002 A 
ATOM      6  C8  UNL d   1       1.185  -3.176   1.849  0.00  0.00     0.002 A 
ENDROOT
BRANCH   1   7
ATOM      7  C2  UNL d   1      -0.500  -1.642   2.940  0.00  0.00     0.056 C 
BRANCH   7   8
ATOM      8  C1  UNL d   1      -0.517  -0.209   3.482  0.00  0.00     0.007 C 
ATOM      9  C   UNL d   1      -1.922   0.313   3.753  0.00  0.00     0.009 C 
ENDBRANCH   7   8
ENDBRANCH   1   7
TORSDOF 2
ENDMDL
