MODEL 1
REMARK minimizedAffinity 5.46766996
REMARK minimizedRMSD -1
REMARK  2 active torsions:
REMARK  status: ('A' for Active; 'I' for Inactive)
REMARK    1  A    between atoms: C1_2  and  C2_3 
REMARK    2  A    between atoms: C2_3  and  C3_4 
ROOT
ATOM      1  C3  UNL d   1      -4.052   3.191   5.839  0.00  0.00    -0.075 A 
ATOM      2  C4  UNL d   1      -5.253   3.911   5.919  0.00  0.00     0.002 A 
ATOM      3  C5  UNL d   1      -5.240   5.304   5.990  0.00  0.00     0.002 A 
ATOM      4  C6  UNL d   1      -4.030   5.994   5.993  0.00  0.00    -0.004 A 
ATOM      5  C7  UNL d   1      -2.830   5.288   5.931  0.00  0.00     0.002 A 
ATOM      6  C8  UNL d   1      -2.840   3.894   5.855  0.00  0.00     0.002 A 
ENDROOT
BRANCH   1   7
ATOM      7  C2  UNL d   1      -4.059   1.685   5.732  0.00  0.00     0.056 C 
BRANCH   7   8
ATOM      8  C1  UNL d   1      -3.688   1.156   4.342  0.00  0.00     0.007 C 
ATOM      9  C   UNL d   1      -4.827   1.261   3.337  0.00  0.00     0.009 C 
ENDBRANCH   7   8
ENDBRANCH   1   7
TORSDOF 2
ENDMDL
