MODEL 1
REMARK minimizedAffinity -1.11107159
REMARK minimizedRMSD -1
REMARK  2 active torsions:
REMARK  status: ('A' for Active; 'I' for Inactive)
REMARK    1  A    between atoms: C1_2  and  C2_3 
REMARK    2  A    between atoms: C2_3  and  C3_4 
ROOT
ATOM      1  C3  UNL d   1       3.354  -2.850   2.317  0.00  0.00    -0.075 A 
ATOM      2  C4  UNL d   1       2.324  -1.907   2.447  0.00  0.00     0.002 A 
ATOM      3  C5  UNL d   1       1.222  -1.939   1.591  0.00  0.00     0.002 A 
ATOM      4  C6  UNL d   1       1.141  -2.905   0.591  0.00  0.00    -0.004 A 
ATOM      5  C7  UNL d   1       2.166  -3.837   0.442  0.00  0.00     0.002 A 
ATOM      6  C8  UNL d   1       3.268  -3.810   1.300  0.00  0.00     0.002 A 
ENDROOT
BRANCH   1   7
ATOM      7  C2  UNL d   1       4.534  -2.840   3.259  0.00  0.00     0.056 C 
BRANCH   7   8
ATOM      8  C1  UNL d   1       4.173  -2.497   4.708  0.00  0.00     0.007 C 
ATOM      9  C   UNL d   1       5.311  -1.832   5.470  0.00  0.00     0.009 C 
ENDBRANCH   7   8
ENDBRANCH   1   7
TORSDOF 2
ENDMDL
