MODEL 1
REMARK minimizedAffinity 9.14000416
REMARK minimizedRMSD -1
REMARK  2 active torsions:
REMARK  status: ('A' for Active; 'I' for Inactive)
REMARK    1  A    between atoms: C1_2  and  C2_3 
REMARK    2  A    between atoms: C2_3  and  C3_4 
ROOT
ATOM      1  C3  UNL d   1       2.252  -1.738   2.664  0.00  0.00    -0.075 A 
ATOM      2  C4  UNL d   1       2.924  -2.550   1.739  0.00  0.00     0.002 A 
ATOM      3  C5  UNL d   1       2.439  -2.693   0.438  0.00  0.00     0.002 A 
ATOM      4  C6  UNL d   1       1.273  -2.036   0.050  0.00  0.00    -0.004 A 
ATOM      5  C7  UNL d   1       0.589  -1.240   0.966  0.00  0.00     0.002 A 
ATOM      6  C8  UNL d   1       1.074  -1.092   2.266  0.00  0.00     0.002 A 
ENDROOT
BRANCH   1   7
ATOM      7  C2  UNL d   1       2.788  -1.556   4.064  0.00  0.00     0.056 C 
BRANCH   7   8
ATOM      8  C1  UNL d   1       4.146  -2.225   4.304  0.00  0.00     0.007 C 
ATOM      9  C   UNL d   1       4.178  -3.083   5.562  0.00  0.00     0.009 C 
ENDBRANCH   7   8
ENDBRANCH   1   7
TORSDOF 2
ENDMDL
