MODEL 1
REMARK minimizedAffinity 2.31456876
REMARK minimizedRMSD -1
REMARK  2 active torsions:
REMARK  status: ('A' for Active; 'I' for Inactive)
REMARK    1  A    between atoms: C1_2  and  C2_3 
REMARK    2  A    between atoms: C2_3  and  C3_4 
ROOT
ATOM      1  C3  UNL d   1       3.793  -3.561   2.360  0.00  0.00    -0.075 A 
ATOM      2  C4  UNL d   1       3.021  -2.412   2.584  0.00  0.00     0.002 A 
ATOM      3  C5  UNL d   1       2.231  -1.880   1.564  0.00  0.00     0.002 A 
ATOM      4  C6  UNL d   1       2.211  -2.481   0.308  0.00  0.00    -0.004 A 
ATOM      5  C7  UNL d   1       2.987  -3.614   0.069  0.00  0.00     0.002 A 
ATOM      6  C8  UNL d   1       3.774  -4.151   1.089  0.00  0.00     0.002 A 
ENDROOT
BRANCH   1   7
ATOM      7  C2  UNL d   1       4.627  -4.160   3.467  0.00  0.00     0.056 C 
BRANCH   7   8
ATOM      8  C1  UNL d   1       4.819  -3.234   4.673  0.00  0.00     0.007 C 
ATOM      9  C   UNL d   1       4.473  -3.897   6.000  0.00  0.00     0.009 C 
ENDBRANCH   7   8
ENDBRANCH   1   7
TORSDOF 2
ENDMDL
