MODEL 1
REMARK minimizedAffinity 3.11891246
REMARK minimizedRMSD -1
REMARK  2 active torsions:
REMARK  status: ('A' for Active; 'I' for Inactive)
REMARK    1  A    between atoms: C1_2  and  C2_3 
REMARK    2  A    between atoms: C2_3  and  C3_4 
ROOT
ATOM      1  C3  UNL d   1       3.404   5.787   4.083  0.00  0.00    -0.075 A 
ATOM      2  C4  UNL d   1       3.606   5.887   5.467  0.00  0.00     0.002 A 
ATOM      3  C5  UNL d   1       4.896   5.996   5.988  0.00  0.00     0.002 A 
ATOM      4  C6  UNL d   1       5.998   5.994   5.136  0.00  0.00    -0.004 A 
ATOM      5  C7  UNL d   1       5.809   5.878   3.760  0.00  0.00     0.002 A 
ATOM      6  C8  UNL d   1       4.520   5.774   3.235  0.00  0.00     0.002 A 
ENDROOT
BRANCH   1   7
ATOM      7  C2  UNL d   1       2.009   5.699   3.510  0.00  0.00     0.056 C 
BRANCH   7   8
ATOM      8  C1  UNL d   1       1.181   4.534   4.061  0.00  0.00     0.007 C 
ATOM      9  C   UNL d   1       0.916   3.445   3.029  0.00  0.00     0.009 C 
ENDBRANCH   7   8
ENDBRANCH   1   7
TORSDOF 2
ENDMDL
