MODEL 1
REMARK minimizedAffinity 8.45232391
REMARK minimizedRMSD -1
REMARK  3 active torsions:
REMARK  status: ('A' for Active; 'I' for Inactive)
REMARK    1  A    between atoms: C3'_2  and  C2'_3 
REMARK    2  A    between atoms: C2'_3  and  C1'_4 
REMARK    3  A    between atoms: C1'_4  and  C1_5 
ROOT
ATOM      1  C1  N4B d   1      -0.909  -0.759   0.330  0.00  0.00    -0.075 A 
ATOM      2  C2  N4B d   1      -1.889  -1.488  -0.380  0.00  0.00     0.002 A 
ATOM      3  C3  N4B d   1      -2.810  -0.826  -1.154  0.00  0.00     0.002 A 
ATOM      4  C4  N4B d   1      -2.783   0.559  -1.220  0.00  0.00    -0.004 A 
ATOM      5  C5  N4B d   1      -1.818   1.254  -0.552  0.00  0.00     0.002 A 
ATOM      6  C6  N4B d   1      -0.883   0.602   0.227  0.00  0.00     0.002 A 
ENDROOT
BRANCH   1   7
ATOM      7  C1' N4B d   1       0.065  -1.432   1.257  0.00  0.00     0.057 C 
BRANCH   7   8
ATOM      8  C2' N4B d   1      -0.670  -1.878   2.518  0.00  0.00     0.009 C 
BRANCH   8   9
ATOM      9  C3' N4B d   1       0.251  -2.596   3.489  0.00  0.00     0.004 C 
ATOM     10  C4' N4B d   1      -0.467  -3.102   4.704  0.00  0.00     0.003 C 
ENDBRANCH   8   9
ENDBRANCH   7   8
ENDBRANCH   1   7
TORSDOF 3
ENDMDL
