MODEL 1
REMARK minimizedAffinity 13.5758524
REMARK minimizedRMSD -1
REMARK  3 active torsions:
REMARK  status: ('A' for Active; 'I' for Inactive)
REMARK    1  A    between atoms: C3'_2  and  C2'_3 
REMARK    2  A    between atoms: C2'_3  and  C1'_4 
REMARK    3  A    between atoms: C1'_4  and  C1_5 
ROOT
ATOM      1  C1  N4B d   1      -2.264  -4.026  -3.749  0.00  0.00    -0.075 A 
ATOM      2  C2  N4B d   1      -1.497  -5.209  -3.820  0.00  0.00     0.002 A 
ATOM      3  C3  N4B d   1      -1.551  -5.996  -4.944  0.00  0.00     0.002 A 
ATOM      4  C4  N4B d   1      -2.376  -5.632  -5.998  0.00  0.00    -0.004 A 
ATOM      5  C5  N4B d   1      -3.095  -4.474  -5.932  0.00  0.00     0.002 A 
ATOM      6  C6  N4B d   1      -3.047  -3.672  -4.810  0.00  0.00     0.002 A 
ENDROOT
BRANCH   1   7
ATOM      7  C1' N4B d   1      -2.304  -3.178  -2.507  0.00  0.00     0.057 C 
BRANCH   7   8
ATOM      8  C2' N4B d   1      -3.377  -2.106  -2.667  0.00  0.00     0.009 C 
BRANCH   8   9
ATOM      9  C3' N4B d   1      -3.733  -1.456  -1.341  0.00  0.00     0.004 C 
ATOM     10  C4' N4B d   1      -5.082  -0.802  -1.358  0.00  0.00     0.003 C 
ENDBRANCH   8   9
ENDBRANCH   7   8
ENDBRANCH   1   7
TORSDOF 3
ENDMDL
