MODEL 1
REMARK minimizedAffinity 0.866819859
REMARK minimizedRMSD -1
REMARK  3 active torsions:
REMARK  status: ('A' for Active; 'I' for Inactive)
REMARK    1  A    between atoms: C3'_2  and  C2'_3 
REMARK    2  A    between atoms: C2'_3  and  C1'_4 
REMARK    3  A    between atoms: C1'_4  and  C1_5 
ROOT
ATOM      1  C1  N4B d   1      -2.554  -4.798  -5.121  0.00  0.00    -0.075 A 
ATOM      2  C2  N4B d   1      -1.548  -5.268  -5.994  0.00  0.00     0.002 A 
ATOM      3  C3  N4B d   1      -0.424  -5.871  -5.485  0.00  0.00     0.002 A 
ATOM      4  C4  N4B d   1      -0.276  -5.998  -4.112  0.00  0.00    -0.004 A 
ATOM      5  C5  N4B d   1      -1.264  -5.564  -3.277  0.00  0.00     0.002 A 
ATOM      6  C6  N4B d   1      -2.401  -4.960  -3.775  0.00  0.00     0.002 A 
ENDROOT
BRANCH   1   7
ATOM      7  C1' N4B d   1      -3.760  -4.055  -5.627  0.00  0.00     0.057 C 
BRANCH   7   8
ATOM      8  C2' N4B d   1      -3.706  -2.613  -5.130  0.00  0.00     0.009 C 
BRANCH   8   9
ATOM      9  C3' N4B d   1      -4.563  -2.406  -3.893  0.00  0.00     0.004 C 
ATOM     10  C4' N4B d   1      -5.170  -1.036  -3.830  0.00  0.00     0.003 C 
ENDBRANCH   8   9
ENDBRANCH   7   8
ENDBRANCH   1   7
TORSDOF 3
ENDMDL
