MODEL 1
REMARK minimizedAffinity 0.754453003
REMARK minimizedRMSD -1
REMARK  3 active torsions:
REMARK  status: ('A' for Active; 'I' for Inactive)
REMARK    1  A    between atoms: C3'_2  and  C2'_3 
REMARK    2  A    between atoms: C2'_3  and  C1'_4 
REMARK    3  A    between atoms: C1'_4  and  C1_5 
ROOT
ATOM      1  C1  N4B d   1      -2.077  -5.255  -5.830  0.00  0.00    -0.075 A 
ATOM      2  C2  N4B d   1      -3.315  -5.934  -5.862  0.00  0.00     0.002 A 
ATOM      3  C3  N4B d   1      -4.486  -5.222  -5.951  0.00  0.00     0.002 A 
ATOM      4  C4  N4B d   1      -4.445  -3.837  -5.992  0.00  0.00    -0.004 A 
ATOM      5  C5  N4B d   1      -3.245  -3.189  -5.986  0.00  0.00     0.002 A 
ATOM      6  C6  N4B d   1      -2.059  -3.892  -5.900  0.00  0.00     0.002 A 
ENDROOT
BRANCH   1   7
ATOM      7  C1' N4B d   1      -0.775  -5.985  -5.646  0.00  0.00     0.057 C 
BRANCH   7   8
ATOM      8  C2' N4B d   1      -0.229  -5.692  -4.252  0.00  0.00     0.009 C 
BRANCH   8   9
ATOM      9  C3' N4B d   1      -1.253  -5.980  -3.168  0.00  0.00     0.004 C 
ATOM     10  C4' N4B d   1      -1.457  -4.821  -2.238  0.00  0.00     0.003 C 
ENDBRANCH   8   9
ENDBRANCH   7   8
ENDBRANCH   1   7
TORSDOF 3
ENDMDL
