MODEL 1
REMARK minimizedAffinity 9.35787487
REMARK minimizedRMSD -1
REMARK  3 active torsions:
REMARK  status: ('A' for Active; 'I' for Inactive)
REMARK    1  A    between atoms: C3'_2  and  C2'_3 
REMARK    2  A    between atoms: C2'_3  and  C1'_4 
REMARK    3  A    between atoms: C1'_4  and  C1_5 
ROOT
ATOM      1  C1  N4B d   1       3.642  -0.674   1.345  0.00  0.00    -0.075 A 
ATOM      2  C2  N4B d   1       3.945  -1.885   0.685  0.00  0.00     0.002 A 
ATOM      3  C3  N4B d   1       5.113  -2.549   0.969  0.00  0.00     0.002 A 
ATOM      4  C4  N4B d   1       5.998  -2.014   1.893  0.00  0.00    -0.004 A 
ATOM      5  C5  N4B d   1       5.686  -0.857   2.545  0.00  0.00     0.002 A 
ATOM      6  C6  N4B d   1       4.514  -0.181   2.272  0.00  0.00     0.002 A 
ENDROOT
BRANCH   1   7
ATOM      7  C1' N4B d   1       2.418   0.131   1.005  0.00  0.00     0.057 C 
BRANCH   7   8
ATOM      8  C2' N4B d   1       1.404  -0.770   0.305  0.00  0.00     0.009 C 
BRANCH   8   9
ATOM      9  C3' N4B d   1       0.042  -0.107   0.186  0.00  0.00     0.004 C 
ATOM     10  C4' N4B d   1      -1.054  -1.084  -0.118  0.00  0.00     0.003 C 
ENDBRANCH   8   9
ENDBRANCH   7   8
ENDBRANCH   1   7
TORSDOF 3
ENDMDL
