MODEL 1
REMARK minimizedAffinity 15.1944008
REMARK minimizedRMSD -1
REMARK  3 active torsions:
REMARK  status: ('A' for Active; 'I' for Inactive)
REMARK    1  A    between atoms: C3'_2  and  C2'_3 
REMARK    2  A    between atoms: C2'_3  and  C1'_4 
REMARK    3  A    between atoms: C1'_4  and  C1_5 
ROOT
ATOM      1  C1  N4B d   1       0.039  -2.588   2.390  0.00  0.00    -0.075 A 
ATOM      2  C2  N4B d   1      -0.653  -2.736   3.612  0.00  0.00     0.002 A 
ATOM      3  C3  N4B d   1      -0.042  -3.351   4.677  0.00  0.00     0.002 A 
ATOM      4  C4  N4B d   1       1.248  -3.840   4.539  0.00  0.00    -0.004 A 
ATOM      5  C5  N4B d   1       1.919  -3.670   3.363  0.00  0.00     0.002 A 
ATOM      6  C6  N4B d   1       1.319  -3.051   2.286  0.00  0.00     0.002 A 
ENDROOT
BRANCH   1   7
ATOM      7  C1' N4B d   1      -0.618  -2.000   1.171  0.00  0.00     0.057 C 
BRANCH   7   8
ATOM      8  C2' N4B d   1       0.451  -1.378   0.277  0.00  0.00     0.009 C 
BRANCH   8   9
ATOM      9  C3' N4B d   1       0.184   0.093   0.011  0.00  0.00     0.004 C 
ATOM     10  C4' N4B d   1      -1.278   0.426   0.006  0.00  0.00     0.003 C 
ENDBRANCH   8   9
ENDBRANCH   7   8
ENDBRANCH   1   7
TORSDOF 3
ENDMDL
