MODEL 1
REMARK minimizedAffinity 8.80497456
REMARK minimizedRMSD -1
REMARK  3 active torsions:
REMARK  status: ('A' for Active; 'I' for Inactive)
REMARK    1  A    between atoms: C3'_2  and  C2'_3 
REMARK    2  A    between atoms: C2'_3  and  C1'_4 
REMARK    3  A    between atoms: C1'_4  and  C1_5 
ROOT
ATOM      1  C1  N4B d   1      -1.916   1.568  -0.751  0.00  0.00    -0.075 A 
ATOM      2  C2  N4B d   1      -2.831   0.566  -1.142  0.00  0.00     0.002 A 
ATOM      3  C3  N4B d   1      -2.619  -0.739  -0.770  0.00  0.00     0.002 A 
ATOM      4  C4  N4B d   1      -1.495  -1.067  -0.027  0.00  0.00    -0.004 A 
ATOM      5  C5  N4B d   1      -0.630  -0.089   0.367  0.00  0.00     0.002 A 
ATOM      6  C6  N4B d   1      -0.832   1.227   0.005  0.00  0.00     0.002 A 
ENDROOT
BRANCH   1   7
ATOM      7  C1' N4B d   1      -2.059   2.995  -1.206  0.00  0.00     0.057 C 
BRANCH   7   8
ATOM      8  C2' N4B d   1      -0.960   3.312  -2.216  0.00  0.00     0.009 C 
BRANCH   8   9
ATOM      9  C3' N4B d   1      -1.446   3.166  -3.648  0.00  0.00     0.004 C 
ATOM     10  C4' N4B d   1      -0.327   2.933  -4.619  0.00  0.00     0.003 C 
ENDBRANCH   8   9
ENDBRANCH   7   8
ENDBRANCH   1   7
TORSDOF 3
ENDMDL
