MODEL 1
REMARK minimizedAffinity 4.64138556
REMARK minimizedRMSD -1
REMARK  3 active torsions:
REMARK  status: ('A' for Active; 'I' for Inactive)
REMARK    1  A    between atoms: C3'_2  and  C2'_3 
REMARK    2  A    between atoms: C2'_3  and  C1'_4 
REMARK    3  A    between atoms: C1'_4  and  C1_5 
ROOT
ATOM      1  C1  N4B d   1      -5.745  -0.605  -3.833  0.00  0.00    -0.075 A 
ATOM      2  C2  N4B d   1      -5.439  -1.630  -2.911  0.00  0.00     0.002 A 
ATOM      3  C3  N4B d   1      -5.389  -1.352  -1.568  0.00  0.00     0.002 A 
ATOM      4  C4  N4B d   1      -5.622  -0.058  -1.126  0.00  0.00    -0.004 A 
ATOM      5  C5  N4B d   1      -5.941   0.921  -2.020  0.00  0.00     0.002 A 
ATOM      6  C6  N4B d   1      -5.999   0.655  -3.374  0.00  0.00     0.002 A 
ENDROOT
BRANCH   1   7
ATOM      7  C1' N4B d   1      -5.727  -0.841  -5.319  0.00  0.00     0.057 C 
BRANCH   7   8
ATOM      8  C2' N4B d   1      -4.982   0.303  -5.999  0.00  0.00     0.009 C 
BRANCH   8   9
ATOM      9  C3' N4B d   1      -3.492   0.263  -5.706  0.00  0.00     0.004 C 
ATOM     10  C4' N4B d   1      -3.074   1.275  -4.681  0.00  0.00     0.003 C 
ENDBRANCH   8   9
ENDBRANCH   7   8
ENDBRANCH   1   7
TORSDOF 3
ENDMDL
