MODEL 1
REMARK minimizedAffinity -2.50551939
REMARK minimizedRMSD -1
REMARK  3 active torsions:
REMARK  status: ('A' for Active; 'I' for Inactive)
REMARK    1  A    between atoms: C3'_2  and  C2'_3 
REMARK    2  A    between atoms: C2'_3  and  C1'_4 
REMARK    3  A    between atoms: C1'_4  and  C1_5 
ROOT
ATOM      1  C1  N4B d   1      -3.290  -4.947  -5.939  0.00  0.00    -0.075 A 
ATOM      2  C2  N4B d   1      -4.230  -6.000  -5.962  0.00  0.00     0.002 A 
ATOM      3  C3  N4B d   1      -5.574  -5.720  -5.999  0.00  0.00     0.002 A 
ATOM      4  C4  N4B d   1      -6.000  -4.400  -5.994  0.00  0.00    -0.004 A 
ATOM      5  C5  N4B d   1      -5.085  -3.388  -5.997  0.00  0.00     0.002 A 
ATOM      6  C6  N4B d   1      -3.731  -3.655  -5.964  0.00  0.00     0.002 A 
ENDROOT
BRANCH   1   7
ATOM      7  C1' N4B d   1      -1.813  -5.203  -5.812  0.00  0.00     0.057 C 
BRANCH   7   8
ATOM      8  C2' N4B d   1      -1.391  -4.990  -4.361  0.00  0.00     0.009 C 
BRANCH   8   9
ATOM      9  C3' N4B d   1      -2.582  -4.730  -3.455  0.00  0.00     0.004 C 
ATOM     10  C4' N4B d   1      -2.200  -4.044  -2.177  0.00  0.00     0.003 C 
ENDBRANCH   8   9
ENDBRANCH   7   8
ENDBRANCH   1   7
TORSDOF 3
ENDMDL
