MODEL 1
REMARK minimizedAffinity -0.321007907
REMARK minimizedRMSD -1
REMARK  3 active torsions:
REMARK  status: ('A' for Active; 'I' for Inactive)
REMARK    1  A    between atoms: C3'_2  and  C2'_3 
REMARK    2  A    between atoms: C2'_3  and  C1'_4 
REMARK    3  A    between atoms: C1'_4  and  C1_5 
ROOT
ATOM      1  C1  N4B d   1      -3.128  -4.592  -5.912  0.00  0.00    -0.075 A 
ATOM      2  C2  N4B d   1      -3.981  -3.471  -6.000  0.00  0.00     0.002 A 
ATOM      3  C3  N4B d   1      -5.343  -3.643  -5.999  0.00  0.00     0.002 A 
ATOM      4  C4  N4B d   1      -5.873  -4.923  -5.932  0.00  0.00    -0.004 A 
ATOM      5  C5  N4B d   1      -5.042  -5.999  -5.822  0.00  0.00     0.002 A 
ATOM      6  C6  N4B d   1      -3.671  -5.841  -5.817  0.00  0.00     0.002 A 
ENDROOT
BRANCH   1   7
ATOM      7  C1' N4B d   1      -1.631  -4.460  -5.995  0.00  0.00     0.057 C 
BRANCH   7   8
ATOM      8  C2' N4B d   1      -0.992  -5.814  -5.700  0.00  0.00     0.009 C 
BRANCH   8   9
ATOM      9  C3' N4B d   1      -0.112  -5.769  -4.463  0.00  0.00     0.004 C 
ATOM     10  C4' N4B d   1      -0.817  -5.199  -3.269  0.00  0.00     0.003 C 
ENDBRANCH   8   9
ENDBRANCH   7   8
ENDBRANCH   1   7
TORSDOF 3
ENDMDL
