MODEL 1
REMARK minimizedAffinity -1.89044738
REMARK minimizedRMSD -1
REMARK  3 active torsions:
REMARK  status: ('A' for Active; 'I' for Inactive)
REMARK    1  A    between atoms: C3'_2  and  C2'_3 
REMARK    2  A    between atoms: C2'_3  and  C1'_4 
REMARK    3  A    between atoms: C1'_4  and  C1_5 
ROOT
ATOM      1  C1  N4B d   1      -4.167  -2.275  -4.330  0.00  0.00    -0.075 A 
ATOM      2  C2  N4B d   1      -5.244  -1.425  -4.668  0.00  0.00     0.002 A 
ATOM      3  C3  N4B d   1      -5.973  -0.815  -3.677  0.00  0.00     0.002 A 
ATOM      4  C4  N4B d   1      -5.658  -1.054  -2.347  0.00  0.00    -0.004 A 
ATOM      5  C5  N4B d   1      -4.601  -1.855  -2.030  0.00  0.00     0.002 A 
ATOM      6  C6  N4B d   1      -3.857  -2.472  -3.016  0.00  0.00     0.002 A 
ENDROOT
BRANCH   1   7
ATOM      7  C1' N4B d   1      -3.395  -3.032  -5.376  0.00  0.00     0.057 C 
BRANCH   7   8
ATOM      8  C2' N4B d   1      -2.402  -3.964  -4.689  0.00  0.00     0.009 C 
BRANCH   8   9
ATOM      9  C3' N4B d   1      -1.953  -5.090  -5.603  0.00  0.00     0.004 C 
ATOM     10  C4' N4B d   1      -3.077  -6.000  -6.000  0.00  0.00     0.003 C 
ENDBRANCH   8   9
ENDBRANCH   7   8
ENDBRANCH   1   7
TORSDOF 3
ENDMDL
