MODEL 1
REMARK minimizedAffinity 5.45002031
REMARK minimizedRMSD -1
REMARK  3 active torsions:
REMARK  status: ('A' for Active; 'I' for Inactive)
REMARK    1  A    between atoms: C3'_2  and  C2'_3 
REMARK    2  A    between atoms: C2'_3  and  C1'_4 
REMARK    3  A    between atoms: C1'_4  and  C1_5 
ROOT
ATOM      1  C1  N4B d   1      -2.698  -5.911  -5.131  0.00  0.00    -0.075 A 
ATOM      2  C2  N4B d   1      -1.400  -5.982  -5.683  0.00  0.00     0.002 A 
ATOM      3  C3  N4B d   1      -0.303  -5.999  -4.857  0.00  0.00     0.002 A 
ATOM      4  C4  N4B d   1      -0.477  -5.926  -3.483  0.00  0.00    -0.004 A 
ATOM      5  C5  N4B d   1      -1.735  -5.883  -2.957  0.00  0.00     0.002 A 
ATOM      6  C6  N4B d   1      -2.847  -5.870  -3.775  0.00  0.00     0.002 A 
ENDROOT
BRANCH   1   7
ATOM      7  C1' N4B d   1      -3.924  -5.803  -5.996  0.00  0.00     0.057 C 
BRANCH   7   8
ATOM      8  C2' N4B d   1      -4.417  -4.359  -5.988  0.00  0.00     0.009 C 
BRANCH   8   9
ATOM      9  C3' N4B d   1      -3.351  -3.397  -5.491  0.00  0.00     0.004 C 
ATOM     10  C4' N4B d   1      -3.867  -2.001  -5.313  0.00  0.00     0.003 C 
ENDBRANCH   8   9
ENDBRANCH   7   8
ENDBRANCH   1   7
TORSDOF 3
ENDMDL
