MODEL 1
REMARK minimizedAffinity -3.24110985
REMARK minimizedRMSD -1
REMARK  0 active torsions:
REMARK  status: ('A' for Active; 'I' for Inactive)
ROOT
ATOM      1  C   UNL d   1      -2.034   0.152  -1.543  0.00  0.00     0.020 A 
ATOM      2  C1  UNL d   1      -2.321  -1.125  -1.061  0.00  0.00     0.020 A 
ATOM      3  C2  UNL d   1      -1.445  -1.749  -0.170  0.00  0.00     0.034 A 
ATOM      4  C3  UNL d   1      -0.277  -1.097   0.241  0.00  0.00     0.017 A 
ATOM      5  C4  UNL d   1       0.011   0.184  -0.244  0.00  0.00     0.017 A 
ATOM      6  C5  UNL d   1      -0.870   0.805  -1.135  0.00  0.00     0.034 A 
ATOM      7 Cl   UNL d   1       1.433   1.052   0.218  0.00  0.00    -0.070 Cl
ATOM      8 Cl1  UNL d   1       0.761  -1.928   1.344  0.00  0.00    -0.070 Cl
ENDROOT
TORSDOF 0
ENDMDL
