MODEL 1
REMARK minimizedAffinity -2.0651195
REMARK minimizedRMSD -1
REMARK  0 active torsions:
REMARK  status: ('A' for Active; 'I' for Inactive)
ROOT
ATOM      1  C   UNL d   1       2.595   2.565   0.967  0.00  0.00     0.020 A 
ATOM      2  C1  UNL d   1       2.383   2.004   2.226  0.00  0.00     0.020 A 
ATOM      3  C2  UNL d   1       1.558   0.886   2.362  0.00  0.00     0.034 A 
ATOM      4  C3  UNL d   1       0.940   0.325   1.238  0.00  0.00     0.017 A 
ATOM      5  C4  UNL d   1       1.153   0.889  -0.025  0.00  0.00     0.017 A 
ATOM      6  C5  UNL d   1       1.981   2.009  -0.156  0.00  0.00     0.034 A 
ATOM      7 Cl   UNL d   1       0.425   0.254  -1.458  0.00  0.00    -0.070 Cl
ATOM      8 Cl1  UNL d   1      -0.068  -1.057   1.481  0.00  0.00    -0.070 Cl
ENDROOT
TORSDOF 0
ENDMDL
