MODEL 1
REMARK minimizedAffinity -3.18529463
REMARK minimizedRMSD -1
REMARK  0 active torsions:
REMARK  status: ('A' for Active; 'I' for Inactive)
ROOT
ATOM      1  C   UNL d   1      -2.102  -1.449   0.715  0.00  0.00     0.020 A 
ATOM      2  C1  UNL d   1      -2.984  -1.072  -0.297  0.00  0.00     0.020 A 
ATOM      3  C2  UNL d   1      -2.568  -0.184  -1.291  0.00  0.00     0.034 A 
ATOM      4  C3  UNL d   1      -1.267   0.332  -1.275  0.00  0.00     0.017 A 
ATOM      5  C4  UNL d   1      -0.382  -0.046  -0.259  0.00  0.00     0.017 A 
ATOM      6  C5  UNL d   1      -0.804  -0.937   0.734  0.00  0.00     0.034 A 
ATOM      7 Cl   UNL d   1       1.238   0.547  -0.172  0.00  0.00    -0.070 Cl
ATOM      8 Cl1  UNL d   1      -0.821   1.426  -2.535  0.00  0.00    -0.070 Cl
ENDROOT
TORSDOF 0
ENDMDL
