MODEL 1
REMARK minimizedAffinity -4.9927392
REMARK minimizedRMSD -1
REMARK  0 active torsions:
REMARK  status: ('A' for Active; 'I' for Inactive)
ROOT
ATOM      1  C   UNL d   1      -0.890   0.740  -1.666  0.00  0.00     0.020 A 
ATOM      2  C1  UNL d   1      -2.022   0.077  -1.195  0.00  0.00     0.020 A 
ATOM      3  C2  UNL d   1      -1.911  -0.832  -0.141  0.00  0.00     0.034 A 
ATOM      4  C3  UNL d   1      -0.665  -1.079   0.446  0.00  0.00     0.017 A 
ATOM      5  C4  UNL d   1       0.471  -0.413  -0.027  0.00  0.00     0.017 A 
ATOM      6  C5  UNL d   1       0.354   0.496  -1.083  0.00  0.00     0.034 A 
ATOM      7 Cl   UNL d   1       2.042  -0.667   0.647  0.00  0.00    -0.070 Cl
ATOM      8 Cl1  UNL d   1      -0.601  -2.215   1.747  0.00  0.00    -0.070 Cl
ENDROOT
TORSDOF 0
ENDMDL
