MODEL 1
REMARK minimizedAffinity -3.39734316
REMARK minimizedRMSD -1
REMARK  0 active torsions:
REMARK  status: ('A' for Active; 'I' for Inactive)
ROOT
ATOM      1  C   UNL d   1      -2.907  -1.013  -0.588  0.00  0.00     0.020 A 
ATOM      2  C1  UNL d   1      -2.605  -0.684   0.733  0.00  0.00     0.020 A 
ATOM      3  C2  UNL d   1      -1.413  -0.023   1.034  0.00  0.00     0.034 A 
ATOM      4  C3  UNL d   1      -0.516   0.311   0.012  0.00  0.00     0.017 A 
ATOM      5  C4  UNL d   1      -0.819  -0.020  -1.314  0.00  0.00     0.017 A 
ATOM      6  C5  UNL d   1      -2.015  -0.681  -1.609  0.00  0.00     0.034 A 
ATOM      7 Cl   UNL d   1       0.237   0.359  -2.628  0.00  0.00    -0.070 Cl
ATOM      8 Cl1  UNL d   1       0.940   1.128   0.456  0.00  0.00    -0.070 Cl
ENDROOT
TORSDOF 0
ENDMDL
