MODEL 1
REMARK minimizedAffinity -4.99388599
REMARK minimizedRMSD -1
REMARK  0 active torsions:
REMARK  status: ('A' for Active; 'I' for Inactive)
ROOT
ATOM      1  C   UNL d   1       1.060   0.245  -0.691  0.00  0.00     0.020 A 
ATOM      2  C1  UNL d   1       0.050   0.623  -1.575  0.00  0.00     0.020 A 
ATOM      3  C2  UNL d   1      -1.270   0.239  -1.332  0.00  0.00     0.034 A 
ATOM      4  C3  UNL d   1      -1.585  -0.525  -0.202  0.00  0.00     0.017 A 
ATOM      5  C4  UNL d   1      -0.571  -0.904   0.684  0.00  0.00     0.017 A 
ATOM      6  C5  UNL d   1       0.750  -0.517   0.436  0.00  0.00     0.034 A 
ATOM      7 Cl   UNL d   1      -0.881  -1.847   2.099  0.00  0.00    -0.070 Cl
ATOM      8 Cl1  UNL d   1      -3.239  -0.964   0.036  0.00  0.00    -0.070 Cl
ENDROOT
TORSDOF 0
ENDMDL
