MODEL 1
REMARK minimizedAffinity -4.18978691
REMARK minimizedRMSD -1
REMARK  0 active torsions:
REMARK  status: ('A' for Active; 'I' for Inactive)
ROOT
ATOM      1  C   UNL d   1      -2.312  -0.043  -1.403  0.00  0.00     0.020 A 
ATOM      2  C1  UNL d   1      -3.021  -0.872  -0.535  0.00  0.00     0.020 A 
ATOM      3  C2  UNL d   1      -2.388  -1.412   0.587  0.00  0.00     0.034 A 
ATOM      4  C3  UNL d   1      -1.043  -1.124   0.844  0.00  0.00     0.017 A 
ATOM      5  C4  UNL d   1      -0.332  -0.291  -0.028  0.00  0.00     0.017 A 
ATOM      6  C5  UNL d   1      -0.970   0.247  -1.150  0.00  0.00     0.034 A 
ATOM      7 Cl   UNL d   1       1.330   0.110   0.222  0.00  0.00    -0.070 Cl
ATOM      8 Cl1  UNL d   1      -0.325  -1.825   2.250  0.00  0.00    -0.070 Cl
ENDROOT
TORSDOF 0
ENDMDL
