MODEL 1
REMARK minimizedAffinity -3.30983448
REMARK minimizedRMSD -1
REMARK  0 active torsions:
REMARK  status: ('A' for Active; 'I' for Inactive)
ROOT
ATOM      1  C   UNL d   1      -2.354  -0.347  -1.447  0.00  0.00     0.020 A 
ATOM      2  C1  UNL d   1      -1.436   0.522  -2.036  0.00  0.00     0.020 A 
ATOM      3  C2  UNL d   1      -0.210   0.770  -1.415  0.00  0.00     0.034 A 
ATOM      4  C3  UNL d   1       0.102   0.147  -0.201  0.00  0.00     0.017 A 
ATOM      5  C4  UNL d   1      -0.819  -0.725   0.390  0.00  0.00     0.017 A 
ATOM      6  C5  UNL d   1      -2.046  -0.969  -0.236  0.00  0.00     0.034 A 
ATOM      7 Cl   UNL d   1      -0.505  -1.529   1.887  0.00  0.00    -0.070 Cl
ATOM      8 Cl1  UNL d   1       1.637   0.499   0.510  0.00  0.00    -0.070 Cl
ENDROOT
TORSDOF 0
ENDMDL
