MODEL 1
REMARK minimizedAffinity 1.94199491
REMARK minimizedRMSD -1
REMARK  0 active torsions:
REMARK  status: ('A' for Active; 'I' for Inactive)
ROOT
ATOM      1  C   UNL d   1      -0.460  -0.801   1.940  0.00  0.00     0.020 A 
ATOM      2  C1  UNL d   1       0.604   0.021   1.569  0.00  0.00     0.020 A 
ATOM      3  C2  UNL d   1       0.760   0.401   0.235  0.00  0.00     0.034 A 
ATOM      4  C3  UNL d   1      -0.149  -0.040  -0.734  0.00  0.00     0.017 A 
ATOM      5  C4  UNL d   1      -1.216  -0.865  -0.361  0.00  0.00     0.017 A 
ATOM      6  C5  UNL d   1      -1.368  -1.243   0.977  0.00  0.00     0.034 A 
ATOM      7 Cl   UNL d   1      -2.378  -1.450  -1.499  0.00  0.00    -0.070 Cl
ATOM      8 Cl1  UNL d   1       0.105   0.469  -2.365  0.00  0.00    -0.070 Cl
ENDROOT
TORSDOF 0
ENDMDL
