MODEL 1
REMARK minimizedAffinity -3.10145903
REMARK minimizedRMSD -1
REMARK  0 active torsions:
REMARK  status: ('A' for Active; 'I' for Inactive)
ROOT
ATOM      1  C   UNL d   1       1.394   0.591   0.566  0.00  0.00     0.020 A 
ATOM      2  C1  UNL d   1       0.503   1.336  -0.206  0.00  0.00     0.020 A 
ATOM      3  C2  UNL d   1      -0.811   0.896  -0.375  0.00  0.00     0.034 A 
ATOM      4  C3  UNL d   1      -1.238  -0.292   0.228  0.00  0.00     0.017 A 
ATOM      5  C4  UNL d   1      -0.344  -1.039   1.003  0.00  0.00     0.017 A 
ATOM      6  C5  UNL d   1       0.972  -0.594   1.169  0.00  0.00     0.034 A 
ATOM      7 Cl   UNL d   1      -0.798  -2.516   1.778  0.00  0.00    -0.070 Cl
ATOM      8 Cl1  UNL d   1      -2.878  -0.776  -0.023  0.00  0.00    -0.070 Cl
ENDROOT
TORSDOF 0
ENDMDL
