MODEL 1
REMARK minimizedAffinity -4.15924597
REMARK minimizedRMSD -1
REMARK  0 active torsions:
REMARK  status: ('A' for Active; 'I' for Inactive)
ROOT
ATOM      1  C   UNL d   1       0.642  -0.201  -0.478  0.00  0.00     0.020 A 
ATOM      2  C1  UNL d   1      -0.355   0.115  -1.400  0.00  0.00     0.020 A 
ATOM      3  C2  UNL d   1      -1.671  -0.293  -1.172  0.00  0.00     0.034 A 
ATOM      4  C3  UNL d   1      -1.994  -1.018  -0.020  0.00  0.00     0.017 A 
ATOM      5  C4  UNL d   1      -0.992  -1.334   0.905  0.00  0.00     0.017 A 
ATOM      6  C5  UNL d   1       0.324  -0.924   0.673  0.00  0.00     0.034 A 
ATOM      7 Cl   UNL d   1      -1.314  -2.226   2.351  0.00  0.00    -0.070 Cl
ATOM      8 Cl1  UNL d   1      -3.642  -1.490   0.197  0.00  0.00    -0.070 Cl
ENDROOT
TORSDOF 0
ENDMDL
