MODEL 1
REMARK minimizedAffinity -3.60415459
REMARK minimizedRMSD -1
REMARK  0 active torsions:
REMARK  status: ('A' for Active; 'I' for Inactive)
ROOT
ATOM      1  C   UNL d   1       0.634  -0.616   1.079  0.00  0.00     0.020 A 
ATOM      2  C1  UNL d   1       1.266  -0.054  -0.030  0.00  0.00     0.020 A 
ATOM      3  C2  UNL d   1       0.508   0.381  -1.119  0.00  0.00     0.034 A 
ATOM      4  C3  UNL d   1      -0.886   0.255  -1.102  0.00  0.00     0.017 A 
ATOM      5  C4  UNL d   1      -1.519  -0.308   0.012  0.00  0.00     0.017 A 
ATOM      6  C5  UNL d   1      -0.755  -0.742   1.100  0.00  0.00     0.034 A 
ATOM      7 Cl   UNL d   1      -3.235  -0.496   0.107  0.00  0.00    -0.070 Cl
ATOM      8 Cl1  UNL d   1      -1.761   0.815  -2.483  0.00  0.00    -0.070 Cl
ENDROOT
TORSDOF 0
ENDMDL
