MODEL 1
REMARK minimizedAffinity -4.34183741
REMARK minimizedRMSD -1
REMARK  0 active torsions:
REMARK  status: ('A' for Active; 'I' for Inactive)
ROOT
ATOM      1  C   UNL d   1       1.123   0.250   0.240  0.00  0.00     0.020 A 
ATOM      2  C1  UNL d   1       0.261   0.708  -0.756  0.00  0.00     0.020 A 
ATOM      3  C2  UNL d   1      -1.064   0.268  -0.789  0.00  0.00     0.034 A 
ATOM      4  C3  UNL d   1      -1.531  -0.631   0.176  0.00  0.00     0.017 A 
ATOM      5  C4  UNL d   1      -0.666  -1.090   1.176  0.00  0.00     0.017 A 
ATOM      6  C5  UNL d   1       0.660  -0.646   1.204  0.00  0.00     0.034 A 
ATOM      7 Cl   UNL d   1      -1.169  -2.200   2.401  0.00  0.00    -0.070 Cl
ATOM      8 Cl1  UNL d   1      -3.182  -1.132   0.076  0.00  0.00    -0.070 Cl
ENDROOT
TORSDOF 0
ENDMDL
