MODEL 1
REMARK minimizedAffinity -1.3857975
REMARK minimizedRMSD -1
REMARK  0 active torsions:
REMARK  status: ('A' for Active; 'I' for Inactive)
ROOT
ATOM      1  C   UNL d   1       2.069  -1.889  -0.842  0.00  0.00    -0.002 A 
ATOM      2  C1  UNL d   1       2.479  -0.633  -1.267  0.00  0.00     0.010 A 
ATOM      3  C2  UNL d   1       1.705   0.496  -0.993  0.00  0.00     0.041 A 
ATOM      4  C3  UNL d   1       0.502   0.341  -0.277  0.00  0.00    -0.075 A 
ATOM      5  S   UNL d   1      -0.607   1.582   0.173  0.00  0.00     0.015 SA
ATOM      6  C4  UNL d   1      -1.651   0.474   0.940  0.00  0.00     0.022 A 
ATOM      7  C5  UNL d   1      -1.180  -0.816   0.864  0.00  0.00     0.026 A 
ATOM      8  C6  UNL d   1       0.069  -0.913   0.161  0.00  0.00    -0.082 A 
ATOM      9  C7  UNL d   1       0.875  -2.039  -0.132  0.00  0.00     0.045 A 
ENDROOT
TORSDOF 0
ENDMDL
