MODEL 1
REMARK minimizedAffinity -4.85078621
REMARK minimizedRMSD -1
REMARK  0 active torsions:
REMARK  status: ('A' for Active; 'I' for Inactive)
ROOT
ATOM      1  C   UNL d   1       3.088   0.620  -2.895  0.00  0.00    -0.002 A 
ATOM      2  C1  UNL d   1       2.358   1.798  -2.971  0.00  0.00     0.010 A 
ATOM      3  C2  UNL d   1       1.158   1.936  -2.270  0.00  0.00     0.041 A 
ATOM      4  C3  UNL d   1       0.703   0.862  -1.481  0.00  0.00    -0.075 A 
ATOM      5  S   UNL d   1      -0.737   0.805  -0.534  0.00  0.00     0.015 SA
ATOM      6  C4  UNL d   1      -0.416  -0.783  -0.005  0.00  0.00     0.022 A 
ATOM      7  C5  UNL d   1       0.757  -1.274  -0.529  0.00  0.00     0.026 A 
ATOM      8  C6  UNL d   1       1.421  -0.334  -1.387  0.00  0.00    -0.082 A 
ATOM      9  C7  UNL d   1       2.633  -0.443  -2.112  0.00  0.00     0.045 A 
ENDROOT
TORSDOF 0
ENDMDL
