MODEL 1
REMARK minimizedAffinity -3.20058036
REMARK minimizedRMSD -1
REMARK  0 active torsions:
REMARK  status: ('A' for Active; 'I' for Inactive)
ROOT
ATOM      1  C   UNL d   1       2.906  -0.434  -2.078  0.00  0.00    -0.002 A 
ATOM      2  C1  UNL d   1       2.418  -1.524  -1.372  0.00  0.00     0.010 A 
ATOM      3  C2  UNL d   1       1.218  -1.431  -0.662  0.00  0.00     0.041 A 
ATOM      4  C3  UNL d   1       0.510  -0.214  -0.677  0.00  0.00    -0.075 A 
ATOM      5  S   UNL d   1      -0.980   0.132   0.117  0.00  0.00     0.015 SA
ATOM      6  C4  UNL d   1      -1.005   1.734  -0.463  0.00  0.00     0.022 A 
ATOM      7  C5  UNL d   1       0.090   2.016  -1.245  0.00  0.00     0.026 A 
ATOM      8  C6  UNL d   1       0.981   0.898  -1.382  0.00  0.00    -0.082 A 
ATOM      9  C7  UNL d   1       2.200   0.772  -2.090  0.00  0.00     0.045 A 
ENDROOT
TORSDOF 0
ENDMDL
