MODEL 1
REMARK minimizedAffinity -2.77206707
REMARK minimizedRMSD -1
REMARK  0 active torsions:
REMARK  status: ('A' for Active; 'I' for Inactive)
ROOT
ATOM      1  C   UNL d   1       1.947  -0.518  -0.036  0.00  0.00    -0.002 A 
ATOM      2  C1  UNL d   1       1.736   0.222  -1.191  0.00  0.00     0.010 A 
ATOM      3  C2  UNL d   1       0.538   0.912  -1.384  0.00  0.00     0.041 A 
ATOM      4  C3  UNL d   1      -0.454   0.846  -0.387  0.00  0.00    -0.075 A 
ATOM      5  S   UNL d   1      -2.000   1.611  -0.406  0.00  0.00     0.015 SA
ATOM      6  C4  UNL d   1      -2.416   0.974   1.119  0.00  0.00     0.022 A 
ATOM      7  C5  UNL d   1      -1.413   0.195   1.644  0.00  0.00     0.026 A 
ATOM      8  C6  UNL d   1      -0.265   0.109   0.786  0.00  0.00    -0.082 A 
ATOM      9  C7  UNL d   1       0.960  -0.581   0.951  0.00  0.00     0.045 A 
ENDROOT
TORSDOF 0
ENDMDL
