MODEL 1
REMARK minimizedAffinity -5.34082651
REMARK minimizedRMSD -1
REMARK  0 active torsions:
REMARK  status: ('A' for Active; 'I' for Inactive)
ROOT
ATOM      1  C   UNL d   1       2.708  -0.695  -1.728  0.00  0.00    -0.002 A 
ATOM      2  C1  UNL d   1       2.599   0.436  -2.524  0.00  0.00     0.010 A 
ATOM      3  C2  UNL d   1       1.539   1.328  -2.349  0.00  0.00     0.041 A 
ATOM      4  C3  UNL d   1       0.582   1.062  -1.350  0.00  0.00    -0.075 A 
ATOM      5  S   UNL d   1      -0.800   2.013  -0.954  0.00  0.00     0.015 SA
ATOM      6  C4  UNL d   1      -1.277   0.941   0.282  0.00  0.00     0.022 A 
ATOM      7  C5  UNL d   1      -0.414  -0.123   0.403  0.00  0.00     0.026 A 
ATOM      8  C6  UNL d   1       0.672  -0.070  -0.535  0.00  0.00    -0.082 A 
ATOM      9  C7  UNL d   1       1.758  -0.956  -0.738  0.00  0.00     0.045 A 
ENDROOT
TORSDOF 0
ENDMDL
