MODEL 1
REMARK minimizedAffinity -4.88775635
REMARK minimizedRMSD -1
REMARK  0 active torsions:
REMARK  status: ('A' for Active; 'I' for Inactive)
ROOT
ATOM      1  C   UNL d   1       2.832  -0.001  -2.093  0.00  0.00    -0.002 A 
ATOM      2  C1  UNL d   1       2.215   1.098  -2.674  0.00  0.00     0.010 A 
ATOM      3  C2  UNL d   1       0.968   1.533  -2.222  0.00  0.00     0.041 A 
ATOM      4  C3  UNL d   1       0.346   0.839  -1.165  0.00  0.00    -0.075 A 
ATOM      5  S   UNL d   1      -1.181   1.192  -0.447  0.00  0.00     0.015 SA
ATOM      6  C4  UNL d   1      -1.050  -0.108   0.648  0.00  0.00     0.022 A 
ATOM      7  C5  UNL d   1       0.124  -0.804   0.483  0.00  0.00     0.026 A 
ATOM      8  C6  UNL d   1       0.948  -0.270  -0.564  0.00  0.00    -0.082 A 
ATOM      9  C7  UNL d   1       2.212  -0.687  -1.045  0.00  0.00     0.045 A 
ENDROOT
TORSDOF 0
ENDMDL
