MODEL 1
REMARK minimizedAffinity -1.21873689
REMARK minimizedRMSD -1
REMARK  0 active torsions:
REMARK  status: ('A' for Active; 'I' for Inactive)
ROOT
ATOM      1  C   UNL d   1       1.900  -2.426  -0.176  0.00  0.00    -0.002 A 
ATOM      2  C1  UNL d   1       2.286  -1.477  -1.112  0.00  0.00     0.010 A 
ATOM      3  C2  UNL d   1       1.515  -0.333  -1.324  0.00  0.00     0.041 A 
ATOM      4  C3  UNL d   1       0.339  -0.155  -0.570  0.00  0.00    -0.075 A 
ATOM      5  S   UNL d   1      -0.762   1.169  -0.657  0.00  0.00     0.015 SA
ATOM      6  C4  UNL d   1      -1.771   0.507   0.547  0.00  0.00     0.022 A 
ATOM      7  C5  UNL d   1      -1.294  -0.695   1.015  0.00  0.00     0.026 A 
ATOM      8  C6  UNL d   1      -0.071  -1.096   0.380  0.00  0.00    -0.082 A 
ATOM      9  C7  UNL d   1       0.732  -2.246   0.570  0.00  0.00     0.045 A 
ENDROOT
TORSDOF 0
ENDMDL
