MODEL 1
REMARK minimizedAffinity -3.71083927
REMARK minimizedRMSD -1
REMARK  0 active torsions:
REMARK  status: ('A' for Active; 'I' for Inactive)
ROOT
ATOM      1  C   UNL d   1       2.203  -0.939  -0.933  0.00  0.00    -0.002 A 
ATOM      2  C1  UNL d   1       2.190   0.026  -1.930  0.00  0.00     0.010 A 
ATOM      3  C2  UNL d   1       1.145   0.949  -2.011  0.00  0.00     0.041 A 
ATOM      4  C3  UNL d   1       0.105   0.886  -1.063  0.00  0.00    -0.075 A 
ATOM      5  S   UNL d   1      -1.277   1.913  -0.967  0.00  0.00     0.015 SA
ATOM      6  C4  UNL d   1      -1.881   1.095   0.401  0.00  0.00     0.022 A 
ATOM      7  C5  UNL d   1      -1.062   0.061   0.788  0.00  0.00     0.026 A 
ATOM      8  C6  UNL d   1       0.097  -0.076  -0.049  0.00  0.00    -0.082 A 
ATOM      9  C7  UNL d   1       1.170  -0.998   0.006  0.00  0.00     0.045 A 
ENDROOT
TORSDOF 0
ENDMDL
