MODEL 1
REMARK minimizedAffinity -5.71703529
REMARK minimizedRMSD -1
REMARK  0 active torsions:
REMARK  status: ('A' for Active; 'I' for Inactive)
ROOT
ATOM      1  C   UNL d   1       2.919  -0.780  -1.050  0.00  0.00    -0.002 A 
ATOM      2  C1  UNL d   1       3.064   0.319  -1.885  0.00  0.00     0.010 A 
ATOM      3  C2  UNL d   1       2.016   1.226  -2.054  0.00  0.00     0.041 A 
ATOM      4  C3  UNL d   1       0.809   1.009  -1.362  0.00  0.00    -0.075 A 
ATOM      5  S   UNL d   1      -0.610   1.988  -1.414  0.00  0.00     0.015 SA
ATOM      6  C4  UNL d   1      -1.441   0.972  -0.328  0.00  0.00     0.022 A 
ATOM      7  C5  UNL d   1      -0.671  -0.093   0.075  0.00  0.00     0.026 A 
ATOM      8  C6  UNL d   1       0.639  -0.089  -0.514  0.00  0.00    -0.082 A 
ATOM      9  C7  UNL d   1       1.720  -0.991  -0.364  0.00  0.00     0.045 A 
ENDROOT
TORSDOF 0
ENDMDL
