MODEL 1
REMARK minimizedAffinity -3.79691696
REMARK minimizedRMSD -1
REMARK  0 active torsions:
REMARK  status: ('A' for Active; 'I' for Inactive)
ROOT
ATOM      1  C   UNL d   1       2.305  -1.532  -0.858  0.00  0.00    -0.002 A 
ATOM      2  C1  UNL d   1       1.208  -1.314  -0.037  0.00  0.00     0.010 A 
ATOM      3  C2  UNL d   1       0.454  -0.144  -0.156  0.00  0.00     0.041 A 
ATOM      4  C3  UNL d   1       0.824   0.810  -1.124  0.00  0.00    -0.075 A 
ATOM      5  S   UNL d   1       0.048   2.315  -1.450  0.00  0.00     0.015 SA
ATOM      6  C4  UNL d   1       1.154   2.702  -2.687  0.00  0.00     0.022 A 
ATOM      7  C5  UNL d   1       2.099   1.719  -2.860  0.00  0.00     0.026 A 
ATOM      8  C6  UNL d   1       1.924   0.612  -1.963  0.00  0.00    -0.082 A 
ATOM      9  C7  UNL d   1       2.669  -0.583  -1.817  0.00  0.00     0.045 A 
ENDROOT
TORSDOF 0
ENDMDL
