MODEL 1
REMARK minimizedAffinity -4.95477724
REMARK minimizedRMSD -1
REMARK  0 active torsions:
REMARK  status: ('A' for Active; 'I' for Inactive)
ROOT
ATOM      1  C   UNL d   1       3.191  -0.781  -2.037  0.00  0.00    -0.002 A 
ATOM      2  C1  UNL d   1       3.061   0.566  -2.345  0.00  0.00     0.010 A 
ATOM      3  C2  UNL d   1       1.931   1.280  -1.942  0.00  0.00     0.041 A 
ATOM      4  C3  UNL d   1       0.925   0.612  -1.217  0.00  0.00    -0.075 A 
ATOM      5  S   UNL d   1      -0.546   1.284  -0.619  0.00  0.00     0.015 SA
ATOM      6  C4  UNL d   1      -1.036  -0.201   0.059  0.00  0.00     0.022 A 
ATOM      7  C5  UNL d   1      -0.112  -1.196  -0.156  0.00  0.00     0.026 A 
ATOM      8  C6  UNL d   1       1.034  -0.744  -0.894  0.00  0.00    -0.082 A 
ATOM      9  C7  UNL d   1       2.191  -1.440  -1.317  0.00  0.00     0.045 A 
ENDROOT
TORSDOF 0
ENDMDL
