MODEL 1
REMARK minimizedAffinity 23.435009
REMARK minimizedRMSD -1
REMARK  0 active torsions:
REMARK  status: ('A' for Active; 'I' for Inactive)
ROOT
ATOM      1  C4' PXY d   1       5.985  -2.112   5.977  0.00  0.00     0.077 C 
ATOM      2  C1' PXY d   1       3.450   0.584   1.536  0.00  0.00     0.077 C 
ATOM      3  C1  PXY d   1       4.127  -0.120   2.696  0.00  0.00    -0.082 A 
ATOM      4  C2  PXY d   1       3.499  -1.103   3.321  0.00  0.00     0.003 A 
ATOM      5  C3  PXY d   1       4.083  -1.728   4.392  0.00  0.00     0.003 A 
ATOM      6  C4  PXY d   1       5.345  -1.380   4.795  0.00  0.00    -0.082 A 
ATOM      7  C5  PXY d   1       5.996  -0.385   4.156  0.00  0.00     0.003 A 
ATOM      8  C6  PXY d   1       5.369   0.265   3.097  0.00  0.00     0.003 A 
ENDROOT
TORSDOF 0
ENDMDL
