MODEL 1
REMARK minimizedAffinity 19.7561474
REMARK minimizedRMSD -1
REMARK  0 active torsions:
REMARK  status: ('A' for Active; 'I' for Inactive)
ROOT
ATOM      1  C4' PXY d   1      -4.074  -1.766  -0.636  0.00  0.00     0.077 C 
ATOM      2  C1' PXY d   1      -2.175   1.288   3.889  0.00  0.00     0.077 C 
ATOM      3  C1  PXY d   1      -2.662   0.490   2.696  0.00  0.00    -0.082 A 
ATOM      4  C2  PXY d   1      -3.957   0.260   2.547  0.00  0.00     0.003 A 
ATOM      5  C3  PXY d   1      -4.412  -0.486   1.491  0.00  0.00     0.003 A 
ATOM      6  C4  PXY d   1      -3.538  -0.958   0.548  0.00  0.00    -0.082 A 
ATOM      7  C5  PXY d   1      -2.216  -0.719   0.687  0.00  0.00     0.003 A 
ATOM      8  C6  PXY d   1      -1.771   0.006   1.789  0.00  0.00     0.003 A 
ENDROOT
TORSDOF 0
ENDMDL
