MODEL 1
REMARK minimizedAffinity 12.9061346
REMARK minimizedRMSD -1
REMARK  0 active torsions:
REMARK  status: ('A' for Active; 'I' for Inactive)
ROOT
ATOM      1  C4' PXY d   1       0.919  -3.045  -3.677  0.00  0.00     0.077 C 
ATOM      2  C1' PXY d   1       1.542   2.154  -1.227  0.00  0.00     0.077 C 
ATOM      3  C1  PXY d   1       1.390   0.786  -1.864  0.00  0.00    -0.082 A 
ATOM      4  C2  PXY d   1       0.668   0.654  -2.965  0.00  0.00     0.003 A 
ATOM      5  C3  PXY d   1       0.493  -0.580  -3.536  0.00  0.00     0.003 A 
ATOM      6  C4  PXY d   1       1.108  -1.682  -3.005  0.00  0.00    -0.082 A 
ATOM      7  C5  PXY d   1       1.855  -1.554  -1.888  0.00  0.00     0.003 A 
ATOM      8  C6  PXY d   1       1.986  -0.299  -1.300  0.00  0.00     0.003 A 
ENDROOT
TORSDOF 0
ENDMDL
