MODEL 1
REMARK minimizedAffinity 11.4262295
REMARK minimizedRMSD -1
REMARK  0 active torsions:
REMARK  status: ('A' for Active; 'I' for Inactive)
ROOT
ATOM      1  C4' PXY d   1      -2.747   4.883  -0.246  0.00  0.00     0.077 C 
ATOM      2  C1' PXY d   1       3.004   4.726  -0.809  0.00  0.00     0.077 C 
ATOM      3  C1  PXY d   1       1.497   4.775  -0.650  0.00  0.00    -0.082 A 
ATOM      4  C2  PXY d   1       0.755   3.801  -1.152  0.00  0.00     0.003 A 
ATOM      5  C3  PXY d   1      -0.612   3.846  -1.046  0.00  0.00     0.003 A 
ATOM      6  C4  PXY d   1      -1.221   4.871  -0.373  0.00  0.00    -0.082 A 
ATOM      7  C5  PXY d   1      -0.470   5.862   0.151  0.00  0.00     0.003 A 
ATOM      8  C6  PXY d   1       0.912   5.820  -0.004  0.00  0.00     0.003 A 
ENDROOT
TORSDOF 0
ENDMDL
