MODEL 1
REMARK minimizedAffinity 21.6088982
REMARK minimizedRMSD -1
REMARK  0 active torsions:
REMARK  status: ('A' for Active; 'I' for Inactive)
ROOT
ATOM      1  C4' PXY d   1      -3.592  -1.502  -0.185  0.00  0.00     0.077 C 
ATOM      2  C1' PXY d   1       1.869  -0.598  -1.852  0.00  0.00     0.077 C 
ATOM      3  C1  PXY d   1       0.436  -0.845  -1.424  0.00  0.00    -0.082 A 
ATOM      4  C2  PXY d   1      -0.244   0.121  -0.827  0.00  0.00     0.003 A 
ATOM      5  C3  PXY d   1      -1.530  -0.095  -0.404  0.00  0.00     0.003 A 
ATOM      6  C4  PXY d   1      -2.146  -1.295  -0.643  0.00  0.00    -0.082 A 
ATOM      7  C5  PXY d   1      -1.463  -2.281  -1.262  0.00  0.00     0.003 A 
ATOM      8  C6  PXY d   1      -0.144  -2.055  -1.646  0.00  0.00     0.003 A 
ENDROOT
TORSDOF 0
ENDMDL
