MODEL 1
REMARK minimizedAffinity 19.3249989
REMARK minimizedRMSD -1
REMARK  0 active torsions:
REMARK  status: ('A' for Active; 'I' for Inactive)
ROOT
ATOM      1  C4' PXY d   1       6.000   1.015  -3.012  0.00  0.00     0.077 C 
ATOM      2  C1' PXY d   1       0.539   0.027  -1.392  0.00  0.00     0.077 C 
ATOM      3  C1  PXY d   1       1.976   0.281  -1.806  0.00  0.00    -0.082 A 
ATOM      4  C2  PXY d   1       2.249   1.260  -2.653  0.00  0.00     0.003 A 
ATOM      5  C3  PXY d   1       3.539   1.482  -3.063  0.00  0.00     0.003 A 
ATOM      6  C4  PXY d   1       4.565   0.729  -2.559  0.00  0.00    -0.082 A 
ATOM      7  C5  PXY d   1       4.296  -0.264  -1.686  0.00  0.00     0.003 A 
ATOM      8  C6  PXY d   1       2.975  -0.501  -1.315  0.00  0.00     0.003 A 
ENDROOT
TORSDOF 0
ENDMDL
