MODEL 1
REMARK minimizedAffinity 17.7926502
REMARK minimizedRMSD -1
REMARK  0 active torsions:
REMARK  status: ('A' for Active; 'I' for Inactive)
ROOT
ATOM      1  C4' PXY d   1      -0.711  -1.569  -0.806  0.00  0.00     0.077 C 
ATOM      2  C1' PXY d   1      -3.414   0.449   3.889  0.00  0.00     0.077 C 
ATOM      3  C1  PXY d   1      -2.717  -0.085   2.653  0.00  0.00    -0.082 A 
ATOM      4  C2  PXY d   1      -1.427  -0.376   2.704  0.00  0.00     0.003 A 
ATOM      5  C3  PXY d   1      -0.773  -0.829   1.587  0.00  0.00     0.003 A 
ATOM      6  C4  PXY d   1      -1.459  -1.037   0.420  0.00  0.00    -0.082 A 
ATOM      7  C5  PXY d   1      -2.777  -0.752   0.363  0.00  0.00     0.003 A 
ATOM      8  C6  PXY d   1      -3.413  -0.254   1.496  0.00  0.00     0.003 A 
ENDROOT
TORSDOF 0
ENDMDL
