MODEL 1
REMARK minimizedAffinity 7.76207495
REMARK minimizedRMSD -1
REMARK  0 active torsions:
REMARK  status: ('A' for Active; 'I' for Inactive)
ROOT
ATOM      1  C4' PXY d   1       2.636   6.000  -2.900  0.00  0.00     0.077 C 
ATOM      2  C1' PXY d   1       4.072   4.502   2.495  0.00  0.00     0.077 C 
ATOM      3  C1  PXY d   1       3.683   4.896   1.084  0.00  0.00    -0.082 A 
ATOM      4  C2  PXY d   1       4.439   4.515   0.066  0.00  0.00     0.003 A 
ATOM      5  C3  PXY d   1       4.119   4.890  -1.213  0.00  0.00     0.003 A 
ATOM      6  C4  PXY d   1       2.985   5.617  -1.460  0.00  0.00    -0.082 A 
ATOM      7  C5  PXY d   1       2.204   6.000  -0.428  0.00  0.00     0.003 A 
ATOM      8  C6  PXY d   1       2.568   5.644   0.867  0.00  0.00     0.003 A 
ENDROOT
TORSDOF 0
ENDMDL
