MODEL 1
REMARK minimizedAffinity 13.1163378
REMARK minimizedRMSD -1
REMARK  0 active torsions:
REMARK  status: ('A' for Active; 'I' for Inactive)
ROOT
ATOM      1  C4' PXY d   1      -3.360  -0.604   0.914  0.00  0.00     0.077 C 
ATOM      2  C1' PXY d   1      -6.000   0.185   5.996  0.00  0.00     0.077 C 
ATOM      3  C1  PXY d   1      -5.298  -0.014   4.667  0.00  0.00    -0.082 A 
ATOM      4  C2  PXY d   1      -5.998  -0.380   3.606  0.00  0.00     0.003 A 
ATOM      5  C3  PXY d   1      -5.374  -0.596   2.404  0.00  0.00     0.003 A 
ATOM      6  C4  PXY d   1      -4.028  -0.382   2.274  0.00  0.00    -0.082 A 
ATOM      7  C5  PXY d   1      -3.308   0.002   3.349  0.00  0.00     0.003 A 
ATOM      8  C6  PXY d   1      -3.954   0.176   4.570  0.00  0.00     0.003 A 
ENDROOT
TORSDOF 0
ENDMDL
