MODEL 1
REMARK minimizedAffinity -1.82069516
REMARK minimizedRMSD -1
REMARK  0 active torsions:
REMARK  status: ('A' for Active; 'I' for Inactive)
ROOT
ATOM      1  C4' PXY d   1       4.920   5.247   2.413  0.00  0.00     0.077 C 
ATOM      2  C1' PXY d   1       3.025   6.000  -2.996  0.00  0.00     0.077 C 
ATOM      3  C1  PXY d   1       3.510   5.804  -1.573  0.00  0.00    -0.082 A 
ATOM      4  C2  PXY d   1       4.786   6.000  -1.284  0.00  0.00     0.003 A 
ATOM      5  C3  PXY d   1       5.248   5.797  -0.009  0.00  0.00     0.003 A 
ATOM      6  C4  PXY d   1       4.384   5.441   0.992  0.00  0.00    -0.082 A 
ATOM      7  C5  PXY d   1       3.079   5.250   0.707  0.00  0.00     0.003 A 
ATOM      8  C6  PXY d   1       2.638   5.422  -0.602  0.00  0.00     0.003 A 
ENDROOT
TORSDOF 0
ENDMDL
