MODEL 1
REMARK minimizedAffinity 22.2505322
REMARK minimizedRMSD -1
REMARK  0 active torsions:
REMARK  status: ('A' for Active; 'I' for Inactive)
ROOT
ATOM      1  C4' PXY d   1      -5.984  -2.815   5.984  0.00  0.00     0.077 C 
ATOM      2  C1' PXY d   1      -4.059   2.148   3.731  0.00  0.00     0.077 C 
ATOM      3  C1  PXY d   1      -4.575   0.847   4.315  0.00  0.00    -0.082 A 
ATOM      4  C2  PXY d   1      -4.101   0.417   5.473  0.00  0.00     0.003 A 
ATOM      5  C3  PXY d   1      -4.533  -0.773   6.000  0.00  0.00     0.003 A 
ATOM      6  C4  PXY d   1      -5.499  -1.503   5.361  0.00  0.00    -0.082 A 
ATOM      7  C5  PXY d   1      -5.995  -1.065   4.185  0.00  0.00     0.003 A 
ATOM      8  C6  PXY d   1      -5.514   0.124   3.646  0.00  0.00     0.003 A 
ENDROOT
TORSDOF 0
ENDMDL
