MODEL 1
REMARK minimizedAffinity 23.069376
REMARK minimizedRMSD -1
REMARK  0 active torsions:
REMARK  status: ('A' for Active; 'I' for Inactive)
ROOT
ATOM      1  C4' PXY d   1       2.232   2.037  -1.145  0.00  0.00     0.077 C 
ATOM      2  C1' PXY d   1       0.101  -2.922  -3.214  0.00  0.00     0.077 C 
ATOM      3  C1  PXY d   1       0.663  -1.628  -2.660  0.00  0.00    -0.082 A 
ATOM      4  C2  PXY d   1       0.256  -0.471  -3.159  0.00  0.00     0.003 A 
ATOM      5  C3  PXY d   1       0.777   0.707  -2.691  0.00  0.00     0.003 A 
ATOM      6  C4  PXY d   1       1.685   0.705  -1.667  0.00  0.00    -0.082 A 
ATOM      7  C5  PXY d   1       2.098  -0.470  -1.146  0.00  0.00     0.003 A 
ATOM      8  C6  PXY d   1       1.587  -1.657  -1.662  0.00  0.00     0.003 A 
ENDROOT
TORSDOF 0
ENDMDL
