MODEL 1
REMARK minimizedAffinity 11.6434832
REMARK minimizedRMSD -1
REMARK  0 active torsions:
REMARK  status: ('A' for Active; 'I' for Inactive)
ROOT
ATOM      1  C4' PXY d   1       1.719  -1.176  -1.544  0.00  0.00     0.077 C 
ATOM      2  C1' PXY d   1       2.078   3.766  -4.521  0.00  0.00     0.077 C 
ATOM      3  C1  PXY d   1       1.976   2.476  -3.732  0.00  0.00    -0.082 A 
ATOM      4  C2  PXY d   1       2.911   1.550  -3.868  0.00  0.00     0.003 A 
ATOM      5  C3  PXY d   1       2.818   0.364  -3.186  0.00  0.00     0.003 A 
ATOM      6  C4  PXY d   1       1.785   0.145  -2.315  0.00  0.00    -0.082 A 
ATOM      7  C5  PXY d   1       0.833   1.089  -2.162  0.00  0.00     0.003 A 
ATOM      8  C6  PXY d   1       0.923   2.269  -2.894  0.00  0.00     0.003 A 
ENDROOT
TORSDOF 0
ENDMDL
