MODEL 1
REMARK minimizedAffinity 9.24494076
REMARK minimizedRMSD -1
REMARK  0 active torsions:
REMARK  status: ('A' for Active; 'I' for Inactive)
ROOT
ATOM      1  C4' PXY d   1       4.247  -5.999   4.585  0.00  0.00     0.077 C 
ATOM      2  C1' PXY d   1       5.489  -0.516   5.932  0.00  0.00     0.077 C 
ATOM      3  C1  PXY d   1       5.176  -1.957   5.580  0.00  0.00    -0.082 A 
ATOM      4  C2  PXY d   1       4.094  -2.238   4.872  0.00  0.00     0.003 A 
ATOM      5  C3  PXY d   1       3.778  -3.538   4.572  0.00  0.00     0.003 A 
ATOM      6  C4  PXY d   1       4.608  -4.558   4.955  0.00  0.00    -0.082 A 
ATOM      7  C5  PXY d   1       5.719  -4.279   5.669  0.00  0.00     0.003 A 
ATOM      8  C6  PXY d   1       6.000  -2.956   5.998  0.00  0.00     0.003 A 
ENDROOT
TORSDOF 0
ENDMDL
