MODEL 1
REMARK minimizedAffinity -0.624813437
REMARK minimizedRMSD -1
REMARK  0 active torsions:
REMARK  status: ('A' for Active; 'I' for Inactive)
ROOT
ATOM      1  C4' PXY d   1       5.745  -5.596   5.848  0.00  0.00     0.077 C 
ATOM      2  C1' PXY d   1       3.963  -0.428   3.969  0.00  0.00     0.077 C 
ATOM      3  C1  PXY d   1       4.418  -1.787   4.462  0.00  0.00    -0.082 A 
ATOM      4  C2  PXY d   1       5.557  -1.895   5.127  0.00  0.00     0.003 A 
ATOM      5  C3  PXY d   1       5.999  -3.121   5.552  0.00  0.00     0.003 A 
ATOM      6  C4  PXY d   1       5.242  -4.242   5.340  0.00  0.00    -0.082 A 
ATOM      7  C5  PXY d   1       4.074  -4.139   4.671  0.00  0.00     0.003 A 
ATOM      8  C6  PXY d   1       3.663  -2.891   4.212  0.00  0.00     0.003 A 
ENDROOT
TORSDOF 0
ENDMDL
