MODEL 1
REMARK minimizedAffinity 6.64960146
REMARK minimizedRMSD -1
REMARK  0 active torsions:
REMARK  status: ('A' for Active; 'I' for Inactive)
ROOT
ATOM      1  C4' PXY d   1       0.951  -1.814  -2.662  0.00  0.00     0.077 C 
ATOM      2  C1' PXY d   1       2.270   3.761  -1.890  0.00  0.00     0.077 C 
ATOM      3  C1  PXY d   1       1.912   2.302  -2.095  0.00  0.00    -0.082 A 
ATOM      4  C2  PXY d   1       2.654   1.361  -1.534  0.00  0.00     0.003 A 
ATOM      5  C3  PXY d   1       2.363   0.036  -1.735  0.00  0.00     0.003 A 
ATOM      6  C4  PXY d   1       1.270  -0.328  -2.475  0.00  0.00    -0.082 A 
ATOM      7  C5  PXY d   1       0.502   0.626  -3.042  0.00  0.00     0.003 A 
ATOM      8  C6  PXY d   1       0.838   1.964  -2.859  0.00  0.00     0.003 A 
ENDROOT
TORSDOF 0
ENDMDL
