MODEL 1
REMARK minimizedAffinity 14.3746862
REMARK minimizedRMSD -1
REMARK  0 active torsions:
REMARK  status: ('A' for Active; 'I' for Inactive)
ROOT
ATOM      1  C4' PXY d   1       4.979   0.731   3.765  0.00  0.00     0.077 C 
ATOM      2  C1' PXY d   1       5.088  -4.614   5.964  0.00  0.00     0.077 C 
ATOM      3  C1  PXY d   1       5.066  -3.208   5.398  0.00  0.00    -0.082 A 
ATOM      4  C2  PXY d   1       4.141  -2.874   4.513  0.00  0.00     0.003 A 
ATOM      5  C3  PXY d   1       4.125  -1.616   3.967  0.00  0.00     0.003 A 
ATOM      6  C4  PXY d   1       5.034  -0.675   4.370  0.00  0.00    -0.082 A 
ATOM      7  C5  PXY d   1       5.975  -1.005   5.280  0.00  0.00     0.003 A 
ATOM      8  C6  PXY d   1       5.998  -2.299   5.792  0.00  0.00     0.003 A 
ENDROOT
TORSDOF 0
ENDMDL
