MODEL 1
REMARK minimizedAffinity 9.04825783
REMARK minimizedRMSD -1
REMARK  0 active torsions:
REMARK  status: ('A' for Active; 'I' for Inactive)
ROOT
ATOM      1  C4' PXY d   1       0.903  -1.918  -1.942  0.00  0.00     0.077 C 
ATOM      2  C1' PXY d   1       2.437   3.480  -0.557  0.00  0.00     0.077 C 
ATOM      3  C1  PXY d   1       2.022   2.067  -0.918  0.00  0.00    -0.082 A 
ATOM      4  C2  PXY d   1       2.872   1.070  -0.739  0.00  0.00     0.003 A 
ATOM      5  C3  PXY d   1       2.525  -0.209  -1.091  0.00  0.00     0.003 A 
ATOM      6  C4  PXY d   1       1.275  -0.478  -1.582  0.00  0.00    -0.082 A 
ATOM      7  C5  PXY d   1       0.398   0.533  -1.757  0.00  0.00     0.003 A 
ATOM      8  C6  PXY d   1       0.785   1.830  -1.433  0.00  0.00     0.003 A 
ENDROOT
TORSDOF 0
ENDMDL
