MODEL 1
REMARK minimizedAffinity 1.57893074
REMARK minimizedRMSD -1
REMARK  0 active torsions:
REMARK  status: ('A' for Active; 'I' for Inactive)
ROOT
ATOM      1  C4' PXY d   1      -1.574   5.933   5.924  0.00  0.00     0.077 C 
ATOM      2  C1' PXY d   1      -5.975   5.890   2.176  0.00  0.00     0.077 C 
ATOM      3  C1  PXY d   1      -4.813   5.896   3.150  0.00  0.00    -0.082 A 
ATOM      4  C2  PXY d   1      -5.050   5.868   4.451  0.00  0.00     0.003 A 
ATOM      5  C3  PXY d   1      -4.012   5.905   5.346  0.00  0.00     0.003 A 
ATOM      6  C4  PXY d   1      -2.716   5.919   4.904  0.00  0.00    -0.082 A 
ATOM      7  C5  PXY d   1      -2.466   5.937   3.578  0.00  0.00     0.003 A 
ATOM      8  C6  PXY d   1      -3.534   5.940   2.686  0.00  0.00     0.003 A 
ENDROOT
TORSDOF 0
ENDMDL
