MODEL 1
REMARK minimizedAffinity 0.571353137
REMARK minimizedRMSD -1
REMARK  0 active torsions:
REMARK  status: ('A' for Active; 'I' for Inactive)
ROOT
ATOM      1  C4' PXY d   1      -3.253  -1.376   2.244  0.00  0.00     0.077 C 
ATOM      2  C1' PXY d   1      -5.998   0.924  -2.294  0.00  0.00     0.077 C 
ATOM      3  C1  PXY d   1      -5.288   0.325  -1.096  0.00  0.00    -0.082 A 
ATOM      4  C2  PXY d   1      -3.975   0.163  -1.127  0.00  0.00     0.003 A 
ATOM      5  C3  PXY d   1      -3.321  -0.406  -0.065  0.00  0.00     0.003 A 
ATOM      6  C4  PXY d   1      -4.011  -0.766   1.062  0.00  0.00    -0.082 A 
ATOM      7  C5  PXY d   1      -5.349  -0.595   1.105  0.00  0.00     0.003 A 
ATOM      8  C6  PXY d   1      -6.000  -0.052   0.001  0.00  0.00     0.003 A 
ENDROOT
TORSDOF 0
ENDMDL
