MODEL 1
REMARK minimizedAffinity 3.15715575
REMARK minimizedRMSD -1
REMARK  0 active torsions:
REMARK  status: ('A' for Active; 'I' for Inactive)
ROOT
ATOM      1  C   UNL d   1      -0.297  -0.242   1.030  0.00  0.00    -0.002 A 
ATOM      2  C1  UNL d   1      -1.542   0.089   0.514  0.00  0.00     0.010 A 
ATOM      3  C2  UNL d   1      -1.662   0.593  -0.783  0.00  0.00     0.041 A 
ATOM      4  C3  UNL d   1      -0.499   0.757  -1.561  0.00  0.00    -0.075 A 
ATOM      5  S   UNL d   1      -0.404   1.356  -3.175  0.00  0.00     0.015 SA
ATOM      6  C4  UNL d   1       1.291   1.185  -3.218  0.00  0.00     0.022 A 
ATOM      7  C5  UNL d   1       1.789   0.686  -2.038  0.00  0.00     0.026 A 
ATOM      8  C6  UNL d   1       0.766   0.430  -1.063  0.00  0.00    -0.082 A 
ATOM      9  C7  UNL d   1       0.854  -0.077   0.255  0.00  0.00     0.045 A 
ENDROOT
TORSDOF 0
ENDMDL
