MODEL 1
REMARK minimizedAffinity -4.78414536
REMARK minimizedRMSD -1
REMARK  0 active torsions:
REMARK  status: ('A' for Active; 'I' for Inactive)
ROOT
ATOM      1  C   UNL d   1      -2.174   0.531   1.788  0.00  0.00    -0.002 A 
ATOM      2  C1  UNL d   1      -2.588   0.702   0.474  0.00  0.00     0.010 A 
ATOM      3  C2  UNL d   1      -1.814   0.217  -0.583  0.00  0.00     0.041 A 
ATOM      4  C3  UNL d   1      -0.607  -0.450  -0.294  0.00  0.00    -0.075 A 
ATOM      5  S   UNL d   1       0.502  -1.128  -1.426  0.00  0.00     0.015 SA
ATOM      6  C4  UNL d   1       1.550  -1.662  -0.192  0.00  0.00     0.022 A 
ATOM      7  C5  UNL d   1       1.081  -1.339   1.059  0.00  0.00     0.026 A 
ATOM      8  C6  UNL d   1      -0.171  -0.635   1.021  0.00  0.00    -0.082 A 
ATOM      9  C7  UNL d   1      -0.977  -0.132   2.070  0.00  0.00     0.045 A 
ENDROOT
TORSDOF 0
ENDMDL
