MODEL 1
REMARK minimizedAffinity -5.74232101
REMARK minimizedRMSD -1
REMARK  1 active torsions:
REMARK  status: ('A' for Active; 'I' for Inactive)
REMARK    1  A    between atoms: C1_2  and  C2_3 
ROOT
ATOM      1  C2  UNL d   1       1.052  -0.017   0.859  0.00  0.00    -0.073 A 
ATOM      2  C3  UNL d   1       2.388   0.350   1.057  0.00  0.00    -0.002 A 
ATOM      3  C4  UNL d   1       3.284  -0.543   1.645  0.00  0.00     0.004 A 
ATOM      4  C5  UNL d   1       2.857  -1.813   2.034  0.00  0.00    -0.004 A 
ATOM      5  C6  UNL d   1       1.529  -2.203   1.833  0.00  0.00    -0.075 A 
ATOM      6  C7  UNL d   1       1.053  -3.564   2.247  0.00  0.00     0.076 C 
ATOM      7  C8  UNL d   1       0.634  -1.299   1.244  0.00  0.00     0.001 A 
ENDROOT
BRANCH   1   8
ATOM      8  C1  UNL d   1       0.082   0.942   0.218  0.00  0.00     0.053 C 
ATOM      9  C   UNL d   1      -0.723   0.282  -0.890  0.00  0.00     0.018 C 
ENDBRANCH   1   8
TORSDOF 1
ENDMDL
