MODEL 1
REMARK minimizedAffinity -5.5579195
REMARK minimizedRMSD -1
REMARK  1 active torsions:
REMARK  status: ('A' for Active; 'I' for Inactive)
REMARK    1  A    between atoms: C1_2  and  C2_3 
ROOT
ATOM      1  C2  UNL d   1       0.482   0.013   0.644  0.00  0.00    -0.073 A 
ATOM      2  C3  UNL d   1       1.708   0.681   0.545  0.00  0.00    -0.002 A 
ATOM      3  C4  UNL d   1       2.892   0.039   0.909  0.00  0.00     0.004 A 
ATOM      4  C5  UNL d   1       2.864  -1.278   1.367  0.00  0.00    -0.004 A 
ATOM      5  C6  UNL d   1       1.651  -1.967   1.461  0.00  0.00    -0.075 A 
ATOM      6  C7  UNL d   1       1.603  -3.384   1.954  0.00  0.00     0.076 C 
ATOM      7  C8  UNL d   1       0.465  -1.314   1.096  0.00  0.00     0.001 A 
ENDROOT
BRANCH   1   8
ATOM      8  C1  UNL d   1      -0.799   0.700   0.246  0.00  0.00     0.053 C 
ATOM      9  C   UNL d   1      -1.244   0.310  -1.154  0.00  0.00     0.018 C 
ENDBRANCH   1   8
TORSDOF 1
ENDMDL
