MODEL 1
REMARK minimizedAffinity 0.473625332
REMARK minimizedRMSD -1
REMARK  1 active torsions:
REMARK  status: ('A' for Active; 'I' for Inactive)
REMARK    1  A    between atoms: C1_2  and  C2_3 
ROOT
ATOM      1  C2  UNL d   1       0.169   0.057   1.059  0.00  0.00    -0.073 A 
ATOM      2  C3  UNL d   1       1.098   1.101   0.988  0.00  0.00    -0.002 A 
ATOM      3  C4  UNL d   1       2.128   1.193   1.925  0.00  0.00     0.004 A 
ATOM      4  C5  UNL d   1       2.243   0.240   2.937  0.00  0.00    -0.004 A 
ATOM      5  C6  UNL d   1       1.332  -0.817   3.017  0.00  0.00    -0.075 A 
ATOM      6  C7  UNL d   1       1.441  -1.849   4.101  0.00  0.00     0.076 C 
ATOM      7  C8  UNL d   1       0.299  -0.901   2.074  0.00  0.00     0.001 A 
ENDROOT
BRANCH   1   8
ATOM      8  C1  UNL d   1      -0.941  -0.050   0.045  0.00  0.00     0.053 C 
ATOM      9  C   UNL d   1      -0.411  -0.089  -1.379  0.00  0.00     0.018 C 
ENDBRANCH   1   8
TORSDOF 1
ENDMDL
