MODEL 1
REMARK minimizedAffinity 16.5632458
REMARK minimizedRMSD -1
REMARK  0 active torsions:
REMARK  status: ('A' for Active; 'I' for Inactive)
ROOT
ATOM      1  C4' PXY d   1       6.000   0.745  -6.000  0.00  0.00     0.077 C 
ATOM      2  C1' PXY d   1       1.823  -1.796  -2.915  0.00  0.00     0.077 C 
ATOM      3  C1  PXY d   1       2.927  -1.139  -3.720  0.00  0.00    -0.082 A 
ATOM      4  C2  PXY d   1       2.838   0.145  -4.026  0.00  0.00     0.003 A 
ATOM      5  C3  PXY d   1       3.811   0.748  -4.780  0.00  0.00     0.003 A 
ATOM      6  C4  PXY d   1       4.914   0.042  -5.181  0.00  0.00    -0.082 A 
ATOM      7  C5  PXY d   1       5.017  -1.266  -4.864  0.00  0.00     0.003 A 
ATOM      8  C6  PXY d   1       3.998  -1.870  -4.133  0.00  0.00     0.003 A 
ENDROOT
TORSDOF 0
ENDMDL
