MODEL 1
REMARK minimizedAffinity 0.0356584266
REMARK minimizedRMSD -1
REMARK  0 active torsions:
REMARK  status: ('A' for Active; 'I' for Inactive)
ROOT
ATOM      1  C4' PXY d   1      -5.999   5.294  -0.686  0.00  0.00     0.077 C 
ATOM      2  C1' PXY d   1      -3.822   0.517   1.734  0.00  0.00     0.077 C 
ATOM      3  C1  PXY d   1      -4.404   1.768   1.106  0.00  0.00    -0.082 A 
ATOM      4  C2  PXY d   1      -3.916   2.212  -0.041  0.00  0.00     0.003 A 
ATOM      5  C3  PXY d   1      -4.409   3.359  -0.607  0.00  0.00     0.003 A 
ATOM      6  C4  PXY d   1      -5.448   4.030  -0.020  0.00  0.00    -0.082 A 
ATOM      7  C5  PXY d   1      -5.959   3.577   1.145  0.00  0.00     0.003 A 
ATOM      8  C6  PXY d   1      -5.417   2.434   1.724  0.00  0.00     0.003 A 
ENDROOT
TORSDOF 0
ENDMDL
