MODEL 1
REMARK minimizedAffinity 8.49652958
REMARK minimizedRMSD -1
REMARK  0 active torsions:
REMARK  status: ('A' for Active; 'I' for Inactive)
ROOT
ATOM      1  C4' PXY d   1       1.895   0.952   2.242  0.00  0.00     0.077 C 
ATOM      2  C1' PXY d   1       0.650  -4.322   0.231  0.00  0.00     0.077 C 
ATOM      3  C1  PXY d   1       0.988  -2.943   0.763  0.00  0.00    -0.082 A 
ATOM      4  C2  PXY d   1       0.015  -2.084   1.017  0.00  0.00     0.003 A 
ATOM      5  C3  PXY d   1       0.304  -0.822   1.468  0.00  0.00     0.003 A 
ATOM      6  C4  PXY d   1       1.600  -0.454   1.713  0.00  0.00    -0.082 A 
ATOM      7  C5  PXY d   1       2.598  -1.329   1.466  0.00  0.00     0.003 A 
ATOM      8  C6  PXY d   1       2.286  -2.591   0.969  0.00  0.00     0.003 A 
ENDROOT
TORSDOF 0
ENDMDL
