MODEL 1
REMARK minimizedAffinity 9.0151701
REMARK minimizedRMSD -1
REMARK  0 active torsions:
REMARK  status: ('A' for Active; 'I' for Inactive)
ROOT
ATOM      1  C4' PXY d   1       0.530  -3.208   4.302  0.00  0.00     0.077 C 
ATOM      2  C1' PXY d   1       2.395   1.500   1.515  0.00  0.00     0.077 C 
ATOM      3  C1  PXY d   1       1.908   0.271   2.257  0.00  0.00    -0.082 A 
ATOM      4  C2  PXY d   1       1.905  -0.903   1.647  0.00  0.00     0.003 A 
ATOM      5  C3  PXY d   1       1.439  -2.019   2.293  0.00  0.00     0.003 A 
ATOM      6  C4  PXY d   1       1.021  -1.942   3.594  0.00  0.00    -0.082 A 
ATOM      7  C5  PXY d   1       1.031  -0.750   4.227  0.00  0.00     0.003 A 
ATOM      8  C6  PXY d   1       1.470   0.379   3.541  0.00  0.00     0.003 A 
ENDROOT
TORSDOF 0
ENDMDL
