MODEL 1
REMARK minimizedAffinity 5.41001272
REMARK minimizedRMSD -1
REMARK  0 active torsions:
REMARK  status: ('A' for Active; 'I' for Inactive)
ROOT
ATOM      1  C4' PXY d   1       2.597  -4.529   5.288  0.00  0.00     0.077 C 
ATOM      2  C1' PXY d   1       2.295  -0.070   1.621  0.00  0.00     0.077 C 
ATOM      3  C1  PXY d   1       2.386  -1.243   2.578  0.00  0.00    -0.082 A 
ATOM      4  C2  PXY d   1       1.277  -1.790   3.050  0.00  0.00     0.003 A 
ATOM      5  C3  PXY d   1       1.342  -2.830   3.941  0.00  0.00     0.003 A 
ATOM      6  C4  PXY d   1       2.553  -3.350   4.312  0.00  0.00    -0.082 A 
ATOM      7  C5  PXY d   1       3.688  -2.804   3.827  0.00  0.00     0.003 A 
ATOM      8  C6  PXY d   1       3.602  -1.722   2.956  0.00  0.00     0.003 A 
ENDROOT
TORSDOF 0
ENDMDL
