MODEL 1
REMARK minimizedAffinity 7.63613415
REMARK minimizedRMSD -1
REMARK  0 active torsions:
REMARK  status: ('A' for Active; 'I' for Inactive)
ROOT
ATOM      1  C4' PXY d   1       0.579   1.392   3.226  0.00  0.00     0.077 C 
ATOM      2  C1' PXY d   1       1.863  -4.205   2.558  0.00  0.00     0.077 C 
ATOM      3  C1  PXY d   1       1.518  -2.740   2.743  0.00  0.00    -0.082 A 
ATOM      4  C2  PXY d   1       1.659  -1.902   1.729  0.00  0.00     0.003 A 
ATOM      5  C3  PXY d   1       1.382  -0.569   1.888  0.00  0.00     0.003 A 
ATOM      6  C4  PXY d   1       0.906  -0.097   3.082  0.00  0.00    -0.082 A 
ATOM      7  C5  PXY d   1       0.750  -0.948   4.119  0.00  0.00     0.003 A 
ATOM      8  C6  PXY d   1       1.076  -2.291   3.949  0.00  0.00     0.003 A 
ENDROOT
TORSDOF 0
ENDMDL
