MODEL 1
REMARK minimizedAffinity 3.0543201
REMARK minimizedRMSD -1
REMARK  0 active torsions:
REMARK  status: ('A' for Active; 'I' for Inactive)
ROOT
ATOM      1  C4' PXY d   1       6.000  -3.433   2.492  0.00  0.00     0.077 C 
ATOM      2  C1' PXY d   1       0.560  -2.514   4.217  0.00  0.00     0.077 C 
ATOM      3  C1  PXY d   1       1.991  -2.751   3.776  0.00  0.00    -0.082 A 
ATOM      4  C2  PXY d   1       2.280  -2.787   2.486  0.00  0.00     0.003 A 
ATOM      5  C3  PXY d   1       3.563  -3.032   2.069  0.00  0.00     0.003 A 
ATOM      6  C4  PXY d   1       4.570  -3.188   2.984  0.00  0.00    -0.082 A 
ATOM      7  C5  PXY d   1       4.285  -3.141   4.302  0.00  0.00     0.003 A 
ATOM      8  C6  PXY d   1       2.969  -2.933   4.704  0.00  0.00     0.003 A 
ENDROOT
TORSDOF 0
ENDMDL
