MODEL 1
REMARK minimizedAffinity 3.2845552
REMARK minimizedRMSD -1
REMARK  0 active torsions:
REMARK  status: ('A' for Active; 'I' for Inactive)
ROOT
ATOM      1  C4' PXY d   1      -5.998   4.639   0.567  0.00  0.00     0.077 C 
ATOM      2  C1' PXY d   1      -1.395   1.179   0.064  0.00  0.00     0.077 C 
ATOM      3  C1  PXY d   1      -2.606   2.080   0.206  0.00  0.00    -0.082 A 
ATOM      4  C2  PXY d   1      -3.078   2.714  -0.855  0.00  0.00     0.003 A 
ATOM      5  C3  PXY d   1      -4.152   3.558  -0.737  0.00  0.00     0.003 A 
ATOM      6  C4  PXY d   1      -4.783   3.712   0.468  0.00  0.00    -0.082 A 
ATOM      7  C5  PXY d   1      -4.314   3.060   1.553  0.00  0.00     0.003 A 
ATOM      8  C6  PXY d   1      -3.197   2.241   1.421  0.00  0.00     0.003 A 
ENDROOT
TORSDOF 0
ENDMDL
