MODEL 1
REMARK minimizedAffinity 12.1686201
REMARK minimizedRMSD -1
REMARK  0 active torsions:
REMARK  status: ('A' for Active; 'I' for Inactive)
ROOT
ATOM      1  C4' PXY d   1       1.029  -1.741   5.023  0.00  0.00     0.077 C 
ATOM      2  C1' PXY d   1       1.864  -4.712   0.135  0.00  0.00     0.077 C 
ATOM      3  C1  PXY d   1       1.652  -3.923   1.412  0.00  0.00    -0.082 A 
ATOM      4  C2  PXY d   1       1.380  -4.562   2.538  0.00  0.00     0.003 A 
ATOM      5  C3  PXY d   1       1.154  -3.862   3.696  0.00  0.00     0.003 A 
ATOM      6  C4  PXY d   1       1.260  -2.497   3.712  0.00  0.00    -0.082 A 
ATOM      7  C5  PXY d   1       1.547  -1.839   2.570  0.00  0.00     0.003 A 
ATOM      8  C6  PXY d   1       1.733  -2.565   1.397  0.00  0.00     0.003 A 
ENDROOT
TORSDOF 0
ENDMDL
