MODEL 1
REMARK minimizedAffinity 2.40323448
REMARK minimizedRMSD -1
REMARK  0 active torsions:
REMARK  status: ('A' for Active; 'I' for Inactive)
ROOT
ATOM      1  C1  BNZ d   1       3.528   4.149   4.886  0.00  0.00     0.000 A 
ATOM      2  C2  BNZ d   1       4.335   4.215   3.782  0.00  0.00     0.000 A 
ATOM      3  C3  BNZ d   1       5.460   4.991   3.784  0.00  0.00     0.000 A 
ATOM      4  C4  BNZ d   1       5.755   5.729   4.873  0.00  0.00     0.000 A 
ATOM      5  C5  BNZ d   1       4.946   5.680   5.991  0.00  0.00     0.000 A 
ATOM      6  C6  BNZ d   1       3.835   4.868   6.000  0.00  0.00     0.000 A 
ENDROOT
TORSDOF 0
ENDMDL
