MODEL 1
REMARK minimizedAffinity 0.692831814
REMARK minimizedRMSD -1
REMARK  0 active torsions:
REMARK  status: ('A' for Active; 'I' for Inactive)
ROOT
ATOM      1  C1  BNZ d   1       5.029   1.418  -2.416  0.00  0.00     0.000 A 
ATOM      2  C2  BNZ d   1       4.162   0.358  -2.410  0.00  0.00     0.000 A 
ATOM      3  C3  BNZ d   1       3.714  -0.173  -1.233  0.00  0.00     0.000 A 
ATOM      4  C4  BNZ d   1       4.164   0.329  -0.065  0.00  0.00     0.000 A 
ATOM      5  C5  BNZ d   1       5.046   1.392  -0.054  0.00  0.00     0.000 A 
ATOM      6  C6  BNZ d   1       5.464   1.949  -1.241  0.00  0.00     0.000 A 
ENDROOT
TORSDOF 0
ENDMDL
