MODEL 1
REMARK minimizedAffinity -1.98074281
REMARK minimizedRMSD -1
REMARK  0 active torsions:
REMARK  status: ('A' for Active; 'I' for Inactive)
ROOT
ATOM      1  C1  BNZ d   1      -4.005   2.279   1.729  0.00  0.00     0.000 A 
ATOM      2  C2  BNZ d   1      -3.016   3.151   2.097  0.00  0.00     0.000 A 
ATOM      3  C3  BNZ d   1      -1.921   3.343   1.301  0.00  0.00     0.000 A 
ATOM      4  C4  BNZ d   1      -1.797   2.633   0.161  0.00  0.00     0.000 A 
ATOM      5  C5  BNZ d   1      -2.782   1.743  -0.219  0.00  0.00     0.000 A 
ATOM      6  C6  BNZ d   1      -3.902   1.582   0.565  0.00  0.00     0.000 A 
ENDROOT
TORSDOF 0
ENDMDL
