MODEL 1
REMARK minimizedAffinity 5.23956299
REMARK minimizedRMSD -1
REMARK  0 active torsions:
REMARK  status: ('A' for Active; 'I' for Inactive)
ROOT
ATOM      1  C1  BNZ d   1       4.948   3.659   2.786  0.00  0.00     0.000 A 
ATOM      2  C2  BNZ d   1       5.252   3.814   4.113  0.00  0.00     0.000 A 
ATOM      3  C3  BNZ d   1       4.899   4.951   4.784  0.00  0.00     0.000 A 
ATOM      4  C4  BNZ d   1       4.278   5.947   4.120  0.00  0.00     0.000 A 
ATOM      5  C5  BNZ d   1       3.974   5.810   2.780  0.00  0.00     0.000 A 
ATOM      6  C6  BNZ d   1       4.296   4.648   2.117  0.00  0.00     0.000 A 
ENDROOT
TORSDOF 0
ENDMDL
