MODEL 1
REMARK minimizedAffinity 5.09160185
REMARK minimizedRMSD -1
REMARK  0 active torsions:
REMARK  status: ('A' for Active; 'I' for Inactive)
ROOT
ATOM      1  C1  BNZ d   1       4.435   0.475  -3.128  0.00  0.00     0.000 A 
ATOM      2  C2  BNZ d   1       3.436  -0.305  -2.608  0.00  0.00     0.000 A 
ATOM      3  C3  BNZ d   1       3.162  -0.290  -1.269  0.00  0.00     0.000 A 
ATOM      4  C4  BNZ d   1       3.912   0.472  -0.447  0.00  0.00     0.000 A 
ATOM      5  C5  BNZ d   1       4.928   1.256  -0.955  0.00  0.00     0.000 A 
ATOM      6  C6  BNZ d   1       5.176   1.269  -2.308  0.00  0.00     0.000 A 
ENDROOT
TORSDOF 0
ENDMDL
