MODEL 1
REMARK minimizedAffinity 0.924986124
REMARK minimizedRMSD -1
REMARK  0 active torsions:
REMARK  status: ('A' for Active; 'I' for Inactive)
ROOT
ATOM      1  C1  BNZ d   1      -0.036  -2.552  -1.941  0.00  0.00     0.000 A 
ATOM      2  C2  BNZ d   1       0.474  -2.357  -0.685  0.00  0.00     0.000 A 
ATOM      3  C3  BNZ d   1       0.267  -1.181  -0.020  0.00  0.00     0.000 A 
ATOM      4  C4  BNZ d   1      -0.415  -0.188  -0.626  0.00  0.00     0.000 A 
ATOM      5  C5  BNZ d   1      -0.928  -0.365  -1.896  0.00  0.00     0.000 A 
ATOM      6  C6  BNZ d   1      -0.750  -1.565  -2.547  0.00  0.00     0.000 A 
ENDROOT
TORSDOF 0
ENDMDL
