MODEL 1
REMARK minimizedAffinity -4.3741498
REMARK minimizedRMSD -1
REMARK  2 active torsions:
REMARK  status: ('A' for Active; 'I' for Inactive)
REMARK    1  A    between atoms: C1_2  and  C2_3 
REMARK    2  A    between atoms: C2_3  and  C3_4 
ROOT
ATOM      1  C3  UNL d   1      -0.758   0.307  -1.305  0.00  0.00    -0.075 A 
ATOM      2  C4  UNL d   1      -1.117  -0.181  -2.570  0.00  0.00     0.002 A 
ATOM      3  C5  UNL d   1      -2.457  -0.228  -2.957  0.00  0.00     0.002 A 
ATOM      4  C6  UNL d   1      -3.453   0.202  -2.083  0.00  0.00    -0.004 A 
ATOM      5  C7  UNL d   1      -3.109   0.673  -0.818  0.00  0.00     0.002 A 
ATOM      6  C8  UNL d   1      -1.769   0.725  -0.429  0.00  0.00     0.002 A 
ENDROOT
BRANCH   1   7
ATOM      7  C2  UNL d   1       0.692   0.388  -0.891  0.00  0.00     0.056 C 
BRANCH   7   8
ATOM      8  C1  UNL d   1       0.930   1.190   0.393  0.00  0.00     0.007 C 
ATOM      9  C   UNL d   1       2.050   0.624   1.255  0.00  0.00     0.009 C 
ENDBRANCH   7   8
ENDBRANCH   1   7
TORSDOF 2
ENDMDL
