MODEL 1
REMARK minimizedAffinity -6.06136942
REMARK minimizedRMSD -1
REMARK  2 active torsions:
REMARK  status: ('A' for Active; 'I' for Inactive)
REMARK    1  A    between atoms: C1_2  and  C2_3 
REMARK    2  A    between atoms: C2_3  and  C3_4 
ROOT
ATOM      1  C3  UNL d   1       0.966  -0.092   0.316  0.00  0.00    -0.075 A 
ATOM      2  C4  UNL d   1       0.627  -1.278   0.983  0.00  0.00     0.002 A 
ATOM      3  C5  UNL d   1       1.598  -2.005   1.672  0.00  0.00     0.002 A 
ATOM      4  C6  UNL d   1       2.919  -1.563   1.695  0.00  0.00    -0.004 A 
ATOM      5  C7  UNL d   1       3.270  -0.394   1.022  0.00  0.00     0.002 A 
ATOM      6  C8  UNL d   1       2.300   0.338   0.336  0.00  0.00     0.002 A 
ENDROOT
BRANCH   1   7
ATOM      7  C2  UNL d   1      -0.085   0.716  -0.406  0.00  0.00     0.056 C 
BRANCH   7   8
ATOM      8  C1  UNL d   1      -1.515   0.202  -0.203  0.00  0.00     0.007 C 
ATOM      9  C   UNL d   1      -2.383   0.334  -1.447  0.00  0.00     0.009 C 
ENDBRANCH   7   8
ENDBRANCH   1   7
TORSDOF 2
ENDMDL
