MODEL 1
REMARK minimizedAffinity -4.81665897
REMARK minimizedRMSD -1
REMARK  2 active torsions:
REMARK  status: ('A' for Active; 'I' for Inactive)
REMARK    1  A    between atoms: C1_2  and  C2_3 
REMARK    2  A    between atoms: C2_3  and  C3_4 
ROOT
ATOM      1  C3  UNL d   1       0.792  -0.789   0.458  0.00  0.00    -0.075 A 
ATOM      2  C4  UNL d   1       0.366  -1.744   1.393  0.00  0.00     0.002 A 
ATOM      3  C5  UNL d   1       1.283  -2.357   2.247  0.00  0.00     0.002 A 
ATOM      4  C6  UNL d   1       2.635  -2.031   2.172  0.00  0.00    -0.004 A 
ATOM      5  C7  UNL d   1       3.072  -1.096   1.237  0.00  0.00     0.002 A 
ATOM      6  C8  UNL d   1       2.156  -0.478   0.383  0.00  0.00     0.002 A 
ENDROOT
BRANCH   1   7
ATOM      7  C2  UNL d   1      -0.199  -0.100  -0.449  0.00  0.00     0.056 C 
BRANCH   7   8
ATOM      8  C1  UNL d   1      -0.900   1.102   0.191  0.00  0.00     0.007 C 
ATOM      9  C   UNL d   1       0.044   2.259   0.490  0.00  0.00     0.009 C 
ENDBRANCH   7   8
ENDBRANCH   1   7
TORSDOF 2
ENDMDL
