MODEL 1
REMARK minimizedAffinity -4.49597311
REMARK minimizedRMSD -1
REMARK  2 active torsions:
REMARK  status: ('A' for Active; 'I' for Inactive)
REMARK    1  A    between atoms: C1_2  and  C2_3 
REMARK    2  A    between atoms: C2_3  and  C3_4 
ROOT
ATOM      1  C3  UNL d   1       0.554   0.144  -0.094  0.00  0.00    -0.075 A 
ATOM      2  C4  UNL d   1       1.650   1.015  -0.165  0.00  0.00     0.002 A 
ATOM      3  C5  UNL d   1       2.863   0.679   0.438  0.00  0.00     0.002 A 
ATOM      4  C6  UNL d   1       2.992  -0.525   1.127  0.00  0.00    -0.004 A 
ATOM      5  C7  UNL d   1       1.905  -1.391   1.218  0.00  0.00     0.002 A 
ATOM      6  C8  UNL d   1       0.691  -1.059   0.612  0.00  0.00     0.002 A 
ENDROOT
BRANCH   1   7
ATOM      7  C2  UNL d   1      -0.752   0.488  -0.769  0.00  0.00     0.056 C 
BRANCH   7   8
ATOM      8  C1  UNL d   1      -1.180  -0.514  -1.847  0.00  0.00     0.007 C 
ATOM      9  C   UNL d   1      -2.284   0.014  -2.753  0.00  0.00     0.009 C 
ENDBRANCH   7   8
ENDBRANCH   1   7
TORSDOF 2
ENDMDL
