MODEL 1
REMARK minimizedAffinity -2.42125273
REMARK minimizedRMSD -1
REMARK  2 active torsions:
REMARK  status: ('A' for Active; 'I' for Inactive)
REMARK    1  A    between atoms: C1_2  and  C2_3 
REMARK    2  A    between atoms: C2_3  and  C3_4 
ROOT
ATOM      1  C3  UNL d   1      -0.428   0.124   0.299  0.00  0.00    -0.075 A 
ATOM      2  C4  UNL d   1       0.206  -0.633   1.296  0.00  0.00     0.002 A 
ATOM      3  C5  UNL d   1       1.513  -0.338   1.686  0.00  0.00     0.002 A 
ATOM      4  C6  UNL d   1       2.205   0.708   1.079  0.00  0.00    -0.004 A 
ATOM      5  C7  UNL d   1       1.591   1.456   0.076  0.00  0.00     0.002 A 
ATOM      6  C8  UNL d   1       0.282   1.166  -0.313  0.00  0.00     0.002 A 
ENDROOT
BRANCH   1   7
ATOM      7  C2  UNL d   1      -1.852  -0.171  -0.106  0.00  0.00     0.056 C 
BRANCH   7   8
ATOM      8  C1  UNL d   1      -2.273   0.484  -1.426  0.00  0.00     0.007 C 
ATOM      9  C   UNL d   1      -2.292  -0.488  -2.599  0.00  0.00     0.009 C 
ENDBRANCH   7   8
ENDBRANCH   1   7
TORSDOF 2
ENDMDL
