MODEL 1
REMARK minimizedAffinity -1.48597705
REMARK minimizedRMSD -1
REMARK  2 active torsions:
REMARK  status: ('A' for Active; 'I' for Inactive)
REMARK    1  A    between atoms: C1_2  and  C2_3 
REMARK    2  A    between atoms: C2_3  and  C3_4 
ROOT
ATOM      1  C3  UNL d   1       1.149   0.758   1.608  0.00  0.00    -0.075 A 
ATOM      2  C4  UNL d   1       0.609  -0.365   2.251  0.00  0.00     0.002 A 
ATOM      3  C5  UNL d   1       1.180  -0.849   3.429  0.00  0.00     0.002 A 
ATOM      4  C6  UNL d   1       2.302  -0.225   3.971  0.00  0.00    -0.004 A 
ATOM      5  C7  UNL d   1       2.856   0.881   3.331  0.00  0.00     0.002 A 
ATOM      6  C8  UNL d   1       2.284   1.371   2.155  0.00  0.00     0.002 A 
ENDROOT
BRANCH   1   7
ATOM      7  C2  UNL d   1       0.518   1.305   0.350  0.00  0.00     0.056 C 
BRANCH   7   8
ATOM      8  C1  UNL d   1      -1.007   1.428   0.420  0.00  0.00     0.007 C 
ATOM      9  C   UNL d   1      -1.651   1.695  -0.935  0.00  0.00     0.009 C 
ENDBRANCH   7   8
ENDBRANCH   1   7
TORSDOF 2
ENDMDL
