MODEL 1
REMARK minimizedAffinity -0.828119755
REMARK minimizedRMSD -1
REMARK  2 active torsions:
REMARK  status: ('A' for Active; 'I' for Inactive)
REMARK    1  A    between atoms: C1_2  and  C2_3 
REMARK    2  A    between atoms: C2_3  and  C3_4 
ROOT
ATOM      1  C3  UNL d   1       0.852   2.288   0.660  0.00  0.00    -0.075 A 
ATOM      2  C4  UNL d   1       0.209   1.048   0.538  0.00  0.00     0.002 A 
ATOM      3  C5  UNL d   1       0.716  -0.079   1.184  0.00  0.00     0.002 A 
ATOM      4  C6  UNL d   1       1.876   0.016   1.950  0.00  0.00    -0.004 A 
ATOM      5  C7  UNL d   1       2.532   1.239   2.065  0.00  0.00     0.002 A 
ATOM      6  C8  UNL d   1       2.025   2.370   1.423  0.00  0.00     0.002 A 
ENDROOT
BRANCH   1   7
ATOM      7  C2  UNL d   1       0.292   3.519  -0.013  0.00  0.00     0.056 C 
BRANCH   7   8
ATOM      8  C1  UNL d   1      -0.696   4.308   0.853  0.00  0.00     0.007 C 
ATOM      9  C   UNL d   1      -0.808   5.773   0.453  0.00  0.00     0.009 C 
ENDBRANCH   7   8
ENDBRANCH   1   7
TORSDOF 2
ENDMDL
