MODEL 1
REMARK minimizedAffinity -0.814077199
REMARK minimizedRMSD -1
REMARK  2 active torsions:
REMARK  status: ('A' for Active; 'I' for Inactive)
REMARK    1  A    between atoms: C1_2  and  C2_3 
REMARK    2  A    between atoms: C2_3  and  C3_4 
ROOT
ATOM      1  C3  UNL d   1       0.189   0.189   1.053  0.00  0.00    -0.075 A 
ATOM      2  C4  UNL d   1       1.293   1.027   1.268  0.00  0.00     0.002 A 
ATOM      3  C5  UNL d   1       2.215   0.739   2.274  0.00  0.00     0.002 A 
ATOM      4  C6  UNL d   1       2.040  -0.382   3.084  0.00  0.00    -0.004 A 
ATOM      5  C7  UNL d   1       0.938  -1.211   2.890  0.00  0.00     0.002 A 
ATOM      6  C8  UNL d   1       0.016  -0.928   1.881  0.00  0.00     0.002 A 
ENDROOT
BRANCH   1   7
ATOM      7  C2  UNL d   1      -0.796   0.479  -0.054  0.00  0.00     0.056 C 
BRANCH   7   8
ATOM      8  C1  UNL d   1      -0.398  -0.106  -1.413  0.00  0.00     0.007 C 
ATOM      9  C   UNL d   1      -1.387   0.225  -2.523  0.00  0.00     0.009 C 
ENDBRANCH   7   8
ENDBRANCH   1   7
TORSDOF 2
ENDMDL
