MODEL 1
REMARK minimizedAffinity -1.67876053
REMARK minimizedRMSD -1
REMARK  2 active torsions:
REMARK  status: ('A' for Active; 'I' for Inactive)
REMARK    1  A    between atoms: C1_2  and  C2_3 
REMARK    2  A    between atoms: C2_3  and  C3_4 
ROOT
ATOM      1  C3  UNL d   1       1.255  -0.332   0.851  0.00  0.00    -0.075 A 
ATOM      2  C4  UNL d   1       0.647  -1.473   1.395  0.00  0.00     0.002 A 
ATOM      3  C5  UNL d   1       1.254  -2.169   2.440  0.00  0.00     0.002 A 
ATOM      4  C6  UNL d   1       2.480  -1.742   2.946  0.00  0.00    -0.004 A 
ATOM      5  C7  UNL d   1       3.102  -0.621   2.402  0.00  0.00     0.002 A 
ATOM      6  C8  UNL d   1       2.494   0.081   1.359  0.00  0.00     0.002 A 
ENDROOT
BRANCH   1   7
ATOM      7  C2  UNL d   1       0.589   0.443  -0.261  0.00  0.00     0.056 C 
BRANCH   7   8
ATOM      8  C1  UNL d   1      -0.481   1.429   0.221  0.00  0.00     0.007 C 
ATOM      9  C   UNL d   1       0.047   2.845   0.406  0.00  0.00     0.009 C 
ENDBRANCH   7   8
ENDBRANCH   1   7
TORSDOF 2
ENDMDL
