MODEL 1
REMARK minimizedAffinity -2.6738379
REMARK minimizedRMSD -1
REMARK  2 active torsions:
REMARK  status: ('A' for Active; 'I' for Inactive)
REMARK    1  A    between atoms: C1_2  and  C2_3 
REMARK    2  A    between atoms: C2_3  and  C3_4 
ROOT
ATOM      1  C3  UNL d   1       1.138   0.656   0.888  0.00  0.00    -0.075 A 
ATOM      2  C4  UNL d   1       2.394   0.423   1.468  0.00  0.00     0.002 A 
ATOM      3  C5  UNL d   1       2.916  -0.869   1.530  0.00  0.00     0.002 A 
ATOM      4  C6  UNL d   1       2.188  -1.943   1.025  0.00  0.00    -0.004 A 
ATOM      5  C7  UNL d   1       0.932  -1.726   0.463  0.00  0.00     0.002 A 
ATOM      6  C8  UNL d   1       0.408  -0.434   0.395  0.00  0.00     0.002 A 
ENDROOT
BRANCH   1   7
ATOM      7  C2  UNL d   1       0.579   2.056   0.791  0.00  0.00     0.056 C 
BRANCH   7   8
ATOM      8  C1  UNL d   1       1.600   3.104   0.338  0.00  0.00     0.007 C 
ATOM      9  C   UNL d   1       0.965   4.432  -0.052  0.00  0.00     0.009 C 
ENDBRANCH   7   8
ENDBRANCH   1   7
TORSDOF 2
ENDMDL
