MODEL 1
REMARK minimizedAffinity -5.81519175
REMARK minimizedRMSD -1
REMARK  2 active torsions:
REMARK  status: ('A' for Active; 'I' for Inactive)
REMARK    1  A    between atoms: C1_2  and  C2_3 
REMARK    2  A    between atoms: C2_3  and  C3_4 
ROOT
ATOM      1  C3  UNL d   1      -0.039   0.272   0.378  0.00  0.00    -0.075 A 
ATOM      2  C4  UNL d   1       0.542  -1.002   0.465  0.00  0.00     0.002 A 
ATOM      3  C5  UNL d   1       1.888  -1.144   0.804  0.00  0.00     0.002 A 
ATOM      4  C6  UNL d   1       2.670  -0.018   1.050  0.00  0.00    -0.004 A 
ATOM      5  C7  UNL d   1       2.108   1.252   0.950  0.00  0.00     0.002 A 
ATOM      6  C8  UNL d   1       0.760   1.398   0.615  0.00  0.00     0.002 A 
ENDROOT
BRANCH   1   7
ATOM      7  C2  UNL d   1      -1.503   0.431   0.040  0.00  0.00     0.056 C 
BRANCH   7   8
ATOM      8  C1  UNL d   1      -1.999  -0.524  -1.050  0.00  0.00     0.007 C 
ATOM      9  C   UNL d   1      -2.989   0.123  -2.010  0.00  0.00     0.009 C 
ENDBRANCH   7   8
ENDBRANCH   1   7
TORSDOF 2
ENDMDL
