MODEL 1
REMARK minimizedAffinity 5.47694206
REMARK minimizedRMSD -1
REMARK  1 active torsions:
REMARK  status: ('A' for Active; 'I' for Inactive)
REMARK    1  A    between atoms: C1_2  and  C2_3 
ROOT
ATOM      1  C2  UNL d   1       3.433   1.978  -0.588  0.00  0.00    -0.081 A 
ATOM      2  C3  UNL d   1       3.565   1.355   0.659  0.00  0.00     0.006 A 
ATOM      3  C4  UNL d   1       2.487   1.313   1.547  0.00  0.00     0.002 A 
ATOM      4  C5  UNL d   1       1.259   1.885   1.201  0.00  0.00    -0.080 A 
ATOM      5  C6  UNL d   1       0.085   1.820   2.133  0.00  0.00     0.076 C 
ATOM      6  C7  UNL d   1       1.132   2.523  -0.038  0.00  0.00     0.002 A 
ATOM      7  C8  UNL d   1       2.209   2.566  -0.926  0.00  0.00     0.006 A 
ENDROOT
BRANCH   1   8
ATOM      8  C1  UNL d   1       4.573   1.969  -1.574  0.00  0.00     0.054 C 
ATOM      9  C   UNL d   1       4.288   1.033  -2.740  0.00  0.00     0.018 C 
ENDBRANCH   1   8
TORSDOF 1
ENDMDL
