MODEL 1
REMARK minimizedAffinity 11.1604671
REMARK minimizedRMSD -1
REMARK  1 active torsions:
REMARK  status: ('A' for Active; 'I' for Inactive)
REMARK    1  A    between atoms: C1_2  and  C2_3 
ROOT
ATOM      1  C2  UNL d   1       2.347   2.006   1.947  0.00  0.00    -0.081 A 
ATOM      2  C3  UNL d   1       2.797   2.837   0.913  0.00  0.00     0.006 A 
ATOM      3  C4  UNL d   1       1.891   3.400   0.012  0.00  0.00     0.002 A 
ATOM      4  C5  UNL d   1       0.520   3.150   0.135  0.00  0.00    -0.080 A 
ATOM      5  C6  UNL d   1      -0.467   3.774  -0.808  0.00  0.00     0.076 C 
ATOM      6  C7  UNL d   1       0.072   2.307   1.157  0.00  0.00     0.002 A 
ATOM      7  C8  UNL d   1       0.977   1.742   2.057  0.00  0.00     0.006 A 
ENDROOT
BRANCH   1   8
ATOM      8  C1  UNL d   1       3.315   1.449   2.959  0.00  0.00     0.054 C 
ATOM      9  C   UNL d   1       3.941   2.556   3.795  0.00  0.00     0.018 C 
ENDBRANCH   1   8
TORSDOF 1
ENDMDL
