MODEL 1
REMARK minimizedAffinity 12.6072712
REMARK minimizedRMSD -1
REMARK  1 active torsions:
REMARK  status: ('A' for Active; 'I' for Inactive)
REMARK    1  A    between atoms: C1_2  and  C2_3 
ROOT
ATOM      1  C2  UNL d   1       3.508  -5.791  -5.278  0.00  0.00    -0.081 A 
ATOM      2  C3  UNL d   1       2.296  -5.979  -5.954  0.00  0.00     0.006 A 
ATOM      3  C4  UNL d   1       1.080  -5.750  -5.306  0.00  0.00     0.002 A 
ATOM      4  C5  UNL d   1       1.055  -5.323  -3.974  0.00  0.00    -0.080 A 
ATOM      5  C6  UNL d   1      -0.242  -5.044  -3.276  0.00  0.00     0.076 C 
ATOM      6  C7  UNL d   1       2.265  -5.151  -3.293  0.00  0.00     0.002 A 
ATOM      7  C8  UNL d   1       3.481  -5.381  -3.940  0.00  0.00     0.006 A 
ENDROOT
BRANCH   1   8
ATOM      8  C1  UNL d   1       4.822  -5.975  -5.993  0.00  0.00     0.054 C 
ATOM      9  C   UNL d   1       5.999  -5.691  -5.071  0.00  0.00     0.018 C 
ENDBRANCH   1   8
TORSDOF 1
ENDMDL
