MODEL 1
REMARK minimizedAffinity 4.65310287
REMARK minimizedRMSD -1
REMARK  1 active torsions:
REMARK  status: ('A' for Active; 'I' for Inactive)
REMARK    1  A    between atoms: C1_2  and  C2_3 
ROOT
ATOM      1  C2  UNL d   1       0.023   2.564   1.022  0.00  0.00    -0.081 A 
ATOM      2  C3  UNL d   1       0.379   3.459   0.007  0.00  0.00     0.006 A 
ATOM      3  C4  UNL d   1       1.682   3.477  -0.497  0.00  0.00     0.002 A 
ATOM      4  C5  UNL d   1       2.647   2.595   0.001  0.00  0.00    -0.080 A 
ATOM      5  C6  UNL d   1       4.042   2.583  -0.552  0.00  0.00     0.076 C 
ATOM      6  C7  UNL d   1       2.296   1.712   1.027  0.00  0.00     0.002 A 
ATOM      7  C8  UNL d   1       0.994   1.694   1.532  0.00  0.00     0.006 A 
ENDROOT
BRANCH   1   8
ATOM      8  C1  UNL d   1      -1.398   2.498   1.522  0.00  0.00     0.054 C 
ATOM      9  C   UNL d   1      -1.447   2.180   3.010  0.00  0.00     0.018 C 
ENDBRANCH   1   8
TORSDOF 1
ENDMDL
