MODEL 1
REMARK minimizedAffinity 10.2736006
REMARK minimizedRMSD -1
REMARK  1 active torsions:
REMARK  status: ('A' for Active; 'I' for Inactive)
REMARK    1  A    between atoms: C1_2  and  C2_3 
ROOT
ATOM      1  C2  UNL d   1      -0.133   2.838   1.147  0.00  0.00    -0.081 A 
ATOM      2  C3  UNL d   1       0.103   2.365   2.444  0.00  0.00     0.006 A 
ATOM      3  C4  UNL d   1       1.394   2.009   2.844  0.00  0.00     0.002 A 
ATOM      4  C5  UNL d   1       2.470   2.129   1.958  0.00  0.00    -0.080 A 
ATOM      5  C6  UNL d   1       3.865   1.780   2.385  0.00  0.00     0.076 C 
ATOM      6  C7  UNL d   1       2.232   2.585   0.658  0.00  0.00     0.002 A 
ATOM      7  C8  UNL d   1       0.942   2.940   0.256  0.00  0.00     0.006 A 
ENDROOT
BRANCH   1   8
ATOM      8  C1  UNL d   1      -1.512   3.283   0.733  0.00  0.00     0.054 C 
ATOM      9  C   UNL d   1      -1.509   3.853  -0.679  0.00  0.00     0.018 C 
ENDBRANCH   1   8
TORSDOF 1
ENDMDL
