MODEL 1
REMARK minimizedAffinity 15.8078871
REMARK minimizedRMSD -1
REMARK  1 active torsions:
REMARK  status: ('A' for Active; 'I' for Inactive)
REMARK    1  A    between atoms: C1_2  and  C2_3 
ROOT
ATOM      1  C2  UNL d   1       0.222   2.622   1.227  0.00  0.00    -0.081 A 
ATOM      2  C3  UNL d   1       0.901   3.718   0.681  0.00  0.00     0.006 A 
ATOM      3  C4  UNL d   1       2.284   3.670   0.488  0.00  0.00     0.002 A 
ATOM      4  C5  UNL d   1       3.009   2.523   0.830  0.00  0.00    -0.080 A 
ATOM      5  C6  UNL d   1       4.489   2.448   0.600  0.00  0.00     0.076 C 
ATOM      6  C7  UNL d   1       2.333   1.435   1.392  0.00  0.00     0.002 A 
ATOM      7  C8  UNL d   1       0.951   1.482   1.586  0.00  0.00     0.006 A 
ENDROOT
BRANCH   1   8
ATOM      8  C1  UNL d   1      -1.278   2.646   1.376  0.00  0.00     0.054 C 
ATOM      9  C   UNL d   1      -1.697   2.334   2.806  0.00  0.00     0.018 C 
ENDBRANCH   1   8
TORSDOF 1
ENDMDL
