MODEL 1
REMARK minimizedAffinity 3.4797225
REMARK minimizedRMSD -1
REMARK  1 active torsions:
REMARK  status: ('A' for Active; 'I' for Inactive)
REMARK    1  A    between atoms: C1_2  and  C2_3 
ROOT
ATOM      1  C2  UNL d   1       4.328   2.395   4.098  0.00  0.00    -0.081 A 
ATOM      2  C3  UNL d   1       4.804   2.400   5.415  0.00  0.00     0.006 A 
ATOM      3  C4  UNL d   1       5.352   3.560   5.966  0.00  0.00     0.002 A 
ATOM      4  C5  UNL d   1       5.425   4.737   5.213  0.00  0.00    -0.080 A 
ATOM      5  C6  UNL d   1       5.983   5.999   5.803  0.00  0.00     0.076 C 
ATOM      6  C7  UNL d   1       4.966   4.728   3.892  0.00  0.00     0.002 A 
ATOM      7  C8  UNL d   1       4.419   3.568   3.340  0.00  0.00     0.006 A 
ENDROOT
BRANCH   1   8
ATOM      8  C1  UNL d   1       3.678   1.163   3.522  0.00  0.00     0.054 C 
ATOM      9  C   UNL d   1       2.699   1.521   2.413  0.00  0.00     0.018 C 
ENDBRANCH   1   8
TORSDOF 1
ENDMDL
