MODEL 1
REMARK minimizedAffinity -4.03134441
REMARK minimizedRMSD -1
REMARK  1 active torsions:
REMARK  status: ('A' for Active; 'I' for Inactive)
REMARK    1  A    between atoms: C1_2  and  C2_3 
ROOT
ATOM      1  C2  UNL d   1       3.060   3.060  -4.822  0.00  0.00    -0.081 A 
ATOM      2  C3  UNL d   1       2.204   3.217  -5.919  0.00  0.00     0.006 A 
ATOM      3  C4  UNL d   1       0.931   2.640  -5.913  0.00  0.00     0.002 A 
ATOM      4  C5  UNL d   1       0.492   1.904  -4.808  0.00  0.00    -0.080 A 
ATOM      5  C6  UNL d   1      -0.883   1.304  -4.776  0.00  0.00     0.076 C 
ATOM      6  C7  UNL d   1       1.353   1.732  -3.719  0.00  0.00     0.002 A 
ATOM      7  C8  UNL d   1       2.626   2.308  -3.725  0.00  0.00     0.006 A 
ENDROOT
BRANCH   1   8
ATOM      8  C1  UNL d   1       4.407   3.735  -4.799  0.00  0.00     0.054 C 
ATOM      9  C   UNL d   1       5.250   3.330  -6.000  0.00  0.00     0.018 C 
ENDBRANCH   1   8
TORSDOF 1
ENDMDL
