MODEL 1
REMARK minimizedAffinity 5.81641388
REMARK minimizedRMSD -1
REMARK  1 active torsions:
REMARK  status: ('A' for Active; 'I' for Inactive)
REMARK    1  A    between atoms: C1_2  and  C2_3 
ROOT
ATOM      1  C2  UNL d   1       4.909   5.833   1.543  0.00  0.00    -0.081 A 
ATOM      2  C3  UNL d   1       5.967   5.912   2.456  0.00  0.00     0.006 A 
ATOM      3  C4  UNL d   1       5.720   5.885   3.831  0.00  0.00     0.002 A 
ATOM      4  C5  UNL d   1       4.413   5.770   4.315  0.00  0.00    -0.080 A 
ATOM      5  C6  UNL d   1       4.136   5.709   5.788  0.00  0.00     0.076 C 
ATOM      6  C7  UNL d   1       3.354   5.708   3.403  0.00  0.00     0.002 A 
ATOM      7  C8  UNL d   1       3.600   5.736   2.028  0.00  0.00     0.006 A 
ENDROOT
BRANCH   1   8
ATOM      8  C1  UNL d   1       5.177   5.797   0.060  0.00  0.00     0.054 C 
ATOM      9  C   UNL d   1       5.913   4.525  -0.338  0.00  0.00     0.018 C 
ENDBRANCH   1   8
TORSDOF 1
ENDMDL
