MODEL 1
REMARK minimizedAffinity 2.05849099
REMARK minimizedRMSD -1
REMARK  1 active torsions:
REMARK  status: ('A' for Active; 'I' for Inactive)
REMARK    1  A    between atoms: C1_2  and  C2_3 
ROOT
ATOM      1  C2  UNL d   1       5.330   4.099  -0.768  0.00  0.00    -0.081 A 
ATOM      2  C3  UNL d   1       5.791   5.363  -0.380  0.00  0.00     0.006 A 
ATOM      3  C4  UNL d   1       5.272   5.986   0.758  0.00  0.00     0.002 A 
ATOM      4  C5  UNL d   1       4.291   5.354   1.529  0.00  0.00    -0.080 A 
ATOM      5  C6  UNL d   1       3.748   6.000   2.769  0.00  0.00     0.076 C 
ATOM      6  C7  UNL d   1       3.818   4.099   1.131  0.00  0.00     0.002 A 
ATOM      7  C8  UNL d   1       4.336   3.475  -0.006  0.00  0.00     0.006 A 
ENDROOT
BRANCH   1   8
ATOM      8  C1  UNL d   1       5.933   3.395  -1.957  0.00  0.00     0.054 C 
ATOM      9  C   UNL d   1       4.895   2.556  -2.689  0.00  0.00     0.018 C 
ENDBRANCH   1   8
TORSDOF 1
ENDMDL
