MODEL 1
REMARK minimizedAffinity 8.92675781
REMARK minimizedRMSD -1
REMARK  1 active torsions:
REMARK  status: ('A' for Active; 'I' for Inactive)
REMARK    1  A    between atoms: C1_2  and  C2_3 
ROOT
ATOM      1  C2  UNL d   1       3.347   5.171   1.861  0.00  0.00    -0.081 A 
ATOM      2  C3  UNL d   1       2.318   5.750   1.109  0.00  0.00     0.006 A 
ATOM      3  C4  UNL d   1       1.202   4.997   0.738  0.00  0.00     0.002 A 
ATOM      4  C5  UNL d   1       1.092   3.655   1.119  0.00  0.00    -0.080 A 
ATOM      5  C6  UNL d   1      -0.115   2.844   0.753  0.00  0.00     0.076 C 
ATOM      6  C7  UNL d   1       2.129   3.071   1.855  0.00  0.00     0.002 A 
ATOM      7  C8  UNL d   1       3.245   3.824   2.226  0.00  0.00     0.006 A 
ENDROOT
BRANCH   1   8
ATOM      8  C1  UNL d   1       4.522   5.998   2.318  0.00  0.00     0.054 C 
ATOM      9  C   UNL d   1       5.635   5.999   1.280  0.00  0.00     0.018 C 
ENDBRANCH   1   8
TORSDOF 1
ENDMDL
