MODEL 1
REMARK minimizedAffinity 5.95212936
REMARK minimizedRMSD -1
REMARK  0 active torsions:
REMARK  status: ('A' for Active; 'I' for Inactive)
ROOT
ATOM      1  N1  IND d   1      -0.539  -0.607   1.501  0.00  0.00    -0.196 N 
ATOM      2  C2  IND d   1      -0.882  -1.831   0.999  0.00  0.00     0.054 A 
ATOM      3  C3  IND d   1       0.226  -2.525   0.654  0.00  0.00    -0.031 A 
ATOM      4  C4  IND d   1       2.705  -1.885   0.920  0.00  0.00     0.051 A 
ATOM      5  C5  IND d   1       3.517  -0.852   1.295  0.00  0.00    -0.031 A 
ATOM      6  C6  IND d   1       3.008   0.339   1.771  0.00  0.00     0.015 A 
ATOM      7  C7  IND d   1       1.662   0.538   1.900  0.00  0.00    -0.016 A 
ATOM      8  C8  IND d   1       0.835  -0.507   1.513  0.00  0.00    -0.047 A 
ATOM      9  C9  IND d   1       1.344  -1.702   0.990  0.00  0.00    -0.096 A 
ATOM     10  HN1 IND d   1      -1.089  -0.001   1.765  0.00  0.00     0.298 HD
ENDROOT
TORSDOF 0
ENDMDL
