MODEL 1
REMARK minimizedAffinity 3.84273553
REMARK minimizedRMSD -1
REMARK  0 active torsions:
REMARK  status: ('A' for Active; 'I' for Inactive)
ROOT
ATOM      1  N1  IND d   1      -0.502  -2.122   1.471  0.00  0.00    -0.196 N 
ATOM      2  C2  IND d   1       0.690  -2.598   1.943  0.00  0.00     0.054 A 
ATOM      3  C3  IND d   1       1.555  -2.794   0.923  0.00  0.00    -0.031 A 
ATOM      4  C4  IND d   1       1.262  -2.307  -1.588  0.00  0.00     0.051 A 
ATOM      5  C5  IND d   1       0.333  -1.901  -2.505  0.00  0.00    -0.031 A 
ATOM      6  C6  IND d   1      -0.946  -1.537  -2.136  0.00  0.00     0.015 A 
ATOM      7  C7  IND d   1      -1.342  -1.556  -0.829  0.00  0.00    -0.016 A 
ATOM      8  C8  IND d   1      -0.405  -1.975   0.104  0.00  0.00    -0.047 A 
ATOM      9  C9  IND d   1       0.882  -2.386  -0.269  0.00  0.00    -0.096 A 
ATOM     10  HN1 IND d   1      -1.195  -1.945   1.947  0.00  0.00     0.298 HD
ENDROOT
TORSDOF 0
ENDMDL
