MODEL 1
REMARK minimizedAffinity 4.42029524
REMARK minimizedRMSD -1
REMARK  0 active torsions:
REMARK  status: ('A' for Active; 'I' for Inactive)
ROOT
ATOM      1  N1  IND d   1       0.050  -3.108   1.826  0.00  0.00    -0.196 N 
ATOM      2  C2  IND d   1      -0.636  -2.355   0.914  0.00  0.00     0.054 A 
ATOM      3  C3  IND d   1       0.135  -1.338   0.469  0.00  0.00    -0.031 A 
ATOM      4  C4  IND d   1       2.586  -0.779   1.024  0.00  0.00     0.051 A 
ATOM      5  C5  IND d   1       3.621  -1.158   1.832  0.00  0.00    -0.031 A 
ATOM      6  C6  IND d   1       3.517  -2.230   2.694  0.00  0.00     0.015 A 
ATOM      7  C7  IND d   1       2.373  -2.973   2.773  0.00  0.00    -0.016 A 
ATOM      8  C8  IND d   1       1.318  -2.586   1.960  0.00  0.00    -0.047 A 
ATOM      9  C9  IND d   1       1.403  -1.473   1.113  0.00  0.00    -0.096 A 
ATOM     10  HN1 IND d   1      -0.259  -3.792   2.245  0.00  0.00     0.298 HD
ENDROOT
TORSDOF 0
ENDMDL
