MODEL 1
REMARK minimizedAffinity 15.2038012
REMARK minimizedRMSD -1
REMARK  0 active torsions:
REMARK  status: ('A' for Active; 'I' for Inactive)
ROOT
ATOM      1  N1  IND d   1       3.252   3.225  -0.169  0.00  0.00    -0.196 N 
ATOM      2  C2  IND d   1       2.402   4.266  -0.419  0.00  0.00     0.054 A 
ATOM      3  C3  IND d   1       1.234   4.087   0.239  0.00  0.00    -0.031 A 
ATOM      4  C4  IND d   1       0.542   2.213   1.862  0.00  0.00     0.051 A 
ATOM      5  C5  IND d   1       0.969   1.021   2.377  0.00  0.00    -0.031 A 
ATOM      6  C6  IND d   1       2.206   0.493   2.065  0.00  0.00     0.015 A 
ATOM      7  C7  IND d   1       3.069   1.147   1.232  0.00  0.00    -0.016 A 
ATOM      8  C8  IND d   1       2.636   2.354   0.702  0.00  0.00    -0.047 A 
ATOM      9  C9  IND d   1       1.365   2.873   0.981  0.00  0.00    -0.096 A 
ATOM     10  HN1 IND d   1       4.040   3.131  -0.500  0.00  0.00     0.298 HD
ENDROOT
TORSDOF 0
ENDMDL
