MODEL 1
REMARK minimizedAffinity 13.6894331
REMARK minimizedRMSD -1
REMARK  0 active torsions:
REMARK  status: ('A' for Active; 'I' for Inactive)
ROOT
ATOM      1  N1  IND d   1      -5.997   3.120   1.248  0.00  0.00    -0.196 N 
ATOM      2  C2  IND d   1      -5.545   2.259   2.209  0.00  0.00     0.054 A 
ATOM      3  C3  IND d   1      -4.522   1.516   1.732  0.00  0.00    -0.031 A 
ATOM      4  C4  IND d   1      -3.359   1.616  -0.563  0.00  0.00     0.051 A 
ATOM      5  C5  IND d   1      -3.442   2.218  -1.787  0.00  0.00    -0.031 A 
ATOM      6  C6  IND d   1      -4.398   3.173  -2.067  0.00  0.00     0.015 A 
ATOM      7  C7  IND d   1      -5.304   3.571  -1.125  0.00  0.00    -0.016 A 
ATOM      8  C8  IND d   1      -5.228   2.957   0.117  0.00  0.00    -0.047 A 
ATOM      9  C9  IND d   1      -4.287   1.956   0.393  0.00  0.00    -0.096 A 
ATOM     10  HN1 IND d   1      -6.651   3.671   1.335  0.00  0.00     0.298 HD
ENDROOT
TORSDOF 0
ENDMDL
