MODEL 1
REMARK minimizedAffinity 3.65261674
REMARK minimizedRMSD -1
REMARK  0 active torsions:
REMARK  status: ('A' for Active; 'I' for Inactive)
ROOT
ATOM      1  N1  IND d   1      -0.405  -0.003   1.470  0.00  0.00    -0.196 N 
ATOM      2  C2  IND d   1      -1.233  -1.075   1.282  0.00  0.00     0.054 A 
ATOM      3  C3  IND d   1      -0.512  -2.180   0.989  0.00  0.00    -0.031 A 
ATOM      4  C4  IND d   1       2.041  -2.483   0.866  0.00  0.00     0.051 A 
ATOM      5  C5  IND d   1       3.213  -1.783   0.926  0.00  0.00    -0.031 A 
ATOM      6  C6  IND d   1       3.240  -0.426   1.179  0.00  0.00     0.015 A 
ATOM      7  C7  IND d   1       2.090   0.281   1.393  0.00  0.00    -0.016 A 
ATOM      8  C8  IND d   1       0.898  -0.426   1.325  0.00  0.00    -0.047 A 
ATOM      9  C9  IND d   1       0.862  -1.794   1.027  0.00  0.00    -0.096 A 
ATOM     10  HN1 IND d   1      -0.656   0.799   1.649  0.00  0.00     0.298 HD
ENDROOT
TORSDOF 0
ENDMDL
