MODEL 1
REMARK minimizedAffinity 0.222863585
REMARK minimizedRMSD -1
REMARK  0 active torsions:
REMARK  status: ('A' for Active; 'I' for Inactive)
ROOT
ATOM      1  N1  IND d   1       2.185   3.304  -0.074  0.00  0.00    -0.196 N 
ATOM      2  C2  IND d   1       1.061   3.899  -0.575  0.00  0.00     0.054 A 
ATOM      3  C3  IND d   1      -0.027   3.136  -0.323  0.00  0.00    -0.031 A 
ATOM      4  C4  IND d   1      -0.207   0.925   0.984  0.00  0.00     0.051 A 
ATOM      5  C5  IND d   1       0.556  -0.027   1.600  0.00  0.00    -0.031 A 
ATOM      6  C6  IND d   1       1.928   0.086   1.695  0.00  0.00     0.015 A 
ATOM      7  C7  IND d   1       2.590   1.166   1.184  0.00  0.00    -0.016 A 
ATOM      8  C8  IND d   1       1.820   2.132   0.551  0.00  0.00    -0.047 A 
ATOM      9  C9  IND d   1       0.432   2.001   0.414  0.00  0.00    -0.096 A 
ATOM     10  HN1 IND d   1       2.986   3.611  -0.138  0.00  0.00     0.298 HD
ENDROOT
TORSDOF 0
ENDMDL
