MODEL 1
REMARK minimizedAffinity -0.786319971
REMARK minimizedRMSD -1
REMARK  0 active torsions:
REMARK  status: ('A' for Active; 'I' for Inactive)
ROOT
ATOM      1  N1  IND d   1      -4.754   0.006  -3.201  0.00  0.00    -0.196 N 
ATOM      2  C2  IND d   1      -5.607   0.357  -4.210  0.00  0.00     0.054 A 
ATOM      3  C3  IND d   1      -5.289   1.581  -4.689  0.00  0.00    -0.031 A 
ATOM      4  C4  IND d   1      -3.348   3.140  -4.034  0.00  0.00     0.051 A 
ATOM      5  C5  IND d   1      -2.324   3.268  -3.137  0.00  0.00    -0.031 A 
ATOM      6  C6  IND d   1      -2.052   2.294  -2.199  0.00  0.00     0.015 A 
ATOM      7  C7  IND d   1      -2.788   1.146  -2.129  0.00  0.00    -0.016 A 
ATOM      8  C8  IND d   1      -3.832   1.016  -3.033  0.00  0.00    -0.047 A 
ATOM      9  C9  IND d   1      -4.141   2.019  -3.960  0.00  0.00    -0.096 A 
ATOM     10  HN1 IND d   1      -4.788  -0.724  -2.747  0.00  0.00     0.298 HD
ENDROOT
TORSDOF 0
ENDMDL
