MODEL 1
REMARK minimizedAffinity 2.18562913
REMARK minimizedRMSD -1
REMARK  0 active torsions:
REMARK  status: ('A' for Active; 'I' for Inactive)
ROOT
ATOM      1  O1  BZF d   1      -0.565   1.021  -0.768  0.00  0.00    -0.204 OA
ATOM      2  C2  BZF d   1      -0.250   0.150  -1.793  0.00  0.00     0.174 A 
ATOM      3  C3  BZF d   1       0.878  -0.533  -1.510  0.00  0.00    -0.012 A 
ATOM      4  C3A BZF d   1       1.243  -0.126  -0.187  0.00  0.00    -0.107 A 
ATOM      5  C4  BZF d   1       2.265  -0.468   0.652  0.00  0.00     0.055 A 
ATOM      6  C5  BZF d   1       2.377   0.167   1.848  0.00  0.00    -0.016 A 
ATOM      7  C6  BZF d   1       1.490   1.150   2.235  0.00  0.00     0.022 A 
ATOM      8  C7  BZF d   1       0.457   1.519   1.438  0.00  0.00     0.029 A 
ATOM      9  C7A BZF d   1       0.322   0.857   0.243  0.00  0.00     0.058 A 
ENDROOT
TORSDOF 0
ENDMDL
