MODEL 1
REMARK minimizedAffinity -5.32871866
REMARK minimizedRMSD -1
REMARK  0 active torsions:
REMARK  status: ('A' for Active; 'I' for Inactive)
ROOT
ATOM      1  O1  BZF d   1       1.056  -0.111  -0.668  0.00  0.00    -0.204 OA
ATOM      2  C2  BZF d   1       0.008  -0.720  -1.331  0.00  0.00     0.174 A 
ATOM      3  C3  BZF d   1      -1.064  -0.841  -0.521  0.00  0.00    -0.012 A 
ATOM      4  C3A BZF d   1      -0.691  -0.188   0.697  0.00  0.00    -0.107 A 
ATOM      5  C4  BZF d   1      -1.339   0.037   1.877  0.00  0.00     0.055 A 
ATOM      6  C5  BZF d   1      -0.669   0.640   2.894  0.00  0.00    -0.016 A 
ATOM      7  C6  BZF d   1       0.649   1.026   2.767  0.00  0.00     0.022 A 
ATOM      8  C7  BZF d   1       1.332   0.828   1.613  0.00  0.00     0.029 A 
ATOM      9  C7A BZF d   1       0.648   0.248   0.573  0.00  0.00     0.058 A 
ENDROOT
TORSDOF 0
ENDMDL
