MODEL 1
REMARK minimizedAffinity -2.68690991
REMARK minimizedRMSD -1
REMARK  0 active torsions:
REMARK  status: ('A' for Active; 'I' for Inactive)
ROOT
ATOM      1  O1  BZF d   1       0.313  -0.495  -0.398  0.00  0.00    -0.204 OA
ATOM      2  C2  BZF d   1      -0.934  -0.593  -0.986  0.00  0.00     0.174 A 
ATOM      3  C3  BZF d   1      -1.892  -0.137  -0.155  0.00  0.00    -0.012 A 
ATOM      4  C3A BZF d   1      -1.192   0.357   0.991  0.00  0.00    -0.107 A 
ATOM      5  C4  BZF d   1      -1.595   0.949   2.155  0.00  0.00     0.055 A 
ATOM      6  C5  BZF d   1      -0.666   1.245   3.101  0.00  0.00    -0.016 A 
ATOM      7  C6  BZF d   1       0.671   0.959   2.920  0.00  0.00     0.022 A 
ATOM      8  C7  BZF d   1       1.119   0.377   1.781  0.00  0.00     0.029 A 
ATOM      9  C7A BZF d   1       0.187   0.107   0.809  0.00  0.00     0.058 A 
ENDROOT
TORSDOF 0
ENDMDL
