MODEL 1
REMARK minimizedAffinity -1.89188051
REMARK minimizedRMSD -1
REMARK  0 active torsions:
REMARK  status: ('A' for Active; 'I' for Inactive)
ROOT
ATOM      1  O1  BZF d   1       1.115   1.127   0.274  0.00  0.00    -0.204 OA
ATOM      2  C2  BZF d   1       1.990   0.076   0.470  0.00  0.00     0.174 A 
ATOM      3  C3  BZF d   1       1.354  -1.106   0.344  0.00  0.00    -0.012 A 
ATOM      4  C3A BZF d   1       0.016  -0.775  -0.040  0.00  0.00    -0.107 A 
ATOM      5  C4  BZF d   1      -1.090  -1.521  -0.330  0.00  0.00     0.055 A 
ATOM      6  C5  BZF d   1      -2.262  -0.889  -0.598  0.00  0.00    -0.016 A 
ATOM      7  C6  BZF d   1      -2.366   0.487  -0.580  0.00  0.00     0.022 A 
ATOM      8  C7  BZF d   1      -1.295   1.270  -0.303  0.00  0.00     0.029 A 
ATOM      9  C7A BZF d   1      -0.101   0.634  -0.064  0.00  0.00     0.058 A 
ENDROOT
TORSDOF 0
ENDMDL
