MODEL 1
REMARK minimizedAffinity 1.70720601
REMARK minimizedRMSD -1
REMARK  0 active torsions:
REMARK  status: ('A' for Active; 'I' for Inactive)
ROOT
ATOM      1  O1  BZF d   1       1.904  -2.137   3.814  0.00  0.00    -0.204 OA
ATOM      2  C2  BZF d   1       2.739  -2.009   4.908  0.00  0.00     0.174 A 
ATOM      3  C3  BZF d   1       3.458  -0.871   4.830  0.00  0.00    -0.012 A 
ATOM      4  C3A BZF d   1       2.980  -0.203   3.658  0.00  0.00    -0.107 A 
ATOM      5  C4  BZF d   1       3.294   0.983   3.059  0.00  0.00     0.055 A 
ATOM      6  C5  BZF d   1       2.695   1.309   1.884  0.00  0.00    -0.016 A 
ATOM      7  C6  BZF d   1       1.782   0.471   1.278  0.00  0.00     0.022 A 
ATOM      8  C7  BZF d   1       1.434  -0.714   1.836  0.00  0.00     0.029 A 
ATOM      9  C7A BZF d   1       2.014  -1.031   3.041  0.00  0.00     0.058 A 
ENDROOT
TORSDOF 0
ENDMDL
