MODEL 1
REMARK minimizedAffinity 3.60802388
REMARK minimizedRMSD -1
REMARK  0 active torsions:
REMARK  status: ('A' for Active; 'I' for Inactive)
ROOT
ATOM      1  O1  BZF d   1       1.313  -0.804   2.827  0.00  0.00    -0.204 OA
ATOM      2  C2  BZF d   1       1.136  -1.263   4.118  0.00  0.00     0.174 A 
ATOM      3  C3  BZF d   1      -0.134  -1.064   4.526  0.00  0.00    -0.012 A 
ATOM      4  C3A BZF d   1      -0.815  -0.526   3.388  0.00  0.00    -0.107 A 
ATOM      5  C4  BZF d   1      -2.105  -0.138   3.163  0.00  0.00     0.055 A 
ATOM      6  C5  BZF d   1      -2.429   0.413   1.964  0.00  0.00    -0.016 A 
ATOM      7  C6  BZF d   1      -1.489   0.595   0.970  0.00  0.00     0.022 A 
ATOM      8  C7  BZF d   1      -0.198   0.220   1.145  0.00  0.00     0.029 A 
ATOM      9  C7A BZF d   1       0.125  -0.367   2.344  0.00  0.00     0.058 A 
ENDROOT
TORSDOF 0
ENDMDL
