MODEL 1
REMARK minimizedAffinity 1.20665634
REMARK minimizedRMSD -1
REMARK  0 active torsions:
REMARK  status: ('A' for Active; 'I' for Inactive)
ROOT
ATOM      1  O1  BZF d   1       1.047  -1.174   2.819  0.00  0.00    -0.204 OA
ATOM      2  C2  BZF d   1       1.537  -0.198   1.974  0.00  0.00     0.174 A 
ATOM      3  C3  BZF d   1       0.551   0.634   1.582  0.00  0.00    -0.012 A 
ATOM      4  C3A BZF d   1      -0.612   0.202   2.295  0.00  0.00    -0.107 A 
ATOM      5  C4  BZF d   1      -1.903   0.644   2.341  0.00  0.00     0.055 A 
ATOM      6  C5  BZF d   1      -2.811  -0.044   3.083  0.00  0.00    -0.016 A 
ATOM      7  C6  BZF d   1      -2.463  -1.178   3.787  0.00  0.00     0.022 A 
ATOM      8  C7  BZF d   1      -1.193  -1.651   3.776  0.00  0.00     0.029 A 
ATOM      9  C7A BZF d   1      -0.266  -0.940   3.054  0.00  0.00     0.058 A 
ENDROOT
TORSDOF 0
ENDMDL
