MODEL 1
REMARK minimizedAffinity 3.16612172
REMARK minimizedRMSD -1
REMARK  0 active torsions:
REMARK  status: ('A' for Active; 'I' for Inactive)
ROOT
ATOM      1  O1  BZF d   1       1.015  -0.798   1.498  0.00  0.00    -0.204 OA
ATOM      2  C2  BZF d   1       1.072  -0.954   2.869  0.00  0.00     0.174 A 
ATOM      3  C3  BZF d   1      -0.059  -0.504   3.449  0.00  0.00    -0.012 A 
ATOM      4  C3A BZF d   1      -0.912  -0.123   2.365  0.00  0.00    -0.107 A 
ATOM      5  C4  BZF d   1      -2.178   0.385   2.300  0.00  0.00     0.055 A 
ATOM      6  C5  BZF d   1      -2.695   0.717   1.088  0.00  0.00    -0.016 A 
ATOM      7  C6  BZF d   1      -1.973   0.561  -0.077  0.00  0.00     0.022 A 
ATOM      8  C7  BZF d   1      -0.715   0.056  -0.063  0.00  0.00     0.029 A 
ATOM      9  C7A BZF d   1      -0.202  -0.311   1.157  0.00  0.00     0.058 A 
ENDROOT
TORSDOF 0
ENDMDL
