MODEL 1
REMARK minimizedAffinity -1.76774597
REMARK minimizedRMSD -1
REMARK  0 active torsions:
REMARK  status: ('A' for Active; 'I' for Inactive)
ROOT
ATOM      1  C1  BNZ d   1       1.700   0.081   1.274  0.00  0.00     0.000 A 
ATOM      2  C2  BNZ d   1       2.914   0.027   0.643  0.00  0.00     0.000 A 
ATOM      3  C3  BNZ d   1       3.019  -0.458  -0.631  0.00  0.00     0.000 A 
ATOM      4  C4  BNZ d   1       1.919  -0.925  -1.256  0.00  0.00     0.000 A 
ATOM      5  C5  BNZ d   1       0.690  -0.886  -0.629  0.00  0.00     0.000 A 
ATOM      6  C6  BNZ d   1       0.581  -0.361   0.639  0.00  0.00     0.000 A 
ENDROOT
TORSDOF 0
ENDMDL
