MODEL 1
REMARK minimizedAffinity -3.34544802
REMARK minimizedRMSD -1
REMARK  0 active torsions:
REMARK  status: ('A' for Active; 'I' for Inactive)
ROOT
ATOM      1  C1  BNZ d   1      -2.103   0.636   2.411  0.00  0.00     0.000 A 
ATOM      2  C2  BNZ d   1      -0.910   1.124   2.874  0.00  0.00     0.000 A 
ATOM      3  C3  BNZ d   1      -0.300   0.565   3.962  0.00  0.00     0.000 A 
ATOM      4  C4  BNZ d   1      -0.903  -0.453   4.610  0.00  0.00     0.000 A 
ATOM      5  C5  BNZ d   1      -2.111  -0.949   4.161  0.00  0.00     0.000 A 
ATOM      6  C6  BNZ d   1      -2.702  -0.410   3.042  0.00  0.00     0.000 A 
ENDROOT
TORSDOF 0
ENDMDL
