MODEL 1
REMARK minimizedAffinity -0.271413505
REMARK minimizedRMSD -1
REMARK  0 active torsions:
REMARK  status: ('A' for Active; 'I' for Inactive)
ROOT
ATOM      1  C1  BNZ d   1      -1.685  -4.873  -2.265  0.00  0.00     0.000 A 
ATOM      2  C2  BNZ d   1      -2.029  -5.380  -3.490  0.00  0.00     0.000 A 
ATOM      3  C3  BNZ d   1      -1.365  -4.990  -4.620  0.00  0.00     0.000 A 
ATOM      4  C4  BNZ d   1      -0.387  -4.066  -4.530  0.00  0.00     0.000 A 
ATOM      5  C5  BNZ d   1      -0.035  -3.539  -3.303  0.00  0.00     0.000 A 
ATOM      6  C6  BNZ d   1      -0.679  -3.962  -2.163  0.00  0.00     0.000 A 
ENDROOT
TORSDOF 0
ENDMDL
