MODEL 1
REMARK minimizedAffinity 0.00391566101
REMARK minimizedRMSD -1
REMARK  0 active torsions:
REMARK  status: ('A' for Active; 'I' for Inactive)
ROOT
ATOM      1  C1  BNZ d   1       0.186  -0.612   1.086  0.00  0.00     0.000 A 
ATOM      2  C2  BNZ d   1      -0.987  -0.675   0.382  0.00  0.00     0.000 A 
ATOM      3  C3  BNZ d   1      -2.129  -0.106   0.872  0.00  0.00     0.000 A 
ATOM      4  C4  BNZ d   1      -2.107   0.490   2.082  0.00  0.00     0.000 A 
ATOM      5  C5  BNZ d   1      -0.935   0.553   2.808  0.00  0.00     0.000 A 
ATOM      6  C6  BNZ d   1       0.222   0.014   2.294  0.00  0.00     0.000 A 
ENDROOT
TORSDOF 0
ENDMDL
