MODEL 1
REMARK minimizedAffinity 2.40294886
REMARK minimizedRMSD -1
REMARK  0 active torsions:
REMARK  status: ('A' for Active; 'I' for Inactive)
ROOT
ATOM      1  C1  BNZ d   1      -0.958   0.108   2.923  0.00  0.00     0.000 A 
ATOM      2  C2  BNZ d   1      -0.902   1.213   2.116  0.00  0.00     0.000 A 
ATOM      3  C3  BNZ d   1      -1.935   1.520   1.276  0.00  0.00     0.000 A 
ATOM      4  C4  BNZ d   1      -3.004   0.701   1.213  0.00  0.00     0.000 A 
ATOM      5  C5  BNZ d   1      -3.072  -0.423   2.013  0.00  0.00     0.000 A 
ATOM      6  C6  BNZ d   1      -2.048  -0.707   2.886  0.00  0.00     0.000 A 
ENDROOT
TORSDOF 0
ENDMDL
