MODEL 1
REMARK minimizedAffinity 1.55579638
REMARK minimizedRMSD -1
REMARK  0 active torsions:
REMARK  status: ('A' for Active; 'I' for Inactive)
ROOT
ATOM      1  C1  BNZ d   1      -0.837  -5.840  -4.163  0.00  0.00     0.000 A 
ATOM      2  C2  BNZ d   1      -2.095  -5.529  -4.608  0.00  0.00     0.000 A 
ATOM      3  C3  BNZ d   1      -2.305  -4.439  -5.406  0.00  0.00     0.000 A 
ATOM      4  C4  BNZ d   1      -1.266  -3.641  -5.725  0.00  0.00     0.000 A 
ATOM      5  C5  BNZ d   1       0.006  -3.936  -5.277  0.00  0.00     0.000 A 
ATOM      6  C6  BNZ d   1       0.220  -5.055  -4.506  0.00  0.00     0.000 A 
ENDROOT
TORSDOF 0
ENDMDL
