MODEL 1
REMARK minimizedAffinity -0.170473158
REMARK minimizedRMSD -1
REMARK  0 active torsions:
REMARK  status: ('A' for Active; 'I' for Inactive)
ROOT
ATOM      1  C1  BNZ d   1      -2.066  -3.465  -3.843  0.00  0.00     0.000 A 
ATOM      2  C2  BNZ d   1      -1.000  -2.608  -3.909  0.00  0.00     0.000 A 
ATOM      3  C3  BNZ d   1       0.083  -2.896  -4.692  0.00  0.00     0.000 A 
ATOM      4  C4  BNZ d   1       0.115  -4.058  -5.376  0.00  0.00     0.000 A 
ATOM      5  C5  BNZ d   1      -0.947  -4.937  -5.313  0.00  0.00     0.000 A 
ATOM      6  C6  BNZ d   1      -2.052  -4.625  -4.554  0.00  0.00     0.000 A 
ENDROOT
TORSDOF 0
ENDMDL
