MODEL 1
REMARK minimizedAffinity -1.69982243
REMARK minimizedRMSD -1
REMARK  0 active torsions:
REMARK  status: ('A' for Active; 'I' for Inactive)
ROOT
ATOM      1  C1  BNZ d   1      -2.249   0.225   2.617  0.00  0.00     0.000 A 
ATOM      2  C2  BNZ d   1      -2.614   1.211   1.739  0.00  0.00     0.000 A 
ATOM      3  C3  BNZ d   1      -3.047   0.902   0.480  0.00  0.00     0.000 A 
ATOM      4  C4  BNZ d   1      -3.077  -0.388   0.087  0.00  0.00     0.000 A 
ATOM      5  C5  BNZ d   1      -2.704  -1.393   0.957  0.00  0.00     0.000 A 
ATOM      6  C6  BNZ d   1      -2.305  -1.081   2.237  0.00  0.00     0.000 A 
ENDROOT
TORSDOF 0
ENDMDL
