MODEL 1
REMARK minimizedAffinity 2.26932096
REMARK minimizedRMSD -1
REMARK  0 active torsions:
REMARK  status: ('A' for Active; 'I' for Inactive)
ROOT
ATOM      1  C1  BNZ d   1      -1.469   0.507   2.288  0.00  0.00     0.000 A 
ATOM      2  C2  BNZ d   1      -1.426  -0.835   2.560  0.00  0.00     0.000 A 
ATOM      3  C3  BNZ d   1      -2.557  -1.512   2.922  0.00  0.00     0.000 A 
ATOM      4  C4  BNZ d   1      -3.720  -0.841   3.049  0.00  0.00     0.000 A 
ATOM      5  C5  BNZ d   1      -3.777   0.514   2.787  0.00  0.00     0.000 A 
ATOM      6  C6  BNZ d   1      -2.645   1.184   2.385  0.00  0.00     0.000 A 
ENDROOT
TORSDOF 0
ENDMDL
