MODEL 1
REMARK minimizedAffinity -3.60097885
REMARK minimizedRMSD -1
REMARK  0 active torsions:
REMARK  status: ('A' for Active; 'I' for Inactive)
ROOT
ATOM      1  C1  BNZ d   1      -2.984   0.312  -0.311  0.00  0.00     0.000 A 
ATOM      2  C2  BNZ d   1      -3.104   1.330   0.598  0.00  0.00     0.000 A 
ATOM      3  C3  BNZ d   1      -2.322   1.363   1.719  0.00  0.00     0.000 A 
ATOM      4  C4  BNZ d   1      -1.450   0.359   1.949  0.00  0.00     0.000 A 
ATOM      5  C5  BNZ d   1      -1.324  -0.678   1.047  0.00  0.00     0.000 A 
ATOM      6  C6  BNZ d   1      -2.086  -0.688  -0.099  0.00  0.00     0.000 A 
ENDROOT
TORSDOF 0
ENDMDL
