MODEL 1
REMARK minimizedAffinity -2.80552578
REMARK minimizedRMSD -1
REMARK  1 active torsions:
REMARK  status: ('A' for Active; 'I' for Inactive)
REMARK    1  A    between atoms: N_2  and  C1_3 
ROOT
ATOM      1  C1  UNL d   1      -0.223  -2.275  -3.432  0.00  0.00     0.143 A 
ATOM      2  C2  UNL d   1      -0.424  -3.463  -2.721  0.00  0.00    -0.057 A 
ATOM      3  C3  UNL d   1      -0.632  -3.454  -1.336  0.00  0.00     0.033 A 
ATOM      4  C4  UNL d   1      -0.613  -2.255  -0.632  0.00  0.00    -0.042 A 
ATOM      5  C5  UNL d   1      -0.391  -1.064  -1.315  0.00  0.00     0.033 A 
ATOM      6  C6  UNL d   1      -0.191  -1.079  -2.698  0.00  0.00    -0.057 A 
ENDROOT
BRANCH   1   7
ATOM      7  N   UNL d   1       0.086  -2.227  -4.793  0.00  0.00    -0.732 N 
ATOM      8  C   UNL d   1       0.362  -0.963  -5.442  0.00  0.00     0.284 C 
ATOM      9  H3  UNL d   1       0.704  -2.984  -5.078  0.00  0.00     0.395 HD
ENDBRANCH   1   7
TORSDOF 1
ENDMDL
