MODEL 1
REMARK minimizedAffinity -3.9037931
REMARK minimizedRMSD -1
REMARK  1 active torsions:
REMARK  status: ('A' for Active; 'I' for Inactive)
REMARK    1  A    between atoms: N_2  and  C1_3 
ROOT
ATOM      1  C1  UNL d   1      -0.137  -0.017  -0.017  0.00  0.00     0.143 A 
ATOM      2  C2  UNL d   1      -0.679   0.709   1.049  0.00  0.00    -0.057 A 
ATOM      3  C3  UNL d   1      -0.556   2.102   1.116  0.00  0.00     0.033 A 
ATOM      4  C4  UNL d   1       0.138   2.793   0.129  0.00  0.00    -0.042 A 
ATOM      5  C5  UNL d   1       0.707   2.090  -0.927  0.00  0.00     0.033 A 
ATOM      6  C6  UNL d   1       0.575   0.699  -0.992  0.00  0.00    -0.057 A 
ENDROOT
BRANCH   1   7
ATOM      7  N   UNL d   1      -0.140  -1.412  -0.089  0.00  0.00    -0.732 N 
ATOM      8  C   UNL d   1      -0.329  -2.084  -1.357  0.00  0.00     0.284 C 
ATOM      9  H3  UNL d   1       0.573  -1.833   0.502  0.00  0.00     0.395 HD
ENDBRANCH   1   7
TORSDOF 1
ENDMDL
