MODEL 1
REMARK minimizedAffinity -2.4608252
REMARK minimizedRMSD -1
REMARK  1 active torsions:
REMARK  status: ('A' for Active; 'I' for Inactive)
REMARK    1  A    between atoms: N_2  and  C1_3 
ROOT
ATOM      1  C1  UNL d   1      -2.789   4.006  -5.220  0.00  0.00     0.143 A 
ATOM      2  C2  UNL d   1      -2.949   5.395  -5.259  0.00  0.00    -0.057 A 
ATOM      3  C3  UNL d   1      -4.168   5.976  -5.630  0.00  0.00     0.033 A 
ATOM      4  C4  UNL d   1      -5.243   5.174  -5.998  0.00  0.00    -0.042 A 
ATOM      5  C5  UNL d   1      -5.099   3.791  -5.990  0.00  0.00     0.033 A 
ATOM      6  C6  UNL d   1      -3.882   3.217  -5.612  0.00  0.00    -0.057 A 
ENDROOT
BRANCH   1   7
ATOM      7  N   UNL d   1      -1.574   3.371  -4.954  0.00  0.00    -0.732 N 
ATOM      8  C   UNL d   1      -0.874   2.652  -5.998  0.00  0.00     0.284 C 
ATOM      9  H3  UNL d   1      -0.968   3.926  -4.354  0.00  0.00     0.395 HD
ENDBRANCH   1   7
TORSDOF 1
ENDMDL
