MODEL 1
REMARK minimizedAffinity -5.26804924
REMARK minimizedRMSD -1
REMARK  1 active torsions:
REMARK  status: ('A' for Active; 'I' for Inactive)
REMARK    1  A    between atoms: N_2  and  C1_3 
ROOT
ATOM      1  C1  UNL d   1       0.315   0.623   0.204  0.00  0.00     0.143 A 
ATOM      2  C2  UNL d   1      -0.601   1.663   0.014  0.00  0.00    -0.057 A 
ATOM      3  C3  UNL d   1      -0.177   2.993  -0.096  0.00  0.00     0.033 A 
ATOM      4  C4  UNL d   1       1.173   3.310   0.011  0.00  0.00    -0.042 A 
ATOM      5  C5  UNL d   1       2.099   2.295   0.225  0.00  0.00     0.033 A 
ATOM      6  C6  UNL d   1       1.670   0.969   0.328  0.00  0.00    -0.057 A 
ENDROOT
BRANCH   1   7
ATOM      7  N   UNL d   1      -0.052  -0.707   0.419  0.00  0.00    -0.732 N 
ATOM      8  C   UNL d   1      -0.127  -1.639  -0.685  0.00  0.00     0.284 C 
ATOM      9  H3  UNL d   1       0.366  -1.094   1.262  0.00  0.00     0.395 HD
ENDBRANCH   1   7
TORSDOF 1
ENDMDL
