MODEL 1
REMARK minimizedAffinity -4.20300865
REMARK minimizedRMSD -1
REMARK  1 active torsions:
REMARK  status: ('A' for Active; 'I' for Inactive)
REMARK    1  A    between atoms: N_2  and  C1_3 
ROOT
ATOM      1  C1  UNL d   1       0.054   0.080   0.301  0.00  0.00     0.143 A 
ATOM      2  C2  UNL d   1      -1.102   0.861   0.410  0.00  0.00    -0.057 A 
ATOM      3  C3  UNL d   1      -1.067   2.243   0.188  0.00  0.00     0.033 A 
ATOM      4  C4  UNL d   1       0.133   2.875  -0.118  0.00  0.00    -0.042 A 
ATOM      5  C5  UNL d   1       1.299   2.122  -0.207  0.00  0.00     0.033 A 
ATOM      6  C6  UNL d   1       1.257   0.742   0.008  0.00  0.00    -0.057 A 
ENDROOT
BRANCH   1   7
ATOM      7  N   UNL d   1       0.103  -1.282   0.605  0.00  0.00    -0.732 N 
ATOM      8  C   UNL d   1      -0.220  -2.274  -0.398  0.00  0.00     0.284 C 
ATOM      9  H3  UNL d   1       0.905  -1.522   1.184  0.00  0.00     0.395 HD
ENDBRANCH   1   7
TORSDOF 1
ENDMDL
