MODEL 1
REMARK minimizedAffinity -3.72490215
REMARK minimizedRMSD -1
REMARK  1 active torsions:
REMARK  status: ('A' for Active; 'I' for Inactive)
REMARK    1  A    between atoms: N_2  and  C1_3 
ROOT
ATOM      1  C1  UNL d   1       0.250  -0.975   0.248  0.00  0.00     0.143 A 
ATOM      2  C2  UNL d   1       1.213  -0.033  -0.129  0.00  0.00    -0.057 A 
ATOM      3  C3  UNL d   1       0.928   1.338  -0.122  0.00  0.00     0.033 A 
ATOM      4  C4  UNL d   1      -0.338   1.790   0.235  0.00  0.00    -0.042 A 
ATOM      5  C5  UNL d   1      -1.318   0.869   0.589  0.00  0.00     0.033 A 
ATOM      6  C6  UNL d   1      -1.026  -0.498   0.586  0.00  0.00    -0.057 A 
ENDROOT
BRANCH   1   7
ATOM      7  N   UNL d   1       0.441  -2.357   0.167  0.00  0.00    -0.732 N 
ATOM      8  C   UNL d   1      -0.036  -3.102  -0.978  0.00  0.00     0.284 C 
ATOM      9  H3  UNL d   1       1.362  -2.641   0.493  0.00  0.00     0.395 HD
ENDBRANCH   1   7
TORSDOF 1
ENDMDL
