MODEL 1
REMARK minimizedAffinity -4.21113348
REMARK minimizedRMSD -1
REMARK  1 active torsions:
REMARK  status: ('A' for Active; 'I' for Inactive)
REMARK    1  A    between atoms: N_2  and  C1_3 
ROOT
ATOM      1  C1  UNL d   1      -0.111   0.289   0.239  0.00  0.00     0.143 A 
ATOM      2  C2  UNL d   1      -1.268   0.951   0.665  0.00  0.00    -0.057 A 
ATOM      3  C3  UNL d   1      -1.328   2.349   0.713  0.00  0.00     0.033 A 
ATOM      4  C4  UNL d   1      -0.219   3.111   0.362  0.00  0.00    -0.042 A 
ATOM      5  C5  UNL d   1       0.949   2.474  -0.041  0.00  0.00     0.033 A 
ATOM      6  C6  UNL d   1       1.001   1.078  -0.093  0.00  0.00    -0.057 A 
ENDROOT
BRANCH   1   7
ATOM      7  N   UNL d   1       0.044  -1.099   0.263  0.00  0.00    -0.732 N 
ATOM      8  C   UNL d   1      -0.267  -1.896  -0.904  0.00  0.00     0.284 C 
ATOM      9  H3  UNL d   1       0.890  -1.387   0.750  0.00  0.00     0.395 HD
ENDBRANCH   1   7
TORSDOF 1
ENDMDL
