MODEL 1
REMARK minimizedAffinity -2.0513308
REMARK minimizedRMSD -1
REMARK  1 active torsions:
REMARK  status: ('A' for Active; 'I' for Inactive)
REMARK    1  A    between atoms: N_2  and  C1_3 
ROOT
ATOM      1  C1  UNL d   1      -0.698  -2.487  -0.620  0.00  0.00     0.143 A 
ATOM      2  C2  UNL d   1      -1.998  -2.982  -0.472  0.00  0.00    -0.057 A 
ATOM      3  C3  UNL d   1      -2.366  -4.225  -1.000  0.00  0.00     0.033 A 
ATOM      4  C4  UNL d   1      -1.445  -4.984  -1.714  0.00  0.00    -0.042 A 
ATOM      5  C5  UNL d   1      -0.154  -4.501  -1.895  0.00  0.00     0.033 A 
ATOM      6  C6  UNL d   1       0.209  -3.261  -1.359  0.00  0.00    -0.057 A 
ENDROOT
BRANCH   1   7
ATOM      7  N   UNL d   1      -0.298  -1.215  -0.202  0.00  0.00    -0.732 N 
ATOM      8  C   UNL d   1      -1.261  -0.280   0.340  0.00  0.00     0.284 C 
ATOM      9  H3  UNL d   1       0.590  -1.230   0.292  0.00  0.00     0.395 HD
ENDBRANCH   1   7
TORSDOF 1
ENDMDL
