MODEL 1
REMARK minimizedAffinity -4.38964605
REMARK minimizedRMSD -1
REMARK  1 active torsions:
REMARK  status: ('A' for Active; 'I' for Inactive)
REMARK    1  A    between atoms: N_2  and  C1_3 
ROOT
ATOM      1  C1  UNL d   1      -0.330   0.281   0.306  0.00  0.00     0.143 A 
ATOM      2  C2  UNL d   1      -1.439   1.001   0.761  0.00  0.00    -0.057 A 
ATOM      3  C3  UNL d   1      -1.531   2.386   0.576  0.00  0.00     0.033 A 
ATOM      4  C4  UNL d   1      -0.498   3.081  -0.044  0.00  0.00    -0.042 A 
ATOM      5  C5  UNL d   1       0.625   2.389  -0.482  0.00  0.00     0.033 A 
ATOM      6  C6  UNL d   1       0.708   1.005  -0.301  0.00  0.00    -0.057 A 
ENDROOT
BRANCH   1   7
ATOM      7  N   UNL d   1      -0.135  -1.082   0.547  0.00  0.00    -0.732 N 
ATOM      8  C   UNL d   1      -0.415  -2.060  -0.483  0.00  0.00     0.284 C 
ATOM      9  H3  UNL d   1       0.715  -1.265   1.074  0.00  0.00     0.395 HD
ENDBRANCH   1   7
TORSDOF 1
ENDMDL
