MODEL 1
REMARK minimizedAffinity 0.802776575
REMARK minimizedRMSD -1
REMARK  1 active torsions:
REMARK  status: ('A' for Active; 'I' for Inactive)
REMARK    1  A    between atoms: N_2  and  C1_3 
ROOT
ATOM      1  C1  UNL d   1      -3.023  -4.687  -1.042  0.00  0.00     0.143 A 
ATOM      2  C2  UNL d   1      -2.643  -4.864  -2.377  0.00  0.00    -0.057 A 
ATOM      3  C3  UNL d   1      -1.542  -4.187  -2.914  0.00  0.00     0.033 A 
ATOM      4  C4  UNL d   1      -0.816  -3.295  -2.132  0.00  0.00    -0.042 A 
ATOM      5  C5  UNL d   1      -1.191  -3.084  -0.810  0.00  0.00     0.033 A 
ATOM      6  C6  UNL d   1      -2.287  -3.768  -0.276  0.00  0.00    -0.057 A 
ENDROOT
BRANCH   1   7
ATOM      7  N   UNL d   1      -4.167  -5.256  -0.476  0.00  0.00    -0.732 N 
ATOM      8  C   UNL d   1      -4.086  -5.993   0.766  0.00  0.00     0.284 C 
ATOM      9  H3  UNL d   1      -4.979  -4.646  -0.546  0.00  0.00     0.395 HD
ENDBRANCH   1   7
TORSDOF 1
ENDMDL
