MODEL 1
REMARK minimizedAffinity -3.87712479
REMARK minimizedRMSD -1
REMARK  1 active torsions:
REMARK  status: ('A' for Active; 'I' for Inactive)
REMARK    1  A    between atoms: N_2  and  C1_3 
ROOT
ATOM      1  C1  UNL d   1      -0.730  -1.962  -0.274  0.00  0.00     0.143 A 
ATOM      2  C2  UNL d   1      -1.816  -2.833  -0.413  0.00  0.00    -0.057 A 
ATOM      3  C3  UNL d   1      -1.908  -3.711  -1.500  0.00  0.00     0.033 A 
ATOM      4  C4  UNL d   1      -0.927  -3.713  -2.486  0.00  0.00    -0.042 A 
ATOM      5  C5  UNL d   1       0.149  -2.838  -2.382  0.00  0.00     0.033 A 
ATOM      6  C6  UNL d   1       0.239  -1.968  -1.291  0.00  0.00    -0.057 A 
ENDROOT
BRANCH   1   7
ATOM      7  N   UNL d   1      -0.630  -0.997   0.731  0.00  0.00    -0.732 N 
ATOM      8  C   UNL d   1      -1.343   0.258   0.621  0.00  0.00     0.284 C 
ATOM      9  H3  UNL d   1      -0.646  -1.404   1.663  0.00  0.00     0.395 HD
ENDBRANCH   1   7
TORSDOF 1
ENDMDL
