MODEL 1
REMARK minimizedAffinity -4.94261122
REMARK minimizedRMSD -1
REMARK  1 active torsions:
REMARK  status: ('A' for Active; 'I' for Inactive)
REMARK    1  A    between atoms: N_2  and  C1_3 
ROOT
ATOM      1  C1  UNL d   1       0.439   0.635   0.018  0.00  0.00     0.143 A 
ATOM      2  C2  UNL d   1       1.792   0.920   0.231  0.00  0.00    -0.057 A 
ATOM      3  C3  UNL d   1       2.223   2.221   0.522  0.00  0.00     0.033 A 
ATOM      4  C4  UNL d   1       1.308   3.267   0.577  0.00  0.00    -0.042 A 
ATOM      5  C5  UNL d   1      -0.039   3.011   0.344  0.00  0.00     0.033 A 
ATOM      6  C6  UNL d   1      -0.463   1.709   0.060  0.00  0.00    -0.057 A 
ENDROOT
BRANCH   1   7
ATOM      7  N   UNL d   1      -0.039  -0.618  -0.371  0.00  0.00    -0.732 N 
ATOM      8  C   UNL d   1       0.294  -1.804   0.389  0.00  0.00     0.284 C 
ATOM      9  H3  UNL d   1      -1.006  -0.584  -0.686  0.00  0.00     0.395 HD
ENDBRANCH   1   7
TORSDOF 1
ENDMDL
