MODEL 1
REMARK minimizedAffinity -3.42588472
REMARK minimizedRMSD -1
REMARK  1 active torsions:
REMARK  status: ('A' for Active; 'I' for Inactive)
REMARK    1  A    between atoms: N_2  and  C1_3 
ROOT
ATOM      1  C1  UNL d   1       1.446   2.960   0.659  0.00  0.00     0.143 A 
ATOM      2  C2  UNL d   1       2.416   2.008   0.990  0.00  0.00    -0.057 A 
ATOM      3  C3  UNL d   1       2.538   0.813   0.271  0.00  0.00     0.033 A 
ATOM      4  C4  UNL d   1       1.668   0.535  -0.779  0.00  0.00    -0.042 A 
ATOM      5  C5  UNL d   1       0.680   1.455  -1.110  0.00  0.00     0.033 A 
ATOM      6  C6  UNL d   1       0.568   2.650  -0.392  0.00  0.00    -0.057 A 
ENDROOT
BRANCH   1   7
ATOM      7  N   UNL d   1       1.211   4.122   1.398  0.00  0.00    -0.732 N 
ATOM      8  C   UNL d   1       1.116   4.071   2.841  0.00  0.00     0.284 C 
ATOM      9  H3  UNL d   1       1.734   4.920   1.044  0.00  0.00     0.395 HD
ENDBRANCH   1   7
TORSDOF 1
ENDMDL
