MODEL 1
REMARK minimizedAffinity -2.96497416
REMARK minimizedRMSD -1
REMARK  1 active torsions:
REMARK  status: ('A' for Active; 'I' for Inactive)
REMARK    1  A    between atoms: N_2  and  C1_3 
ROOT
ATOM      1  C1  UNL d   1       0.071   0.182   0.042  0.00  0.00     0.143 A 
ATOM      2  C2  UNL d   1      -1.055   0.922   0.418  0.00  0.00    -0.057 A 
ATOM      3  C3  UNL d   1      -1.054   2.321   0.368  0.00  0.00     0.033 A 
ATOM      4  C4  UNL d   1       0.088   3.008  -0.031  0.00  0.00    -0.042 A 
ATOM      5  C5  UNL d   1       1.227   2.294  -0.385  0.00  0.00     0.033 A 
ATOM      6  C6  UNL d   1       1.217   0.896  -0.340  0.00  0.00    -0.057 A 
ENDROOT
BRANCH   1   7
ATOM      7  N   UNL d   1       0.165  -1.207   0.163  0.00  0.00    -0.732 N 
ATOM      8  C   UNL d   1      -0.621  -2.076  -0.686  0.00  0.00     0.284 C 
ATOM      9  H3  UNL d   1       1.123  -1.520   0.306  0.00  0.00     0.395 HD
ENDBRANCH   1   7
TORSDOF 1
ENDMDL
