MODEL 1
REMARK minimizedAffinity -3.79123259
REMARK minimizedRMSD -1
REMARK  0 active torsions:
REMARK  status: ('A' for Active; 'I' for Inactive)
ROOT
ATOM      1  C   UNL d   1      -0.476  -0.448  -0.621  0.00  0.00     0.172 C 
ATOM      2  N   UNL d   1       0.521  -0.764   0.374  0.00  0.00    -0.070 N 
ATOM      3  C1  UNL d   1       1.644  -1.520   0.167  0.00  0.00    -0.004 A 
ATOM      4  C2  UNL d   1       2.333  -1.586   1.359  0.00  0.00    -0.047 A 
ATOM      5  C3  UNL d   1       1.599  -0.845   2.315  0.00  0.00    -0.047 A 
ATOM      6  C4  UNL d   1       0.482  -0.347   1.678  0.00  0.00    -0.004 A 
ENDROOT
TORSDOF 0
ENDMDL
