MODEL 1
REMARK minimizedAffinity -4.32380962
REMARK minimizedRMSD -1
REMARK  0 active torsions:
REMARK  status: ('A' for Active; 'I' for Inactive)
ROOT
ATOM      1  C   UNL d   1       0.727  -0.303  -0.692  0.00  0.00     0.172 C 
ATOM      2  N   UNL d   1       1.069  -0.605   0.678  0.00  0.00    -0.070 N 
ATOM      3  C1  UNL d   1       2.134  -1.363   1.087  0.00  0.00    -0.004 A 
ATOM      4  C2  UNL d   1       2.113  -1.412   2.464  0.00  0.00    -0.047 A 
ATOM      5  C3  UNL d   1       0.996  -0.659   2.898  0.00  0.00    -0.047 A 
ATOM      6  C4  UNL d   1       0.367  -0.171   1.772  0.00  0.00    -0.004 A 
ENDROOT
TORSDOF 0
ENDMDL
