MODEL 1
REMARK minimizedAffinity -3.66307259
REMARK minimizedRMSD -1
REMARK  0 active torsions:
REMARK  status: ('A' for Active; 'I' for Inactive)
ROOT
ATOM      1  C   UNL d   1       0.241  -0.288  -0.658  0.00  0.00     0.172 C 
ATOM      2  N   UNL d   1       0.879  -0.869   0.500  0.00  0.00    -0.070 N 
ATOM      3  C1  UNL d   1       1.973  -1.692   0.480  0.00  0.00    -0.004 A 
ATOM      4  C2  UNL d   1       2.271  -2.029   1.783  0.00  0.00    -0.047 A 
ATOM      5  C3  UNL d   1       1.323  -1.388   2.614  0.00  0.00    -0.047 A 
ATOM      6  C4  UNL d   1       0.473  -0.676   1.795  0.00  0.00    -0.004 A 
ENDROOT
TORSDOF 0
ENDMDL
