MODEL 1
REMARK minimizedAffinity -3.39237022
REMARK minimizedRMSD -1
REMARK  0 active torsions:
REMARK  status: ('A' for Active; 'I' for Inactive)
ROOT
ATOM      1  C   UNL d   1      -0.542  -0.117  -1.189  0.00  0.00     0.172 C 
ATOM      2  N   UNL d   1      -0.157  -0.456   0.161  0.00  0.00    -0.070 N 
ATOM      3  C1  UNL d   1       0.887  -1.270   0.514  0.00  0.00    -0.004 A 
ATOM      4  C2  UNL d   1       0.922  -1.339   1.890  0.00  0.00    -0.047 A 
ATOM      5  C3  UNL d   1      -0.138  -0.540   2.381  0.00  0.00    -0.047 A 
ATOM      6  C4  UNL d   1      -0.789  -0.005   1.290  0.00  0.00    -0.004 A 
ENDROOT
TORSDOF 0
ENDMDL
