MODEL 1
REMARK minimizedAffinity -1.60199964
REMARK minimizedRMSD -1
REMARK  0 active torsions:
REMARK  status: ('A' for Active; 'I' for Inactive)
ROOT
ATOM      1  C   UNL d   1      -0.266  -0.104  -1.110  0.00  0.00     0.172 C 
ATOM      2  N   UNL d   1      -0.129  -0.486   0.276  0.00  0.00    -0.070 N 
ATOM      3  C1  UNL d   1       0.924  -1.177   0.813  0.00  0.00    -0.004 A 
ATOM      4  C2  UNL d   1       0.678  -1.341   2.159  0.00  0.00    -0.047 A 
ATOM      5  C3  UNL d   1      -0.567  -0.728   2.440  0.00  0.00    -0.047 A 
ATOM      6  C4  UNL d   1      -1.044  -0.207   1.256  0.00  0.00    -0.004 A 
ENDROOT
TORSDOF 0
ENDMDL
