MODEL 1
REMARK minimizedAffinity -3.03459764
REMARK minimizedRMSD -1
REMARK  0 active torsions:
REMARK  status: ('A' for Active; 'I' for Inactive)
ROOT
ATOM      1  C   UNL d   1       1.920  -0.834  -0.853  0.00  0.00     0.172 C 
ATOM      2  N   UNL d   1       0.962  -0.949   0.221  0.00  0.00    -0.070 N 
ATOM      3  C1  UNL d   1      -0.399  -0.869   0.090  0.00  0.00    -0.004 A 
ATOM      4  C2  UNL d   1      -0.954  -1.029   1.341  0.00  0.00    -0.047 A 
ATOM      5  C3  UNL d   1       0.110  -1.211   2.256  0.00  0.00    -0.047 A 
ATOM      6  C4  UNL d   1       1.284  -1.157   1.536  0.00  0.00    -0.004 A 
ENDROOT
TORSDOF 0
ENDMDL
