MODEL 1
REMARK minimizedAffinity -2.10881376
REMARK minimizedRMSD -1
REMARK  0 active torsions:
REMARK  status: ('A' for Active; 'I' for Inactive)
ROOT
ATOM      1  C   UNL d   1       2.415  -0.700   0.779  0.00  0.00     0.172 C 
ATOM      2  N   UNL d   1       1.062  -0.931   1.226  0.00  0.00    -0.070 N 
ATOM      3  C1  UNL d   1      -0.074  -0.539   0.569  0.00  0.00    -0.004 A 
ATOM      4  C2  UNL d   1      -1.157  -0.946   1.318  0.00  0.00    -0.047 A 
ATOM      5  C3  UNL d   1      -0.654  -1.605   2.466  0.00  0.00    -0.047 A 
ATOM      6  C4  UNL d   1       0.722  -1.580   2.384  0.00  0.00    -0.004 A 
ENDROOT
TORSDOF 0
ENDMDL
