MODEL 1
REMARK minimizedAffinity -4.03499603
REMARK minimizedRMSD -1
REMARK  0 active torsions:
REMARK  status: ('A' for Active; 'I' for Inactive)
ROOT
ATOM      1  C   UNL d   1       0.435  -1.240  -1.210  0.00  0.00     0.172 C 
ATOM      2  N   UNL d   1       0.737  -0.984   0.179  0.00  0.00    -0.070 N 
ATOM      3  C1  UNL d   1       1.906  -0.457   0.658  0.00  0.00    -0.004 A 
ATOM      4  C2  UNL d   1       1.799  -0.370   2.029  0.00  0.00    -0.047 A 
ATOM      5  C3  UNL d   1       0.522  -0.863   2.387  0.00  0.00    -0.047 A 
ATOM      6  C4  UNL d   1      -0.115  -1.237   1.222  0.00  0.00    -0.004 A 
ENDROOT
TORSDOF 0
ENDMDL
