MODEL 1
REMARK minimizedAffinity -2.00489235
REMARK minimizedRMSD -1
REMARK  0 active torsions:
REMARK  status: ('A' for Active; 'I' for Inactive)
ROOT
ATOM      1  C   UNL d   1      -0.350   0.668  -1.664  0.00  0.00     0.172 C 
ATOM      2  N   UNL d   1      -0.958   1.756  -2.394  0.00  0.00    -0.070 N 
ATOM      3  C1  UNL d   1      -1.791   2.706  -1.866  0.00  0.00    -0.004 A 
ATOM      4  C2  UNL d   1      -2.154   3.561  -2.883  0.00  0.00    -0.047 A 
ATOM      5  C3  UNL d   1      -1.518   3.110  -4.064  0.00  0.00    -0.047 A 
ATOM      6  C4  UNL d   1      -0.784   1.991  -3.733  0.00  0.00    -0.004 A 
ENDROOT
TORSDOF 0
ENDMDL
