MODEL 1
REMARK minimizedAffinity 15.6444139
REMARK minimizedRMSD -1
REMARK  0 active torsions:
REMARK  status: ('A' for Active; 'I' for Inactive)
ROOT
ATOM      1  N1  IND d   1       3.409   1.173   1.492  0.00  0.00    -0.196 N 
ATOM      2  C2  IND d   1       2.717   0.853   0.358  0.00  0.00     0.054 A 
ATOM      3  C3  IND d   1       3.114   1.634  -0.672  0.00  0.00    -0.031 A 
ATOM      4  C4  IND d   1       4.955   3.432  -0.746  0.00  0.00     0.051 A 
ATOM      5  C5  IND d   1       5.837   4.103   0.053  0.00  0.00    -0.031 A 
ATOM      6  C6  IND d   1       5.960   3.825   1.399  0.00  0.00     0.015 A 
ATOM      7  C7  IND d   1       5.210   2.852   1.996  0.00  0.00    -0.016 A 
ATOM      8  C8  IND d   1       4.307   2.173   1.190  0.00  0.00    -0.047 A 
ATOM      9  C9  IND d   1       4.148   2.481  -0.167  0.00  0.00    -0.096 A 
ATOM     10  HN1 IND d   1       3.302   0.810   2.264  0.00  0.00     0.298 HD
ENDROOT
TORSDOF 0
ENDMDL
