MODEL 1
REMARK minimizedAffinity 16.4014721
REMARK minimizedRMSD -1
REMARK  0 active torsions:
REMARK  status: ('A' for Active; 'I' for Inactive)
ROOT
ATOM      1  N1  IND d   1       0.818   1.985  -0.076  0.00  0.00    -0.196 N 
ATOM      2  C2  IND d   1       1.722   0.972   0.083  0.00  0.00     0.054 A 
ATOM      3  C3  IND d   1       2.679   1.042  -0.870  0.00  0.00    -0.031 A 
ATOM      4  C4  IND d   1       3.012   2.793  -2.727  0.00  0.00     0.051 A 
ATOM      5  C5  IND d   1       2.423   3.888  -3.294  0.00  0.00    -0.031 A 
ATOM      6  C6  IND d   1       1.245   4.417  -2.805  0.00  0.00     0.015 A 
ATOM      7  C7  IND d   1       0.617   3.875  -1.720  0.00  0.00    -0.016 A 
ATOM      8  C8  IND d   1       1.210   2.759  -1.146  0.00  0.00    -0.047 A 
ATOM      9  C9  IND d   1       2.382   2.192  -1.664  0.00  0.00    -0.096 A 
ATOM     10  HN1 IND d   1       0.122   2.117   0.411  0.00  0.00     0.298 HD
ENDROOT
TORSDOF 0
ENDMDL
