MODEL 1
REMARK minimizedAffinity 13.7707453
REMARK minimizedRMSD -1
REMARK  0 active torsions:
REMARK  status: ('A' for Active; 'I' for Inactive)
ROOT
ATOM      1  N1  IND d   1       6.000   5.968  -1.555  0.00  0.00    -0.196 N 
ATOM      2  C2  IND d   1       5.125   6.000  -0.505  0.00  0.00     0.054 A 
ATOM      3  C3  IND d   1       4.050   5.222  -0.764  0.00  0.00    -0.031 A 
ATOM      4  C4  IND d   1       3.567   3.727  -2.804  0.00  0.00     0.051 A 
ATOM      5  C5  IND d   1       4.056   3.396  -4.037  0.00  0.00    -0.031 A 
ATOM      6  C6  IND d   1       5.243   3.914  -4.514  0.00  0.00     0.015 A 
ATOM      7  C7  IND d   1       5.994   4.777  -3.767  0.00  0.00    -0.016 A 
ATOM      8  C8  IND d   1       5.498   5.121  -2.518  0.00  0.00    -0.047 A 
ATOM      9  C9  IND d   1       4.273   4.631  -2.046  0.00  0.00    -0.096 A 
ATOM     10  HN1 IND d   1       6.739   6.403  -1.605  0.00  0.00     0.298 HD
ENDROOT
TORSDOF 0
ENDMDL
