MODEL 1
REMARK minimizedAffinity 10.7018433
REMARK minimizedRMSD -1
REMARK  0 active torsions:
REMARK  status: ('A' for Active; 'I' for Inactive)
ROOT
ATOM      1  N1  IND d   1      -2.728   5.255  -4.230  0.00  0.00    -0.196 N 
ATOM      2  C2  IND d   1      -2.246   4.916  -5.464  0.00  0.00     0.054 A 
ATOM      3  C3  IND d   1      -0.894   4.927  -5.461  0.00  0.00    -0.031 A 
ATOM      4  C4  IND d   1       0.733   5.372  -3.516  0.00  0.00     0.051 A 
ATOM      5  C5  IND d   1       0.765   5.759  -2.206  0.00  0.00    -0.031 A 
ATOM      6  C6  IND d   1      -0.389   6.000  -1.488  0.00  0.00     0.015 A 
ATOM      7  C7  IND d   1      -1.623   5.851  -2.053  0.00  0.00    -0.016 A 
ATOM      8  C8  IND d   1      -1.660   5.466  -3.386  0.00  0.00    -0.047 A 
ATOM      9  C9  IND d   1      -0.492   5.261  -4.131  0.00  0.00    -0.096 A 
ATOM     10  HN1 IND d   1      -3.558   5.326  -4.018  0.00  0.00     0.298 HD
ENDROOT
TORSDOF 0
ENDMDL
