MODEL 1
REMARK minimizedAffinity 12.6303768
REMARK minimizedRMSD -1
REMARK  0 active torsions:
REMARK  status: ('A' for Active; 'I' for Inactive)
ROOT
ATOM      1  N1  IND d   1      -2.231   5.649  -5.165  0.00  0.00    -0.196 N 
ATOM      2  C2  IND d   1      -1.148   5.678  -5.999  0.00  0.00     0.054 A 
ATOM      3  C3  IND d   1      -0.003   5.728  -5.282  0.00  0.00    -0.031 A 
ATOM      4  C4  IND d   1       0.332   5.668  -2.731  0.00  0.00     0.051 A 
ATOM      5  C5  IND d   1      -0.360   5.679  -1.552  0.00  0.00    -0.031 A 
ATOM      6  C6  IND d   1      -1.740   5.678  -1.518  0.00  0.00     0.015 A 
ATOM      7  C7  IND d   1      -2.481   5.654  -2.665  0.00  0.00    -0.016 A 
ATOM      8  C8  IND d   1      -1.781   5.650  -3.863  0.00  0.00    -0.047 A 
ATOM      9  C9  IND d   1      -0.382   5.694  -3.905  0.00  0.00    -0.096 A 
ATOM     10  HN1 IND d   1      -3.055   5.633  -5.412  0.00  0.00     0.298 HD
ENDROOT
TORSDOF 0
ENDMDL
