MODEL 1
REMARK minimizedAffinity 15.1921272
REMARK minimizedRMSD -1
REMARK  0 active torsions:
REMARK  status: ('A' for Active; 'I' for Inactive)
ROOT
ATOM      1  N1  IND d   1       2.642   2.628  -3.984  0.00  0.00    -0.196 N 
ATOM      2  C2  IND d   1       1.905   2.722  -2.837  0.00  0.00     0.054 A 
ATOM      3  C3  IND d   1       2.597   3.389  -1.886  0.00  0.00    -0.031 A 
ATOM      4  C4  IND d   1       4.914   4.502  -2.029  0.00  0.00     0.051 A 
ATOM      5  C5  IND d   1       5.987   4.653  -2.861  0.00  0.00    -0.031 A 
ATOM      6  C6  IND d   1       6.000   4.127  -4.137  0.00  0.00     0.015 A 
ATOM      7  C7  IND d   1       4.930   3.439  -4.635  0.00  0.00    -0.016 A 
ATOM      8  C8  IND d   1       3.841   3.278  -3.790  0.00  0.00    -0.047 A 
ATOM      9  C9  IND d   1       3.839   3.772  -2.479  0.00  0.00    -0.096 A 
ATOM     10  HN1 IND d   1       2.398   2.230  -4.706  0.00  0.00     0.298 HD
ENDROOT
TORSDOF 0
ENDMDL
