MODEL 1
REMARK minimizedAffinity 13.415658
REMARK minimizedRMSD -1
REMARK  0 active torsions:
REMARK  status: ('A' for Active; 'I' for Inactive)
ROOT
ATOM      1  N1  IND d   1       2.898   1.560  -1.157  0.00  0.00    -0.196 N 
ATOM      2  C2  IND d   1       2.052   1.339  -0.106  0.00  0.00     0.054 A 
ATOM      3  C3  IND d   1       0.863   1.943  -0.324  0.00  0.00    -0.031 A 
ATOM      4  C4  IND d   1       0.051   3.262  -2.380  0.00  0.00     0.051 A 
ATOM      5  C5  IND d   1       0.479   3.761  -3.578  0.00  0.00    -0.031 A 
ATOM      6  C6  IND d   1       1.761   3.545  -4.041  0.00  0.00     0.015 A 
ATOM      7  C7  IND d   1       2.662   2.809  -3.325  0.00  0.00    -0.016 A 
ATOM      8  C8  IND d   1       2.233   2.307  -2.105  0.00  0.00    -0.047 A 
ATOM      9  C9  IND d   1       0.947   2.559  -1.610  0.00  0.00    -0.096 A 
ATOM     10  HN1 IND d   1       3.709   1.280  -1.216  0.00  0.00     0.298 HD
ENDROOT
TORSDOF 0
ENDMDL
