MODEL 1
REMARK minimizedAffinity 7.08917618
REMARK minimizedRMSD -1
REMARK  0 active torsions:
REMARK  status: ('A' for Active; 'I' for Inactive)
ROOT
ATOM      1  N1  IND d   1      -5.559  -1.639   2.525  0.00  0.00    -0.196 N 
ATOM      2  C2  IND d   1      -5.251  -2.431   3.596  0.00  0.00     0.054 A 
ATOM      3  C3  IND d   1      -3.920  -2.404   3.833  0.00  0.00    -0.031 A 
ATOM      4  C4  IND d   1      -2.075  -1.051   2.653  0.00  0.00     0.051 A 
ATOM      5  C5  IND d   1      -1.864  -0.214   1.594  0.00  0.00    -0.031 A 
ATOM      6  C6  IND d   1      -2.894   0.202   0.776  0.00  0.00     0.015 A 
ATOM      7  C7  IND d   1      -4.183  -0.197   0.995  0.00  0.00    -0.016 A 
ATOM      8  C8  IND d   1      -4.400  -1.053   2.065  0.00  0.00    -0.047 A 
ATOM      9  C9  IND d   1      -3.352  -1.512   2.873  0.00  0.00    -0.096 A 
ATOM     10  HN1 IND d   1      -6.344  -1.526   2.194  0.00  0.00     0.298 HD
ENDROOT
TORSDOF 0
ENDMDL
