MODEL 1
REMARK minimizedAffinity 13.4054928
REMARK minimizedRMSD -1
REMARK  0 active torsions:
REMARK  status: ('A' for Active; 'I' for Inactive)
ROOT
ATOM      1  N1  IND d   1      -4.586   1.330   2.146  0.00  0.00    -0.196 N 
ATOM      2  C2  IND d   1      -5.398   0.721   1.230  0.00  0.00     0.054 A 
ATOM      3  C3  IND d   1      -4.782  -0.360   0.701  0.00  0.00    -0.031 A 
ATOM      4  C4  IND d   1      -2.483  -1.373   1.267  0.00  0.00     0.051 A 
ATOM      5  C5  IND d   1      -1.361  -1.147   2.014  0.00  0.00    -0.031 A 
ATOM      6  C6  IND d   1      -1.256  -0.064   2.863  0.00  0.00     0.015 A 
ATOM      7  C7  IND d   1      -2.278   0.831   3.005  0.00  0.00    -0.016 A 
ATOM      8  C8  IND d   1      -3.416   0.610   2.242  0.00  0.00    -0.047 A 
ATOM      9  C9  IND d   1      -3.512  -0.464   1.348  0.00  0.00    -0.096 A 
ATOM     10  HN1 IND d   1      -4.775   2.043   2.588  0.00  0.00     0.298 HD
ENDROOT
TORSDOF 0
ENDMDL
