MODEL 1
REMARK minimizedAffinity 17.7081757
REMARK minimizedRMSD -1
REMARK  0 active torsions:
REMARK  status: ('A' for Active; 'I' for Inactive)
ROOT
ATOM      1  N1  IND d   1      -5.168   1.580   1.359  0.00  0.00    -0.196 N 
ATOM      2  C2  IND d   1      -5.698   0.689   0.467  0.00  0.00     0.054 A 
ATOM      3  C3  IND d   1      -4.966  -0.447   0.447  0.00  0.00    -0.031 A 
ATOM      4  C4  IND d   1      -2.921  -1.102   1.866  0.00  0.00     0.051 A 
ATOM      5  C5  IND d   1      -2.048  -0.603   2.792  0.00  0.00    -0.031 A 
ATOM      6  C6  IND d   1      -2.175   0.674   3.300  0.00  0.00     0.015 A 
ATOM      7  C7  IND d   1      -3.191   1.499   2.908  0.00  0.00    -0.016 A 
ATOM      8  C8  IND d   1      -4.075   0.998   1.962  0.00  0.00    -0.047 A 
ATOM      9  C9  IND d   1      -3.926  -0.281   1.412  0.00  0.00    -0.096 A 
ATOM     10  HN1 IND d   1      -5.468   2.370   1.517  0.00  0.00     0.298 HD
ENDROOT
TORSDOF 0
ENDMDL
