MODEL 1
REMARK minimizedAffinity 14.3786955
REMARK minimizedRMSD -1
REMARK  0 active torsions:
REMARK  status: ('A' for Active; 'I' for Inactive)
ROOT
ATOM      1  N1  IND d   1      -2.379   0.663   4.011  0.00  0.00    -0.196 N 
ATOM      2  C2  IND d   1      -1.734  -0.026   3.022  0.00  0.00     0.054 A 
ATOM      3  C3  IND d   1      -2.557  -0.217   1.967  0.00  0.00    -0.031 A 
ATOM      4  C4  IND d   1      -4.971   0.604   1.606  0.00  0.00     0.051 A 
ATOM      5  C5  IND d   1      -5.998   1.242   2.243  0.00  0.00    -0.031 A 
ATOM      6  C6  IND d   1      -5.868   1.732   3.527  0.00  0.00     0.015 A 
ATOM      7  C7  IND d   1      -4.697   1.612   4.220  0.00  0.00    -0.016 A 
ATOM      8  C8  IND d   1      -3.654   0.958   3.579  0.00  0.00    -0.047 A 
ATOM      9  C9  IND d   1      -3.793   0.421   2.293  0.00  0.00    -0.096 A 
ATOM     10  HN1 IND d   1      -2.045   0.876   4.774  0.00  0.00     0.298 HD
ENDROOT
TORSDOF 0
ENDMDL
