MODEL 1
REMARK minimizedAffinity -0.859475434
REMARK minimizedRMSD -1
REMARK  0 active torsions:
REMARK  status: ('A' for Active; 'I' for Inactive)
ROOT
ATOM      1  N1  IND d   1      -1.503   0.366   3.289  0.00  0.00    -0.196 N 
ATOM      2  C2  IND d   1      -1.059  -0.475   2.307  0.00  0.00     0.054 A 
ATOM      3  C3  IND d   1      -2.102  -0.961   1.598  0.00  0.00    -0.031 A 
ATOM      4  C4  IND d   1      -4.612  -0.433   1.810  0.00  0.00     0.051 A 
ATOM      5  C5  IND d   1      -5.508   0.250   2.584  0.00  0.00    -0.031 A 
ATOM      6  C6  IND d   1      -5.106   1.024   3.653  0.00  0.00     0.015 A 
ATOM      7  C7  IND d   1      -3.786   1.154   3.982  0.00  0.00    -0.016 A 
ATOM      8  C8  IND d   1      -2.875   0.457   3.202  0.00  0.00    -0.047 A 
ATOM      9  C9  IND d   1      -3.280  -0.365   2.142  0.00  0.00    -0.096 A 
ATOM     10  HN1 IND d   1      -1.008   0.771   3.865  0.00  0.00     0.298 HD
ENDROOT
TORSDOF 0
ENDMDL
