MODEL 1
REMARK minimizedAffinity 12.0441923
REMARK minimizedRMSD -1
REMARK  0 active torsions:
REMARK  status: ('A' for Active; 'I' for Inactive)
ROOT
ATOM      1  N1  IND d   1       1.686   3.148  -3.515  0.00  0.00    -0.196 N 
ATOM      2  C2  IND d   1       1.173   3.710  -2.379  0.00  0.00     0.054 A 
ATOM      3  C3  IND d   1       2.090   4.517  -1.799  0.00  0.00    -0.031 A 
ATOM      4  C4  IND d   1       4.457   5.142  -2.595  0.00  0.00     0.051 A 
ATOM      5  C5  IND d   1       5.381   4.851  -3.559  0.00  0.00    -0.031 A 
ATOM      6  C6  IND d   1       5.114   3.962  -4.580  0.00  0.00     0.015 A 
ATOM      7  C7  IND d   1       3.903   3.336  -4.682  0.00  0.00    -0.016 A 
ATOM      8  C8  IND d   1       2.966   3.623  -3.700  0.00  0.00    -0.047 A 
ATOM      9  C9  IND d   1       3.246   4.492  -2.638  0.00  0.00    -0.096 A 
ATOM     10  HN1 IND d   1       1.278   2.590  -4.027  0.00  0.00     0.298 HD
ENDROOT
TORSDOF 0
ENDMDL
