MODEL 1
REMARK minimizedAffinity 8.88611126
REMARK minimizedRMSD -1
REMARK  0 active torsions:
REMARK  status: ('A' for Active; 'I' for Inactive)
ROOT
ATOM      1  N1  IND d   1       3.250   1.723   1.545  0.00  0.00    -0.196 N 
ATOM      2  C2  IND d   1       2.634   1.347   0.384  0.00  0.00     0.054 A 
ATOM      3  C3  IND d   1       3.173   2.004  -0.668  0.00  0.00    -0.031 A 
ATOM      4  C4  IND d   1       5.140   3.664  -0.726  0.00  0.00     0.051 A 
ATOM      5  C5  IND d   1       5.999   4.345   0.090  0.00  0.00    -0.031 A 
ATOM      6  C6  IND d   1       5.987   4.182   1.460  0.00  0.00     0.015 A 
ATOM      7  C7  IND d   1       5.119   3.319   2.067  0.00  0.00    -0.016 A 
ATOM      8  C8  IND d   1       4.241   2.630   1.242  0.00  0.00    -0.047 A 
ATOM      9  C9  IND d   1       4.220   2.824  -0.145  0.00  0.00    -0.096 A 
ATOM     10  HN1 IND d   1       3.052   1.439   2.332  0.00  0.00     0.298 HD
ENDROOT
TORSDOF 0
ENDMDL
