MODEL 1
REMARK minimizedAffinity 4.53754091
REMARK minimizedRMSD -1
REMARK  0 active torsions:
REMARK  status: ('A' for Active; 'I' for Inactive)
ROOT
ATOM      1  N1  IND d   1      -0.069  -0.458   4.088  0.00  0.00    -0.196 N 
ATOM      2  C2  IND d   1       0.476  -1.652   3.706  0.00  0.00     0.054 A 
ATOM      3  C3  IND d   1      -0.254  -2.206   2.713  0.00  0.00    -0.031 A 
ATOM      4  C4  IND d   1      -2.321  -1.280   1.490  0.00  0.00     0.051 A 
ATOM      5  C5  IND d   1      -3.209  -0.242   1.511  0.00  0.00    -0.031 A 
ATOM      6  C6  IND d   1      -3.092   0.800   2.407  0.00  0.00     0.015 A 
ATOM      7  C7  IND d   1      -2.071   0.849   3.314  0.00  0.00    -0.016 A 
ATOM      8  C8  IND d   1      -1.171  -0.208   3.301  0.00  0.00    -0.047 A 
ATOM      9  C9  IND d   1      -1.310  -1.290   2.421  0.00  0.00    -0.096 A 
ATOM     10  HN1 IND d   1       0.227   0.052   4.714  0.00  0.00     0.298 HD
ENDROOT
TORSDOF 0
ENDMDL
