MODEL 1
REMARK minimizedAffinity 15.8082466
REMARK minimizedRMSD -1
REMARK  0 active torsions:
REMARK  status: ('A' for Active; 'I' for Inactive)
ROOT
ATOM      1  N1  IND d   1      -0.177   4.800  -1.888  0.00  0.00    -0.196 N 
ATOM      2  C2  IND d   1       0.372   6.000  -2.246  0.00  0.00     0.054 A 
ATOM      3  C3  IND d   1       1.631   5.823  -2.705  0.00  0.00    -0.031 A 
ATOM      4  C4  IND d   1       2.956   3.642  -3.049  0.00  0.00     0.051 A 
ATOM      5  C5  IND d   1       2.887   2.295  -2.832  0.00  0.00    -0.031 A 
ATOM      6  C6  IND d   1       1.770   1.701  -2.280  0.00  0.00     0.015 A 
ATOM      7  C7  IND d   1       0.671   2.435  -1.934  0.00  0.00    -0.016 A 
ATOM      8  C8  IND d   1       0.740   3.804  -2.147  0.00  0.00    -0.047 A 
ATOM      9  C9  IND d   1       1.887   4.418  -2.667  0.00  0.00    -0.096 A 
ATOM     10  HN1 IND d   1      -0.962   4.686  -1.556  0.00  0.00     0.298 HD
ENDROOT
TORSDOF 0
ENDMDL
