MODEL 1
REMARK minimizedAffinity 16.4525909
REMARK minimizedRMSD -1
REMARK  0 active torsions:
REMARK  status: ('A' for Active; 'I' for Inactive)
ROOT
ATOM      1  N1  IND d   1       4.336   4.186   1.971  0.00  0.00    -0.196 N 
ATOM      2  C2  IND d   1       5.680   4.065   1.753  0.00  0.00     0.054 A 
ATOM      3  C3  IND d   1       5.936   2.980   0.988  0.00  0.00    -0.031 A 
ATOM      4  C4  IND d   1       4.295   1.323  -0.102  0.00  0.00     0.051 A 
ATOM      5  C5  IND d   1       2.968   1.002  -0.160  0.00  0.00    -0.031 A 
ATOM      6  C6  IND d   1       2.009   1.743   0.500  0.00  0.00     0.015 A 
ATOM      7  C7  IND d   1       2.342   2.844   1.237  0.00  0.00    -0.016 A 
ATOM      8  C8  IND d   1       3.690   3.168   1.305  0.00  0.00    -0.047 A 
ATOM      9  C9  IND d   1       4.672   2.395   0.671  0.00  0.00    -0.096 A 
ATOM     10  HN1 IND d   1       3.957   4.796   2.445  0.00  0.00     0.298 HD
ENDROOT
TORSDOF 0
ENDMDL
