MODEL 1
REMARK minimizedAffinity 2.70003009
REMARK minimizedRMSD -1
REMARK  0 active torsions:
REMARK  status: ('A' for Active; 'I' for Inactive)
ROOT
ATOM      1  C   UNL d   1       1.121  -0.313   1.463  0.00  0.00     0.023 A 
ATOM      2  C1  UNL d   1      -0.012   0.311   0.940  0.00  0.00     0.003 A 
ATOM      3  C2  UNL d   1      -0.157   0.451  -0.442  0.00  0.00     0.048 A 
ATOM      4  C3  UNL d   1       0.833  -0.037  -1.294  0.00  0.00     0.023 A 
ATOM      5  C4  UNL d   1       1.967  -0.662  -0.775  0.00  0.00     0.048 A 
ATOM      6  C5  UNL d   1       2.109  -0.799   0.607  0.00  0.00     0.003 A 
ATOM      7  I   UNL d   1       0.618   0.170  -3.351  0.00  0.00    -0.146 I 
ENDROOT
TORSDOF 0
ENDMDL
