MODEL 1
REMARK minimizedAffinity -3.23903251
REMARK minimizedRMSD -1
REMARK  0 active torsions:
REMARK  status: ('A' for Active; 'I' for Inactive)
ROOT
ATOM      1  C   UNL d   1      -1.640   0.875   2.366  0.00  0.00     0.023 A 
ATOM      2  C1  UNL d   1      -0.256   1.049   2.319  0.00  0.00     0.003 A 
ATOM      3  C2  UNL d   1       0.463   0.635   1.196  0.00  0.00     0.048 A 
ATOM      4  C3  UNL d   1      -0.208   0.049   0.123  0.00  0.00     0.023 A 
ATOM      5  C4  UNL d   1      -1.592  -0.126   0.165  0.00  0.00     0.048 A 
ATOM      6  C5  UNL d   1      -2.307   0.289   1.290  0.00  0.00     0.003 A 
ATOM      7  I   UNL d   1       0.861  -0.568  -1.550  0.00  0.00    -0.146 I 
ENDROOT
TORSDOF 0
ENDMDL
