MODEL 1
REMARK minimizedAffinity -2.40483356
REMARK minimizedRMSD -1
REMARK  0 active torsions:
REMARK  status: ('A' for Active; 'I' for Inactive)
ROOT
ATOM      1  C   UNL d   1       1.580  -0.677   1.287  0.00  0.00     0.023 A 
ATOM      2  C1  UNL d   1       2.333  -1.343   0.320  0.00  0.00     0.003 A 
ATOM      3  C2  UNL d   1       2.066  -1.142  -1.035  0.00  0.00     0.048 A 
ATOM      4  C3  UNL d   1       1.045  -0.271  -1.417  0.00  0.00     0.023 A 
ATOM      5  C4  UNL d   1       0.290   0.398  -0.453  0.00  0.00     0.048 A 
ATOM      6  C5  UNL d   1       0.560   0.193   0.901  0.00  0.00     0.003 A 
ATOM      7  I   UNL d   1       0.646   0.030  -3.435  0.00  0.00    -0.146 I 
ENDROOT
TORSDOF 0
ENDMDL
