MODEL 1
REMARK minimizedAffinity -3.58620238
REMARK minimizedRMSD -1
REMARK  0 active torsions:
REMARK  status: ('A' for Active; 'I' for Inactive)
ROOT
ATOM      1  C   UNL d   1      -1.100   0.881   2.220  0.00  0.00     0.023 A 
ATOM      2  C1  UNL d   1      -1.968   0.461   1.212  0.00  0.00     0.003 A 
ATOM      3  C2  UNL d   1      -1.459   0.039  -0.018  0.00  0.00     0.048 A 
ATOM      4  C3  UNL d   1      -0.081   0.038  -0.233  0.00  0.00     0.023 A 
ATOM      5  C4  UNL d   1       0.791   0.457   0.773  0.00  0.00     0.048 A 
ATOM      6  C5  UNL d   1       0.277   0.879   2.001  0.00  0.00     0.003 A 
ATOM      7  I   UNL d   1       0.679  -0.590  -2.062  0.00  0.00    -0.146 I 
ENDROOT
TORSDOF 0
ENDMDL
