MODEL 1
REMARK minimizedAffinity -4.0382061
REMARK minimizedRMSD -1
REMARK  0 active torsions:
REMARK  status: ('A' for Active; 'I' for Inactive)
ROOT
ATOM      1  C   UNL d   1      -1.282   0.245   2.543  0.00  0.00     0.023 A 
ATOM      2  C1  UNL d   1       0.038   0.514   2.179  0.00  0.00     0.003 A 
ATOM      3  C2  UNL d   1       0.493   0.180   0.902  0.00  0.00     0.048 A 
ATOM      4  C3  UNL d   1      -0.377  -0.422  -0.007  0.00  0.00     0.023 A 
ATOM      5  C4  UNL d   1      -1.699  -0.692   0.353  0.00  0.00     0.048 A 
ATOM      6  C5  UNL d   1      -2.149  -0.357   1.631  0.00  0.00     0.003 A 
ATOM      7  I   UNL d   1       0.298  -0.920  -1.909  0.00  0.00    -0.146 I 
ENDROOT
TORSDOF 0
ENDMDL
