MODEL 1
REMARK minimizedAffinity 0.364655197
REMARK minimizedRMSD -1
REMARK  0 active torsions:
REMARK  status: ('A' for Active; 'I' for Inactive)
ROOT
ATOM      1  C   UNL d   1      -0.638  -0.634   1.201  0.00  0.00     0.023 A 
ATOM      2  C1  UNL d   1      -1.529   0.003   0.337  0.00  0.00     0.003 A 
ATOM      3  C2  UNL d   1      -1.136   0.315  -0.967  0.00  0.00     0.048 A 
ATOM      4  C3  UNL d   1       0.148  -0.013  -1.399  0.00  0.00     0.023 A 
ATOM      5  C4  UNL d   1       1.043  -0.651  -0.537  0.00  0.00     0.048 A 
ATOM      6  C5  UNL d   1       0.646  -0.960   0.765  0.00  0.00     0.003 A 
ATOM      7  I   UNL d   1       0.735   0.450  -3.338  0.00  0.00    -0.146 I 
ENDROOT
TORSDOF 0
ENDMDL
