MODEL 1
REMARK minimizedAffinity -1.44484341
REMARK minimizedRMSD -1
REMARK  0 active torsions:
REMARK  status: ('A' for Active; 'I' for Inactive)
ROOT
ATOM      1  C   UNL d   1      -1.444   1.114   3.109  0.00  0.00     0.023 A 
ATOM      2  C1  UNL d   1      -0.475   2.019   2.677  0.00  0.00     0.003 A 
ATOM      3  C2  UNL d   1       0.112   1.868   1.419  0.00  0.00     0.048 A 
ATOM      4  C3  UNL d   1      -0.277   0.810   0.597  0.00  0.00     0.023 A 
ATOM      5  C4  UNL d   1      -1.248  -0.097   1.025  0.00  0.00     0.048 A 
ATOM      6  C5  UNL d   1      -1.830   0.057   2.285  0.00  0.00     0.003 A 
ATOM      7  I   UNL d   1       0.594   0.583  -1.276  0.00  0.00    -0.146 I 
ENDROOT
TORSDOF 0
ENDMDL
