MODEL 1
REMARK minimizedAffinity -2.03495216
REMARK minimizedRMSD -1
REMARK  0 active torsions:
REMARK  status: ('A' for Active; 'I' for Inactive)
ROOT
ATOM      1  C   UNL d   1      -3.045  -0.946  -0.202  0.00  0.00    -0.002 A 
ATOM      2  C1  UNL d   1      -2.491   0.042  -1.004  0.00  0.00     0.010 A 
ATOM      3  C2  UNL d   1      -1.135   0.358  -0.908  0.00  0.00     0.041 A 
ATOM      4  C3  UNL d   1      -0.336  -0.344   0.016  0.00  0.00    -0.075 A 
ATOM      5  S   UNL d   1       1.350  -0.128   0.307  0.00  0.00     0.015 SA
ATOM      6  C4  UNL d   1       1.375  -1.342   1.503  0.00  0.00     0.022 A 
ATOM      7  C5  UNL d   1       0.136  -1.909   1.689  0.00  0.00     0.026 A 
ATOM      8  C6  UNL d   1      -0.870  -1.343   0.834  0.00  0.00    -0.082 A 
ATOM      9  C7  UNL d   1      -2.249  -1.640   0.714  0.00  0.00     0.045 A 
ENDROOT
TORSDOF 0
ENDMDL
