MODEL 1
REMARK minimizedAffinity -2.67165232
REMARK minimizedRMSD -1
REMARK  0 active torsions:
REMARK  status: ('A' for Active; 'I' for Inactive)
ROOT
ATOM      1  C   UNL d   1       1.596  -1.383   1.060  0.00  0.00    -0.002 A 
ATOM      2  C1  UNL d   1       0.559  -1.950   1.788  0.00  0.00     0.010 A 
ATOM      3  C2  UNL d   1      -0.770  -1.723   1.427  0.00  0.00     0.041 A 
ATOM      4  C3  UNL d   1      -1.043  -0.909   0.310  0.00  0.00    -0.075 A 
ATOM      5  S   UNL d   1      -2.594  -0.493  -0.318  0.00  0.00     0.015 SA
ATOM      6  C4  UNL d   1      -1.917   0.447  -1.569  0.00  0.00     0.022 A 
ATOM      7  C5  UNL d   1      -0.543   0.454  -1.523  0.00  0.00     0.026 A 
ATOM      8  C6  UNL d   1      -0.017  -0.328  -0.440  0.00  0.00    -0.082 A 
ATOM      9  C7  UNL d   1       1.320  -0.577  -0.048  0.00  0.00     0.045 A 
ENDROOT
TORSDOF 0
ENDMDL
