MODEL 1
REMARK minimizedAffinity -2.05434012
REMARK minimizedRMSD -1
REMARK  0 active torsions:
REMARK  status: ('A' for Active; 'I' for Inactive)
ROOT
ATOM      1  C   UNL d   1      -1.097  -1.366   1.355  0.00  0.00    -0.002 A 
ATOM      2  C1  UNL d   1      -2.369  -0.884   1.081  0.00  0.00     0.010 A 
ATOM      3  C2  UNL d   1      -2.639  -0.241  -0.129  0.00  0.00     0.041 A 
ATOM      4  C3  UNL d   1      -1.600  -0.091  -1.068  0.00  0.00    -0.075 A 
ATOM      5  S   UNL d   1      -1.698   0.661  -2.616  0.00  0.00     0.015 SA
ATOM      6  C4  UNL d   1      -0.054   0.360  -2.950  0.00  0.00     0.022 A 
ATOM      7  C5  UNL d   1       0.570  -0.297  -1.916  0.00  0.00     0.026 A 
ATOM      8  C6  UNL d   1      -0.311  -0.569  -0.815  0.00  0.00    -0.082 A 
ATOM      9  C7  UNL d   1      -0.068  -1.215   0.421  0.00  0.00     0.045 A 
ENDROOT
TORSDOF 0
ENDMDL
