MODEL 1
REMARK minimizedAffinity -1.33213973
REMARK minimizedRMSD -1
REMARK  0 active torsions:
REMARK  status: ('A' for Active; 'I' for Inactive)
ROOT
ATOM      1  C   UNL d   1      -2.643  -0.751  -1.109  0.00  0.00    -0.002 A 
ATOM      2  C1  UNL d   1      -3.092   0.392  -0.463  0.00  0.00     0.010 A 
ATOM      3  C2  UNL d   1      -2.189   1.260   0.154  0.00  0.00     0.041 A 
ATOM      4  C3  UNL d   1      -0.814   0.958   0.108  0.00  0.00    -0.075 A 
ATOM      5  S   UNL d   1       0.475   1.876   0.793  0.00  0.00     0.015 SA
ATOM      6  C4  UNL d   1       1.652   0.773   0.243  0.00  0.00     0.022 A 
ATOM      7  C5  UNL d   1       1.093  -0.276  -0.447  0.00  0.00     0.026 A 
ATOM      8  C6  UNL d   1      -0.338  -0.186  -0.537  0.00  0.00    -0.082 A 
ATOM      9  C7  UNL d   1      -1.278  -1.047  -1.152  0.00  0.00     0.045 A 
ENDROOT
TORSDOF 0
ENDMDL
