MODEL 1
REMARK minimizedAffinity 0.124669567
REMARK minimizedRMSD -1
REMARK  0 active torsions:
REMARK  status: ('A' for Active; 'I' for Inactive)
ROOT
ATOM      1  C   UNL d   1      -2.995  -0.497  -0.782  0.00  0.00    -0.002 A 
ATOM      2  C1  UNL d   1      -2.980  -0.255   0.585  0.00  0.00     0.010 A 
ATOM      3  C2  UNL d   1      -1.783   0.036   1.242  0.00  0.00     0.041 A 
ATOM      4  C3  UNL d   1      -0.589   0.081   0.495  0.00  0.00    -0.075 A 
ATOM      5  S   UNL d   1       0.995   0.418   1.087  0.00  0.00     0.015 SA
ATOM      6  C4  UNL d   1       1.689   0.250  -0.461  0.00  0.00     0.022 A 
ATOM      7  C5  UNL d   1       0.750  -0.056  -1.417  0.00  0.00     0.026 A 
ATOM      8  C6  UNL d   1      -0.579  -0.158  -0.882  0.00  0.00    -0.082 A 
ATOM      9  C7  UNL d   1      -1.809  -0.451  -1.519  0.00  0.00     0.045 A 
ENDROOT
TORSDOF 0
ENDMDL
