MODEL 1
REMARK minimizedAffinity -2.83325529
REMARK minimizedRMSD -1
REMARK  0 active torsions:
REMARK  status: ('A' for Active; 'I' for Inactive)
ROOT
ATOM      1  C   UNL d   1      -1.848  -0.696  -1.617  0.00  0.00    -0.002 A 
ATOM      2  C1  UNL d   1      -2.377  -0.511  -0.347  0.00  0.00     0.010 A 
ATOM      3  C2  UNL d   1      -1.600   0.044   0.672  0.00  0.00     0.041 A 
ATOM      4  C3  UNL d   1      -0.270   0.414   0.390  0.00  0.00    -0.075 A 
ATOM      5  S   UNL d   1       0.868   1.112   1.481  0.00  0.00     0.015 SA
ATOM      6  C4  UNL d   1       2.083   1.181   0.287  0.00  0.00     0.022 A 
ATOM      7  C5  UNL d   1       1.648   0.688  -0.920  0.00  0.00     0.026 A 
ATOM      8  C6  UNL d   1       0.285   0.238  -0.881  0.00  0.00    -0.082 A 
ATOM      9  C7  UNL d   1      -0.529  -0.328  -1.892  0.00  0.00     0.045 A 
ENDROOT
TORSDOF 0
ENDMDL
