MODEL 1
REMARK minimizedAffinity -2.38969612
REMARK minimizedRMSD -1
REMARK  0 active torsions:
REMARK  status: ('A' for Active; 'I' for Inactive)
ROOT
ATOM      1  C   UNL d   1      -1.867  -0.877  -1.944  0.00  0.00    -0.002 A 
ATOM      2  C1  UNL d   1      -2.565  -0.853  -0.745  0.00  0.00     0.010 A 
ATOM      3  C2  UNL d   1      -1.982  -0.319   0.407  0.00  0.00     0.041 A 
ATOM      4  C3  UNL d   1      -0.673   0.197   0.331  0.00  0.00    -0.075 A 
ATOM      5  S   UNL d   1       0.242   0.900   1.612  0.00  0.00     0.015 SA
ATOM      6  C4  UNL d   1       1.581   1.187   0.597  0.00  0.00     0.022 A 
ATOM      7  C5  UNL d   1       1.353   0.762  -0.690  0.00  0.00     0.026 A 
ATOM      8  C6  UNL d   1       0.050   0.185  -0.865  0.00  0.00    -0.082 A 
ATOM      9  C7  UNL d   1      -0.569  -0.364  -2.014  0.00  0.00     0.045 A 
ENDROOT
TORSDOF 0
ENDMDL
