MODEL 1
REMARK minimizedAffinity -3.19162297
REMARK minimizedRMSD -1
REMARK  0 active torsions:
REMARK  status: ('A' for Active; 'I' for Inactive)
ROOT
ATOM      1  C   UNL d   1      -2.206  -0.881   0.005  0.00  0.00    -0.002 A 
ATOM      2  C1  UNL d   1      -2.492   0.224   0.794  0.00  0.00     0.010 A 
ATOM      3  C2  UNL d   1      -1.473   1.082   1.212  0.00  0.00     0.041 A 
ATOM      4  C3  UNL d   1      -0.148   0.809   0.818  0.00  0.00    -0.075 A 
ATOM      5  S   UNL d   1       1.261   1.721   1.209  0.00  0.00     0.015 SA
ATOM      6  C4  UNL d   1       2.277   0.666   0.338  0.00  0.00     0.022 A 
ATOM      7  C5  UNL d   1       1.575  -0.363  -0.244  0.00  0.00     0.026 A 
ATOM      8  C6  UNL d   1       0.165  -0.297   0.023  0.00  0.00    -0.082 A 
ATOM      9  C7  UNL d   1      -0.890  -1.149  -0.383  0.00  0.00     0.045 A 
ENDROOT
TORSDOF 0
ENDMDL
