MODEL 1
REMARK minimizedAffinity -1.620996
REMARK minimizedRMSD -1
REMARK  0 active torsions:
REMARK  status: ('A' for Active; 'I' for Inactive)
ROOT
ATOM      1  C   UNL d   1      -2.282  -0.885  -0.907  0.00  0.00    -0.002 A 
ATOM      2  C1  UNL d   1      -2.410  -0.936   0.474  0.00  0.00     0.010 A 
ATOM      3  C2  UNL d   1      -1.380  -0.480   1.300  0.00  0.00     0.041 A 
ATOM      4  C3  UNL d   1      -0.210   0.034   0.708  0.00  0.00    -0.075 A 
ATOM      5  S   UNL d   1       1.181   0.650   1.520  0.00  0.00     0.015 SA
ATOM      6  C4  UNL d   1       1.977   0.996   0.053  0.00  0.00     0.022 A 
ATOM      7  C5  UNL d   1       1.215   0.656  -1.039  0.00  0.00     0.026 A 
ATOM      8  C6  UNL d   1      -0.058   0.096  -0.680  0.00  0.00    -0.082 A 
ATOM      9  C7  UNL d   1      -1.120  -0.374  -1.490  0.00  0.00     0.045 A 
ENDROOT
TORSDOF 0
ENDMDL
