MODEL 1
REMARK minimizedAffinity -4.75332022
REMARK minimizedRMSD -1
REMARK  0 active torsions:
REMARK  status: ('A' for Active; 'I' for Inactive)
ROOT
ATOM      1  C   UNL d   1       1.890   0.463  -2.714  0.00  0.00     0.023 A 
ATOM      2  C1  UNL d   1       1.770   1.496  -1.784  0.00  0.00     0.003 A 
ATOM      3  C2  UNL d   1       0.841   1.398  -0.746  0.00  0.00     0.048 A 
ATOM      4  C3  UNL d   1       0.036   0.264  -0.643  0.00  0.00     0.023 A 
ATOM      5  C4  UNL d   1       0.153  -0.772  -1.570  0.00  0.00     0.048 A 
ATOM      6  C5  UNL d   1       1.082  -0.670  -2.607  0.00  0.00     0.003 A 
ATOM      7  I   UNL d   1      -1.347   0.117   0.901  0.00  0.00    -0.146 I 
ENDROOT
TORSDOF 0
ENDMDL
