MODEL 1
REMARK minimizedAffinity -2.92904782
REMARK minimizedRMSD -1
REMARK  0 active torsions:
REMARK  status: ('A' for Active; 'I' for Inactive)
ROOT
ATOM      1  C   UNL d   1       1.621  -0.159  -2.662  0.00  0.00     0.023 A 
ATOM      2  C1  UNL d   1       0.907  -1.276  -2.228  0.00  0.00     0.003 A 
ATOM      3  C2  UNL d   1       0.269  -1.260  -0.986  0.00  0.00     0.048 A 
ATOM      4  C3  UNL d   1       0.348  -0.123  -0.183  0.00  0.00     0.023 A 
ATOM      5  C4  UNL d   1       1.060   0.998  -0.613  0.00  0.00     0.048 A 
ATOM      6  C5  UNL d   1       1.697   0.977  -1.855  0.00  0.00     0.003 A 
ATOM      7  I   UNL d   1      -0.601  -0.097   1.666  0.00  0.00    -0.146 I 
ENDROOT
TORSDOF 0
ENDMDL
