MODEL 1
REMARK minimizedAffinity -1.45367849
REMARK minimizedRMSD -1
REMARK  0 active torsions:
REMARK  status: ('A' for Active; 'I' for Inactive)
ROOT
ATOM      1  C   UNL d   1       0.287  -2.163  -1.689  0.00  0.00     0.023 A 
ATOM      2  C1  UNL d   1      -0.143  -2.173  -0.362  0.00  0.00     0.003 A 
ATOM      3  C2  UNL d   1      -0.021  -1.024   0.422  0.00  0.00     0.048 A 
ATOM      4  C3  UNL d   1       0.532   0.132  -0.128  0.00  0.00     0.023 A 
ATOM      5  C4  UNL d   1       0.962   0.148  -1.455  0.00  0.00     0.048 A 
ATOM      6  C5  UNL d   1       0.839  -1.004  -2.235  0.00  0.00     0.003 A 
ATOM      7  I   UNL d   1       0.714   1.844   1.037  0.00  0.00    -0.146 I 
ENDROOT
TORSDOF 0
ENDMDL
