MODEL 1
REMARK minimizedAffinity -4.28793287
REMARK minimizedRMSD -1
REMARK  0 active torsions:
REMARK  status: ('A' for Active; 'I' for Inactive)
ROOT
ATOM      1  C   UNL d   1       1.610   0.756  -1.646  0.00  0.00     0.023 A 
ATOM      2  C1  UNL d   1       1.629   0.775  -0.252  0.00  0.00     0.003 A 
ATOM      3  C2  UNL d   1       0.434   0.678   0.465  0.00  0.00     0.048 A 
ATOM      4  C3  UNL d   1      -0.775   0.562  -0.219  0.00  0.00     0.023 A 
ATOM      5  C4  UNL d   1      -0.798   0.542  -1.615  0.00  0.00     0.048 A 
ATOM      6  C5  UNL d   1       0.398   0.640  -2.327  0.00  0.00     0.003 A 
ATOM      7  I   UNL d   1      -2.554   0.417   0.845  0.00  0.00    -0.146 I 
ENDROOT
TORSDOF 0
ENDMDL
