MODEL 1
REMARK minimizedAffinity -4.14453077
REMARK minimizedRMSD -1
REMARK  0 active torsions:
REMARK  status: ('A' for Active; 'I' for Inactive)
ROOT
ATOM      1  C   UNL d   1       1.447   0.290  -2.087  0.00  0.00     0.023 A 
ATOM      2  C1  UNL d   1       0.283  -0.473  -2.184  0.00  0.00     0.003 A 
ATOM      3  C2  UNL d   1      -0.661  -0.442  -1.155  0.00  0.00     0.048 A 
ATOM      4  C3  UNL d   1      -0.435   0.355  -0.033  0.00  0.00     0.023 A 
ATOM      5  C4  UNL d   1       0.727   1.121   0.068  0.00  0.00     0.048 A 
ATOM      6  C5  UNL d   1       1.669   1.086  -0.963  0.00  0.00     0.003 A 
ATOM      7  I   UNL d   1      -1.839   0.403   1.498  0.00  0.00    -0.146 I 
ENDROOT
TORSDOF 0
ENDMDL
