MODEL 1
REMARK minimizedAffinity -4.27092981
REMARK minimizedRMSD -1
REMARK  0 active torsions:
REMARK  status: ('A' for Active; 'I' for Inactive)
ROOT
ATOM      1  C   UNL d   1       1.326   0.642  -2.218  0.00  0.00     0.023 A 
ATOM      2  C1  UNL d   1       0.327  -0.321  -2.358  0.00  0.00     0.003 A 
ATOM      3  C2  UNL d   1      -0.594  -0.529  -1.329  0.00  0.00     0.048 A 
ATOM      4  C3  UNL d   1      -0.511   0.232  -0.163  0.00  0.00     0.023 A 
ATOM      5  C4  UNL d   1       0.486   1.197  -0.019  0.00  0.00     0.048 A 
ATOM      6  C5  UNL d   1       1.405   1.401  -1.050  0.00  0.00     0.003 A 
ATOM      7  I   UNL d   1      -1.881  -0.075   1.370  0.00  0.00    -0.146 I 
ENDROOT
TORSDOF 0
ENDMDL
