MODEL 1
REMARK minimizedAffinity -2.05707479
REMARK minimizedRMSD -1
REMARK  0 active torsions:
REMARK  status: ('A' for Active; 'I' for Inactive)
ROOT
ATOM      1  C   UNL d   1      -0.903  -0.451   1.602  0.00  0.00     0.023 A 
ATOM      2  C1  UNL d   1      -0.451   0.860   1.457  0.00  0.00     0.003 A 
ATOM      3  C2  UNL d   1       0.285   1.226   0.328  0.00  0.00     0.048 A 
ATOM      4  C3  UNL d   1       0.564   0.276  -0.653  0.00  0.00     0.023 A 
ATOM      5  C4  UNL d   1       0.112  -1.038  -0.513  0.00  0.00     0.048 A 
ATOM      6  C5  UNL d   1      -0.622  -1.399   0.618  0.00  0.00     0.003 A 
ATOM      7  I   UNL d   1       1.658   0.818  -2.335  0.00  0.00    -0.146 I 
ENDROOT
TORSDOF 0
ENDMDL
