MODEL 1
REMARK minimizedAffinity -1.08983374
REMARK minimizedRMSD -1
REMARK  0 active torsions:
REMARK  status: ('A' for Active; 'I' for Inactive)
ROOT
ATOM      1  C   UNL d   1      -0.088   1.309   1.325  0.00  0.00     0.023 A 
ATOM      2  C1  UNL d   1       0.726   1.711   0.266  0.00  0.00     0.003 A 
ATOM      3  C2  UNL d   1       0.812   0.928  -0.887  0.00  0.00     0.048 A 
ATOM      4  C3  UNL d   1       0.080  -0.256  -0.974  0.00  0.00     0.023 A 
ATOM      5  C4  UNL d   1      -0.736  -0.662   0.084  0.00  0.00     0.048 A 
ATOM      6  C5  UNL d   1      -0.818   0.124   1.234  0.00  0.00     0.003 A 
ATOM      7  I   UNL d   1       0.206  -1.424  -2.688  0.00  0.00    -0.146 I 
ENDROOT
TORSDOF 0
ENDMDL
