MODEL 1
REMARK minimizedAffinity -3.46905637
REMARK minimizedRMSD -1
REMARK  0 active torsions:
REMARK  status: ('A' for Active; 'I' for Inactive)
ROOT
ATOM      1  C   UNL d   1       1.932   0.234  -2.739  0.00  0.00     0.023 A 
ATOM      2  C1  UNL d   1       1.120  -0.883  -2.537  0.00  0.00     0.003 A 
ATOM      3  C2  UNL d   1       0.324  -0.971  -1.394  0.00  0.00     0.048 A 
ATOM      4  C3  UNL d   1       0.343   0.060  -0.456  0.00  0.00     0.023 A 
ATOM      5  C4  UNL d   1       1.153   1.180  -0.654  0.00  0.00     0.048 A 
ATOM      6  C5  UNL d   1       1.949   1.264  -1.798  0.00  0.00     0.003 A 
ATOM      7  I   UNL d   1      -0.842  -0.069   1.247  0.00  0.00    -0.146 I 
ENDROOT
TORSDOF 0
ENDMDL
