MODEL 1
REMARK minimizedAffinity 0.00433572568
REMARK minimizedRMSD -1
REMARK  0 active torsions:
REMARK  status: ('A' for Active; 'I' for Inactive)
ROOT
ATOM      1  C   UNL d   1      -3.724   1.044   2.021  0.00  0.00     0.023 A 
ATOM      2  C1  UNL d   1      -2.377   1.252   2.320  0.00  0.00     0.003 A 
ATOM      3  C2  UNL d   1      -1.399   0.438   1.745  0.00  0.00     0.048 A 
ATOM      4  C3  UNL d   1      -1.774  -0.582   0.872  0.00  0.00     0.023 A 
ATOM      5  C4  UNL d   1      -3.120  -0.794   0.569  0.00  0.00     0.048 A 
ATOM      6  C5  UNL d   1      -4.095   0.022   1.147  0.00  0.00     0.003 A 
ATOM      7  I   UNL d   1      -0.320  -1.795   0.015  0.00  0.00    -0.146 I 
ENDROOT
TORSDOF 0
ENDMDL
