MODEL 1
REMARK minimizedAffinity -3.36158752
REMARK minimizedRMSD -1
REMARK  0 active torsions:
REMARK  status: ('A' for Active; 'I' for Inactive)
ROOT
ATOM      1  C   UNL d   1       1.697   0.254  -2.571  0.00  0.00     0.023 A 
ATOM      2  C1  UNL d   1       1.790   1.129  -1.489  0.00  0.00     0.003 A 
ATOM      3  C2  UNL d   1       0.902   1.014  -0.418  0.00  0.00     0.048 A 
ATOM      4  C3  UNL d   1      -0.077   0.021  -0.435  0.00  0.00     0.023 A 
ATOM      5  C4  UNL d   1      -0.173  -0.858  -1.515  0.00  0.00     0.048 A 
ATOM      6  C5  UNL d   1       0.717  -0.738  -2.584  0.00  0.00     0.003 A 
ATOM      7  I   UNL d   1      -1.400  -0.152   1.159  0.00  0.00    -0.146 I 
ENDROOT
TORSDOF 0
ENDMDL
