MODEL 1
REMARK minimizedAffinity -1.19470274
REMARK minimizedRMSD -1
REMARK  0 active torsions:
REMARK  status: ('A' for Active; 'I' for Inactive)
ROOT
ATOM      1  C   UNL d   1       0.509  -1.297  -0.473  0.00  0.00     0.023 A 
ATOM      2  C1  UNL d   1       0.050  -0.005  -0.726  0.00  0.00     0.003 A 
ATOM      3  C2  UNL d   1      -1.057   0.492  -0.035  0.00  0.00     0.048 A 
ATOM      4  C3  UNL d   1      -1.700  -0.309   0.909  0.00  0.00     0.023 A 
ATOM      5  C4  UNL d   1      -1.243  -1.603   1.166  0.00  0.00     0.048 A 
ATOM      6  C5  UNL d   1      -0.136  -2.095   0.472  0.00  0.00     0.003 A 
ATOM      7  I   UNL d   1      -3.347   0.427   1.939  0.00  0.00    -0.146 I 
ENDROOT
TORSDOF 0
ENDMDL
