MODEL 1
REMARK minimizedAffinity -1.73382115
REMARK minimizedRMSD -1
REMARK  0 active torsions:
REMARK  status: ('A' for Active; 'I' for Inactive)
ROOT
ATOM      1  C   UNL d   1       0.775  -0.740  -1.110  0.00  0.00     0.023 A 
ATOM      2  C1  UNL d   1       0.295   0.563  -1.246  0.00  0.00     0.003 A 
ATOM      3  C2  UNL d   1      -0.549   1.103  -0.274  0.00  0.00     0.048 A 
ATOM      4  C3  UNL d   1      -0.909   0.335   0.833  0.00  0.00     0.023 A 
ATOM      5  C4  UNL d   1      -0.430  -0.969   0.975  0.00  0.00     0.048 A 
ATOM      6  C5  UNL d   1       0.413  -1.505  -0.001  0.00  0.00     0.003 A 
ATOM      7  I   UNL d   1      -2.165   1.136   2.282  0.00  0.00    -0.146 I 
ENDROOT
TORSDOF 0
ENDMDL
