MODEL 1
REMARK minimizedAffinity -4.33630705
REMARK minimizedRMSD -1
REMARK  0 active torsions:
REMARK  status: ('A' for Active; 'I' for Inactive)
ROOT
ATOM      1  C   UNL d   1       1.956  -1.378  -2.806  0.00  0.00     0.023 A 
ATOM      2  C1  UNL d   1       1.479  -2.317  -1.891  0.00  0.00     0.003 A 
ATOM      3  C2  UNL d   1       0.692  -1.906  -0.813  0.00  0.00     0.048 A 
ATOM      4  C3  UNL d   1       0.386  -0.555  -0.656  0.00  0.00     0.023 A 
ATOM      5  C4  UNL d   1       0.860   0.388  -1.569  0.00  0.00     0.048 A 
ATOM      6  C5  UNL d   1       1.647  -0.028  -2.645  0.00  0.00     0.003 A 
ATOM      7  I   UNL d   1      -0.785   0.059   0.948  0.00  0.00    -0.146 I 
ENDROOT
TORSDOF 0
ENDMDL
