MODEL 1
REMARK minimizedAffinity -4.53028011
REMARK minimizedRMSD -1
REMARK  0 active torsions:
REMARK  status: ('A' for Active; 'I' for Inactive)
ROOT
ATOM      1  C   UNL d   1       1.305   0.536  -2.486  0.00  0.00     0.023 A 
ATOM      2  C1  UNL d   1       0.480  -0.578  -2.336  0.00  0.00     0.003 A 
ATOM      3  C2  UNL d   1      -0.201  -0.789  -1.135  0.00  0.00     0.048 A 
ATOM      4  C3  UNL d   1      -0.052   0.120  -0.088  0.00  0.00     0.023 A 
ATOM      5  C4  UNL d   1       0.772   1.237  -0.234  0.00  0.00     0.048 A 
ATOM      6  C5  UNL d   1       1.452   1.443  -1.436  0.00  0.00     0.003 A 
ATOM      7  I   UNL d   1      -1.064  -0.190   1.700  0.00  0.00    -0.146 I 
ENDROOT
TORSDOF 0
ENDMDL
