MODEL 1
REMARK minimizedAffinity 6.07041454
REMARK minimizedRMSD -1
REMARK  0 active torsions:
REMARK  status: ('A' for Active; 'I' for Inactive)
ROOT
ATOM      1  C   UNL d   1       2.951   2.242   3.829  0.00  0.00     0.077 C 
ATOM      2  C1  UNL d   1       2.472   1.766   2.489  0.00  0.00    -0.074 A 
ATOM      3  C2  UNL d   1       2.848   0.514   1.994  0.00  0.00    -0.005 A 
ATOM      4  C3  UNL d   1       2.387   0.081   0.751  0.00  0.00     0.006 A 
ATOM      5  C4  UNL d   1       1.546   0.895  -0.008  0.00  0.00    -0.005 A 
ATOM      6  C5  UNL d   1       1.158   2.151   0.471  0.00  0.00    -0.074 A 
ATOM      7  C6  UNL d   1       0.246   3.034  -0.328  0.00  0.00     0.077 C 
ATOM      8  C7  UNL d   1       1.620   2.575   1.724  0.00  0.00    -0.001 A 
ENDROOT
TORSDOF 0
ENDMDL
