MODEL 1
REMARK minimizedAffinity 5.99139404
REMARK minimizedRMSD -1
REMARK  0 active torsions:
REMARK  status: ('A' for Active; 'I' for Inactive)
ROOT
ATOM      1  C   UNL d   1       6.000  -3.263   3.554  0.00  0.00     0.077 C 
ATOM      2  C1  UNL d   1       4.548  -3.086   3.885  0.00  0.00    -0.074 A 
ATOM      3  C2  UNL d   1       4.022  -3.565   5.089  0.00  0.00    -0.005 A 
ATOM      4  C3  UNL d   1       2.672  -3.384   5.388  0.00  0.00     0.006 A 
ATOM      5  C4  UNL d   1       1.835  -2.724   4.487  0.00  0.00    -0.005 A 
ATOM      6  C5  UNL d   1       2.343  -2.237   3.279  0.00  0.00    -0.074 A 
ATOM      7  C6  UNL d   1       1.460  -1.516   2.304  0.00  0.00     0.077 C 
ATOM      8  C7  UNL d   1       3.703  -2.416   2.989  0.00  0.00    -0.001 A 
ENDROOT
TORSDOF 0
ENDMDL
