MODEL 1
REMARK minimizedAffinity 3.74740052
REMARK minimizedRMSD -1
REMARK  0 active torsions:
REMARK  status: ('A' for Active; 'I' for Inactive)
ROOT
ATOM      1  C   UNL d   1      -0.525  -0.353   0.145  0.00  0.00     0.077 C 
ATOM      2  C1  UNL d   1       0.638   0.299   0.833  0.00  0.00    -0.074 A 
ATOM      3  C2  UNL d   1       1.225   1.456   0.312  0.00  0.00    -0.005 A 
ATOM      4  C3  UNL d   1       2.299   2.056   0.967  0.00  0.00     0.006 A 
ATOM      5  C4  UNL d   1       2.798   1.506   2.149  0.00  0.00    -0.005 A 
ATOM      6  C5  UNL d   1       2.223   0.350   2.686  0.00  0.00    -0.074 A 
ATOM      7  C6  UNL d   1       2.740  -0.249   3.960  0.00  0.00     0.077 C 
ATOM      8  C7  UNL d   1       1.139  -0.244   2.025  0.00  0.00    -0.001 A 
ENDROOT
TORSDOF 0
ENDMDL
