MODEL 1
REMARK minimizedAffinity 3.57793331
REMARK minimizedRMSD -1
REMARK  0 active torsions:
REMARK  status: ('A' for Active; 'I' for Inactive)
ROOT
ATOM      1  C   UNL d   1      -1.267  -1.367   0.281  0.00  0.00     0.077 C 
ATOM      2  C1  UNL d   1      -0.293  -0.235   0.415  0.00  0.00    -0.074 A 
ATOM      3  C2  UNL d   1      -0.494   0.971  -0.265  0.00  0.00    -0.005 A 
ATOM      4  C3  UNL d   1       0.416   2.019  -0.123  0.00  0.00     0.006 A 
ATOM      5  C4  UNL d   1       1.534   1.872   0.699  0.00  0.00    -0.005 A 
ATOM      6  C5  UNL d   1       1.752   0.673   1.387  0.00  0.00    -0.074 A 
ATOM      7  C6  UNL d   1       2.943   0.502   2.281  0.00  0.00     0.077 C 
ATOM      8  C7  UNL d   1       0.829  -0.372   1.244  0.00  0.00    -0.001 A 
ENDROOT
TORSDOF 0
ENDMDL
