MODEL 1
REMARK minimizedAffinity -4.69891548
REMARK minimizedRMSD -1
REMARK  0 active torsions:
REMARK  status: ('A' for Active; 'I' for Inactive)
ROOT
ATOM      1  C   UNL d   1       3.512  -1.708   4.351  0.00  0.00     0.077 C 
ATOM      2  C1  UNL d   1       2.909  -1.033   3.156  0.00  0.00    -0.074 A 
ATOM      3  C2  UNL d   1       3.487   0.119   2.613  0.00  0.00    -0.005 A 
ATOM      4  C3  UNL d   1       2.920   0.731   1.495  0.00  0.00     0.006 A 
ATOM      5  C4  UNL d   1       1.771   0.199   0.910  0.00  0.00    -0.005 A 
ATOM      6  C5  UNL d   1       1.179  -0.953   1.438  0.00  0.00    -0.074 A 
ATOM      7  C6  UNL d   1      -0.051  -1.544   0.815  0.00  0.00     0.077 C 
ATOM      8  C7  UNL d   1       1.758  -1.566   2.557  0.00  0.00    -0.001 A 
ENDROOT
TORSDOF 0
ENDMDL
