MODEL 1
REMARK minimizedAffinity 1.54657173
REMARK minimizedRMSD -1
REMARK  0 active torsions:
REMARK  status: ('A' for Active; 'I' for Inactive)
ROOT
ATOM      1  C   UNL d   1       2.671  -0.921   3.947  0.00  0.00     0.077 C 
ATOM      2  C1  UNL d   1       2.034  -0.386   2.699  0.00  0.00    -0.074 A 
ATOM      3  C2  UNL d   1       2.492   0.796   2.107  0.00  0.00    -0.005 A 
ATOM      4  C3  UNL d   1       1.896   1.275   0.941  0.00  0.00     0.006 A 
ATOM      5  C4  UNL d   1       0.838   0.579   0.355  0.00  0.00    -0.005 A 
ATOM      6  C5  UNL d   1       0.368  -0.606   0.931  0.00  0.00    -0.074 A 
ATOM      7  C6  UNL d   1      -0.761  -1.372   0.309  0.00  0.00     0.077 C 
ATOM      8  C7  UNL d   1       0.977  -1.085   2.099  0.00  0.00    -0.001 A 
ENDROOT
TORSDOF 0
ENDMDL
