MODEL 1
REMARK minimizedAffinity 3.08250928
REMARK minimizedRMSD -1
REMARK  0 active torsions:
REMARK  status: ('A' for Active; 'I' for Inactive)
ROOT
ATOM      1  C   UNL d   1       4.932   1.644  -5.870  0.00  0.00     0.077 C 
ATOM      2  C1  UNL d   1       4.836   0.148  -5.905  0.00  0.00    -0.074 A 
ATOM      3  C2  UNL d   1       5.987  -0.646  -5.923  0.00  0.00    -0.005 A 
ATOM      4  C3  UNL d   1       5.882  -2.037  -5.946  0.00  0.00     0.006 A 
ATOM      5  C4  UNL d   1       4.627  -2.647  -5.950  0.00  0.00    -0.005 A 
ATOM      6  C5  UNL d   1       3.465  -1.870  -5.931  0.00  0.00    -0.074 A 
ATOM      7  C6  UNL d   1       2.108  -2.509  -5.926  0.00  0.00     0.077 C 
ATOM      8  C7  UNL d   1       3.579  -0.473  -5.901  0.00  0.00    -0.001 A 
ENDROOT
TORSDOF 0
ENDMDL
