MODEL 1
REMARK minimizedAffinity -2.31680202
REMARK minimizedRMSD -1
REMARK  2 active torsions:
REMARK  status: ('A' for Active; 'I' for Inactive)
REMARK    1  A    between atoms: C1_2  and  C2_3 
REMARK    2  A    between atoms: C2_3  and  C3_4 
ROOT
ATOM      1  C3  UNL d   1      -0.372   0.510   2.324  0.00  0.00    -0.075 A 
ATOM      2  C4  UNL d   1       0.442  -0.381   1.610  0.00  0.00     0.002 A 
ATOM      3  C5  UNL d   1       1.624   0.061   1.014  0.00  0.00     0.002 A 
ATOM      4  C6  UNL d   1       2.000   1.398   1.114  0.00  0.00    -0.004 A 
ATOM      5  C7  UNL d   1       1.191   2.296   1.807  0.00  0.00     0.002 A 
ATOM      6  C8  UNL d   1       0.010   1.856   2.408  0.00  0.00     0.002 A 
ENDROOT
BRANCH   1   7
ATOM      7  C2  UNL d   1      -1.637   0.033   2.997  0.00  0.00     0.056 C 
BRANCH   7   8
ATOM      8  C1  UNL d   1      -1.396  -0.910   4.180  0.00  0.00     0.007 C 
ATOM      9  C   UNL d   1      -2.439  -2.014   4.291  0.00  0.00     0.009 C 
ENDBRANCH   7   8
ENDBRANCH   1   7
TORSDOF 2
ENDMDL
