MODEL 1
REMARK minimizedAffinity -0.573147714
REMARK minimizedRMSD -1
REMARK  2 active torsions:
REMARK  status: ('A' for Active; 'I' for Inactive)
REMARK    1  A    between atoms: C1_2  and  C2_3 
REMARK    2  A    between atoms: C2_3  and  C3_4 
ROOT
ATOM      1  C3  UNL d   1       0.199   1.241   1.042  0.00  0.00    -0.075 A 
ATOM      2  C4  UNL d   1      -0.189   1.477   2.369  0.00  0.00     0.002 A 
ATOM      3  C5  UNL d   1      -1.258   0.777   2.929  0.00  0.00     0.002 A 
ATOM      4  C6  UNL d   1      -1.958  -0.157   2.169  0.00  0.00    -0.004 A 
ATOM      5  C7  UNL d   1      -1.592  -0.387   0.845  0.00  0.00     0.002 A 
ATOM      6  C8  UNL d   1      -0.520   0.308   0.283  0.00  0.00     0.002 A 
ENDROOT
BRANCH   1   7
ATOM      7  C2  UNL d   1       1.374   1.974   0.439  0.00  0.00     0.056 C 
BRANCH   7   8
ATOM      8  C1  UNL d   1       2.705   1.226   0.563  0.00  0.00     0.007 C 
ATOM      9  C   UNL d   1       3.353   1.376   1.933  0.00  0.00     0.009 C 
ENDBRANCH   7   8
ENDBRANCH   1   7
TORSDOF 2
ENDMDL
