MODEL 1
REMARK minimizedAffinity -3.84498167
REMARK minimizedRMSD -1
REMARK  2 active torsions:
REMARK  status: ('A' for Active; 'I' for Inactive)
REMARK    1  A    between atoms: C1_2  and  C2_3 
REMARK    2  A    between atoms: C2_3  and  C3_4 
ROOT
ATOM      1  C3  UNL d   1       0.470   0.805   2.206  0.00  0.00    -0.075 A 
ATOM      2  C4  UNL d   1      -0.392   0.740   1.101  0.00  0.00     0.002 A 
ATOM      3  C5  UNL d   1      -0.013   0.056  -0.054  0.00  0.00     0.002 A 
ATOM      4  C6  UNL d   1       1.233  -0.562  -0.123  0.00  0.00    -0.004 A 
ATOM      5  C7  UNL d   1       2.104  -0.490   0.962  0.00  0.00     0.002 A 
ATOM      6  C8  UNL d   1       1.726   0.190   2.120  0.00  0.00     0.002 A 
ENDROOT
BRANCH   1   7
ATOM      7  C2  UNL d   1       0.054   1.519   3.470  0.00  0.00     0.056 C 
BRANCH   7   8
ATOM      8  C1  UNL d   1      -1.168   0.903   4.160  0.00  0.00     0.007 C 
ATOM      9  C   UNL d   1      -1.152  -0.619   4.164  0.00  0.00     0.009 C 
ENDBRANCH   7   8
ENDBRANCH   1   7
TORSDOF 2
ENDMDL
