MODEL 1
REMARK minimizedAffinity -2.1999259
REMARK minimizedRMSD -1
REMARK  2 active torsions:
REMARK  status: ('A' for Active; 'I' for Inactive)
REMARK    1  A    between atoms: C1_2  and  C2_3 
REMARK    2  A    between atoms: C2_3  and  C3_4 
ROOT
ATOM      1  C3  UNL d   1       0.306   1.095   1.023  0.00  0.00    -0.075 A 
ATOM      2  C4  UNL d   1      -0.003   1.278   2.379  0.00  0.00     0.002 A 
ATOM      3  C5  UNL d   1      -1.170   0.736   2.918  0.00  0.00     0.002 A 
ATOM      4  C6  UNL d   1      -2.045   0.014   2.110  0.00  0.00    -0.004 A 
ATOM      5  C7  UNL d   1      -1.756  -0.159   0.758  0.00  0.00     0.002 A 
ATOM      6  C8  UNL d   1      -0.588   0.378   0.216  0.00  0.00     0.002 A 
ENDROOT
BRANCH   1   7
ATOM      7  C2  UNL d   1       1.582   1.654   0.439  0.00  0.00     0.056 C 
BRANCH   7   8
ATOM      8  C1  UNL d   1       2.854   0.969   0.950  0.00  0.00     0.007 C 
ATOM      9  C   UNL d   1       2.618  -0.460   1.422  0.00  0.00     0.009 C 
ENDBRANCH   7   8
ENDBRANCH   1   7
TORSDOF 2
ENDMDL
