MODEL 1
REMARK minimizedAffinity 0.279262096
REMARK minimizedRMSD -1
REMARK  2 active torsions:
REMARK  status: ('A' for Active; 'I' for Inactive)
REMARK    1  A    between atoms: C1_2  and  C2_3 
REMARK    2  A    between atoms: C2_3  and  C3_4 
ROOT
ATOM      1  C3  UNL d   1      -0.851   0.022   0.884  0.00  0.00    -0.075 A 
ATOM      2  C4  UNL d   1      -1.302   0.020   2.212  0.00  0.00     0.002 A 
ATOM      3  C5  UNL d   1      -0.767   0.912   3.143  0.00  0.00     0.002 A 
ATOM      4  C6  UNL d   1       0.230   1.806   2.762  0.00  0.00    -0.004 A 
ATOM      5  C7  UNL d   1       0.698   1.805   1.449  0.00  0.00     0.002 A 
ATOM      6  C8  UNL d   1       0.161   0.918   0.515  0.00  0.00     0.002 A 
ENDROOT
BRANCH   1   7
ATOM      7  C2  UNL d   1      -1.446  -0.920  -0.135  0.00  0.00     0.056 C 
BRANCH   7   8
ATOM      8  C1  UNL d   1      -2.968  -1.070  -0.032  0.00  0.00     0.007 C 
ATOM      9  C   UNL d   1      -3.703   0.264  -0.016  0.00  0.00     0.009 C 
ENDBRANCH   7   8
ENDBRANCH   1   7
TORSDOF 2
ENDMDL
