MODEL 1
REMARK minimizedAffinity 0.186590806
REMARK minimizedRMSD -1
REMARK  2 active torsions:
REMARK  status: ('A' for Active; 'I' for Inactive)
REMARK    1  A    between atoms: C1_2  and  C2_3 
REMARK    2  A    between atoms: C2_3  and  C3_4 
ROOT
ATOM      1  C3  UNL d   1      -0.067   0.110   1.641  0.00  0.00    -0.075 A 
ATOM      2  C4  UNL d   1      -0.861   0.488   2.734  0.00  0.00     0.002 A 
ATOM      3  C5  UNL d   1      -0.539   1.618   3.486  0.00  0.00     0.002 A 
ATOM      4  C6  UNL d   1       0.584   2.377   3.163  0.00  0.00    -0.004 A 
ATOM      5  C7  UNL d   1       1.389   2.002   2.090  0.00  0.00     0.002 A 
ATOM      6  C8  UNL d   1       1.067   0.874   1.332  0.00  0.00     0.002 A 
ENDROOT
BRANCH   1   7
ATOM      7  C2  UNL d   1      -0.426  -1.095   0.805  0.00  0.00     0.056 C 
BRANCH   7   8
ATOM      8  C1  UNL d   1      -1.347  -0.780  -0.379  0.00  0.00     0.007 C 
ATOM      9  C   UNL d   1      -2.825  -0.820  -0.018  0.00  0.00     0.009 C 
ENDBRANCH   7   8
ENDBRANCH   1   7
TORSDOF 2
ENDMDL
