MODEL 1
REMARK minimizedAffinity 5.72694111
REMARK minimizedRMSD -1
REMARK  2 active torsions:
REMARK  status: ('A' for Active; 'I' for Inactive)
REMARK    1  A    between atoms: C2'_3  and  C1'_4 
REMARK    2  A    between atoms: C1'_4  and  C1_5 
ROOT
ATOM      1  C1  I4B d   1      -5.711   3.170   3.651  0.00  0.00    -0.075 A 
ATOM      2  C2  I4B d   1      -5.149   3.698   2.515  0.00  0.00     0.003 A 
ATOM      3  C3  I4B d   1      -4.847   2.861   1.414  0.00  0.00     0.002 A 
ATOM      4  C4  I4B d   1      -5.076   1.503   1.510  0.00  0.00    -0.004 A 
ATOM      5  C5  I4B d   1      -5.667   0.973   2.653  0.00  0.00     0.002 A 
ATOM      6  C6  I4B d   1      -5.998   1.814   3.726  0.00  0.00     0.003 A 
ENDROOT
BRANCH   1   7
ATOM      7  C1' I4B d   1      -5.987   4.078   4.807  0.00  0.00     0.060 C 
BRANCH   7   8
ATOM      8  C2' I4B d   1      -5.205   3.565   6.000  0.00  0.00    -0.013 C 
ATOM      9  C4' I4B d   1      -5.097   2.063   5.975  0.00  0.00     0.013 C 
ATOM     10  C3' I4B d   1      -3.850   4.207   5.976  0.00  0.00     0.013 C 
ENDBRANCH   7   8
ENDBRANCH   1   7
TORSDOF 2
ENDMDL
