MODEL 1
REMARK minimizedAffinity 12.6212254
REMARK minimizedRMSD -1
REMARK  2 active torsions:
REMARK  status: ('A' for Active; 'I' for Inactive)
REMARK    1  A    between atoms: C2'_3  and  C1'_4 
REMARK    2  A    between atoms: C1'_4  and  C1_5 
ROOT
ATOM      1  C1  I4B d   1       3.068   0.092  -4.921  0.00  0.00    -0.075 A 
ATOM      2  C2  I4B d   1       2.745  -1.239  -5.021  0.00  0.00     0.003 A 
ATOM      3  C3  I4B d   1       3.184  -2.155  -4.035  0.00  0.00     0.002 A 
ATOM      4  C4  I4B d   1       3.980  -1.710  -3.000  0.00  0.00    -0.004 A 
ATOM      5  C5  I4B d   1       4.288  -0.357  -2.888  0.00  0.00     0.002 A 
ATOM      6  C6  I4B d   1       3.819   0.552  -3.847  0.00  0.00     0.003 A 
ENDROOT
BRANCH   1   7
ATOM      7  C1' I4B d   1       2.615   1.026  -5.998  0.00  0.00     0.060 C 
BRANCH   7   8
ATOM      8  C2' I4B d   1       2.165   2.314  -5.339  0.00  0.00    -0.013 C 
ATOM      9  C4' I4B d   1       3.019   3.476  -5.773  0.00  0.00     0.013 C 
ATOM     10  C3' I4B d   1       0.726   2.538  -5.695  0.00  0.00     0.013 C 
ENDBRANCH   7   8
ENDBRANCH   1   7
TORSDOF 2
ENDMDL
