MODEL 1
REMARK minimizedAffinity 5.57610512
REMARK minimizedRMSD -1
REMARK  2 active torsions:
REMARK  status: ('A' for Active; 'I' for Inactive)
REMARK    1  A    between atoms: C2'_3  and  C1'_4 
REMARK    2  A    between atoms: C1'_4  and  C1_5 
ROOT
ATOM      1  C1  I4B d   1      -2.315   4.617   5.263  0.00  0.00    -0.075 A 
ATOM      2  C2  I4B d   1      -1.268   4.082   5.972  0.00  0.00     0.003 A 
ATOM      3  C3  I4B d   1      -0.092   3.667   5.301  0.00  0.00     0.002 A 
ATOM      4  C4  I4B d   1      -0.026   3.758   3.925  0.00  0.00    -0.004 A 
ATOM      5  C5  I4B d   1      -1.080   4.322   3.211  0.00  0.00     0.002 A 
ATOM      6  C6  I4B d   1      -2.227   4.766   3.885  0.00  0.00     0.003 A 
ENDROOT
BRANCH   1   7
ATOM      7  C1' I4B d   1      -3.555   5.015   6.000  0.00  0.00     0.060 C 
BRANCH   7   8
ATOM      8  C2' I4B d   1      -4.704   4.188   5.459  0.00  0.00    -0.013 C 
ATOM      9  C4' I4B d   1      -4.667   2.783   5.999  0.00  0.00     0.013 C 
ATOM     10  C3' I4B d   1      -5.984   4.877   5.830  0.00  0.00     0.013 C 
ENDBRANCH   7   8
ENDBRANCH   1   7
TORSDOF 2
ENDMDL
