MODEL 1
REMARK minimizedAffinity 9.00005436
REMARK minimizedRMSD -1
REMARK  2 active torsions:
REMARK  status: ('A' for Active; 'I' for Inactive)
REMARK    1  A    between atoms: C2'_3  and  C1'_4 
REMARK    2  A    between atoms: C1'_4  and  C1_5 
ROOT
ATOM      1  C1  I4B d   1      -5.309   3.013   2.855  0.00  0.00    -0.075 A 
ATOM      2  C2  I4B d   1      -6.000   1.835   2.987  0.00  0.00     0.003 A 
ATOM      3  C3  I4B d   1      -5.651   0.711   2.199  0.00  0.00     0.002 A 
ATOM      4  C4  I4B d   1      -4.645   0.825   1.262  0.00  0.00    -0.004 A 
ATOM      5  C5  I4B d   1      -3.930   2.013   1.145  0.00  0.00     0.002 A 
ATOM      6  C6  I4B d   1      -4.255   3.111   1.955  0.00  0.00     0.003 A 
ENDROOT
BRANCH   1   7
ATOM      7  C1' I4B d   1      -5.725   4.189   3.680  0.00  0.00     0.060 C 
BRANCH   7   8
ATOM      8  C2' I4B d   1      -5.265   3.948   5.103  0.00  0.00    -0.013 C 
ATOM      9  C4' I4B d   1      -3.774   4.121   5.231  0.00  0.00     0.013 C 
ATOM     10  C3' I4B d   1      -5.999   4.903   5.996  0.00  0.00     0.013 C 
ENDBRANCH   7   8
ENDBRANCH   1   7
TORSDOF 2
ENDMDL
