MODEL 1
REMARK minimizedAffinity 7.69312382
REMARK minimizedRMSD -1
REMARK  2 active torsions:
REMARK  status: ('A' for Active; 'I' for Inactive)
REMARK    1  A    between atoms: C2'_3  and  C1'_4 
REMARK    2  A    between atoms: C1'_4  and  C1_5 
ROOT
ATOM      1  C1  I4B d   1      -3.371   0.235   5.943  0.00  0.00    -0.075 A 
ATOM      2  C2  I4B d   1      -4.695   0.597   5.944  0.00  0.00     0.003 A 
ATOM      3  C3  I4B d   1      -5.060   1.965   5.946  0.00  0.00     0.002 A 
ATOM      4  C4  I4B d   1      -4.075   2.931   5.999  0.00  0.00    -0.004 A 
ATOM      5  C5  I4B d   1      -2.733   2.563   5.975  0.00  0.00     0.002 A 
ATOM      6  C6  I4B d   1      -2.378   1.206   5.935  0.00  0.00     0.003 A 
ENDROOT
BRANCH   1   7
ATOM      7  C1' I4B d   1      -3.022  -1.219   5.974  0.00  0.00     0.060 C 
BRANCH   7   8
ATOM      8  C2' I4B d   1      -3.978  -1.949   5.053  0.00  0.00    -0.013 C 
ATOM      9  C4' I4B d   1      -3.529  -1.859   3.618  0.00  0.00     0.013 C 
ATOM     10  C3' I4B d   1      -4.060  -3.376   5.507  0.00  0.00     0.013 C 
ENDBRANCH   7   8
ENDBRANCH   1   7
TORSDOF 2
ENDMDL
