MODEL 1
REMARK minimizedAffinity 12.0811234
REMARK minimizedRMSD -1
REMARK  2 active torsions:
REMARK  status: ('A' for Active; 'I' for Inactive)
REMARK    1  A    between atoms: C2'_3  and  C1'_4 
REMARK    2  A    between atoms: C1'_4  and  C1_5 
ROOT
ATOM      1  C1  I4B d   1       2.329   0.796   1.031  0.00  0.00    -0.075 A 
ATOM      2  C2  I4B d   1       1.375   1.741   1.315  0.00  0.00     0.003 A 
ATOM      3  C3  I4B d   1       1.616   3.106   1.026  0.00  0.00     0.002 A 
ATOM      4  C4  I4B d   1       2.836   3.486   0.505  0.00  0.00    -0.004 A 
ATOM      5  C5  I4B d   1       3.794   2.524   0.197  0.00  0.00     0.002 A 
ATOM      6  C6  I4B d   1       3.534   1.169   0.450  0.00  0.00     0.003 A 
ENDROOT
BRANCH   1   7
ATOM      7  C1' I4B d   1       2.055  -0.632   1.379  0.00  0.00     0.060 C 
BRANCH   7   8
ATOM      8  C2' I4B d   1       2.484  -0.854   2.815  0.00  0.00    -0.013 C 
ATOM      9  C4' I4B d   1       2.261  -2.282   3.237  0.00  0.00     0.013 C 
ATOM     10  C3' I4B d   1       3.931  -0.476   2.929  0.00  0.00     0.013 C 
ENDBRANCH   7   8
ENDBRANCH   1   7
TORSDOF 2
ENDMDL
