MODEL 1
REMARK minimizedAffinity 14.1075087
REMARK minimizedRMSD -1
REMARK  2 active torsions:
REMARK  status: ('A' for Active; 'I' for Inactive)
REMARK    1  A    between atoms: C2'_3  and  C1'_4 
REMARK    2  A    between atoms: C1'_4  and  C1_5 
ROOT
ATOM      1  C1  I4B d   1      -5.024  -0.087   2.043  0.00  0.00    -0.075 A 
ATOM      2  C2  I4B d   1      -5.024  -1.407   2.418  0.00  0.00     0.003 A 
ATOM      3  C3  I4B d   1      -4.141  -2.324   1.798  0.00  0.00     0.002 A 
ATOM      4  C4  I4B d   1      -3.317  -1.892   0.780  0.00  0.00    -0.004 A 
ATOM      5  C5  I4B d   1      -3.301  -0.548   0.417  0.00  0.00     0.002 A 
ATOM      6  C6  I4B d   1      -4.151   0.363   1.061  0.00  0.00     0.003 A 
ENDROOT
BRANCH   1   7
ATOM      7  C1' I4B d   1      -5.992   0.848   2.696  0.00  0.00     0.060 C 
BRANCH   7   8
ATOM      8  C2' I4B d   1      -5.376   2.232   2.697  0.00  0.00    -0.013 C 
ATOM      9  C4' I4B d   1      -5.962   3.091   1.608  0.00  0.00     0.013 C 
ATOM     10  C3' I4B d   1      -5.606   2.840   4.049  0.00  0.00     0.013 C 
ENDBRANCH   7   8
ENDBRANCH   1   7
TORSDOF 2
ENDMDL
