MODEL 1
REMARK minimizedAffinity 7.46277475
REMARK minimizedRMSD -1
REMARK  2 active torsions:
REMARK  status: ('A' for Active; 'I' for Inactive)
REMARK    1  A    between atoms: C2'_3  and  C1'_4 
REMARK    2  A    between atoms: C1'_4  and  C1_5 
ROOT
ATOM      1  C1  I4B d   1      -0.328  -1.522  -5.769  0.00  0.00    -0.075 A 
ATOM      2  C2  I4B d   1      -0.204  -0.183  -5.493  0.00  0.00     0.003 A 
ATOM      3  C3  I4B d   1      -1.352   0.645  -5.453  0.00  0.00     0.002 A 
ATOM      4  C4  I4B d   1      -2.589   0.106  -5.741  0.00  0.00    -0.004 A 
ATOM      5  C5  I4B d   1      -2.716  -1.256  -5.998  0.00  0.00     0.002 A 
ATOM      6  C6  I4B d   1      -1.580  -2.078  -6.000  0.00  0.00     0.003 A 
ENDROOT
BRANCH   1   7
ATOM      7  C1' I4B d   1       0.908  -2.361  -5.837  0.00  0.00     0.060 C 
BRANCH   7   8
ATOM      8  C2' I4B d   1       2.034  -1.588  -5.180  0.00  0.00    -0.013 C 
ATOM      9  C4' I4B d   1       2.212  -2.000  -3.742  0.00  0.00     0.013 C 
ATOM     10  C3' I4B d   1       3.285  -1.830  -5.971  0.00  0.00     0.013 C 
ENDBRANCH   7   8
ENDBRANCH   1   7
TORSDOF 2
ENDMDL
