MODEL 1
REMARK minimizedAffinity 15.7210865
REMARK minimizedRMSD -1
REMARK  2 active torsions:
REMARK  status: ('A' for Active; 'I' for Inactive)
REMARK    1  A    between atoms: C2'_3  and  C1'_4 
REMARK    2  A    between atoms: C1'_4  and  C1_5 
ROOT
ATOM      1  C1  I4B d   1       0.494  -1.334   1.401  0.00  0.00    -0.075 A 
ATOM      2  C2  I4B d   1       1.324  -1.940   2.310  0.00  0.00     0.003 A 
ATOM      3  C3  I4B d   1       2.472  -1.263   2.789  0.00  0.00     0.002 A 
ATOM      4  C4  I4B d   1       2.778  -0.011   2.297  0.00  0.00    -0.004 A 
ATOM      5  C5  I4B d   1       1.923   0.612   1.391  0.00  0.00     0.002 A 
ATOM      6  C6  I4B d   1       0.767  -0.049   0.950  0.00  0.00     0.003 A 
ENDROOT
BRANCH   1   7
ATOM      7  C1' I4B d   1      -0.692  -2.090   0.891  0.00  0.00     0.060 C 
BRANCH   7   8
ATOM      8  C2' I4B d   1      -1.940  -1.363   1.348  0.00  0.00    -0.013 C 
ATOM      9  C4' I4B d   1      -3.002  -1.380   0.280  0.00  0.00     0.013 C 
ATOM     10  C3' I4B d   1      -2.426  -2.021   2.605  0.00  0.00     0.013 C 
ENDBRANCH   7   8
ENDBRANCH   1   7
TORSDOF 2
ENDMDL
