MODEL 1
REMARK minimizedAffinity -4.90874147
REMARK minimizedRMSD -1
REMARK  0 active torsions:
REMARK  status: ('A' for Active; 'I' for Inactive)
ROOT
ATOM      1  C   UNL d   1      -0.673  -0.889   3.081  0.00  0.00     0.078 C 
ATOM      2  C1  UNL d   1      -0.311  -0.326   1.740  0.00  0.00    -0.077 A 
ATOM      3  C2  UNL d   1      -1.214  -0.374   0.670  0.00  0.00    -0.001 A 
ATOM      4  C3  UNL d   1      -0.860   0.146  -0.576  0.00  0.00     0.003 A 
ATOM      5  C4  UNL d   1       0.398   0.716  -0.765  0.00  0.00    -0.005 A 
ATOM      6  C5  UNL d   1       1.303   0.766   0.293  0.00  0.00     0.003 A 
ATOM      7  C6  UNL d   1       0.951   0.247   1.540  0.00  0.00    -0.001 A 
ENDROOT
TORSDOF 0
ENDMDL
