MODEL 1
REMARK minimizedAffinity -3.00025916
REMARK minimizedRMSD -1
REMARK  0 active torsions:
REMARK  status: ('A' for Active; 'I' for Inactive)
ROOT
ATOM      1  C   UNL d   1      -1.079  -0.846   2.577  0.00  0.00     0.078 C 
ATOM      2  C1  UNL d   1      -0.978  -0.308   1.181  0.00  0.00    -0.077 A 
ATOM      3  C2  UNL d   1      -2.114   0.144   0.498  0.00  0.00    -0.001 A 
ATOM      4  C3  UNL d   1      -2.006   0.633  -0.805  0.00  0.00     0.003 A 
ATOM      5  C4  UNL d   1      -0.765   0.674  -1.437  0.00  0.00    -0.005 A 
ATOM      6  C5  UNL d   1       0.370   0.224  -0.766  0.00  0.00     0.003 A 
ATOM      7  C6  UNL d   1       0.265  -0.265   0.537  0.00  0.00    -0.001 A 
ENDROOT
TORSDOF 0
ENDMDL
