MODEL 1
REMARK minimizedAffinity 2.4738853
REMARK minimizedRMSD -1
REMARK  0 active torsions:
REMARK  status: ('A' for Active; 'I' for Inactive)
ROOT
ATOM      1  C   UNL d   1      -1.847   0.337  -0.841  0.00  0.00     0.078 C 
ATOM      2  C1  UNL d   1      -2.415   0.429   0.544  0.00  0.00    -0.077 A 
ATOM      3  C2  UNL d   1      -3.780   0.663   0.749  0.00  0.00    -0.001 A 
ATOM      4  C3  UNL d   1      -4.294   0.756   2.044  0.00  0.00     0.003 A 
ATOM      5  C4  UNL d   1      -3.449   0.617   3.143  0.00  0.00    -0.005 A 
ATOM      6  C5  UNL d   1      -2.089   0.386   2.949  0.00  0.00     0.003 A 
ATOM      7  C6  UNL d   1      -1.573   0.293   1.655  0.00  0.00    -0.001 A 
ENDROOT
TORSDOF 0
ENDMDL
