MODEL 1
REMARK minimizedAffinity 2.69992757
REMARK minimizedRMSD -1
REMARK  0 active torsions:
REMARK  status: ('A' for Active; 'I' for Inactive)
ROOT
ATOM      1  C   UNL d   1      -1.411  -0.404  -0.840  0.00  0.00     0.078 C 
ATOM      2  C1  UNL d   1      -2.158  -0.148   0.435  0.00  0.00    -0.077 A 
ATOM      3  C2  UNL d   1      -3.462   0.361   0.416  0.00  0.00    -0.001 A 
ATOM      4  C3  UNL d   1      -4.142   0.604   1.611  0.00  0.00     0.003 A 
ATOM      5  C4  UNL d   1      -3.525   0.344   2.833  0.00  0.00    -0.005 A 
ATOM      6  C5  UNL d   1      -2.226  -0.160   2.861  0.00  0.00     0.003 A 
ATOM      7  C6  UNL d   1      -1.545  -0.405   1.667  0.00  0.00    -0.001 A 
ENDROOT
TORSDOF 0
ENDMDL
