MODEL 1
REMARK minimizedAffinity 2.08047652
REMARK minimizedRMSD -1
REMARK  0 active torsions:
REMARK  status: ('A' for Active; 'I' for Inactive)
ROOT
ATOM      1  C   UNL d   1      -1.506  -0.378  -0.997  0.00  0.00     0.078 C 
ATOM      2  C1  UNL d   1      -2.052  -0.206   0.388  0.00  0.00    -0.077 A 
ATOM      3  C2  UNL d   1      -3.386   0.165   0.596  0.00  0.00    -0.001 A 
ATOM      4  C3  UNL d   1      -3.879   0.331   1.892  0.00  0.00     0.003 A 
ATOM      5  C4  UNL d   1      -3.045   0.128   2.989  0.00  0.00    -0.005 A 
ATOM      6  C5  UNL d   1      -1.715  -0.240   2.792  0.00  0.00     0.003 A 
ATOM      7  C6  UNL d   1      -1.221  -0.406   1.497  0.00  0.00    -0.001 A 
ENDROOT
TORSDOF 0
ENDMDL
