MODEL 1
REMARK minimizedAffinity 3.99557042
REMARK minimizedRMSD -1
REMARK  0 active torsions:
REMARK  status: ('A' for Active; 'I' for Inactive)
ROOT
ATOM      1  C   UNL d   1      -0.024   0.026   2.865  0.00  0.00     0.078 C 
ATOM      2  C1  UNL d   1      -1.389   0.137   2.254  0.00  0.00    -0.077 A 
ATOM      3  C2  UNL d   1      -2.509   0.431   3.040  0.00  0.00    -0.001 A 
ATOM      4  C3  UNL d   1      -3.775   0.522   2.460  0.00  0.00     0.003 A 
ATOM      5  C4  UNL d   1      -3.933   0.318   1.090  0.00  0.00    -0.005 A 
ATOM      6  C5  UNL d   1      -2.824   0.023   0.300  0.00  0.00     0.003 A 
ATOM      7  C6  UNL d   1      -1.558  -0.068   0.879  0.00  0.00    -0.001 A 
ENDROOT
TORSDOF 0
ENDMDL
