MODEL 1
REMARK minimizedAffinity 3.92750096
REMARK minimizedRMSD -1
REMARK  0 active torsions:
REMARK  status: ('A' for Active; 'I' for Inactive)
ROOT
ATOM      1  C   UNL d   1      -1.492  -0.050   2.167  0.00  0.00     0.078 C 
ATOM      2  C1  UNL d   1      -2.054   0.224   0.803  0.00  0.00    -0.077 A 
ATOM      3  C2  UNL d   1      -3.392   0.600   0.637  0.00  0.00    -0.001 A 
ATOM      4  C3  UNL d   1      -3.904   0.843  -0.639  0.00  0.00     0.003 A 
ATOM      5  C4  UNL d   1      -3.084   0.712  -1.758  0.00  0.00    -0.005 A 
ATOM      6  C5  UNL d   1      -1.751   0.336  -1.602  0.00  0.00     0.003 A 
ATOM      7  C6  UNL d   1      -1.238   0.093  -0.327  0.00  0.00    -0.001 A 
ENDROOT
TORSDOF 0
ENDMDL
