MODEL 1
REMARK minimizedAffinity 3.69077587
REMARK minimizedRMSD -1
REMARK  0 active torsions:
REMARK  status: ('A' for Active; 'I' for Inactive)
ROOT
ATOM      1  C   UNL d   1      -5.653   0.376   0.750  0.00  0.00     0.078 C 
ATOM      2  C1  UNL d   1      -4.203   0.319   1.128  0.00  0.00    -0.077 A 
ATOM      3  C2  UNL d   1      -3.217   0.848   0.286  0.00  0.00    -0.001 A 
ATOM      4  C3  UNL d   1      -1.870   0.779   0.646  0.00  0.00     0.003 A 
ATOM      5  C4  UNL d   1      -1.497   0.181   1.848  0.00  0.00    -0.005 A 
ATOM      6  C5  UNL d   1      -2.471  -0.350   2.692  0.00  0.00     0.003 A 
ATOM      7  C6  UNL d   1      -3.818  -0.282   2.333  0.00  0.00    -0.001 A 
ENDROOT
TORSDOF 0
ENDMDL
