MODEL 1
REMARK minimizedAffinity 4.16461945
REMARK minimizedRMSD -1
REMARK  0 active torsions:
REMARK  status: ('A' for Active; 'I' for Inactive)
ROOT
ATOM      1  C   UNL d   1      -2.882   0.354   2.243  0.00  0.00     0.078 C 
ATOM      2  C1  UNL d   1      -1.416   0.110   2.439  0.00  0.00    -0.077 A 
ATOM      3  C2  UNL d   1      -0.502   1.171   2.444  0.00  0.00    -0.001 A 
ATOM      4  C3  UNL d   1       0.861   0.927   2.618  0.00  0.00     0.003 A 
ATOM      5  C4  UNL d   1       1.323  -0.376   2.787  0.00  0.00    -0.005 A 
ATOM      6  C5  UNL d   1       0.422  -1.439   2.781  0.00  0.00     0.003 A 
ATOM      7  C6  UNL d   1      -0.942  -1.197   2.607  0.00  0.00    -0.001 A 
ENDROOT
TORSDOF 0
ENDMDL
