MODEL 1
REMARK minimizedAffinity -2.35403848
REMARK minimizedRMSD -1
REMARK  0 active torsions:
REMARK  status: ('A' for Active; 'I' for Inactive)
ROOT
ATOM      1  C   UNL d   1       1.213   1.375   0.979  0.00  0.00     0.078 C 
ATOM      2  C1  UNL d   1       0.038   0.870   1.762  0.00  0.00    -0.077 A 
ATOM      3  C2  UNL d   1      -1.183   0.595   1.134  0.00  0.00    -0.001 A 
ATOM      4  C3  UNL d   1      -2.271   0.136   1.877  0.00  0.00     0.003 A 
ATOM      5  C4  UNL d   1      -2.151  -0.052   3.252  0.00  0.00    -0.005 A 
ATOM      6  C5  UNL d   1      -0.941   0.221   3.887  0.00  0.00     0.003 A 
ATOM      7  C6  UNL d   1       0.149   0.681   3.145  0.00  0.00    -0.001 A 
ENDROOT
TORSDOF 0
ENDMDL
