MODEL 1
REMARK minimizedAffinity -1.98360538
REMARK minimizedRMSD -1
REMARK  0 active torsions:
REMARK  status: ('A' for Active; 'I' for Inactive)
ROOT
ATOM      1  C   UNL d   1      -2.475   1.538   3.915  0.00  0.00     0.078 C 
ATOM      2  C1  UNL d   1      -1.284   1.055   3.142  0.00  0.00    -0.077 A 
ATOM      3  C2  UNL d   1       0.008   1.147   3.673  0.00  0.00    -0.001 A 
ATOM      4  C3  UNL d   1       1.107   0.702   2.938  0.00  0.00     0.003 A 
ATOM      5  C4  UNL d   1       0.927   0.163   1.666  0.00  0.00    -0.005 A 
ATOM      6  C5  UNL d   1      -0.355   0.068   1.128  0.00  0.00     0.003 A 
ATOM      7  C6  UNL d   1      -1.456   0.513   1.862  0.00  0.00    -0.001 A 
ENDROOT
TORSDOF 0
ENDMDL
