MODEL 1
REMARK minimizedAffinity -4.84730339
REMARK minimizedRMSD -1
REMARK  0 active torsions:
REMARK  status: ('A' for Active; 'I' for Inactive)
ROOT
ATOM      1  C   UNL d   1      -1.072  -0.731   3.167  0.00  0.00     0.078 C 
ATOM      2  C1  UNL d   1      -0.903  -0.346   1.727  0.00  0.00    -0.077 A 
ATOM      3  C2  UNL d   1       0.371  -0.180   1.170  0.00  0.00    -0.001 A 
ATOM      4  C3  UNL d   1       0.514   0.189  -0.168  0.00  0.00     0.003 A 
ATOM      5  C4  UNL d   1      -0.614   0.396  -0.961  0.00  0.00    -0.005 A 
ATOM      6  C5  UNL d   1      -1.885   0.236  -0.415  0.00  0.00     0.003 A 
ATOM      7  C6  UNL d   1      -2.030  -0.133   0.924  0.00  0.00    -0.001 A 
ENDROOT
TORSDOF 0
ENDMDL
