MODEL 1
REMARK minimizedAffinity -2.896806
REMARK minimizedRMSD -1
REMARK  0 active torsions:
REMARK  status: ('A' for Active; 'I' for Inactive)
ROOT
ATOM      1  C   UNL d   1      -0.755  -1.076   3.468  0.00  0.00     0.078 C 
ATOM      2  C1  UNL d   1      -0.217  -0.413   2.236  0.00  0.00    -0.077 A 
ATOM      3  C2  UNL d   1      -0.905  -0.485   1.019  0.00  0.00    -0.001 A 
ATOM      4  C3  UNL d   1      -0.388   0.129  -0.123  0.00  0.00     0.003 A 
ATOM      5  C4  UNL d   1       0.821   0.819  -0.059  0.00  0.00    -0.005 A 
ATOM      6  C5  UNL d   1       1.514   0.895   1.147  0.00  0.00     0.003 A 
ATOM      7  C6  UNL d   1       0.998   0.281   2.290  0.00  0.00    -0.001 A 
ENDROOT
TORSDOF 0
ENDMDL
