MODEL 1
REMARK minimizedAffinity -3.60828567
REMARK minimizedRMSD -1
REMARK  0 active torsions:
REMARK  status: ('A' for Active; 'I' for Inactive)
ROOT
ATOM      1  O1  BZF d   1       0.275   2.643  -0.030  0.00  0.00    -0.204 OA
ATOM      2  C2  BZF d   1       0.930   2.562  -1.244  0.00  0.00     0.174 A 
ATOM      3  C3  BZF d   1       1.018   1.281  -1.655  0.00  0.00    -0.012 A 
ATOM      4  C3A BZF d   1       0.297   0.522  -0.679  0.00  0.00    -0.107 A 
ATOM      5  C4  BZF d   1       0.016  -0.808  -0.544  0.00  0.00     0.055 A 
ATOM      6  C5  BZF d   1      -0.649  -1.233   0.562  0.00  0.00    -0.016 A 
ATOM      7  C6  BZF d   1      -1.041  -0.359   1.555  0.00  0.00     0.022 A 
ATOM      8  C7  BZF d   1      -0.788   0.969   1.463  0.00  0.00     0.029 A 
ATOM      9  C7A BZF d   1      -0.146   1.407   0.330  0.00  0.00     0.058 A 
ENDROOT
TORSDOF 0
ENDMDL
