MODEL 1
REMARK minimizedAffinity -4.85898542
REMARK minimizedRMSD -1
REMARK  0 active torsions:
REMARK  status: ('A' for Active; 'I' for Inactive)
ROOT
ATOM      1  O1  BZF d   1       0.803  -0.787  -0.025  0.00  0.00    -0.204 OA
ATOM      2  C2  BZF d   1      -0.481  -0.881  -0.527  0.00  0.00     0.174 A 
ATOM      3  C3  BZF d   1      -1.003   0.345  -0.735  0.00  0.00    -0.012 A 
ATOM      4  C3A BZF d   1       0.051   1.262  -0.426  0.00  0.00    -0.107 A 
ATOM      5  C4  BZF d   1       0.150   2.623  -0.455  0.00  0.00     0.055 A 
ATOM      6  C5  BZF d   1       1.296   3.212  -0.022  0.00  0.00    -0.016 A 
ATOM      7  C6  BZF d   1       2.359   2.471   0.450  0.00  0.00     0.022 A 
ATOM      8  C7  BZF d   1       2.310   1.117   0.492  0.00  0.00     0.029 A 
ATOM      9  C7A BZF d   1       1.166   0.518   0.025  0.00  0.00     0.058 A 
ENDROOT
TORSDOF 0
ENDMDL
