MODEL 1
REMARK minimizedAffinity -2.52436614
REMARK minimizedRMSD -1
REMARK  0 active torsions:
REMARK  status: ('A' for Active; 'I' for Inactive)
ROOT
ATOM      1  O1  BZF d   1       0.608  -0.812  -1.298  0.00  0.00    -0.204 OA
ATOM      2  C2  BZF d   1      -0.010  -1.917  -0.744  0.00  0.00     0.174 A 
ATOM      3  C3  BZF d   1      -0.887  -1.545   0.212  0.00  0.00    -0.012 A 
ATOM      4  C3A BZF d   1      -0.879  -0.114   0.194  0.00  0.00    -0.107 A 
ATOM      5  C4  BZF d   1      -1.554   0.837   0.904  0.00  0.00     0.055 A 
ATOM      6  C5  BZF d   1      -1.263   2.148   0.694  0.00  0.00    -0.016 A 
ATOM      7  C6  BZF d   1      -0.300   2.542  -0.212  0.00  0.00     0.022 A 
ATOM      8  C7  BZF d   1       0.392   1.635  -0.943  0.00  0.00     0.029 A 
ATOM      9  C7A BZF d   1       0.077   0.311  -0.757  0.00  0.00     0.058 A 
ENDROOT
TORSDOF 0
ENDMDL
