MODEL 1
REMARK minimizedAffinity -3.4640336
REMARK minimizedRMSD -1
REMARK  0 active torsions:
REMARK  status: ('A' for Active; 'I' for Inactive)
ROOT
ATOM      1  O1  BZF d   1      -1.111  -0.189   1.328  0.00  0.00    -0.204 OA
ATOM      2  C2  BZF d   1      -0.639  -1.327   0.703  0.00  0.00     0.174 A 
ATOM      3  C3  BZF d   1       0.158  -1.006  -0.336  0.00  0.00    -0.012 A 
ATOM      4  C3A BZF d   1       0.260   0.421  -0.305  0.00  0.00    -0.107 A 
ATOM      5  C4  BZF d   1       0.928   1.331  -1.074  0.00  0.00     0.055 A 
ATOM      6  C5  BZF d   1       0.760   2.657  -0.824  0.00  0.00    -0.016 A 
ATOM      7  C6  BZF d   1      -0.071   3.106   0.182  0.00  0.00     0.022 A 
ATOM      8  C7  BZF d   1      -0.749   2.241   0.974  0.00  0.00     0.029 A 
ATOM      9  C7A BZF d   1      -0.556   0.901   0.745  0.00  0.00     0.058 A 
ENDROOT
TORSDOF 0
ENDMDL
