MODEL 1
REMARK minimizedAffinity -3.97486043
REMARK minimizedRMSD -1
REMARK  0 active torsions:
REMARK  status: ('A' for Active; 'I' for Inactive)
ROOT
ATOM      1  O1  BZF d   1      -0.403  -0.631   1.089  0.00  0.00    -0.204 OA
ATOM      2  C2  BZF d   1       0.394  -1.472   0.337  0.00  0.00     0.174 A 
ATOM      3  C3  BZF d   1       1.065  -0.778  -0.605  0.00  0.00    -0.012 A 
ATOM      4  C3A BZF d   1       0.733   0.594  -0.371  0.00  0.00    -0.107 A 
ATOM      5  C4  BZF d   1       1.101   1.764  -0.971  0.00  0.00     0.055 A 
ATOM      6  C5  BZF d   1       0.540   2.927  -0.548  0.00  0.00    -0.016 A 
ATOM      7  C6  BZF d   1      -0.395   2.956   0.466  0.00  0.00     0.022 A 
ATOM      8  C7  BZF d   1      -0.787   1.822   1.095  0.00  0.00     0.029 A 
ATOM      9  C7A BZF d   1      -0.198   0.648   0.692  0.00  0.00     0.058 A 
ENDROOT
TORSDOF 0
ENDMDL
