MODEL 1
REMARK minimizedAffinity -4.5564127
REMARK minimizedRMSD -1
REMARK  0 active torsions:
REMARK  status: ('A' for Active; 'I' for Inactive)
ROOT
ATOM      1  O1  BZF d   1       2.678   0.824   0.113  0.00  0.00    -0.204 OA
ATOM      2  C2  BZF d   1       2.624  -0.543   0.305  0.00  0.00     0.174 A 
ATOM      3  C3  BZF d   1       1.349  -0.955   0.455  0.00  0.00    -0.012 A 
ATOM      4  C3A BZF d   1       0.549   0.215   0.259  0.00  0.00    -0.107 A 
ATOM      5  C4  BZF d   1      -0.797   0.444   0.268  0.00  0.00     0.055 A 
ATOM      6  C5  BZF d   1      -1.251   1.716   0.115  0.00  0.00    -0.016 A 
ATOM      7  C6  BZF d   1      -0.389   2.781  -0.044  0.00  0.00     0.022 A 
ATOM      8  C7  BZF d   1       0.955   2.602  -0.064  0.00  0.00     0.029 A 
ATOM      9  C7A BZF d   1       1.416   1.314   0.057  0.00  0.00     0.058 A 
ENDROOT
TORSDOF 0
ENDMDL
