MODEL 1
REMARK minimizedAffinity -3.58952308
REMARK minimizedRMSD -1
REMARK  0 active torsions:
REMARK  status: ('A' for Active; 'I' for Inactive)
ROOT
ATOM      1  O1  BZF d   1      -1.426   0.018   1.158  0.00  0.00    -0.204 OA
ATOM      2  C2  BZF d   1      -1.049  -1.079   0.408  0.00  0.00     0.174 A 
ATOM      3  C3  BZF d   1      -0.206  -0.716  -0.580  0.00  0.00    -0.012 A 
ATOM      4  C3A BZF d   1       0.026   0.682  -0.382  0.00  0.00    -0.107 A 
ATOM      5  C4  BZF d   1       0.789   1.609  -1.033  0.00  0.00     0.055 A 
ATOM      6  C5  BZF d   1       0.739   2.906  -0.630  0.00  0.00    -0.016 A 
ATOM      7  C6  BZF d   1      -0.065   3.312   0.415  0.00  0.00     0.022 A 
ATOM      8  C7  BZF d   1      -0.836   2.428   1.094  0.00  0.00     0.029 A 
ATOM      9  C7A BZF d   1      -0.762   1.111   0.711  0.00  0.00     0.058 A 
ENDROOT
TORSDOF 0
ENDMDL
