MODEL 1
REMARK minimizedAffinity -3.15163279
REMARK minimizedRMSD -1
REMARK  0 active torsions:
REMARK  status: ('A' for Active; 'I' for Inactive)
ROOT
ATOM      1  O1  BZF d   1       0.924  -0.777   0.190  0.00  0.00    -0.204 OA
ATOM      2  C2  BZF d   1      -0.447  -0.951   0.186  0.00  0.00     0.174 A 
ATOM      3  C3  BZF d   1      -1.079   0.224   0.379  0.00  0.00    -0.012 A 
ATOM      4  C3A BZF d   1      -0.041   1.208   0.419  0.00  0.00    -0.107 A 
ATOM      5  C4  BZF d   1      -0.039   2.565   0.570  0.00  0.00     0.055 A 
ATOM      6  C5  BZF d   1       1.150   3.220   0.639  0.00  0.00    -0.016 A 
ATOM      7  C6  BZF d   1       2.353   2.550   0.566  0.00  0.00     0.022 A 
ATOM      8  C7  BZF d   1       2.402   1.205   0.411  0.00  0.00     0.029 A 
ATOM      9  C7A BZF d   1       1.202   0.544   0.308  0.00  0.00     0.058 A 
ENDROOT
TORSDOF 0
ENDMDL
