MODEL 1
REMARK minimizedAffinity -3.82334542
REMARK minimizedRMSD -1
REMARK  0 active torsions:
REMARK  status: ('A' for Active; 'I' for Inactive)
ROOT
ATOM      1  O1  BZF d   1      -0.575   2.777   0.297  0.00  0.00    -0.204 OA
ATOM      2  C2  BZF d   1       0.687   3.204  -0.069  0.00  0.00     0.174 A 
ATOM      3  C3  BZF d   1       1.532   2.159  -0.181  0.00  0.00    -0.012 A 
ATOM      4  C3A BZF d   1       0.727   0.998   0.046  0.00  0.00    -0.107 A 
ATOM      5  C4  BZF d   1       0.991  -0.342   0.052  0.00  0.00     0.055 A 
ATOM      6  C5  BZF d   1      -0.001  -1.210   0.381  0.00  0.00    -0.016 A 
ATOM      7  C6  BZF d   1      -1.267  -0.773   0.714  0.00  0.00     0.022 A 
ATOM      8  C7  BZF d   1      -1.579   0.546   0.717  0.00  0.00     0.029 A 
ATOM      9  C7A BZF d   1      -0.587   1.423   0.353  0.00  0.00     0.058 A 
ENDROOT
TORSDOF 0
ENDMDL
