MODEL 1
REMARK minimizedAffinity -2.75820899
REMARK minimizedRMSD -1
REMARK  0 active torsions:
REMARK  status: ('A' for Active; 'I' for Inactive)
ROOT
ATOM      1  O1  BZF d   1      -1.183   0.141   1.349  0.00  0.00    -0.204 OA
ATOM      2  C2  BZF d   1      -0.862  -0.948   0.561  0.00  0.00     0.174 A 
ATOM      3  C3  BZF d   1      -0.019  -0.590  -0.429  0.00  0.00    -0.012 A 
ATOM      4  C3A BZF d   1       0.273   0.791  -0.195  0.00  0.00    -0.107 A 
ATOM      5  C4  BZF d   1       1.063   1.705  -0.831  0.00  0.00     0.055 A 
ATOM      6  C5  BZF d   1       1.071   2.991  -0.391  0.00  0.00    -0.016 A 
ATOM      7  C6  BZF d   1       0.300   3.398   0.677  0.00  0.00     0.022 A 
ATOM      8  C7  BZF d   1      -0.496   2.526   1.344  0.00  0.00     0.029 A 
ATOM      9  C7A BZF d   1      -0.482   1.219   0.922  0.00  0.00     0.058 A 
ENDROOT
TORSDOF 0
ENDMDL
