MODEL 1
REMARK minimizedAffinity -3.81276226
REMARK minimizedRMSD -1
REMARK  0 active torsions:
REMARK  status: ('A' for Active; 'I' for Inactive)
ROOT
ATOM      1  O1  BZF d   1      -1.132  -0.095   1.129  0.00  0.00    -0.204 OA
ATOM      2  C2  BZF d   1      -0.576  -1.185   0.487  0.00  0.00     0.174 A 
ATOM      3  C3  BZF d   1       0.365  -0.791  -0.396  0.00  0.00    -0.012 A 
ATOM      4  C3A BZF d   1       0.463   0.627  -0.234  0.00  0.00    -0.107 A 
ATOM      5  C4  BZF d   1       1.237   1.587  -0.821  0.00  0.00     0.055 A 
ATOM      6  C5  BZF d   1       1.036   2.890  -0.490  0.00  0.00    -0.016 A 
ATOM      7  C6  BZF d   1       0.069   3.268   0.418  0.00  0.00     0.022 A 
ATOM      8  C7  BZF d   1      -0.719   2.351   1.030  0.00  0.00     0.029 A 
ATOM      9  C7A BZF d   1      -0.496   1.031   0.723  0.00  0.00     0.058 A 
ENDROOT
TORSDOF 0
ENDMDL
