MODEL 1
REMARK minimizedAffinity 2.04756427
REMARK minimizedRMSD -1
REMARK  0 active torsions:
REMARK  status: ('A' for Active; 'I' for Inactive)
ROOT
ATOM      1  O1  BZF d   1       2.303   1.399   0.614  0.00  0.00    -0.204 OA
ATOM      2  C2  BZF d   1       2.572   0.048   0.515  0.00  0.00     0.174 A 
ATOM      3  C3  BZF d   1       1.441  -0.676   0.645  0.00  0.00    -0.012 A 
ATOM      4  C3A BZF d   1       0.387   0.287   0.745  0.00  0.00    -0.107 A 
ATOM      5  C4  BZF d   1      -0.968   0.186   0.876  0.00  0.00     0.055 A 
ATOM      6  C5  BZF d   1      -1.705   1.319   1.019  0.00  0.00    -0.016 A 
ATOM      7  C6  BZF d   1      -1.119   2.568   1.041  0.00  0.00     0.022 A 
ATOM      8  C7  BZF d   1       0.221   2.719   0.910  0.00  0.00     0.029 A 
ATOM      9  C7A BZF d   1       0.965   1.578   0.732  0.00  0.00     0.058 A 
ENDROOT
TORSDOF 0
ENDMDL
