MODEL 1
REMARK minimizedAffinity -2.24947667
REMARK minimizedRMSD -1
REMARK  0 active torsions:
REMARK  status: ('A' for Active; 'I' for Inactive)
ROOT
ATOM      1  O1  BZF d   1       2.057  -0.429   1.328  0.00  0.00    -0.204 OA
ATOM      2  C2  BZF d   1       2.955  -0.464   0.279  0.00  0.00     0.174 A 
ATOM      3  C3  BZF d   1       2.371  -0.051  -0.864  0.00  0.00    -0.012 A 
ATOM      4  C3A BZF d   1       1.049   0.348  -0.489  0.00  0.00    -0.107 A 
ATOM      5  C4  BZF d   1      -0.008   0.863  -1.183  0.00  0.00     0.055 A 
ATOM      6  C5  BZF d   1      -1.183   1.075  -0.534  0.00  0.00    -0.016 A 
ATOM      7  C6  BZF d   1      -1.337   0.780   0.805  0.00  0.00     0.022 A 
ATOM      8  C7  BZF d   1      -0.315   0.273   1.536  0.00  0.00     0.029 A 
ATOM      9  C7A BZF d   1       0.884   0.088   0.891  0.00  0.00     0.058 A 
ENDROOT
TORSDOF 0
ENDMDL
