MODEL 1
REMARK minimizedAffinity -5.09733057
REMARK minimizedRMSD -1
REMARK  0 active torsions:
REMARK  status: ('A' for Active; 'I' for Inactive)
ROOT
ATOM      1  O1  BZF d   1      -0.632   3.205   0.161  0.00  0.00    -0.204 OA
ATOM      2  C2  BZF d   1       0.567   3.667  -0.346  0.00  0.00     0.174 A 
ATOM      3  C3  BZF d   1       1.450   2.657  -0.482  0.00  0.00    -0.012 A 
ATOM      4  C3A BZF d   1       0.730   1.476  -0.119  0.00  0.00    -0.107 A 
ATOM      5  C4  BZF d   1       1.062   0.152  -0.067  0.00  0.00     0.055 A 
ATOM      6  C5  BZF d   1       0.150  -0.740   0.401  0.00  0.00    -0.016 A 
ATOM      7  C6  BZF d   1      -1.100  -0.344   0.829  0.00  0.00     0.022 A 
ATOM      8  C7  BZF d   1      -1.477   0.958   0.792  0.00  0.00     0.029 A 
ATOM      9  C7A BZF d   1      -0.569   1.857   0.289  0.00  0.00     0.058 A 
ENDROOT
TORSDOF 0
ENDMDL
