MODEL 1
REMARK minimizedAffinity 3.89504814
REMARK minimizedRMSD -1
REMARK  0 active torsions:
REMARK  status: ('A' for Active; 'I' for Inactive)
ROOT
ATOM      1  O1  BZF d   1       0.695  -1.464   0.673  0.00  0.00    -0.204 OA
ATOM      2  C2  BZF d   1      -0.643  -1.384   0.339  0.00  0.00     0.174 A 
ATOM      3  C3  BZF d   1      -0.882  -0.297  -0.423  0.00  0.00    -0.012 A 
ATOM      4  C3A BZF d   1       0.402   0.292  -0.652  0.00  0.00    -0.107 A 
ATOM      5  C4  BZF d   1       0.822   1.387  -1.352  0.00  0.00     0.055 A 
ATOM      6  C5  BZF d   1       2.136   1.730  -1.316  0.00  0.00    -0.016 A 
ATOM      7  C6  BZF d   1       3.056   1.005  -0.587  0.00  0.00     0.022 A 
ATOM      8  C7  BZF d   1       2.688  -0.092   0.119  0.00  0.00     0.029 A 
ATOM      9  C7A BZF d   1       1.367  -0.460   0.058  0.00  0.00     0.058 A 
ENDROOT
TORSDOF 0
ENDMDL
