MODEL 1
REMARK minimizedAffinity -4.33683014
REMARK minimizedRMSD -1
REMARK  0 active torsions:
REMARK  status: ('A' for Active; 'I' for Inactive)
ROOT
ATOM      1  O1  BZF d   1      -1.232   0.019   1.265  0.00  0.00    -0.204 OA
ATOM      2  C2  BZF d   1      -0.651  -1.144   0.798  0.00  0.00     0.174 A 
ATOM      3  C3  BZF d   1       0.299  -0.870  -0.118  0.00  0.00    -0.012 A 
ATOM      4  C3A BZF d   1       0.378   0.558  -0.162  0.00  0.00    -0.107 A 
ATOM      5  C4  BZF d   1       1.150   1.435  -0.870  0.00  0.00     0.055 A 
ATOM      6  C5  BZF d   1       0.927   2.769  -0.735  0.00  0.00    -0.016 A 
ATOM      7  C6  BZF d   1      -0.060   3.260   0.093  0.00  0.00     0.022 A 
ATOM      8  C7  BZF d   1      -0.848   2.430   0.819  0.00  0.00     0.029 A 
ATOM      9  C7A BZF d   1      -0.604   1.082   0.710  0.00  0.00     0.058 A 
ENDROOT
TORSDOF 0
ENDMDL
