MODEL 1
REMARK minimizedAffinity -1.44125009
REMARK minimizedRMSD -1
REMARK  0 active torsions:
REMARK  status: ('A' for Active; 'I' for Inactive)
ROOT
ATOM      1  O1  BZF d   1       1.040  -1.104   0.581  0.00  0.00    -0.204 OA
ATOM      2  C2  BZF d   1      -0.328  -1.301   0.572  0.00  0.00     0.174 A 
ATOM      3  C3  BZF d   1      -0.981  -0.131   0.720  0.00  0.00    -0.012 A 
ATOM      4  C3A BZF d   1       0.041   0.871   0.735  0.00  0.00    -0.107 A 
ATOM      5  C4  BZF d   1       0.019   2.232   0.840  0.00  0.00     0.055 A 
ATOM      6  C5  BZF d   1       1.196   2.909   0.896  0.00  0.00    -0.016 A 
ATOM      7  C6  BZF d   1       2.411   2.257   0.855  0.00  0.00     0.022 A 
ATOM      8  C7  BZF d   1       2.483   0.908   0.746  0.00  0.00     0.029 A 
ATOM      9  C7A BZF d   1       1.296   0.224   0.656  0.00  0.00     0.058 A 
ENDROOT
TORSDOF 0
ENDMDL
