MODEL 1
REMARK minimizedAffinity 9.97695541
REMARK minimizedRMSD -1
REMARK  0 active torsions:
REMARK  status: ('A' for Active; 'I' for Inactive)
ROOT
ATOM      1  C2' OXE d   1       0.214  -2.964  -1.889  0.00  0.00     0.078 C 
ATOM      2  C1' OXE d   1       2.423  -3.750  -0.345  0.00  0.00     0.078 C 
ATOM      3  C1  OXE d   1       2.394  -2.333  -0.861  0.00  0.00    -0.078 A 
ATOM      4  C2  OXE d   1       1.332  -1.971  -1.655  0.00  0.00    -0.078 A 
ATOM      5  C3  OXE d   1       1.229  -0.660  -2.112  0.00  0.00     0.003 A 
ATOM      6  C4  OXE d   1       2.272   0.249  -1.899  0.00  0.00    -0.002 A 
ATOM      7  C5  OXE d   1       3.381  -0.112  -1.127  0.00  0.00    -0.002 A 
ATOM      8  C6  OXE d   1       3.437  -1.383  -0.566  0.00  0.00     0.003 A 
ENDROOT
TORSDOF 0
ENDMDL
