MODEL 1
REMARK minimizedAffinity 2.98155689
REMARK minimizedRMSD -1
REMARK  0 active torsions:
REMARK  status: ('A' for Active; 'I' for Inactive)
ROOT
ATOM      1  C2' OXE d   1      -0.013  -3.359  -1.884  0.00  0.00     0.078 C 
ATOM      2  C1' OXE d   1       2.540  -3.741  -0.780  0.00  0.00     0.078 C 
ATOM      3  C1  OXE d   1       2.119  -2.330  -1.109  0.00  0.00    -0.078 A 
ATOM      4  C2  OXE d   1       0.887  -2.157  -1.692  0.00  0.00    -0.078 A 
ATOM      5  C3  OXE d   1       0.428  -0.872  -1.964  0.00  0.00     0.003 A 
ATOM      6  C4  OXE d   1       1.270   0.233  -1.792  0.00  0.00    -0.002 A 
ATOM      7  C5  OXE d   1       2.544   0.075  -1.237  0.00  0.00    -0.002 A 
ATOM      8  C6  OXE d   1       2.967  -1.193  -0.851  0.00  0.00     0.003 A 
ENDROOT
TORSDOF 0
ENDMDL
