MODEL 1
REMARK minimizedAffinity 15.7930107
REMARK minimizedRMSD -1
REMARK  0 active torsions:
REMARK  status: ('A' for Active; 'I' for Inactive)
ROOT
ATOM      1  C2' OXE d   1       2.110   2.866  -1.854  0.00  0.00     0.078 C 
ATOM      2  C1' OXE d   1       1.501   0.403  -3.055  0.00  0.00     0.078 C 
ATOM      3  C1  OXE d   1       2.543   0.415  -1.965  0.00  0.00    -0.078 A 
ATOM      4  C2  OXE d   1       2.868   1.632  -1.415  0.00  0.00    -0.078 A 
ATOM      5  C3  OXE d   1       3.783   1.692  -0.367  0.00  0.00     0.003 A 
ATOM      6  C4  OXE d   1       4.487   0.548   0.026  0.00  0.00    -0.002 A 
ATOM      7  C5  OXE d   1       4.200  -0.695  -0.549  0.00  0.00    -0.002 A 
ATOM      8  C6  OXE d   1       3.203  -0.785  -1.514  0.00  0.00     0.003 A 
ENDROOT
TORSDOF 0
ENDMDL
