MODEL 1
REMARK minimizedAffinity 11.3468409
REMARK minimizedRMSD -1
REMARK  0 active torsions:
REMARK  status: ('A' for Active; 'I' for Inactive)
ROOT
ATOM      1  C2' OXE d   1      -3.010   1.664   5.998  0.00  0.00     0.078 C 
ATOM      2  C1' OXE d   1      -3.637   1.814   3.266  0.00  0.00     0.078 C 
ATOM      3  C1  OXE d   1      -3.856   0.496   3.966  0.00  0.00    -0.078 A 
ATOM      4  C2  OXE d   1      -3.503   0.419   5.292  0.00  0.00    -0.078 A 
ATOM      5  C3  OXE d   1      -3.735  -0.757   6.000  0.00  0.00     0.003 A 
ATOM      6  C4  OXE d   1      -4.181  -1.907   5.337  0.00  0.00    -0.002 A 
ATOM      7  C5  OXE d   1      -4.510  -1.861   3.978  0.00  0.00    -0.002 A 
ATOM      8  C6  OXE d   1      -4.393  -0.658   3.290  0.00  0.00     0.003 A 
ENDROOT
TORSDOF 0
ENDMDL
