MODEL 1
REMARK minimizedAffinity 23.6667347
REMARK minimizedRMSD -1
REMARK  0 active torsions:
REMARK  status: ('A' for Active; 'I' for Inactive)
ROOT
ATOM      1  C2' OXE d   1       2.549   2.155  -1.360  0.00  0.00     0.078 C 
ATOM      2  C1' OXE d   1       1.307   2.257   1.155  0.00  0.00     0.078 C 
ATOM      3  C1  OXE d   1       1.402   3.538   0.365  0.00  0.00    -0.078 A 
ATOM      4  C2  OXE d   1       2.053   3.488  -0.844  0.00  0.00    -0.078 A 
ATOM      5  C3  OXE d   1       2.121   4.630  -1.638  0.00  0.00     0.003 A 
ATOM      6  C4  OXE d   1       1.668   5.861  -1.149  0.00  0.00    -0.002 A 
ATOM      7  C5  OXE d   1       1.037   5.942   0.097  0.00  0.00    -0.002 A 
ATOM      8  C6  OXE d   1       0.858   4.784   0.846  0.00  0.00     0.003 A 
ENDROOT
TORSDOF 0
ENDMDL
