MODEL 1
REMARK minimizedAffinity 17.4285583
REMARK minimizedRMSD -1
REMARK  0 active torsions:
REMARK  status: ('A' for Active; 'I' for Inactive)
ROOT
ATOM      1  C2' OXE d   1       1.698  -4.782  -0.606  0.00  0.00     0.078 C 
ATOM      2  C1' OXE d   1       3.117  -2.368  -0.403  0.00  0.00     0.078 C 
ATOM      3  C1  OXE d   1       3.901  -3.622  -0.696  0.00  0.00    -0.078 A 
ATOM      4  C2  OXE d   1       3.205  -4.806  -0.748  0.00  0.00    -0.078 A 
ATOM      5  C3  OXE d   1       3.872  -5.985  -1.069  0.00  0.00     0.003 A 
ATOM      6  C4  OXE d   1       5.267  -6.000  -1.189  0.00  0.00    -0.002 A 
ATOM      7  C5  OXE d   1       6.000  -4.812  -1.100  0.00  0.00    -0.002 A 
ATOM      8  C6  OXE d   1       5.329  -3.611  -0.897  0.00  0.00     0.003 A 
ENDROOT
TORSDOF 0
ENDMDL
