MODEL 1
REMARK minimizedAffinity 13.3924637
REMARK minimizedRMSD -1
REMARK  0 active torsions:
REMARK  status: ('A' for Active; 'I' for Inactive)
ROOT
ATOM      1  C2' OXE d   1       1.138  -0.669  -0.901  0.00  0.00     0.078 C 
ATOM      2  C1' OXE d   1       0.508   0.734   1.447  0.00  0.00     0.078 C 
ATOM      3  C1  OXE d   1       1.916   0.847   0.916  0.00  0.00    -0.078 A 
ATOM      4  C2  OXE d   1       2.228   0.120  -0.207  0.00  0.00    -0.078 A 
ATOM      5  C3  OXE d   1       3.496   0.230  -0.770  0.00  0.00     0.003 A 
ATOM      6  C4  OXE d   1       4.501   0.954  -0.116  0.00  0.00    -0.002 A 
ATOM      7  C5  OXE d   1       4.215   1.670   1.051  0.00  0.00    -0.002 A 
ATOM      8  C6  OXE d   1       2.919   1.661   1.556  0.00  0.00     0.003 A 
ENDROOT
TORSDOF 0
ENDMDL
