MODEL 1
REMARK minimizedAffinity 21.8338718
REMARK minimizedRMSD -1
REMARK  0 active torsions:
REMARK  status: ('A' for Active; 'I' for Inactive)
ROOT
ATOM      1  C2' OXE d   1       0.848  -1.236  -1.491  0.00  0.00     0.078 C 
ATOM      2  C1' OXE d   1       1.422   1.012  -3.072  0.00  0.00     0.078 C 
ATOM      3  C1  OXE d   1       2.294   0.758  -1.867  0.00  0.00    -0.078 A 
ATOM      4  C2  OXE d   1       1.977  -0.318  -1.073  0.00  0.00    -0.078 A 
ATOM      5  C3  OXE d   1       2.782  -0.630   0.019  0.00  0.00     0.003 A 
ATOM      6  C4  OXE d   1       3.818   0.230   0.404  0.00  0.00    -0.002 A 
ATOM      7  C5  OXE d   1       4.132   1.353  -0.368  0.00  0.00    -0.002 A 
ATOM      8  C6  OXE d   1       3.408   1.607  -1.528  0.00  0.00     0.003 A 
ENDROOT
TORSDOF 0
ENDMDL
