MODEL 1
REMARK minimizedAffinity 10.4652662
REMARK minimizedRMSD -1
REMARK  0 active torsions:
REMARK  status: ('A' for Active; 'I' for Inactive)
ROOT
ATOM      1  C2' OXE d   1       3.279   0.497  -1.115  0.00  0.00     0.078 C 
ATOM      2  C1' OXE d   1       4.427  -1.910  -0.238  0.00  0.00     0.078 C 
ATOM      3  C1  OXE d   1       3.017  -1.956  -0.770  0.00  0.00    -0.078 A 
ATOM      4  C2  OXE d   1       2.447  -0.766  -1.154  0.00  0.00    -0.078 A 
ATOM      5  C3  OXE d   1       1.168  -0.760  -1.703  0.00  0.00     0.003 A 
ATOM      6  C4  OXE d   1       0.401  -1.932  -1.726  0.00  0.00    -0.002 A 
ATOM      7  C5  OXE d   1       0.948  -3.147  -1.303  0.00  0.00    -0.002 A 
ATOM      8  C6  OXE d   1       2.267  -3.184  -0.863  0.00  0.00     0.003 A 
ENDROOT
TORSDOF 0
ENDMDL
