MODEL 1
REMARK minimizedAffinity 9.69692802
REMARK minimizedRMSD -1
REMARK  0 active torsions:
REMARK  status: ('A' for Active; 'I' for Inactive)
ROOT
ATOM      1  C2' OXE d   1       2.093  -4.060  -0.222  0.00  0.00     0.078 C 
ATOM      2  C1' OXE d   1       0.128  -3.679  -2.190  0.00  0.00     0.078 C 
ATOM      3  C1  OXE d   1       0.848  -2.460  -1.670  0.00  0.00    -0.078 A 
ATOM      4  C2  OXE d   1       1.775  -2.651  -0.673  0.00  0.00    -0.078 A 
ATOM      5  C3  OXE d   1       2.507  -1.568  -0.196  0.00  0.00     0.003 A 
ATOM      6  C4  OXE d   1       2.200  -0.266  -0.612  0.00  0.00    -0.002 A 
ATOM      7  C5  OXE d   1       1.231  -0.046  -1.597  0.00  0.00    -0.002 A 
ATOM      8  C6  OXE d   1       0.578  -1.133  -2.165  0.00  0.00     0.003 A 
ENDROOT
TORSDOF 0
ENDMDL
