MODEL 1
REMARK minimizedAffinity 22.9220142
REMARK minimizedRMSD -1
REMARK  0 active torsions:
REMARK  status: ('A' for Active; 'I' for Inactive)
ROOT
ATOM      1  C2' OXE d   1      -1.500  -5.785  -5.993  0.00  0.00     0.078 C 
ATOM      2  C1' OXE d   1      -3.718  -4.174  -5.389  0.00  0.00     0.078 C 
ATOM      3  C1  OXE d   1      -2.695  -4.399  -4.304  0.00  0.00    -0.078 A 
ATOM      4  C2  OXE d   1      -1.638  -5.227  -4.593  0.00  0.00    -0.078 A 
ATOM      5  C3  OXE d   1      -0.637  -5.424  -3.646  0.00  0.00     0.003 A 
ATOM      6  C4  OXE d   1      -0.777  -4.912  -2.350  0.00  0.00    -0.002 A 
ATOM      7  C5  OXE d   1      -1.867  -4.098  -2.022  0.00  0.00    -0.002 A 
ATOM      8  C6  OXE d   1      -2.811  -3.798  -2.998  0.00  0.00     0.003 A 
ENDROOT
TORSDOF 0
ENDMDL
