MODEL 1
REMARK minimizedAffinity 11.7112617
REMARK minimizedRMSD -1
REMARK  0 active torsions:
REMARK  status: ('A' for Active; 'I' for Inactive)
ROOT
ATOM      1  C2' OXE d   1       2.781   0.413  -1.129  0.00  0.00     0.078 C 
ATOM      2  C1' OXE d   1       1.360   0.199  -3.541  0.00  0.00     0.078 C 
ATOM      3  C1  OXE d   1       1.046  -0.793  -2.449  0.00  0.00    -0.078 A 
ATOM      4  C2  OXE d   1       1.779  -0.710  -1.289  0.00  0.00    -0.078 A 
ATOM      5  C3  OXE d   1       1.492  -1.567  -0.230  0.00  0.00     0.003 A 
ATOM      6  C4  OXE d   1       0.571  -2.609  -0.391  0.00  0.00    -0.002 A 
ATOM      7  C5  OXE d   1      -0.158  -2.736  -1.578  0.00  0.00    -0.002 A 
ATOM      8  C6  OXE d   1       0.037  -1.812  -2.599  0.00  0.00     0.003 A 
ENDROOT
TORSDOF 0
ENDMDL
