MODEL 1
REMARK minimizedAffinity 21.2959023
REMARK minimizedRMSD -1
REMARK  0 active torsions:
REMARK  status: ('A' for Active; 'I' for Inactive)
ROOT
ATOM      1  C2' OXE d   1       1.894  -5.986  -1.108  0.00  0.00     0.078 C 
ATOM      2  C1' OXE d   1       0.913  -3.577  -0.052  0.00  0.00     0.078 C 
ATOM      3  C1  OXE d   1       0.160  -4.200  -1.201  0.00  0.00    -0.078 A 
ATOM      4  C2  OXE d   1       0.674  -5.354  -1.742  0.00  0.00    -0.078 A 
ATOM      5  C3  OXE d   1      -0.011  -5.999  -2.768  0.00  0.00     0.003 A 
ATOM      6  C4  OXE d   1      -1.134  -5.402  -3.355  0.00  0.00    -0.002 A 
ATOM      7  C5  OXE d   1      -1.650  -4.206  -2.845  0.00  0.00    -0.002 A 
ATOM      8  C6  OXE d   1      -1.041  -3.616  -1.744  0.00  0.00     0.003 A 
ENDROOT
TORSDOF 0
ENDMDL
