MODEL 1
REMARK minimizedAffinity 24.4141769
REMARK minimizedRMSD -1
REMARK  0 active torsions:
REMARK  status: ('A' for Active; 'I' for Inactive)
ROOT
ATOM      1  C2' OXE d   1       5.977  -4.794  -1.283  0.00  0.00     0.078 C 
ATOM      2  C1' OXE d   1       4.767  -2.455  -0.311  0.00  0.00     0.078 C 
ATOM      3  C1  OXE d   1       3.907  -3.686  -0.453  0.00  0.00    -0.078 A 
ATOM      4  C2  OXE d   1       4.496  -4.813  -0.974  0.00  0.00    -0.078 A 
ATOM      5  C3  OXE d   1       3.761  -5.991  -1.074  0.00  0.00     0.003 A 
ATOM      6  C4  OXE d   1       2.389  -5.997  -0.795  0.00  0.00    -0.002 A 
ATOM      7  C5  OXE d   1       1.760  -4.849  -0.301  0.00  0.00    -0.002 A 
ATOM      8  C6  OXE d   1       2.513  -3.700  -0.085  0.00  0.00     0.003 A 
ENDROOT
TORSDOF 0
ENDMDL
