MODEL 1
REMARK minimizedAffinity 10.4311447
REMARK minimizedRMSD -1
REMARK  0 active torsions:
REMARK  status: ('A' for Active; 'I' for Inactive)
ROOT
ATOM      1  C2' OXE d   1       2.365  -3.135  -0.136  0.00  0.00     0.078 C 
ATOM      2  C1' OXE d   1       0.840  -1.443  -1.776  0.00  0.00     0.078 C 
ATOM      3  C1  OXE d   1       2.105  -0.885  -1.172  0.00  0.00    -0.078 A 
ATOM      4  C2  OXE d   1       2.820  -1.705  -0.333  0.00  0.00    -0.078 A 
ATOM      5  C3  OXE d   1       4.022  -1.259   0.207  0.00  0.00     0.003 A 
ATOM      6  C4  OXE d   1       4.431   0.069   0.028  0.00  0.00    -0.002 A 
ATOM      7  C5  OXE d   1       3.696   0.933  -0.791  0.00  0.00    -0.002 A 
ATOM      8  C6  OXE d   1       2.556   0.460  -1.431  0.00  0.00     0.003 A 
ENDROOT
TORSDOF 0
ENDMDL
