MODEL 1
REMARK minimizedAffinity 13.5621271
REMARK minimizedRMSD -1
REMARK  0 active torsions:
REMARK  status: ('A' for Active; 'I' for Inactive)
ROOT
ATOM      1  C2' OXE d   1      -6.000  -1.116   2.235  0.00  0.00     0.078 C 
ATOM      2  C1' OXE d   1      -5.077  -1.917   4.763  0.00  0.00     0.078 C 
ATOM      3  C1  OXE d   1      -4.493  -0.660   4.166  0.00  0.00    -0.078 A 
ATOM      4  C2  OXE d   1      -4.916  -0.302   2.909  0.00  0.00    -0.078 A 
ATOM      5  C3  OXE d   1      -4.451   0.878   2.335  0.00  0.00     0.003 A 
ATOM      6  C4  OXE d   1      -3.441   1.620   2.960  0.00  0.00    -0.002 A 
ATOM      7  C5  OXE d   1      -2.967   1.250   4.224  0.00  0.00    -0.002 A 
ATOM      8  C6  OXE d   1      -3.512   0.139   4.858  0.00  0.00     0.003 A 
ENDROOT
TORSDOF 0
ENDMDL
