MODEL 1
REMARK minimizedAffinity 14.3702221
REMARK minimizedRMSD -1
REMARK  0 active torsions:
REMARK  status: ('A' for Active; 'I' for Inactive)
ROOT
ATOM      1  C2' OXE d   1      -2.009   1.876   3.316  0.00  0.00     0.078 C 
ATOM      2  C1' OXE d   1      -1.747   2.656   6.000  0.00  0.00     0.078 C 
ATOM      3  C1  OXE d   1      -0.544   2.046   5.324  0.00  0.00    -0.078 A 
ATOM      4  C2  OXE d   1      -0.696   1.624   4.025  0.00  0.00    -0.078 A 
ATOM      5  C3  OXE d   1       0.397   1.104   3.337  0.00  0.00     0.003 A 
ATOM      6  C4  OXE d   1       1.605   0.865   4.003  0.00  0.00    -0.002 A 
ATOM      7  C5  OXE d   1       1.768   1.250   5.338  0.00  0.00    -0.002 A 
ATOM      8  C6  OXE d   1       0.719   1.879   5.999  0.00  0.00     0.003 A 
ENDROOT
TORSDOF 0
ENDMDL
