MODEL 1
REMARK minimizedAffinity 7.03059053
REMARK minimizedRMSD -1
REMARK  0 active torsions:
REMARK  status: ('A' for Active; 'I' for Inactive)
ROOT
ATOM      1  C2' OXE d   1      -2.168   1.596   2.625  0.00  0.00     0.078 C 
ATOM      2  C1' OXE d   1       0.333   0.497   1.981  0.00  0.00     0.078 C 
ATOM      3  C1  OXE d   1       0.104   0.935   3.405  0.00  0.00    -0.078 A 
ATOM      4  C2  OXE d   1      -1.107   1.514   3.701  0.00  0.00    -0.078 A 
ATOM      5  C3  OXE d   1      -1.391   1.886   5.012  0.00  0.00     0.003 A 
ATOM      6  C4  OXE d   1      -0.400   1.816   5.999  0.00  0.00    -0.002 A 
ATOM      7  C5  OXE d   1       0.853   1.266   5.710  0.00  0.00    -0.002 A 
ATOM      8  C6  OXE d   1       1.106   0.783   4.431  0.00  0.00     0.003 A 
ENDROOT
TORSDOF 0
ENDMDL
