MODEL 1
REMARK minimizedAffinity 13.7959204
REMARK minimizedRMSD -1
REMARK  0 active torsions:
REMARK  status: ('A' for Active; 'I' for Inactive)
ROOT
ATOM      1  C2' OXE d   1       0.663   1.132   1.685  0.00  0.00     0.078 C 
ATOM      2  C1' OXE d   1       0.367   0.399   4.379  0.00  0.00     0.078 C 
ATOM      3  C1  OXE d   1      -0.866   0.837   3.630  0.00  0.00    -0.078 A 
ATOM      4  C2  OXE d   1      -0.705   1.238   2.325  0.00  0.00    -0.078 A 
ATOM      5  C3  OXE d   1      -1.818   1.599   1.572  0.00  0.00     0.003 A 
ATOM      6  C4  OXE d   1      -3.078   1.704   2.175  0.00  0.00    -0.002 A 
ATOM      7  C5  OXE d   1      -3.257   1.338   3.513  0.00  0.00    -0.002 A 
ATOM      8  C6  OXE d   1      -2.172   0.863   4.241  0.00  0.00     0.003 A 
ENDROOT
TORSDOF 0
ENDMDL
