MODEL 1
REMARK minimizedAffinity 16.0893917
REMARK minimizedRMSD -1
REMARK  0 active torsions:
REMARK  status: ('A' for Active; 'I' for Inactive)
ROOT
ATOM      1  C2' OXE d   1       0.022  -3.730  -2.584  0.00  0.00     0.078 C 
ATOM      2  C1' OXE d   1       1.682  -2.175  -4.228  0.00  0.00     0.078 C 
ATOM      3  C1  OXE d   1       1.368  -1.651  -2.848  0.00  0.00    -0.078 A 
ATOM      4  C2  OXE d   1       0.518  -2.397  -2.068  0.00  0.00    -0.078 A 
ATOM      5  C3  OXE d   1       0.239  -1.987  -0.767  0.00  0.00     0.003 A 
ATOM      6  C4  OXE d   1       0.694  -0.748  -0.301  0.00  0.00    -0.002 A 
ATOM      7  C5  OXE d   1       1.529   0.046  -1.095  0.00  0.00    -0.002 A 
ATOM      8  C6  OXE d   1       1.910  -0.411  -2.352  0.00  0.00     0.003 A 
ENDROOT
TORSDOF 0
ENDMDL
