MODEL 1
REMARK minimizedAffinity -2.85291362
REMARK minimizedRMSD -1
REMARK  0 active torsions:
REMARK  status: ('A' for Active; 'I' for Inactive)
ROOT
ATOM      1  O1  BZF d   1      -1.346   0.321   0.761  0.00  0.00    -0.204 OA
ATOM      2  C2  BZF d   1      -0.395   1.295   0.525  0.00  0.00     0.174 A 
ATOM      3  C3  BZF d   1       0.791   0.738   0.205  0.00  0.00    -0.012 A 
ATOM      4  C3A BZF d   1       0.544  -0.670   0.153  0.00  0.00    -0.107 A 
ATOM      5  C4  BZF d   1       1.328  -1.751  -0.129  0.00  0.00     0.055 A 
ATOM      6  C5  BZF d   1       0.799  -2.998  -0.020  0.00  0.00    -0.016 A 
ATOM      7  C6  BZF d   1      -0.508  -3.200   0.373  0.00  0.00     0.022 A 
ATOM      8  C7  BZF d   1      -1.327  -2.159   0.658  0.00  0.00     0.029 A 
ATOM      9  C7A BZF d   1      -0.804  -0.896   0.517  0.00  0.00     0.058 A 
ENDROOT
TORSDOF 0
ENDMDL
