MODEL 1
REMARK minimizedAffinity -4.42706537
REMARK minimizedRMSD -1
REMARK  0 active torsions:
REMARK  status: ('A' for Active; 'I' for Inactive)
ROOT
ATOM      1  O1  BZF d   1      -0.252  -2.676   1.109  0.00  0.00    -0.204 OA
ATOM      2  C2  BZF d   1       0.413  -3.346   0.100  0.00  0.00     0.174 A 
ATOM      3  C3  BZF d   1       0.832  -2.486  -0.851  0.00  0.00    -0.012 A 
ATOM      4  C3A BZF d   1       0.482  -1.187  -0.364  0.00  0.00    -0.107 A 
ATOM      5  C4  BZF d   1       0.651   0.076  -0.854  0.00  0.00     0.055 A 
ATOM      6  C5  BZF d   1       0.129   1.126  -0.167  0.00  0.00    -0.016 A 
ATOM      7  C6  BZF d   1      -0.570   0.950   1.009  0.00  0.00     0.022 A 
ATOM      8  C7  BZF d   1      -0.759  -0.284   1.537  0.00  0.00     0.029 A 
ATOM      9  C7A BZF d   1      -0.205  -1.344   0.862  0.00  0.00     0.058 A 
ENDROOT
TORSDOF 0
ENDMDL
