MODEL 1
REMARK minimizedAffinity -3.92806506
REMARK minimizedRMSD -1
REMARK  0 active torsions:
REMARK  status: ('A' for Active; 'I' for Inactive)
ROOT
ATOM      1  O1  BZF d   1      -1.212  -2.487   0.360  0.00  0.00    -0.204 OA
ATOM      2  C2  BZF d   1      -0.218  -3.316  -0.122  0.00  0.00     0.174 A 
ATOM      3  C3  BZF d   1       0.870  -2.603  -0.476  0.00  0.00    -0.012 A 
ATOM      4  C3A BZF d   1       0.570  -1.252  -0.112  0.00  0.00    -0.107 A 
ATOM      5  C4  BZF d   1       1.264  -0.080  -0.198  0.00  0.00     0.055 A 
ATOM      6  C5  BZF d   1       0.658   1.076   0.180  0.00  0.00    -0.016 A 
ATOM      7  C6  BZF d   1      -0.642   1.097   0.642  0.00  0.00     0.022 A 
ATOM      8  C7  BZF d   1      -1.369  -0.041   0.750  0.00  0.00     0.029 A 
ATOM      9  C7A BZF d   1      -0.748  -1.215   0.400  0.00  0.00     0.058 A 
ENDROOT
TORSDOF 0
ENDMDL
