MODEL 1
REMARK minimizedAffinity -1.76774442
REMARK minimizedRMSD -1
REMARK  0 active torsions:
REMARK  status: ('A' for Active; 'I' for Inactive)
ROOT
ATOM      1  O1  BZF d   1       1.611   0.163   0.251  0.00  0.00    -0.204 OA
ATOM      2  C2  BZF d   1       0.976   1.344  -0.083  0.00  0.00     0.174 A 
ATOM      3  C3  BZF d   1      -0.362   1.172  -0.124  0.00  0.00    -0.012 A 
ATOM      4  C3A BZF d   1      -0.581  -0.178   0.295  0.00  0.00    -0.107 A 
ATOM      5  C4  BZF d   1      -1.703  -0.935   0.474  0.00  0.00     0.055 A 
ATOM      6  C5  BZF d   1      -1.570  -2.242   0.821  0.00  0.00    -0.016 A 
ATOM      7  C6  BZF d   1      -0.331  -2.825   0.992  0.00  0.00     0.022 A 
ATOM      8  C7  BZF d   1       0.810  -2.113   0.830  0.00  0.00     0.029 A 
ATOM      9  C7A BZF d   1       0.678  -0.784   0.512  0.00  0.00     0.058 A 
ENDROOT
TORSDOF 0
ENDMDL
