MODEL 1
REMARK minimizedAffinity -4.87557793
REMARK minimizedRMSD -1
REMARK  0 active torsions:
REMARK  status: ('A' for Active; 'I' for Inactive)
ROOT
ATOM      1  O1  BZF d   1       1.589   0.910  -0.128  0.00  0.00    -0.204 OA
ATOM      2  C2  BZF d   1       0.843   2.049   0.106  0.00  0.00     0.174 A 
ATOM      3  C3  BZF d   1      -0.414   1.730   0.474  0.00  0.00    -0.012 A 
ATOM      4  C3A BZF d   1      -0.430   0.302   0.560  0.00  0.00    -0.107 A 
ATOM      5  C4  BZF d   1      -1.392  -0.607   0.895  0.00  0.00     0.055 A 
ATOM      6  C5  BZF d   1      -1.107  -1.933   0.808  0.00  0.00    -0.016 A 
ATOM      7  C6  BZF d   1       0.127  -2.384   0.386  0.00  0.00     0.022 A 
ATOM      8  C7  BZF d   1       1.114  -1.520   0.048  0.00  0.00     0.029 A 
ATOM      9  C7A BZF d   1       0.840  -0.179   0.166  0.00  0.00     0.058 A 
ENDROOT
TORSDOF 0
ENDMDL
