MODEL 1
REMARK minimizedAffinity -4.51541233
REMARK minimizedRMSD -1
REMARK  0 active torsions:
REMARK  status: ('A' for Active; 'I' for Inactive)
ROOT
ATOM      1  O1  BZF d   1       0.065   0.508  -0.919  0.00  0.00    -0.204 OA
ATOM      2  C2  BZF d   1      -0.443   0.556   0.365  0.00  0.00     0.174 A 
ATOM      3  C3  BZF d   1      -0.695  -0.686   0.826  0.00  0.00    -0.012 A 
ATOM      4  C3A BZF d   1      -0.234  -1.570  -0.200  0.00  0.00    -0.107 A 
ATOM      5  C4  BZF d   1      -0.198  -2.930  -0.322  0.00  0.00     0.055 A 
ATOM      6  C5  BZF d   1       0.248  -3.477  -1.484  0.00  0.00    -0.016 A 
ATOM      7  C6  BZF d   1       0.659  -2.696  -2.544  0.00  0.00     0.022 A 
ATOM      8  C7  BZF d   1       0.646  -1.342  -2.468  0.00  0.00     0.029 A 
ATOM      9  C7A BZF d   1       0.227  -0.787  -1.284  0.00  0.00     0.058 A 
ENDROOT
TORSDOF 0
ENDMDL
