MODEL 1
REMARK minimizedAffinity -5.00816822
REMARK minimizedRMSD -1
REMARK  0 active torsions:
REMARK  status: ('A' for Active; 'I' for Inactive)
ROOT
ATOM      1  O1  BZF d   1      -0.789  -0.396   1.166  0.00  0.00    -0.204 OA
ATOM      2  C2  BZF d   1      -0.437  -1.689   1.500  0.00  0.00     0.174 A 
ATOM      3  C3  BZF d   1       0.003  -2.361   0.417  0.00  0.00    -0.012 A 
ATOM      4  C3A BZF d   1       0.009  -1.400  -0.644  0.00  0.00    -0.107 A 
ATOM      5  C4  BZF d   1       0.361  -1.460  -1.962  0.00  0.00     0.055 A 
ATOM      6  C5  BZF d   1       0.179  -0.364  -2.744  0.00  0.00    -0.016 A 
ATOM      7  C6  BZF d   1      -0.357   0.805  -2.244  0.00  0.00     0.022 A 
ATOM      8  C7  BZF d   1      -0.717   0.913  -0.941  0.00  0.00     0.029 A 
ATOM      9  C7A BZF d   1      -0.503  -0.182  -0.141  0.00  0.00     0.058 A 
ENDROOT
TORSDOF 0
ENDMDL
