MODEL 1
REMARK minimizedAffinity -3.40676761
REMARK minimizedRMSD -1
REMARK  0 active torsions:
REMARK  status: ('A' for Active; 'I' for Inactive)
ROOT
ATOM      1  O1  BZF d   1       1.527   0.333  -0.150  0.00  0.00    -0.204 OA
ATOM      2  C2  BZF d   1       0.848   1.535  -0.186  0.00  0.00     0.174 A 
ATOM      3  C3  BZF d   1      -0.454   1.359   0.121  0.00  0.00    -0.012 A 
ATOM      4  C3A BZF d   1      -0.578  -0.027   0.454  0.00  0.00    -0.107 A 
ATOM      5  C4  BZF d   1      -1.625  -0.805   0.858  0.00  0.00     0.055 A 
ATOM      6  C5  BZF d   1      -1.428  -2.139   1.030  0.00  0.00    -0.016 A 
ATOM      7  C6  BZF d   1      -0.201  -2.727   0.803  0.00  0.00     0.022 A 
ATOM      8  C7  BZF d   1       0.869  -1.995   0.407  0.00  0.00     0.029 A 
ATOM      9  C7A BZF d   1       0.681  -0.642   0.264  0.00  0.00     0.058 A 
ENDROOT
TORSDOF 0
ENDMDL
