MODEL 1
REMARK minimizedAffinity -2.83799577
REMARK minimizedRMSD -1
REMARK  0 active torsions:
REMARK  status: ('A' for Active; 'I' for Inactive)
ROOT
ATOM      1  O1  BZF d   1       1.670   0.726   0.202  0.00  0.00    -0.204 OA
ATOM      2  C2  BZF d   1       0.930   1.654  -0.506  0.00  0.00     0.174 A 
ATOM      3  C3  BZF d   1      -0.292   1.167  -0.801  0.00  0.00    -0.012 A 
ATOM      4  C3A BZF d   1      -0.351  -0.113  -0.164  0.00  0.00    -0.107 A 
ATOM      5  C4  BZF d   1      -1.315  -1.076  -0.079  0.00  0.00     0.055 A 
ATOM      6  C5  BZF d   1      -1.030  -2.243   0.557  0.00  0.00    -0.016 A 
ATOM      7  C6  BZF d   1       0.209  -2.481   1.115  0.00  0.00     0.022 A 
ATOM      8  C7  BZF d   1       1.196  -1.554   1.060  0.00  0.00     0.029 A 
ATOM      9  C7A BZF d   1       0.900  -0.361   0.447  0.00  0.00     0.058 A 
ENDROOT
TORSDOF 0
ENDMDL
