MODEL 1
REMARK minimizedAffinity 1.09013176
REMARK minimizedRMSD -1
REMARK  0 active torsions:
REMARK  status: ('A' for Active; 'I' for Inactive)
ROOT
ATOM      1  O1  BZF d   1       1.197   0.964  -1.842  0.00  0.00    -0.204 OA
ATOM      2  C2  BZF d   1      -0.024   0.440  -1.464  0.00  0.00     0.174 A 
ATOM      3  C3  BZF d   1      -0.504   1.081  -0.379  0.00  0.00    -0.012 A 
ATOM      4  C3A BZF d   1       0.434   2.128  -0.115  0.00  0.00    -0.107 A 
ATOM      5  C4  BZF d   1       0.499   3.115   0.827  0.00  0.00     0.055 A 
ATOM      6  C5  BZF d   1       1.586   3.930   0.856  0.00  0.00    -0.016 A 
ATOM      7  C6  BZF d   1       2.627   3.784  -0.037  0.00  0.00     0.022 A 
ATOM      8  C7  BZF d   1       2.606   2.822  -0.993  0.00  0.00     0.029 A 
ATOM      9  C7A BZF d   1       1.493   2.018  -1.045  0.00  0.00     0.058 A 
ENDROOT
TORSDOF 0
ENDMDL
