MODEL 1
REMARK minimizedAffinity -6.55918312
REMARK minimizedRMSD -1
REMARK  0 active torsions:
REMARK  status: ('A' for Active; 'I' for Inactive)
ROOT
ATOM      1  O1  BZF d   1      -0.342   0.092  -1.747  0.00  0.00    -0.204 OA
ATOM      2  C2  BZF d   1      -0.483   0.674  -0.503  0.00  0.00     0.174 A 
ATOM      3  C3  BZF d   1      -0.362  -0.248   0.474  0.00  0.00    -0.012 A 
ATOM      4  C3A BZF d   1      -0.040  -1.469  -0.199  0.00  0.00    -0.107 A 
ATOM      5  C4  BZF d   1       0.217  -2.739   0.232  0.00  0.00     0.055 A 
ATOM      6  C5  BZF d   1       0.424  -3.719  -0.687  0.00  0.00    -0.016 A 
ATOM      7  C6  BZF d   1       0.378  -3.465  -2.042  0.00  0.00     0.022 A 
ATOM      8  C7  BZF d   1       0.132  -2.220  -2.517  0.00  0.00     0.029 A 
ATOM      9  C7A BZF d   1      -0.046  -1.221  -1.591  0.00  0.00     0.058 A 
ENDROOT
TORSDOF 0
ENDMDL
