MODEL 1
REMARK minimizedAffinity -3.9989624
REMARK minimizedRMSD -1
REMARK  0 active torsions:
REMARK  status: ('A' for Active; 'I' for Inactive)
ROOT
ATOM      1  O1  BZF d   1      -0.314  -1.425   1.306  0.00  0.00    -0.204 OA
ATOM      2  C2  BZF d   1      -0.026  -2.763   1.116  0.00  0.00     0.174 A 
ATOM      3  C3  BZF d   1       0.292  -3.005  -0.172  0.00  0.00    -0.012 A 
ATOM      4  C3A BZF d   1       0.287  -1.724  -0.808  0.00  0.00    -0.107 A 
ATOM      5  C4  BZF d   1       0.542  -1.308  -2.084  0.00  0.00     0.055 A 
ATOM      6  C5  BZF d   1       0.378   0.004  -2.396  0.00  0.00    -0.016 A 
ATOM      7  C6  BZF d   1      -0.044   0.926  -1.461  0.00  0.00     0.022 A 
ATOM      8  C7  BZF d   1      -0.304   0.562  -0.181  0.00  0.00     0.029 A 
ATOM      9  C7A BZF d   1      -0.107  -0.757   0.146  0.00  0.00     0.058 A 
ENDROOT
TORSDOF 0
ENDMDL
