MODEL 1
REMARK minimizedAffinity -1.40034258
REMARK minimizedRMSD -1
REMARK  0 active torsions:
REMARK  status: ('A' for Active; 'I' for Inactive)
ROOT
ATOM      1  O1  BZF d   1       0.751  -3.177   0.259  0.00  0.00    -0.204 OA
ATOM      2  C2  BZF d   1      -0.473  -3.790   0.450  0.00  0.00     0.174 A 
ATOM      3  C3  BZF d   1      -1.453  -2.872   0.571  0.00  0.00    -0.012 A 
ATOM      4  C3A BZF d   1      -0.816  -1.609   0.356  0.00  0.00    -0.107 A 
ATOM      5  C4  BZF d   1      -1.268  -0.321   0.333  0.00  0.00     0.055 A 
ATOM      6  C5  BZF d   1      -0.374   0.690   0.168  0.00  0.00    -0.016 A 
ATOM      7  C6  BZF d   1       0.977   0.449   0.029  0.00  0.00     0.022 A 
ATOM      8  C7  BZF d   1       1.472  -0.812   0.040  0.00  0.00     0.029 A 
ATOM      9  C7A BZF d   1       0.568  -1.838   0.173  0.00  0.00     0.058 A 
ENDROOT
TORSDOF 0
ENDMDL
