MODEL 1
REMARK minimizedAffinity -5.74134541
REMARK minimizedRMSD -1
REMARK  0 active torsions:
REMARK  status: ('A' for Active; 'I' for Inactive)
ROOT
ATOM      1  O1  BZF d   1       0.442  -1.126  -2.583  0.00  0.00    -0.204 OA
ATOM      2  C2  BZF d   1       0.449  -2.468  -2.914  0.00  0.00     0.174 A 
ATOM      3  C3  BZF d   1       0.124  -3.225  -1.847  0.00  0.00    -0.012 A 
ATOM      4  C3A BZF d   1      -0.192  -2.295  -0.807  0.00  0.00    -0.107 A 
ATOM      5  C4  BZF d   1      -0.601  -2.437   0.488  0.00  0.00     0.055 A 
ATOM      6  C5  BZF d   1      -0.752  -1.328   1.259  0.00  0.00    -0.016 A 
ATOM      7  C6  BZF d   1      -0.496  -0.064   0.770  0.00  0.00     0.022 A 
ATOM      8  C7  BZF d   1      -0.093   0.128  -0.509  0.00  0.00     0.029 A 
ATOM      9  C7A BZF d   1       0.028  -0.988  -1.301  0.00  0.00     0.058 A 
ENDROOT
TORSDOF 0
ENDMDL
