MODEL 1
REMARK minimizedAffinity -2.05399323
REMARK minimizedRMSD -1
REMARK  0 active torsions:
REMARK  status: ('A' for Active; 'I' for Inactive)
ROOT
ATOM      1  O1  BZF d   1      -1.056  -2.561   0.702  0.00  0.00    -0.204 OA
ATOM      2  C2  BZF d   1      -0.025  -3.457   0.495  0.00  0.00     0.174 A 
ATOM      3  C3  BZF d   1       1.071  -2.827   0.026  0.00  0.00    -0.012 A 
ATOM      4  C3A BZF d   1       0.732  -1.437   0.021  0.00  0.00    -0.107 A 
ATOM      5  C4  BZF d   1       1.413  -0.305  -0.326  0.00  0.00     0.055 A 
ATOM      6  C5  BZF d   1       0.771   0.892  -0.285  0.00  0.00    -0.016 A 
ATOM      7  C6  BZF d   1      -0.552   0.993   0.092  0.00  0.00     0.022 A 
ATOM      8  C7  BZF d   1      -1.268  -0.101   0.449  0.00  0.00     0.029 A 
ATOM      9  C7A BZF d   1      -0.612  -1.308   0.441  0.00  0.00     0.058 A 
ENDROOT
TORSDOF 0
ENDMDL
