MODEL 1
REMARK minimizedAffinity -5.06536388
REMARK minimizedRMSD -1
REMARK  0 active torsions:
REMARK  status: ('A' for Active; 'I' for Inactive)
ROOT
ATOM      1  O1  BZF d   1      -0.755   1.685   0.822  0.00  0.00    -0.204 OA
ATOM      2  C2  BZF d   1       0.081   2.191  -0.155  0.00  0.00     0.174 A 
ATOM      3  C3  BZF d   1       0.743   1.197  -0.781  0.00  0.00    -0.012 A 
ATOM      4  C3A BZF d   1       0.224  -0.013  -0.218  0.00  0.00    -0.107 A 
ATOM      5  C4  BZF d   1       0.475  -1.336  -0.443  0.00  0.00     0.055 A 
ATOM      6  C5  BZF d   1      -0.148  -2.266   0.327  0.00  0.00    -0.016 A 
ATOM      7  C6  BZF d   1      -1.024  -1.910   1.331  0.00  0.00     0.022 A 
ATOM      8  C7  BZF d   1      -1.309  -0.610   1.588  0.00  0.00     0.029 A 
ATOM      9  C7A BZF d   1      -0.706   0.332   0.790  0.00  0.00     0.058 A 
ENDROOT
TORSDOF 0
ENDMDL
