MODEL 1
REMARK minimizedAffinity -5.4010396
REMARK minimizedRMSD -1
REMARK  0 active torsions:
REMARK  status: ('A' for Active; 'I' for Inactive)
ROOT
ATOM      1  O1  BZF d   1      -0.702  -2.690   1.104  0.00  0.00    -0.204 OA
ATOM      2  C2  BZF d   1       0.215  -3.106   0.159  0.00  0.00     0.174 A 
ATOM      3  C3  BZF d   1       0.699  -2.053  -0.533  0.00  0.00    -0.012 A 
ATOM      4  C3A BZF d   1       0.112  -0.900   0.078  0.00  0.00    -0.107 A 
ATOM      5  C4  BZF d   1       0.217   0.441  -0.155  0.00  0.00     0.055 A 
ATOM      6  C5  BZF d   1      -0.545   1.300   0.572  0.00  0.00    -0.016 A 
ATOM      7  C6  BZF d   1      -1.427   0.851   1.534  0.00  0.00     0.022 A 
ATOM      8  C7  BZF d   1      -1.563  -0.470   1.803  0.00  0.00     0.029 A 
ATOM      9  C7A BZF d   1      -0.769  -1.337   1.094  0.00  0.00     0.058 A 
ENDROOT
TORSDOF 0
ENDMDL
