MODEL 1
REMARK minimizedAffinity 1.69241166
REMARK minimizedRMSD -1
REMARK  1 active torsions:
REMARK  status: ('A' for Active; 'I' for Inactive)
REMARK    1  A    between atoms: C1_2  and  C2_3 
ROOT
ATOM      1  C2  UNL d   1       1.758   1.412   0.770  0.00  0.00    -0.076 A 
ATOM      2  C3  UNL d   1       2.329   1.617   2.038  0.00  0.00     0.004 A 
ATOM      3  C4  UNL d   1       1.528   1.788   3.166  0.00  0.00    -0.003 A 
ATOM      4  C5  UNL d   1       0.143   1.756   3.044  0.00  0.00     0.000 A 
ATOM      5  C6  UNL d   1      -0.440   1.536   1.796  0.00  0.00     0.000 A 
ATOM      6  C7  UNL d   1       0.354   1.345   0.652  0.00  0.00    -0.073 A 
ATOM      7  C8  UNL d   1      -0.328   1.118  -0.670  0.00  0.00     0.078 C 
ENDROOT
BRANCH   1   8
ATOM      8  C1  UNL d   1       2.677   1.260  -0.422  0.00  0.00     0.053 C 
ATOM      9  C   UNL d   1       4.090   1.744  -0.134  0.00  0.00     0.018 C 
ENDBRANCH   1   8
TORSDOF 1
ENDMDL
