MODEL 1
REMARK minimizedAffinity 10.4965849
REMARK minimizedRMSD -1
REMARK  1 active torsions:
REMARK  status: ('A' for Active; 'I' for Inactive)
REMARK    1  A    between atoms: C1_2  and  C2_3 
ROOT
ATOM      1  C2  UNL d   1       0.325   0.368   3.130  0.00  0.00    -0.076 A 
ATOM      2  C3  UNL d   1      -0.715   0.557   2.203  0.00  0.00     0.004 A 
ATOM      3  C4  UNL d   1      -1.272   1.818   1.999  0.00  0.00    -0.003 A 
ATOM      4  C5  UNL d   1      -0.798   2.910   2.716  0.00  0.00     0.000 A 
ATOM      5  C6  UNL d   1       0.245   2.744   3.627  0.00  0.00     0.000 A 
ATOM      6  C7  UNL d   1       0.829   1.483   3.833  0.00  0.00    -0.073 A 
ATOM      7  C8  UNL d   1       1.947   1.359   4.832  0.00  0.00     0.078 C 
ENDROOT
BRANCH   1   8
ATOM      8  C1  UNL d   1       0.872  -1.028   3.330  0.00  0.00     0.053 C 
ATOM      9  C   UNL d   1      -0.205  -2.097   3.220  0.00  0.00     0.018 C 
ENDBRANCH   1   8
TORSDOF 1
ENDMDL
