MODEL 1
REMARK minimizedAffinity 7.40311575
REMARK minimizedRMSD -1
REMARK  1 active torsions:
REMARK  status: ('A' for Active; 'I' for Inactive)
REMARK    1  A    between atoms: C1_2  and  C2_3 
ROOT
ATOM      1  C2  UNL d   1       1.761  -1.031  -0.693  0.00  0.00    -0.076 A 
ATOM      2  C3  UNL d   1       0.895  -0.999  -1.801  0.00  0.00     0.004 A 
ATOM      3  C4  UNL d   1       0.114  -2.104  -2.133  0.00  0.00    -0.003 A 
ATOM      4  C5  UNL d   1       0.185  -3.259  -1.362  0.00  0.00     0.000 A 
ATOM      5  C6  UNL d   1       1.024  -3.302  -0.249  0.00  0.00     0.000 A 
ATOM      6  C7  UNL d   1       1.807  -2.191   0.108  0.00  0.00    -0.073 A 
ATOM      7  C8  UNL d   1       2.699  -2.295   1.315  0.00  0.00     0.078 C 
ENDROOT
BRANCH   1   8
ATOM      8  C1  UNL d   1       2.604   0.189  -0.398  0.00  0.00     0.053 C 
ATOM      9  C   UNL d   1       4.040   0.034  -0.876  0.00  0.00     0.018 C 
ENDBRANCH   1   8
TORSDOF 1
ENDMDL
