MODEL 1
REMARK minimizedAffinity 10.3228455
REMARK minimizedRMSD -1
REMARK  1 active torsions:
REMARK  status: ('A' for Active; 'I' for Inactive)
REMARK    1  A    between atoms: C1_2  and  C2_3 
ROOT
ATOM      1  C2  UNL d   1       2.995  -1.560  -0.795  0.00  0.00    -0.076 A 
ATOM      2  C3  UNL d   1       2.840  -1.584  -2.192  0.00  0.00     0.004 A 
ATOM      3  C4  UNL d   1       2.080  -2.573  -2.813  0.00  0.00    -0.003 A 
ATOM      4  C5  UNL d   1       1.461  -3.554  -2.047  0.00  0.00     0.000 A 
ATOM      5  C6  UNL d   1       1.589  -3.537  -0.659  0.00  0.00     0.000 A 
ATOM      6  C7  UNL d   1       2.339  -2.537  -0.015  0.00  0.00    -0.073 A 
ATOM      7  C8  UNL d   1       2.449  -2.569   1.484  0.00  0.00     0.078 C 
ENDROOT
BRANCH   1   8
ATOM      8  C1  UNL d   1       3.854  -0.479  -0.179  0.00  0.00     0.053 C 
ATOM      9  C   UNL d   1       3.775   0.834  -0.943  0.00  0.00     0.018 C 
ENDBRANCH   1   8
TORSDOF 1
ENDMDL
