MODEL 1
REMARK minimizedAffinity 6.03311062
REMARK minimizedRMSD -1
REMARK  1 active torsions:
REMARK  status: ('A' for Active; 'I' for Inactive)
REMARK    1  A    between atoms: C1_2  and  C2_3 
ROOT
ATOM      1  C2  UNL d   1       2.153  -1.769  -0.833  0.00  0.00    -0.076 A 
ATOM      2  C3  UNL d   1       1.966  -0.720   0.085  0.00  0.00     0.004 A 
ATOM      3  C4  UNL d   1       2.699   0.461  -0.016  0.00  0.00    -0.003 A 
ATOM      4  C5  UNL d   1       3.631   0.613  -1.037  0.00  0.00     0.000 A 
ATOM      5  C6  UNL d   1       3.817  -0.410  -1.967  0.00  0.00     0.000 A 
ATOM      6  C7  UNL d   1       3.074  -1.601  -1.889  0.00  0.00    -0.073 A 
ATOM      7  C8  UNL d   1       3.319  -2.673  -2.915  0.00  0.00     0.078 C 
ENDROOT
BRANCH   1   8
ATOM      8  C1  UNL d   1       1.348  -3.037  -0.657  0.00  0.00     0.053 C 
ATOM      9  C   UNL d   1       0.003  -2.976  -1.364  0.00  0.00     0.018 C 
ENDBRANCH   1   8
TORSDOF 1
ENDMDL
