MODEL 1
REMARK minimizedAffinity -2.82587957
REMARK minimizedRMSD -1
REMARK  1 active torsions:
REMARK  status: ('A' for Active; 'I' for Inactive)
REMARK    1  A    between atoms: C1_2  and  C2_3 
ROOT
ATOM      1  C2  UNL d   1      -0.254   0.048  -0.218  0.00  0.00    -0.081 A 
ATOM      2  C3  UNL d   1      -1.060  -0.251   0.888  0.00  0.00     0.006 A 
ATOM      3  C4  UNL d   1      -0.485  -0.509   2.134  0.00  0.00     0.002 A 
ATOM      4  C5  UNL d   1       0.904  -0.464   2.298  0.00  0.00    -0.080 A 
ATOM      5  C6  UNL d   1       1.532  -0.710   3.638  0.00  0.00     0.076 C 
ATOM      6  C7  UNL d   1       1.710  -0.183   1.190  0.00  0.00     0.002 A 
ATOM      7  C8  UNL d   1       1.136   0.074  -0.057  0.00  0.00     0.006 A 
ENDROOT
BRANCH   1   8
ATOM      8  C1  UNL d   1      -0.874   0.390  -1.548  0.00  0.00     0.054 C 
ATOM      9  C   UNL d   1      -0.911   1.896  -1.771  0.00  0.00     0.018 C 
ENDBRANCH   1   8
TORSDOF 1
ENDMDL
