MODEL 1
REMARK minimizedAffinity -4.9463048
REMARK minimizedRMSD -1
REMARK  1 active torsions:
REMARK  status: ('A' for Active; 'I' for Inactive)
REMARK    1  A    between atoms: C1_2  and  C2_3 
ROOT
ATOM      1  C2  UNL d   1      -0.706   0.509  -1.051  0.00  0.00    -0.081 A 
ATOM      2  C3  UNL d   1      -1.523   0.541   0.086  0.00  0.00     0.006 A 
ATOM      3  C4  UNL d   1      -1.063   0.029   1.302  0.00  0.00     0.002 A 
ATOM      4  C5  UNL d   1       0.222  -0.515   1.403  0.00  0.00    -0.080 A 
ATOM      5  C6  UNL d   1       0.738  -1.040   2.709  0.00  0.00     0.076 C 
ATOM      6  C7  UNL d   1       1.031  -0.563   0.262  0.00  0.00     0.002 A 
ATOM      7  C8  UNL d   1       0.572  -0.052  -0.954  0.00  0.00     0.006 A 
ENDROOT
BRANCH   1   8
ATOM      8  C1  UNL d   1      -1.175   1.119  -2.348  0.00  0.00     0.054 C 
ATOM      9  C   UNL d   1      -0.450   2.426  -2.638  0.00  0.00     0.018 C 
ENDBRANCH   1   8
TORSDOF 1
ENDMDL
