MODEL 1
REMARK minimizedAffinity -5.70761299
REMARK minimizedRMSD -1
REMARK  1 active torsions:
REMARK  status: ('A' for Active; 'I' for Inactive)
REMARK    1  A    between atoms: C1_2  and  C2_3 
ROOT
ATOM      1  C2  UNL d   1      -0.416   0.392  -0.843  0.00  0.00    -0.081 A 
ATOM      2  C3  UNL d   1      -1.257   0.335   0.275  0.00  0.00     0.006 A 
ATOM      3  C4  UNL d   1      -0.763  -0.088   1.512  0.00  0.00     0.002 A 
ATOM      4  C5  UNL d   1       0.580  -0.453   1.653  0.00  0.00    -0.080 A 
ATOM      5  C6  UNL d   1       1.129  -0.880   2.981  0.00  0.00     0.076 C 
ATOM      6  C7  UNL d   1       1.416  -0.413   0.532  0.00  0.00     0.002 A 
ATOM      7  C8  UNL d   1       0.923   0.009  -0.705  0.00  0.00     0.006 A 
ENDROOT
BRANCH   1   8
ATOM      8  C1  UNL d   1      -0.929   0.909  -2.163  0.00  0.00     0.054 C 
ATOM      9  C   UNL d   1      -0.820   2.425  -2.243  0.00  0.00     0.018 C 
ENDBRANCH   1   8
TORSDOF 1
ENDMDL
