MODEL 1
REMARK minimizedAffinity -3.79649615
REMARK minimizedRMSD -1
REMARK  1 active torsions:
REMARK  status: ('A' for Active; 'I' for Inactive)
REMARK    1  A    between atoms: C1_2  and  C2_3 
ROOT
ATOM      1  C2  UNL d   1      -0.337  -0.022  -0.602  0.00  0.00    -0.081 A 
ATOM      2  C3  UNL d   1      -1.062   0.036   0.594  0.00  0.00     0.006 A 
ATOM      3  C4  UNL d   1      -0.460  -0.314   1.805  0.00  0.00     0.002 A 
ATOM      4  C5  UNL d   1       0.879  -0.718   1.841  0.00  0.00    -0.080 A 
ATOM      5  C6  UNL d   1       1.546  -1.067   3.138  0.00  0.00     0.076 C 
ATOM      6  C7  UNL d   1       1.598  -0.793   0.643  0.00  0.00     0.002 A 
ATOM      7  C8  UNL d   1       0.996  -0.444  -0.568  0.00  0.00     0.006 A 
ENDROOT
BRANCH   1   8
ATOM      8  C1  UNL d   1      -0.965   0.416  -1.901  0.00  0.00     0.054 C 
ATOM      9  C   UNL d   1      -1.007   1.934  -2.011  0.00  0.00     0.018 C 
ENDBRANCH   1   8
TORSDOF 1
ENDMDL
