MODEL 1
REMARK minimizedAffinity -0.896079302
REMARK minimizedRMSD -1
REMARK  1 active torsions:
REMARK  status: ('A' for Active; 'I' for Inactive)
REMARK    1  A    between atoms: C1_2  and  C2_3 
ROOT
ATOM      1  C2  UNL d   1       1.413  -0.414   0.295  0.00  0.00    -0.081 A 
ATOM      2  C3  UNL d   1       1.185  -0.280   1.669  0.00  0.00     0.006 A 
ATOM      3  C4  UNL d   1      -0.115  -0.132   2.160  0.00  0.00     0.002 A 
ATOM      4  C5  UNL d   1      -1.207  -0.125   1.286  0.00  0.00    -0.080 A 
ATOM      5  C6  UNL d   1      -2.609   0.002   1.803  0.00  0.00     0.076 C 
ATOM      6  C7  UNL d   1      -0.977  -0.242  -0.089  0.00  0.00     0.002 A 
ATOM      7  C8  UNL d   1       0.322  -0.388  -0.580  0.00  0.00     0.006 A 
ENDROOT
BRANCH   1   8
ATOM      8  C1  UNL d   1       2.808  -0.638  -0.232  0.00  0.00     0.054 C 
ATOM      9  C   UNL d   1       2.803  -1.580  -1.428  0.00  0.00     0.018 C 
ENDBRANCH   1   8
TORSDOF 1
ENDMDL
