MODEL 1
REMARK minimizedAffinity -4.07420301
REMARK minimizedRMSD -1
REMARK  1 active torsions:
REMARK  status: ('A' for Active; 'I' for Inactive)
REMARK    1  A    between atoms: C1_2  and  C2_3 
ROOT
ATOM      1  C2  UNL d   1      -0.602   0.485  -0.598  0.00  0.00    -0.081 A 
ATOM      2  C3  UNL d   1      -1.334   0.255   0.574  0.00  0.00     0.006 A 
ATOM      3  C4  UNL d   1      -0.685  -0.125   1.751  0.00  0.00     0.002 A 
ATOM      4  C5  UNL d   1       0.706  -0.272   1.779  0.00  0.00    -0.080 A 
ATOM      5  C6  UNL d   1       1.419  -0.650   3.043  0.00  0.00     0.076 C 
ATOM      6  C7  UNL d   1       1.435  -0.059   0.604  0.00  0.00     0.002 A 
ATOM      7  C8  UNL d   1       0.787   0.320  -0.573  0.00  0.00     0.006 A 
ENDROOT
BRANCH   1   8
ATOM      8  C1  UNL d   1      -1.293   0.957  -1.852  0.00  0.00     0.054 C 
ATOM      9  C   UNL d   1      -0.801   2.336  -2.268  0.00  0.00     0.018 C 
ENDBRANCH   1   8
TORSDOF 1
ENDMDL
