MODEL 1
REMARK minimizedAffinity -1.2678988
REMARK minimizedRMSD -1
REMARK  1 active torsions:
REMARK  status: ('A' for Active; 'I' for Inactive)
REMARK    1  A    between atoms: C1_2  and  C2_3 
ROOT
ATOM      1  C2  UNL d   1      -0.268  -0.392   0.223  0.00  0.00    -0.081 A 
ATOM      2  C3  UNL d   1      -0.757  -0.783   1.476  0.00  0.00     0.006 A 
ATOM      3  C4  UNL d   1       0.123  -1.155   2.495  0.00  0.00     0.002 A 
ATOM      4  C5  UNL d   1       1.505  -1.137   2.281  0.00  0.00    -0.080 A 
ATOM      5  C6  UNL d   1       2.462  -1.505   3.376  0.00  0.00     0.076 C 
ATOM      6  C7  UNL d   1       1.994  -0.764   1.025  0.00  0.00     0.002 A 
ATOM      7  C8  UNL d   1       1.115  -0.391   0.005  0.00  0.00     0.006 A 
ENDROOT
BRANCH   1   8
ATOM      8  C1  UNL d   1      -1.211   0.072  -0.857  0.00  0.00     0.054 C 
ATOM      9  C   UNL d   1      -1.178   1.586  -1.007  0.00  0.00     0.018 C 
ENDBRANCH   1   8
TORSDOF 1
ENDMDL
