MODEL 1
REMARK minimizedAffinity 1.06050611
REMARK minimizedRMSD -1
REMARK  1 active torsions:
REMARK  status: ('A' for Active; 'I' for Inactive)
REMARK    1  A    between atoms: C1_2  and  C2_3 
ROOT
ATOM      1  C2  UNL d   1       0.053   3.097  -3.566  0.00  0.00    -0.081 A 
ATOM      2  C3  UNL d   1      -0.160   2.837  -2.207  0.00  0.00     0.006 A 
ATOM      3  C4  UNL d   1      -1.244   2.057  -1.796  0.00  0.00     0.002 A 
ATOM      4  C5  UNL d   1      -2.127   1.518  -2.737  0.00  0.00    -0.080 A 
ATOM      5  C6  UNL d   1      -3.277   0.654  -2.311  0.00  0.00     0.076 C 
ATOM      6  C7  UNL d   1      -1.924   1.791  -4.094  0.00  0.00     0.002 A 
ATOM      7  C8  UNL d   1      -0.842   2.571  -4.505  0.00  0.00     0.006 A 
ENDROOT
BRANCH   1   8
ATOM      8  C1  UNL d   1       1.257   3.883  -4.017  0.00  0.00     0.054 C 
ATOM      9  C   UNL d   1       0.949   5.372  -4.093  0.00  0.00     0.018 C 
ENDBRANCH   1   8
TORSDOF 1
ENDMDL
