MODEL 1
REMARK minimizedAffinity -1.33949423
REMARK minimizedRMSD -1
REMARK  1 active torsions:
REMARK  status: ('A' for Active; 'I' for Inactive)
REMARK    1  A    between atoms: C1_2  and  C2_3 
ROOT
ATOM      1  C2  UNL d   1      -1.165   1.182  -0.837  0.00  0.00    -0.081 A 
ATOM      2  C3  UNL d   1      -2.418   0.687  -1.219  0.00  0.00     0.006 A 
ATOM      3  C4  UNL d   1      -2.980   1.052  -2.445  0.00  0.00     0.002 A 
ATOM      4  C5  UNL d   1      -2.296   1.910  -3.312  0.00  0.00    -0.080 A 
ATOM      5  C6  UNL d   1      -2.874   2.284  -4.644  0.00  0.00     0.076 C 
ATOM      6  C7  UNL d   1      -1.051   2.418  -2.923  0.00  0.00     0.002 A 
ATOM      7  C8  UNL d   1      -0.489   2.054  -1.698  0.00  0.00     0.006 A 
ENDROOT
BRANCH   1   8
ATOM      8  C1  UNL d   1      -0.528   0.740   0.455  0.00  0.00     0.054 C 
ATOM      9  C   UNL d   1       0.756  -0.038   0.202  0.00  0.00     0.018 C 
ENDBRANCH   1   8
TORSDOF 1
ENDMDL
