MODEL 1
REMARK minimizedAffinity -3.9183445
REMARK minimizedRMSD -1
REMARK  1 active torsions:
REMARK  status: ('A' for Active; 'I' for Inactive)
REMARK    1  A    between atoms: C1_2  and  C2_3 
ROOT
ATOM      1  C2  UNL d   1      -0.365   2.660  -3.832  0.00  0.00    -0.081 A 
ATOM      2  C3  UNL d   1      -1.368   1.883  -4.426  0.00  0.00     0.006 A 
ATOM      3  C4  UNL d   1      -2.355   1.281  -3.642  0.00  0.00     0.002 A 
ATOM      4  C5  UNL d   1      -2.361   1.453  -2.253  0.00  0.00    -0.080 A 
ATOM      5  C6  UNL d   1      -3.432   0.838  -1.403  0.00  0.00     0.076 C 
ATOM      6  C7  UNL d   1      -1.349   2.215  -1.658  0.00  0.00     0.002 A 
ATOM      7  C8  UNL d   1      -0.361   2.816  -2.442  0.00  0.00     0.006 A 
ENDROOT
BRANCH   1   8
ATOM      8  C1  UNL d   1       0.663   3.363  -4.681  0.00  0.00     0.054 C 
ATOM      9  C   UNL d   1       1.110   4.669  -4.041  0.00  0.00     0.018 C 
ENDBRANCH   1   8
TORSDOF 1
ENDMDL
