MODEL 1
REMARK minimizedAffinity -4.35525799
REMARK minimizedRMSD -1
REMARK  1 active torsions:
REMARK  status: ('A' for Active; 'I' for Inactive)
REMARK    1  A    between atoms: C1_2  and  C2_3 
ROOT
ATOM      1  C2  UNL d   1      -0.743   1.046  -0.693  0.00  0.00    -0.081 A 
ATOM      2  C3  UNL d   1       0.587   1.078  -1.128  0.00  0.00     0.006 A 
ATOM      3  C4  UNL d   1       1.548   0.261  -0.528  0.00  0.00     0.002 A 
ATOM      4  C5  UNL d   1       1.194  -0.606   0.512  0.00  0.00    -0.080 A 
ATOM      5  C6  UNL d   1       2.210  -1.510   1.144  0.00  0.00     0.076 C 
ATOM      6  C7  UNL d   1      -0.131  -0.625   0.958  0.00  0.00     0.002 A 
ATOM      7  C8  UNL d   1      -1.093   0.192   0.359  0.00  0.00     0.006 A 
ENDROOT
BRANCH   1   8
ATOM      8  C1  UNL d   1      -1.795   1.878  -1.381  0.00  0.00     0.054 C 
ATOM      9  C   UNL d   1      -2.159   1.297  -2.740  0.00  0.00     0.018 C 
ENDBRANCH   1   8
TORSDOF 1
ENDMDL
