MODEL 1
REMARK minimizedAffinity -5.39159107
REMARK minimizedRMSD -1
REMARK  1 active torsions:
REMARK  status: ('A' for Active; 'I' for Inactive)
REMARK    1  A    between atoms: C1_2  and  C2_3 
ROOT
ATOM      1  C2  UNL d   1      -0.358   1.343  -0.990  0.00  0.00    -0.081 A 
ATOM      2  C3  UNL d   1       1.021   1.358  -1.233  0.00  0.00     0.006 A 
ATOM      3  C4  UNL d   1       1.861   0.434  -0.607  0.00  0.00     0.002 A 
ATOM      4  C5  UNL d   1       1.335  -0.525   0.266  0.00  0.00    -0.080 A 
ATOM      5  C6  UNL d   1       2.222  -1.542   0.922  0.00  0.00     0.076 C 
ATOM      6  C7  UNL d   1      -0.040  -0.528   0.523  0.00  0.00     0.002 A 
ATOM      7  C8  UNL d   1      -0.880   0.396  -0.102  0.00  0.00     0.006 A 
ENDROOT
BRANCH   1   8
ATOM      8  C1  UNL d   1      -1.274   2.297  -1.713  0.00  0.00     0.054 C 
ATOM      9  C   UNL d   1      -2.201   1.557  -2.667  0.00  0.00     0.018 C 
ENDBRANCH   1   8
TORSDOF 1
ENDMDL
