MODEL 1
REMARK minimizedAffinity 1.22127891
REMARK minimizedRMSD -1
REMARK  1 active torsions:
REMARK  status: ('A' for Active; 'I' for Inactive)
REMARK    1  A    between atoms: C1_2  and  C2_3 
ROOT
ATOM      1  C2  UNL d   1       2.209   1.089  -0.900  0.00  0.00    -0.081 A 
ATOM      2  C3  UNL d   1       0.979   1.364  -1.509  0.00  0.00     0.006 A 
ATOM      3  C4  UNL d   1      -0.216   1.169  -0.813  0.00  0.00     0.002 A 
ATOM      4  C5  UNL d   1      -0.201   0.703   0.506  0.00  0.00    -0.080 A 
ATOM      5  C6  UNL d   1      -1.475   0.518   1.275  0.00  0.00     0.076 C 
ATOM      6  C7  UNL d   1       1.027   0.411   1.109  0.00  0.00     0.002 A 
ATOM      7  C8  UNL d   1       2.222   0.605   0.413  0.00  0.00     0.006 A 
ENDROOT
BRANCH   1   8
ATOM      8  C1  UNL d   1       3.502   1.360  -1.625  0.00  0.00     0.054 C 
ATOM      9  C   UNL d   1       4.403   2.287  -0.823  0.00  0.00     0.018 C 
ENDBRANCH   1   8
TORSDOF 1
ENDMDL
