MODEL 1
REMARK minimizedAffinity -1.08855033
REMARK minimizedRMSD -1
REMARK  1 active torsions:
REMARK  status: ('A' for Active; 'I' for Inactive)
REMARK    1  A    between atoms: C1_2  and  C2_3 
ROOT
ATOM      1  C2  UNL d   1       0.957  -0.141   0.371  0.00  0.00    -0.081 A 
ATOM      2  C3  UNL d   1       0.891  -0.788   1.611  0.00  0.00     0.006 A 
ATOM      3  C4  UNL d   1      -0.295  -0.784   2.350  0.00  0.00     0.002 A 
ATOM      4  C5  UNL d   1      -1.435  -0.141   1.858  0.00  0.00    -0.080 A 
ATOM      5  C6  UNL d   1      -2.723  -0.155   2.627  0.00  0.00     0.076 C 
ATOM      6  C7  UNL d   1      -1.364   0.520   0.627  0.00  0.00     0.002 A 
ATOM      7  C8  UNL d   1      -0.179   0.517  -0.112  0.00  0.00     0.006 A 
ENDROOT
BRANCH   1   8
ATOM      8  C1  UNL d   1       2.215  -0.199  -0.457  0.00  0.00     0.054 C 
ATOM      9  C   UNL d   1       3.106  -1.358  -0.031  0.00  0.00     0.018 C 
ENDBRANCH   1   8
TORSDOF 1
ENDMDL
