MODEL 1
REMARK minimizedAffinity 0.288803101
REMARK minimizedRMSD -1
REMARK  1 active torsions:
REMARK  status: ('A' for Active; 'I' for Inactive)
REMARK    1  A    between atoms: C1_2  and  C2_3 
ROOT
ATOM      1  C2  UNL d   1      -0.238   0.272   0.203  0.00  0.00    -0.081 A 
ATOM      2  C3  UNL d   1      -0.066   0.791  -1.086  0.00  0.00     0.006 A 
ATOM      3  C4  UNL d   1       1.215   0.948  -1.622  0.00  0.00     0.002 A 
ATOM      4  C5  UNL d   1       2.343   0.582  -0.880  0.00  0.00    -0.080 A 
ATOM      5  C6  UNL d   1       3.722   0.716  -1.455  0.00  0.00     0.076 C 
ATOM      6  C7  UNL d   1       2.172   0.080   0.414  0.00  0.00     0.002 A 
ATOM      7  C8  UNL d   1       0.892  -0.077   0.950  0.00  0.00     0.006 A 
ENDROOT
BRANCH   1   8
ATOM      8  C1  UNL d   1      -1.621   0.041   0.758  0.00  0.00     0.054 C 
ATOM      9  C   UNL d   1      -1.564  -0.454   2.196  0.00  0.00     0.018 C 
ENDBRANCH   1   8
TORSDOF 1
ENDMDL
