MODEL 1
REMARK minimizedAffinity -1.23415422
REMARK minimizedRMSD -1
REMARK  1 active torsions:
REMARK  status: ('A' for Active; 'I' for Inactive)
REMARK    1  A    between atoms: C1_2  and  C2_3 
ROOT
ATOM      1  C2  UNL d   1       1.004   0.156  -0.090  0.00  0.00    -0.081 A 
ATOM      2  C3  UNL d   1      -0.078   0.677  -0.810  0.00  0.00     0.006 A 
ATOM      3  C4  UNL d   1      -1.313   0.874  -0.188  0.00  0.00     0.002 A 
ATOM      4  C5  UNL d   1      -1.485   0.561   1.164  0.00  0.00    -0.080 A 
ATOM      5  C6  UNL d   1      -2.798   0.796   1.851  0.00  0.00     0.076 C 
ATOM      6  C7  UNL d   1      -0.410   0.024   1.879  0.00  0.00     0.002 A 
ATOM      7  C8  UNL d   1       0.826  -0.174   1.258  0.00  0.00     0.006 A 
ENDROOT
BRANCH   1   8
ATOM      8  C1  UNL d   1       2.355   0.003  -0.740  0.00  0.00     0.054 C 
ATOM      9  C   UNL d   1       3.120   1.319  -0.742  0.00  0.00     0.018 C 
ENDBRANCH   1   8
TORSDOF 1
ENDMDL
