MODEL 1
REMARK minimizedAffinity -3.67075491
REMARK minimizedRMSD -1
REMARK  1 active torsions:
REMARK  status: ('A' for Active; 'I' for Inactive)
REMARK    1  A    between atoms: C1_2  and  C2_3 
ROOT
ATOM      1  C2  UNL d   1      -0.448   0.782  -0.283  0.00  0.00    -0.081 A 
ATOM      2  C3  UNL d   1       0.880   0.357  -0.151  0.00  0.00     0.006 A 
ATOM      3  C4  UNL d   1       1.225  -0.598   0.808  0.00  0.00     0.002 A 
ATOM      4  C5  UNL d   1       0.249  -1.149   1.645  0.00  0.00    -0.080 A 
ATOM      5  C6  UNL d   1       0.601  -2.197   2.659  0.00  0.00     0.076 C 
ATOM      6  C7  UNL d   1      -1.075  -0.711   1.525  0.00  0.00     0.002 A 
ATOM      7  C8  UNL d   1      -1.420   0.244   0.566  0.00  0.00     0.006 A 
ENDROOT
BRANCH   1   8
ATOM      8  C1  UNL d   1      -0.834   1.764  -1.360  0.00  0.00     0.054 C 
ATOM      9  C   UNL d   1      -1.848   1.160  -2.321  0.00  0.00     0.018 C 
ENDBRANCH   1   8
TORSDOF 1
ENDMDL
