MODEL 1
REMARK minimizedAffinity 1.75981486
REMARK minimizedRMSD -1
REMARK  1 active torsions:
REMARK  status: ('A' for Active; 'I' for Inactive)
REMARK    1  A    between atoms: C1_2  and  C2_3 
ROOT
ATOM      1  C2  UNL d   1       0.120  -0.172   0.917  0.00  0.00    -0.081 A 
ATOM      2  C3  UNL d   1       0.339   0.414  -0.336  0.00  0.00     0.006 A 
ATOM      3  C4  UNL d   1       1.532   0.185  -1.026  0.00  0.00     0.002 A 
ATOM      4  C5  UNL d   1       2.521  -0.639  -0.480  0.00  0.00    -0.080 A 
ATOM      5  C6  UNL d   1       3.793  -0.918  -1.224  0.00  0.00     0.076 C 
ATOM      6  C7  UNL d   1       2.310  -1.211   0.779  0.00  0.00     0.002 A 
ATOM      7  C8  UNL d   1       1.118  -0.982   1.470  0.00  0.00     0.006 A 
ENDROOT
BRANCH   1   8
ATOM      8  C1  UNL d   1      -1.191   0.021   1.635  0.00  0.00     0.054 C 
ATOM      9  C   UNL d   1      -1.447  -1.102   2.631  0.00  0.00     0.018 C 
ENDBRANCH   1   8
TORSDOF 1
ENDMDL
