MODEL 1
REMARK minimizedAffinity 10.4662905
REMARK minimizedRMSD -1
REMARK  0 active torsions:
REMARK  status: ('A' for Active; 'I' for Inactive)
ROOT
ATOM      1  C   UNL d   1       5.904  -0.611  -0.717  0.00  0.00     0.020 A 
ATOM      2  C1  UNL d   1       5.998  -1.065   0.598  0.00  0.00     0.020 A 
ATOM      3  C2  UNL d   1       5.999  -0.152   1.654  0.00  0.00     0.034 A 
ATOM      4  C3  UNL d   1       5.906   1.221   1.397  0.00  0.00     0.017 A 
ATOM      5  C4  UNL d   1       5.812   1.676   0.077  0.00  0.00     0.017 A 
ATOM      6  C5  UNL d   1       5.811   0.757  -0.977  0.00  0.00     0.034 A 
ATOM      7 Cl   UNL d   1       5.694   3.355  -0.319  0.00  0.00    -0.070 Cl
ATOM      8 Cl1  UNL d   1       5.913   2.294   2.751  0.00  0.00    -0.070 Cl
ENDROOT
TORSDOF 0
ENDMDL
