MODEL 1
REMARK minimizedAffinity 7.00933456
REMARK minimizedRMSD -1
REMARK  0 active torsions:
REMARK  status: ('A' for Active; 'I' for Inactive)
ROOT
ATOM      1  C   UNL d   1      -2.946  -0.628   1.522  0.00  0.00     0.020 A 
ATOM      2  C1  UNL d   1      -2.587  -0.891   0.200  0.00  0.00     0.020 A 
ATOM      3  C2  UNL d   1      -1.266  -1.216  -0.113  0.00  0.00     0.034 A 
ATOM      4  C3  UNL d   1      -0.298  -1.280   0.896  0.00  0.00     0.017 A 
ATOM      5  C4  UNL d   1      -0.659  -1.017   2.222  0.00  0.00     0.017 A 
ATOM      6  C5  UNL d   1      -1.984  -0.691   2.531  0.00  0.00     0.034 A 
ATOM      7 Cl   UNL d   1       0.479  -1.076   3.522  0.00  0.00    -0.070 Cl
ATOM      8 Cl1  UNL d   1       1.316  -1.690   0.436  0.00  0.00    -0.070 Cl
ENDROOT
TORSDOF 0
ENDMDL
