MODEL 1
REMARK minimizedAffinity 10.3771105
REMARK minimizedRMSD -1
REMARK  0 active torsions:
REMARK  status: ('A' for Active; 'I' for Inactive)
ROOT
ATOM      1  C   UNL d   1       0.837  -1.165   2.741  0.00  0.00     0.020 A 
ATOM      2  C1  UNL d   1      -0.039  -1.934   1.976  0.00  0.00     0.020 A 
ATOM      3  C2  UNL d   1       0.352  -3.197   1.525  0.00  0.00     0.034 A 
ATOM      4  C3  UNL d   1       1.623  -3.694   1.838  0.00  0.00     0.017 A 
ATOM      5  C4  UNL d   1       2.501  -2.921   2.606  0.00  0.00     0.017 A 
ATOM      6  C5  UNL d   1       2.104  -1.658   3.055  0.00  0.00     0.034 A 
ATOM      7 Cl   UNL d   1       4.085  -3.467   3.033  0.00  0.00    -0.070 Cl
ATOM      8 Cl1  UNL d   1       2.040  -5.263   1.247  0.00  0.00    -0.070 Cl
ENDROOT
TORSDOF 0
ENDMDL
