MODEL 1
REMARK minimizedAffinity 6.75238371
REMARK minimizedRMSD -1
REMARK  0 active torsions:
REMARK  status: ('A' for Active; 'I' for Inactive)
ROOT
ATOM      1  C   UNL d   1       6.000   1.815   1.415  0.00  0.00     0.020 A 
ATOM      2  C1  UNL d   1       5.999   0.626   0.687  0.00  0.00     0.020 A 
ATOM      3  C2  UNL d   1       4.814  -0.097   0.532  0.00  0.00     0.034 A 
ATOM      4  C3  UNL d   1       3.625   0.368   1.105  0.00  0.00     0.017 A 
ATOM      5  C4  UNL d   1       3.627   1.562   1.836  0.00  0.00     0.017 A 
ATOM      6  C5  UNL d   1       4.816   2.282   1.988  0.00  0.00     0.034 A 
ATOM      7 Cl   UNL d   1       2.200   2.200   2.572  0.00  0.00    -0.070 Cl
ATOM      8 Cl1  UNL d   1       2.198  -0.577   0.873  0.00  0.00    -0.070 Cl
ENDROOT
TORSDOF 0
ENDMDL
