MODEL 1
REMARK minimizedAffinity 2.99050689
REMARK minimizedRMSD -1
REMARK  0 active torsions:
REMARK  status: ('A' for Active; 'I' for Inactive)
ROOT
ATOM      1  C   UNL d   1       5.998  -0.510  -3.711  0.00  0.00     0.020 A 
ATOM      2  C1  UNL d   1       5.999   0.883  -3.755  0.00  0.00     0.020 A 
ATOM      3  C2  UNL d   1       5.999   1.619  -2.568  0.00  0.00     0.034 A 
ATOM      4  C3  UNL d   1       5.999   0.962  -1.332  0.00  0.00     0.017 A 
ATOM      5  C4  UNL d   1       5.999  -0.437  -1.289  0.00  0.00     0.017 A 
ATOM      6  C5  UNL d   1       5.998  -1.169  -2.481  0.00  0.00     0.034 A 
ATOM      7 Cl   UNL d   1       5.999  -1.319   0.197  0.00  0.00    -0.070 Cl
ATOM      8 Cl1  UNL d   1       6.000   1.935   0.095  0.00  0.00    -0.070 Cl
ENDROOT
TORSDOF 0
ENDMDL
