MODEL 1
REMARK minimizedAffinity 5.3706336
REMARK minimizedRMSD -1
REMARK  0 active torsions:
REMARK  status: ('A' for Active; 'I' for Inactive)
ROOT
ATOM      1  C   UNL d   1       2.049   1.487   0.379  0.00  0.00     0.020 A 
ATOM      2  C1  UNL d   1       3.057   1.221   1.304  0.00  0.00     0.020 A 
ATOM      3  C2  UNL d   1       2.986   0.081   2.107  0.00  0.00     0.034 A 
ATOM      4  C3  UNL d   1       1.904  -0.799   1.986  0.00  0.00     0.017 A 
ATOM      5  C4  UNL d   1       0.892  -0.532   1.057  0.00  0.00     0.017 A 
ATOM      6  C5  UNL d   1       0.968   0.612   0.255  0.00  0.00     0.034 A 
ATOM      7 Cl   UNL d   1      -0.474  -1.570   0.850  0.00  0.00    -0.070 Cl
ATOM      8 Cl1  UNL d   1       1.881  -2.190   3.011  0.00  0.00    -0.070 Cl
ENDROOT
TORSDOF 0
ENDMDL
