MODEL 1
REMARK minimizedAffinity 5.55855942
REMARK minimizedRMSD -1
REMARK  0 active torsions:
REMARK  status: ('A' for Active; 'I' for Inactive)
ROOT
ATOM      1  C   UNL d   1       1.499  -3.402  -1.924  0.00  0.00     0.020 A 
ATOM      2  C1  UNL d   1       0.437  -2.881  -2.663  0.00  0.00     0.020 A 
ATOM      3  C2  UNL d   1      -0.477  -2.017  -2.057  0.00  0.00     0.034 A 
ATOM      4  C3  UNL d   1      -0.331  -1.669  -0.709  0.00  0.00     0.017 A 
ATOM      5  C4  UNL d   1       0.736  -2.192   0.031  0.00  0.00     0.017 A 
ATOM      6  C5  UNL d   1       1.648  -3.057  -0.580  0.00  0.00     0.034 A 
ATOM      7 Cl   UNL d   1       0.982  -1.809   1.698  0.00  0.00    -0.070 Cl
ATOM      8 Cl1  UNL d   1      -1.498  -0.594  -0.026  0.00  0.00    -0.070 Cl
ENDROOT
TORSDOF 0
ENDMDL
