MODEL 1
REMARK minimizedAffinity 3.40860367
REMARK minimizedRMSD -1
REMARK  0 active torsions:
REMARK  status: ('A' for Active; 'I' for Inactive)
ROOT
ATOM      1  C   UNL d   1       2.625  -5.686  -0.904  0.00  0.00     0.020 A 
ATOM      2  C1  UNL d   1       2.762  -5.633   0.483  0.00  0.00     0.020 A 
ATOM      3  C2  UNL d   1       2.312  -4.514   1.187  0.00  0.00     0.034 A 
ATOM      4  C3  UNL d   1       1.723  -3.444   0.504  0.00  0.00     0.017 A 
ATOM      5  C4  UNL d   1       1.586  -3.498  -0.888  0.00  0.00     0.017 A 
ATOM      6  C5  UNL d   1       2.039  -4.621  -1.587  0.00  0.00     0.034 A 
ATOM      7 Cl   UNL d   1       0.870  -2.216  -1.799  0.00  0.00    -0.070 Cl
ATOM      8 Cl1  UNL d   1       1.189  -2.092   1.438  0.00  0.00    -0.070 Cl
ENDROOT
TORSDOF 0
ENDMDL
