MODEL 1
REMARK minimizedAffinity 11.6587429
REMARK minimizedRMSD -1
REMARK  0 active torsions:
REMARK  status: ('A' for Active; 'I' for Inactive)
ROOT
ATOM      1  C   UNL d   1      -4.739   2.934  -5.586  0.00  0.00     0.020 A 
ATOM      2  C1  UNL d   1      -5.961   2.786  -4.930  0.00  0.00     0.020 A 
ATOM      3  C2  UNL d   1      -6.000   2.709  -3.536  0.00  0.00     0.034 A 
ATOM      4  C3  UNL d   1      -4.816   2.781  -2.794  0.00  0.00     0.017 A 
ATOM      5  C4  UNL d   1      -3.590   2.931  -3.453  0.00  0.00     0.017 A 
ATOM      6  C5  UNL d   1      -3.557   3.007  -4.849  0.00  0.00     0.034 A 
ATOM      7 Cl   UNL d   1      -2.087   3.027  -2.605  0.00  0.00    -0.070 Cl
ATOM      8 Cl1  UNL d   1      -4.938   2.680  -1.073  0.00  0.00    -0.070 Cl
ENDROOT
TORSDOF 0
ENDMDL
