MODEL 1
REMARK minimizedAffinity 5.56988573
REMARK minimizedRMSD -1
REMARK  0 active torsions:
REMARK  status: ('A' for Active; 'I' for Inactive)
ROOT
ATOM      1  C   UNL d   1       0.339  -2.787  -2.840  0.00  0.00     0.020 A 
ATOM      2  C1  UNL d   1       1.496  -3.111  -2.132  0.00  0.00     0.020 A 
ATOM      3  C2  UNL d   1       1.585  -2.821  -0.769  0.00  0.00     0.034 A 
ATOM      4  C3  UNL d   1       0.515  -2.204  -0.109  0.00  0.00     0.017 A 
ATOM      5  C4  UNL d   1      -0.646  -1.880  -0.820  0.00  0.00     0.017 A 
ATOM      6  C5  UNL d   1      -0.729  -2.173  -2.185  0.00  0.00     0.034 A 
ATOM      7 Cl   UNL d   1      -2.007  -1.119  -0.075  0.00  0.00    -0.070 Cl
ATOM      8 Cl1  UNL d   1       0.694  -1.875   1.577  0.00  0.00    -0.070 Cl
ENDROOT
TORSDOF 0
ENDMDL
