MODEL 1
REMARK minimizedAffinity 9.57136536
REMARK minimizedRMSD -1
REMARK  0 active torsions:
REMARK  status: ('A' for Active; 'I' for Inactive)
ROOT
ATOM      1  C   UNL d   1       2.133  -1.439   1.537  0.00  0.00     0.020 A 
ATOM      2  C1  UNL d   1       2.162  -1.355   2.928  0.00  0.00     0.020 A 
ATOM      3  C2  UNL d   1       2.338  -0.116   3.549  0.00  0.00     0.034 A 
ATOM      4  C3  UNL d   1       2.487   1.043   2.779  0.00  0.00     0.017 A 
ATOM      5  C4  UNL d   1       2.458   0.957   1.382  0.00  0.00     0.017 A 
ATOM      6  C5  UNL d   1       2.281  -0.285   0.766  0.00  0.00     0.034 A 
ATOM      7 Cl   UNL d   1       2.635   2.343   0.365  0.00  0.00    -0.070 Cl
ATOM      8 Cl1  UNL d   1       2.702   2.540   3.614  0.00  0.00    -0.070 Cl
ENDROOT
TORSDOF 0
ENDMDL
