MODEL 1
REMARK minimizedAffinity 6.89569044
REMARK minimizedRMSD -1
REMARK  0 active torsions:
REMARK  status: ('A' for Active; 'I' for Inactive)
ROOT
ATOM      1  C   UNL d   1      -5.910   3.440   1.031  0.00  0.00     0.020 A 
ATOM      2  C1  UNL d   1      -5.330   2.819   2.136  0.00  0.00     0.020 A 
ATOM      3  C2  UNL d   1      -4.118   2.140   1.998  0.00  0.00     0.034 A 
ATOM      4  C3  UNL d   1      -3.482   2.079   0.753  0.00  0.00     0.017 A 
ATOM      5  C4  UNL d   1      -4.066   2.702  -0.356  0.00  0.00     0.017 A 
ATOM      6  C5  UNL d   1      -5.280   3.382  -0.212  0.00  0.00     0.034 A 
ATOM      7 Cl   UNL d   1      -3.342   2.670  -1.925  0.00  0.00    -0.070 Cl
ATOM      8 Cl1  UNL d   1      -1.986   1.221   0.655  0.00  0.00    -0.070 Cl
ENDROOT
TORSDOF 0
ENDMDL
