MODEL 1
REMARK minimizedAffinity 1.55448985
REMARK minimizedRMSD -1
REMARK  0 active torsions:
REMARK  status: ('A' for Active; 'I' for Inactive)
ROOT
ATOM      1  C   UNL d   1       3.223  -2.224   4.195  0.00  0.00     0.020 A 
ATOM      2  C1  UNL d   1       2.315  -3.219   3.836  0.00  0.00     0.020 A 
ATOM      3  C2  UNL d   1       1.538  -3.071   2.685  0.00  0.00     0.034 A 
ATOM      4  C3  UNL d   1       1.668  -1.927   1.890  0.00  0.00     0.017 A 
ATOM      5  C4  UNL d   1       2.580  -0.929   2.251  0.00  0.00     0.017 A 
ATOM      6  C5  UNL d   1       3.355  -1.082   3.405  0.00  0.00     0.034 A 
ATOM      7 Cl   UNL d   1       2.796   0.511   1.320  0.00  0.00    -0.070 Cl
ATOM      8 Cl1  UNL d   1       0.675  -1.812   0.480  0.00  0.00    -0.070 Cl
ENDROOT
TORSDOF 0
ENDMDL
