MODEL 1
REMARK minimizedAffinity 5.94442511
REMARK minimizedRMSD -1
REMARK  0 active torsions:
REMARK  status: ('A' for Active; 'I' for Inactive)
ROOT
ATOM      1  C   UNL d   1      -5.821   3.177   1.200  0.00  0.00     0.020 A 
ATOM      2  C1  UNL d   1      -5.182   2.757   2.366  0.00  0.00     0.020 A 
ATOM      3  C2  UNL d   1      -4.014   1.995   2.286  0.00  0.00     0.034 A 
ATOM      4  C3  UNL d   1      -3.482   1.651   1.038  0.00  0.00     0.017 A 
ATOM      5  C4  UNL d   1      -4.124   2.073  -0.132  0.00  0.00     0.017 A 
ATOM      6  C5  UNL d   1      -5.293   2.836  -0.046  0.00  0.00     0.034 A 
ATOM      7 Cl   UNL d   1      -3.527   1.689  -1.708  0.00  0.00    -0.070 Cl
ATOM      8 Cl1  UNL d   1      -2.034   0.708   1.014  0.00  0.00    -0.070 Cl
ENDROOT
TORSDOF 0
ENDMDL
