MODEL 1
REMARK minimizedAffinity 5.35118914
REMARK minimizedRMSD -1
REMARK  0 active torsions:
REMARK  status: ('A' for Active; 'I' for Inactive)
ROOT
ATOM      1  C   UNL d   1       1.240  -2.986   3.507  0.00  0.00     0.020 A 
ATOM      2  C1  UNL d   1       2.189  -2.146   4.087  0.00  0.00     0.020 A 
ATOM      3  C2  UNL d   1       2.510  -0.930   3.480  0.00  0.00     0.034 A 
ATOM      4  C3  UNL d   1       1.880  -0.550   2.290  0.00  0.00     0.017 A 
ATOM      5  C4  UNL d   1       0.927  -1.393   1.708  0.00  0.00     0.017 A 
ATOM      6  C5  UNL d   1       0.610  -2.610   2.320  0.00  0.00     0.034 A 
ATOM      7 Cl   UNL d   1       0.108  -0.993   0.239  0.00  0.00    -0.070 Cl
ATOM      8 Cl1  UNL d   1       2.326   0.968   1.595  0.00  0.00    -0.070 Cl
ENDROOT
TORSDOF 0
ENDMDL
