MODEL 1
REMARK minimizedAffinity 2.97518325
REMARK minimizedRMSD -1
REMARK  0 active torsions:
REMARK  status: ('A' for Active; 'I' for Inactive)
ROOT
ATOM      1  C   UNL d   1       3.882  -2.648  -2.304  0.00  0.00     0.020 A 
ATOM      2  C1  UNL d   1       2.987  -3.154  -3.246  0.00  0.00     0.020 A 
ATOM      3  C2  UNL d   1       1.614  -2.957  -3.081  0.00  0.00     0.034 A 
ATOM      4  C3  UNL d   1       1.133  -2.253  -1.971  0.00  0.00     0.017 A 
ATOM      5  C4  UNL d   1       2.032  -1.745  -1.027  0.00  0.00     0.017 A 
ATOM      6  C5  UNL d   1       3.405  -1.945  -1.197  0.00  0.00     0.034 A 
ATOM      7 Cl   UNL d   1       1.513  -0.866   0.368  0.00  0.00    -0.070 Cl
ATOM      8 Cl1  UNL d   1      -0.577  -2.047  -1.831  0.00  0.00    -0.070 Cl
ENDROOT
TORSDOF 0
ENDMDL
