MODEL 1
REMARK minimizedAffinity 3.87195301
REMARK minimizedRMSD -1
REMARK  0 active torsions:
REMARK  status: ('A' for Active; 'I' for Inactive)
ROOT
ATOM      1  C   UNL d   1      -2.217  -1.365  -1.968  0.00  0.00     0.020 A 
ATOM      2  C1  UNL d   1      -2.506  -1.033  -0.646  0.00  0.00     0.020 A 
ATOM      3  C2  UNL d   1      -1.481  -0.982   0.301  0.00  0.00     0.034 A 
ATOM      4  C3  UNL d   1      -0.162  -1.264  -0.073  0.00  0.00     0.017 A 
ATOM      5  C4  UNL d   1       0.127  -1.597  -1.401  0.00  0.00     0.017 A 
ATOM      6  C5  UNL d   1      -0.903  -1.647  -2.345  0.00  0.00     0.034 A 
ATOM      7 Cl   UNL d   1       1.730  -1.957  -1.939  0.00  0.00    -0.070 Cl
ATOM      8 Cl1  UNL d   1       1.056  -1.181   1.150  0.00  0.00    -0.070 Cl
ENDROOT
TORSDOF 0
ENDMDL
