MODEL 1
REMARK minimizedAffinity 6.10771561
REMARK minimizedRMSD -1
REMARK  0 active torsions:
REMARK  status: ('A' for Active; 'I' for Inactive)
ROOT
ATOM      1  C   UNL d   1       2.770   4.628  -1.836  0.00  0.00     0.020 A 
ATOM      2  C1  UNL d   1       1.492   5.182  -1.759  0.00  0.00     0.020 A 
ATOM      3  C2  UNL d   1       0.526   4.598  -0.937  0.00  0.00     0.034 A 
ATOM      4  C3  UNL d   1       0.835   3.456  -0.189  0.00  0.00     0.017 A 
ATOM      5  C4  UNL d   1       2.117   2.900  -0.267  0.00  0.00     0.017 A 
ATOM      6  C5  UNL d   1       3.081   3.489  -1.091  0.00  0.00     0.034 A 
ATOM      7 Cl   UNL d   1       2.573   1.493   0.626  0.00  0.00    -0.070 Cl
ATOM      8 Cl1  UNL d   1      -0.409   2.787   0.806  0.00  0.00    -0.070 Cl
ENDROOT
TORSDOF 0
ENDMDL
