MODEL 1
REMARK minimizedAffinity 3.7357862
REMARK minimizedRMSD -1
REMARK  0 active torsions:
REMARK  status: ('A' for Active; 'I' for Inactive)
ROOT
ATOM      1  C   UNL d   1       1.740   0.472   1.571  0.00  0.00     0.020 A 
ATOM      2  C1  UNL d   1       2.585   1.245   0.777  0.00  0.00     0.020 A 
ATOM      3  C2  UNL d   1       3.015   0.763  -0.462  0.00  0.00     0.034 A 
ATOM      4  C3  UNL d   1       2.598  -0.495  -0.910  0.00  0.00     0.017 A 
ATOM      5  C4  UNL d   1       1.749  -1.271  -0.112  0.00  0.00     0.017 A 
ATOM      6  C5  UNL d   1       1.322  -0.784   1.127  0.00  0.00     0.034 A 
ATOM      7 Cl   UNL d   1       1.193  -2.834  -0.598  0.00  0.00    -0.070 Cl
ATOM      8 Cl1  UNL d   1       3.168  -1.028  -2.452  0.00  0.00    -0.070 Cl
ENDROOT
TORSDOF 0
ENDMDL
