MODEL 1
REMARK minimizedAffinity 6.60978556
REMARK minimizedRMSD -1
REMARK  1 active torsions:
REMARK  status: ('A' for Active; 'I' for Inactive)
REMARK    1  A    between atoms: C1_2  and  C2_3 
ROOT
ATOM      1  C2  UNL d   1       3.592  -2.038   2.233  0.00  0.00    -0.077 A 
ATOM      2  C3  UNL d   1       2.563  -2.378   3.123  0.00  0.00     0.002 A 
ATOM      3  C4  UNL d   1       1.269  -1.894   2.925  0.00  0.00     0.002 A 
ATOM      4  C5  UNL d   1       0.990  -1.070   1.837  0.00  0.00    -0.004 A 
ATOM      5  C6  UNL d   1       2.006  -0.724   0.947  0.00  0.00     0.002 A 
ATOM      6  C7  UNL d   1       3.301  -1.206   1.144  0.00  0.00     0.002 A 
ENDROOT
BRANCH   1   7
ATOM      7  C1  UNL d   1       4.977  -2.599   2.416  0.00  0.00     0.055 C 
ATOM      8  C   UNL d   1       5.998  -1.838   1.582  0.00  0.00     0.019 C 
ENDBRANCH   1   7
TORSDOF 1
ENDMDL
