MODEL 1
REMARK minimizedAffinity 6.30007553
REMARK minimizedRMSD -1
REMARK  1 active torsions:
REMARK  status: ('A' for Active; 'I' for Inactive)
REMARK    1  A    between atoms: C1_2  and  C2_3 
ROOT
ATOM      1  C2  UNL d   1      -3.382   3.616   1.192  0.00  0.00    -0.077 A 
ATOM      2  C3  UNL d   1      -3.746   3.890   2.518  0.00  0.00     0.002 A 
ATOM      3  C4  UNL d   1      -4.953   4.533   2.800  0.00  0.00     0.002 A 
ATOM      4  C5  UNL d   1      -5.807   4.902   1.763  0.00  0.00    -0.004 A 
ATOM      5  C6  UNL d   1      -5.453   4.636   0.441  0.00  0.00     0.002 A 
ATOM      6  C7  UNL d   1      -4.246   3.995   0.157  0.00  0.00     0.002 A 
ENDROOT
BRANCH   1   7
ATOM      7  C1  UNL d   1      -2.104   2.879   0.888  0.00  0.00     0.055 C 
ATOM      8  C   UNL d   1      -1.002   3.255   1.868  0.00  0.00     0.019 C 
ENDBRANCH   1   7
TORSDOF 1
ENDMDL
