MODEL 1
REMARK minimizedAffinity 13.3942604
REMARK minimizedRMSD -1
REMARK  1 active torsions:
REMARK  status: ('A' for Active; 'I' for Inactive)
REMARK    1  A    between atoms: C1_2  and  C2_3 
ROOT
ATOM      1  C2  UNL d   1       1.513  -1.880   3.109  0.00  0.00    -0.077 A 
ATOM      2  C3  UNL d   1       2.581  -2.351   2.332  0.00  0.00     0.002 A 
ATOM      3  C4  UNL d   1       2.895  -1.737   1.118  0.00  0.00     0.002 A 
ATOM      4  C5  UNL d   1       2.150  -0.648   0.672  0.00  0.00    -0.004 A 
ATOM      5  C6  UNL d   1       1.085  -0.173   1.437  0.00  0.00     0.002 A 
ATOM      6  C7  UNL d   1       0.768  -0.786   2.650  0.00  0.00     0.002 A 
ENDROOT
BRANCH   1   7
ATOM      7  C1  UNL d   1       1.203  -2.509   4.442  0.00  0.00     0.055 C 
ATOM      8  C   UNL d   1       2.020  -3.774   4.661  0.00  0.00     0.019 C 
ENDBRANCH   1   7
TORSDOF 1
ENDMDL
