MODEL 1
REMARK minimizedAffinity 10.3583269
REMARK minimizedRMSD -1
REMARK  1 active torsions:
REMARK  status: ('A' for Active; 'I' for Inactive)
REMARK    1  A    between atoms: C1_2  and  C2_3 
ROOT
ATOM      1  C2  UNL d   1       2.061  -1.368   2.209  0.00  0.00    -0.077 A 
ATOM      2  C3  UNL d   1       1.988  -0.185   1.461  0.00  0.00     0.002 A 
ATOM      3  C4  UNL d   1       3.066   0.219   0.670  0.00  0.00     0.002 A 
ATOM      4  C5  UNL d   1       4.222  -0.556   0.618  0.00  0.00    -0.004 A 
ATOM      5  C6  UNL d   1       4.306  -1.733   1.360  0.00  0.00     0.002 A 
ATOM      6  C7  UNL d   1       3.230  -2.138   2.151  0.00  0.00     0.002 A 
ENDROOT
BRANCH   1   7
ATOM      7  C1  UNL d   1       0.881  -1.831   3.023  0.00  0.00     0.055 C 
ATOM      8  C   UNL d   1       0.900  -1.224   4.419  0.00  0.00     0.019 C 
ENDBRANCH   1   7
TORSDOF 1
ENDMDL
