MODEL 1
REMARK minimizedAffinity 10.2998819
REMARK minimizedRMSD -1
REMARK  1 active torsions:
REMARK  status: ('A' for Active; 'I' for Inactive)
REMARK    1  A    between atoms: C1_2  and  C2_3 
ROOT
ATOM      1  C2  UNL d   1       1.856  -1.531   0.923  0.00  0.00    -0.077 A 
ATOM      2  C3  UNL d   1       1.027  -0.802   1.788  0.00  0.00     0.002 A 
ATOM      3  C4  UNL d   1       1.402   0.473   2.218  0.00  0.00     0.002 A 
ATOM      4  C5  UNL d   1       2.603   1.031   1.786  0.00  0.00    -0.004 A 
ATOM      5  C6  UNL d   1       3.435   0.313   0.928  0.00  0.00     0.002 A 
ATOM      6  C7  UNL d   1       3.063  -0.961   0.498  0.00  0.00     0.002 A 
ENDROOT
BRANCH   1   7
ATOM      7  C1  UNL d   1       1.431  -2.885   0.419  0.00  0.00     0.055 C 
ATOM      8  C   UNL d   1       1.368  -2.915  -1.101  0.00  0.00     0.019 C 
ENDBRANCH   1   7
TORSDOF 1
ENDMDL
