MODEL 1
REMARK minimizedAffinity 8.20939255
REMARK minimizedRMSD -1
REMARK  1 active torsions:
REMARK  status: ('A' for Active; 'I' for Inactive)
REMARK    1  A    between atoms: C1_2  and  C2_3 
ROOT
ATOM      1  C2  UNL d   1       1.446  -0.207   2.957  0.00  0.00    -0.077 A 
ATOM      2  C3  UNL d   1       1.481  -0.219   4.359  0.00  0.00     0.002 A 
ATOM      3  C4  UNL d   1       0.928  -1.286   5.070  0.00  0.00     0.002 A 
ATOM      4  C5  UNL d   1       0.340  -2.349   4.388  0.00  0.00    -0.004 A 
ATOM      5  C6  UNL d   1       0.298  -2.346   2.995  0.00  0.00     0.002 A 
ATOM      6  C7  UNL d   1       0.850  -1.280   2.282  0.00  0.00     0.002 A 
ENDROOT
BRANCH   1   7
ATOM      7  C1  UNL d   1       2.085   0.919   2.187  0.00  0.00     0.055 C 
ATOM      8  C   UNL d   1       3.294   0.434   1.400  0.00  0.00     0.019 C 
ENDBRANCH   1   7
TORSDOF 1
ENDMDL
