MODEL 1
REMARK minimizedAffinity 4.7567277
REMARK minimizedRMSD -1
REMARK  1 active torsions:
REMARK  status: ('A' for Active; 'I' for Inactive)
REMARK    1  A    between atoms: C1_2  and  C2_3 
ROOT
ATOM      1  C2  UNL d   1       1.043  -2.949   3.745  0.00  0.00    -0.077 A 
ATOM      2  C3  UNL d   1       1.875  -3.182   2.641  0.00  0.00     0.002 A 
ATOM      3  C4  UNL d   1       2.115  -2.169   1.711  0.00  0.00     0.002 A 
ATOM      4  C5  UNL d   1       1.531  -0.915   1.878  0.00  0.00    -0.004 A 
ATOM      5  C6  UNL d   1       0.700  -0.674   2.972  0.00  0.00     0.002 A 
ATOM      6  C7  UNL d   1       0.458  -1.686   3.902  0.00  0.00     0.002 A 
ENDROOT
BRANCH   1   7
ATOM      7  C1  UNL d   1       0.823  -4.026   4.775  0.00  0.00     0.055 C 
ATOM      8  C   UNL d   1       1.968  -4.077   5.776  0.00  0.00     0.019 C 
ENDBRANCH   1   7
TORSDOF 1
ENDMDL
