MODEL 1
REMARK minimizedAffinity -2.44578242
REMARK minimizedRMSD -1
REMARK  1 active torsions:
REMARK  status: ('A' for Active; 'I' for Inactive)
REMARK    1  A    between atoms: C1_2  and  C2_3 
ROOT
ATOM      1  C2  UNL d   1       5.701   5.064  -3.167  0.00  0.00    -0.077 A 
ATOM      2  C3  UNL d   1       5.762   6.000  -4.209  0.00  0.00     0.002 A 
ATOM      3  C4  UNL d   1       5.912   5.577  -5.531  0.00  0.00     0.002 A 
ATOM      4  C5  UNL d   1       6.000   4.217  -5.823  0.00  0.00    -0.004 A 
ATOM      5  C6  UNL d   1       5.943   3.279  -4.794  0.00  0.00     0.002 A 
ATOM      6  C7  UNL d   1       5.794   3.700  -3.472  0.00  0.00     0.002 A 
ENDROOT
BRANCH   1   7
ATOM      7  C1  UNL d   1       5.489   5.516  -1.746  0.00  0.00     0.055 C 
ATOM      8  C   UNL d   1       4.276   4.839  -1.125  0.00  0.00     0.019 C 
ENDBRANCH   1   7
TORSDOF 1
ENDMDL
