MODEL 1
REMARK minimizedAffinity -1.02183485
REMARK minimizedRMSD -1
REMARK  0 active torsions:
REMARK  status: ('A' for Active; 'I' for Inactive)
ROOT
ATOM      1  C   UNL d   1      -1.175   0.075   2.525  0.00  0.00     0.020 A 
ATOM      2  C1  UNL d   1      -0.196  -0.257   1.589  0.00  0.00     0.020 A 
ATOM      3  C2  UNL d   1      -0.019   0.535   0.454  0.00  0.00     0.034 A 
ATOM      4  C3  UNL d   1      -0.821   1.664   0.250  0.00  0.00     0.017 A 
ATOM      5  C4  UNL d   1      -1.804   1.996   1.190  0.00  0.00     0.017 A 
ATOM      6  C5  UNL d   1      -1.977   1.199   2.326  0.00  0.00     0.034 A 
ATOM      7 Cl   UNL d   1      -2.832   3.373   1.008  0.00  0.00    -0.070 Cl
ATOM      8 Cl1  UNL d   1      -0.547   2.599  -1.176  0.00  0.00    -0.070 Cl
ENDROOT
TORSDOF 0
ENDMDL
