MODEL 1
REMARK minimizedAffinity 5.54014158
REMARK minimizedRMSD -1
REMARK  0 active torsions:
REMARK  status: ('A' for Active; 'I' for Inactive)
ROOT
ATOM      1  C   UNL d   1      -2.410   2.344   1.693  0.00  0.00     0.020 A 
ATOM      2  C1  UNL d   1      -1.993   1.512   2.731  0.00  0.00     0.020 A 
ATOM      3  C2  UNL d   1      -0.812   0.777   2.605  0.00  0.00     0.034 A 
ATOM      4  C3  UNL d   1      -0.044   0.873   1.439  0.00  0.00     0.017 A 
ATOM      5  C4  UNL d   1      -0.463   1.709   0.398  0.00  0.00     0.017 A 
ATOM      6  C5  UNL d   1      -1.646   2.443   0.529  0.00  0.00     0.034 A 
ATOM      7 Cl   UNL d   1       0.432   1.880  -1.071  0.00  0.00    -0.070 Cl
ATOM      8 Cl1  UNL d   1       1.405  -0.064   1.352  0.00  0.00    -0.070 Cl
ENDROOT
TORSDOF 0
ENDMDL
