MODEL 1
REMARK minimizedAffinity 0.647776365
REMARK minimizedRMSD -1
REMARK  0 active torsions:
REMARK  status: ('A' for Active; 'I' for Inactive)
ROOT
ATOM      1  C   UNL d   1      -1.249   2.469   2.710  0.00  0.00     0.020 A 
ATOM      2  C1  UNL d   1      -2.212   3.003   1.855  0.00  0.00     0.020 A 
ATOM      3  C2  UNL d   1      -3.064   2.154   1.145  0.00  0.00     0.034 A 
ATOM      4  C3  UNL d   1      -2.954   0.766   1.290  0.00  0.00     0.017 A 
ATOM      5  C4  UNL d   1      -1.987   0.231   2.149  0.00  0.00     0.017 A 
ATOM      6  C5  UNL d   1      -1.137   1.086   2.857  0.00  0.00     0.034 A 
ATOM      7 Cl   UNL d   1      -1.792  -1.471   2.380  0.00  0.00    -0.070 Cl
ATOM      8 Cl1  UNL d   1      -4.041  -0.225   0.382  0.00  0.00    -0.070 Cl
ENDROOT
TORSDOF 0
ENDMDL
