MODEL 1
REMARK minimizedAffinity -0.970898092
REMARK minimizedRMSD -1
REMARK  0 active torsions:
REMARK  status: ('A' for Active; 'I' for Inactive)
ROOT
ATOM      1  C   UNL d   1      -2.111   2.260   1.500  0.00  0.00     0.020 A 
ATOM      2  C1  UNL d   1      -1.875   2.625   0.175  0.00  0.00     0.020 A 
ATOM      3  C2  UNL d   1      -0.816   2.049  -0.530  0.00  0.00     0.034 A 
ATOM      4  C3  UNL d   1       0.010   1.104   0.089  0.00  0.00     0.017 A 
ATOM      5  C4  UNL d   1      -0.227   0.738   1.419  0.00  0.00     0.017 A 
ATOM      6  C5  UNL d   1      -1.288   1.318   2.120  0.00  0.00     0.034 A 
ATOM      7 Cl   UNL d   1       0.750  -0.420   2.250  0.00  0.00    -0.070 Cl
ATOM      8 Cl1  UNL d   1       1.301   0.432  -0.843  0.00  0.00    -0.070 Cl
ENDROOT
TORSDOF 0
ENDMDL
