MODEL 1
REMARK minimizedAffinity 13.188735
REMARK minimizedRMSD -1
REMARK  0 active torsions:
REMARK  status: ('A' for Active; 'I' for Inactive)
ROOT
ATOM      1  C   UNL d   1       0.995   1.439   3.574  0.00  0.00     0.020 A 
ATOM      2  C1  UNL d   1       0.636   2.612   2.911  0.00  0.00     0.020 A 
ATOM      3  C2  UNL d   1      -0.627   2.726   2.327  0.00  0.00     0.034 A 
ATOM      4  C3  UNL d   1      -1.537   1.665   2.405  0.00  0.00     0.017 A 
ATOM      5  C4  UNL d   1      -1.176   0.488   3.071  0.00  0.00     0.017 A 
ATOM      6  C5  UNL d   1       0.090   0.379   3.654  0.00  0.00     0.034 A 
ATOM      7 Cl   UNL d   1      -2.244  -0.864   3.209  0.00  0.00    -0.070 Cl
ATOM      8 Cl1  UNL d   1      -3.082   1.875   1.661  0.00  0.00    -0.070 Cl
ENDROOT
TORSDOF 0
ENDMDL
