MODEL 1
REMARK minimizedAffinity 12.1050997
REMARK minimizedRMSD -1
REMARK  0 active torsions:
REMARK  status: ('A' for Active; 'I' for Inactive)
ROOT
ATOM      1  C   UNL d   1       5.841  -3.266  -3.746  0.00  0.00     0.020 A 
ATOM      2  C1  UNL d   1       4.651  -3.580  -4.401  0.00  0.00     0.020 A 
ATOM      3  C2  UNL d   1       3.619  -4.215  -3.708  0.00  0.00     0.034 A 
ATOM      4  C3  UNL d   1       3.774  -4.538  -2.355  0.00  0.00     0.017 A 
ATOM      5  C4  UNL d   1       4.969  -4.222  -1.698  0.00  0.00     0.017 A 
ATOM      6  C5  UNL d   1       6.000  -3.587  -2.397  0.00  0.00     0.034 A 
ATOM      7 Cl   UNL d   1       5.235  -4.589  -0.030  0.00  0.00    -0.070 Cl
ATOM      8 Cl1  UNL d   1       2.456  -5.322  -1.559  0.00  0.00    -0.070 Cl
ENDROOT
TORSDOF 0
ENDMDL
