MODEL 1
REMARK minimizedAffinity -0.665917695
REMARK minimizedRMSD -1
REMARK  0 active torsions:
REMARK  status: ('A' for Active; 'I' for Inactive)
ROOT
ATOM      1  C   UNL d   1      -0.003   1.952  -1.221  0.00  0.00     0.020 A 
ATOM      2  C1  UNL d   1       0.736   0.977  -0.554  0.00  0.00     0.020 A 
ATOM      3  C2  UNL d   1       0.323   0.524   0.701  0.00  0.00     0.034 A 
ATOM      4  C3  UNL d   1      -0.833   1.047   1.292  0.00  0.00     0.017 A 
ATOM      5  C4  UNL d   1      -1.574   2.026   0.621  0.00  0.00     0.017 A 
ATOM      6  C5  UNL d   1      -1.156   2.475  -0.635  0.00  0.00     0.034 A 
ATOM      7 Cl   UNL d   1      -3.011   2.719   1.287  0.00  0.00    -0.070 Cl
ATOM      8 Cl1  UNL d   1      -1.285   0.442   2.846  0.00  0.00    -0.070 Cl
ENDROOT
TORSDOF 0
ENDMDL
