MODEL 1
REMARK minimizedAffinity 5.11065054
REMARK minimizedRMSD -1
REMARK  0 active torsions:
REMARK  status: ('A' for Active; 'I' for Inactive)
ROOT
ATOM      1  C   UNL d   1      -2.607   2.176   2.122  0.00  0.00     0.020 A 
ATOM      2  C1  UNL d   1      -2.734   2.537   0.781  0.00  0.00     0.020 A 
ATOM      3  C2  UNL d   1      -1.767   2.137  -0.144  0.00  0.00     0.034 A 
ATOM      4  C3  UNL d   1      -0.669   1.375   0.271  0.00  0.00     0.017 A 
ATOM      5  C4  UNL d   1      -0.543   1.013   1.617  0.00  0.00     0.017 A 
ATOM      6  C5  UNL d   1      -1.514   1.416   2.539  0.00  0.00     0.034 A 
ATOM      7 Cl   UNL d   1       0.784   0.073   2.205  0.00  0.00    -0.070 Cl
ATOM      8 Cl1  UNL d   1       0.489   0.915  -0.926  0.00  0.00    -0.070 Cl
ENDROOT
TORSDOF 0
ENDMDL
