MODEL 1
REMARK minimizedAffinity 2.28991652
REMARK minimizedRMSD -1
REMARK  0 active torsions:
REMARK  status: ('A' for Active; 'I' for Inactive)
ROOT
ATOM      1  C   UNL d   1      -2.655   2.228   1.372  0.00  0.00     0.020 A 
ATOM      2  C1  UNL d   1      -2.444   2.453   0.012  0.00  0.00     0.020 A 
ATOM      3  C2  UNL d   1      -1.279   1.985  -0.600  0.00  0.00     0.034 A 
ATOM      4  C3  UNL d   1      -0.321   1.290   0.148  0.00  0.00     0.017 A 
ATOM      5  C4  UNL d   1      -0.535   1.065   1.513  0.00  0.00     0.017 A 
ATOM      6  C5  UNL d   1      -1.703   1.536   2.120  0.00  0.00     0.034 A 
ATOM      7 Cl   UNL d   1       0.601   0.216   2.501  0.00  0.00    -0.070 Cl
ATOM      8 Cl1  UNL d   1       1.095   0.739  -0.673  0.00  0.00    -0.070 Cl
ENDROOT
TORSDOF 0
ENDMDL
