MODEL 1
REMARK minimizedAffinity 8.62547493
REMARK minimizedRMSD -1
REMARK  0 active torsions:
REMARK  status: ('A' for Active; 'I' for Inactive)
ROOT
ATOM      1  C   UNL d   1       1.117   1.344  -1.923  0.00  0.00     0.020 A 
ATOM      2  C1  UNL d   1       0.662   0.358  -2.798  0.00  0.00     0.020 A 
ATOM      3  C2  UNL d   1      -0.675  -0.045  -2.760  0.00  0.00     0.034 A 
ATOM      4  C3  UNL d   1      -1.560   0.538  -1.846  0.00  0.00     0.017 A 
ATOM      5  C4  UNL d   1      -1.102   1.527  -0.968  0.00  0.00     0.017 A 
ATOM      6  C5  UNL d   1       0.237   1.927  -1.010  0.00  0.00     0.034 A 
ATOM      7 Cl   UNL d   1      -2.135   2.292   0.188  0.00  0.00    -0.070 Cl
ATOM      8 Cl1  UNL d   1      -3.199  -0.009  -1.855  0.00  0.00    -0.070 Cl
ENDROOT
TORSDOF 0
ENDMDL
