MODEL 1
REMARK minimizedAffinity 7.06585407
REMARK minimizedRMSD -1
REMARK  0 active torsions:
REMARK  status: ('A' for Active; 'I' for Inactive)
ROOT
ATOM      1  C   UNL d   1       6.000  -2.169   0.619  0.00  0.00     0.020 A 
ATOM      2  C1  UNL d   1       5.926  -2.170  -0.773  0.00  0.00     0.020 A 
ATOM      3  C2  UNL d   1       5.691  -3.364  -1.459  0.00  0.00     0.034 A 
ATOM      4  C3  UNL d   1       5.529  -4.561  -0.753  0.00  0.00     0.017 A 
ATOM      5  C4  UNL d   1       5.603  -4.559   0.645  0.00  0.00     0.017 A 
ATOM      6  C5  UNL d   1       5.839  -3.361   1.327  0.00  0.00     0.034 A 
ATOM      7 Cl   UNL d   1       5.413  -5.997   1.585  0.00  0.00    -0.070 Cl
ATOM      8 Cl1  UNL d   1       5.241  -6.000  -1.665  0.00  0.00    -0.070 Cl
ENDROOT
TORSDOF 0
ENDMDL
