MODEL 1
REMARK minimizedAffinity 0.521694005
REMARK minimizedRMSD -1
REMARK  0 active torsions:
REMARK  status: ('A' for Active; 'I' for Inactive)
ROOT
ATOM      1  C   UNL d   1      -2.980   2.085   1.072  0.00  0.00     0.020 A 
ATOM      2  C1  UNL d   1      -1.717   2.583   0.756  0.00  0.00     0.020 A 
ATOM      3  C2  UNL d   1      -0.575   1.975   1.281  0.00  0.00     0.034 A 
ATOM      4  C3  UNL d   1      -0.694   0.865   2.126  0.00  0.00     0.017 A 
ATOM      5  C4  UNL d   1      -1.962   0.366   2.443  0.00  0.00     0.017 A 
ATOM      6  C5  UNL d   1      -3.102   0.978   1.914  0.00  0.00     0.034 A 
ATOM      7 Cl   UNL d   1      -2.189  -1.000   3.478  0.00  0.00    -0.070 Cl
ATOM      8 Cl1  UNL d   1       0.761   0.163   2.739  0.00  0.00    -0.070 Cl
ENDROOT
TORSDOF 0
ENDMDL
