MODEL 1
REMARK minimizedAffinity 2.59804273
REMARK minimizedRMSD -1
REMARK  0 active torsions:
REMARK  status: ('A' for Active; 'I' for Inactive)
ROOT
ATOM      1  C   UNL d   1       5.972  -2.224   0.854  0.00  0.00     0.020 A 
ATOM      2  C1  UNL d   1       4.932  -1.382   0.463  0.00  0.00     0.020 A 
ATOM      3  C2  UNL d   1       3.613  -1.839   0.497  0.00  0.00     0.034 A 
ATOM      4  C3  UNL d   1       3.330  -3.142   0.923  0.00  0.00     0.017 A 
ATOM      5  C4  UNL d   1       4.375  -3.987   1.315  0.00  0.00     0.017 A 
ATOM      6  C5  UNL d   1       5.694  -3.524   1.279  0.00  0.00     0.034 A 
ATOM      7 Cl   UNL d   1       4.105  -5.607   1.852  0.00  0.00    -0.070 Cl
ATOM      8 Cl1  UNL d   1       1.676  -3.641   0.940  0.00  0.00    -0.070 Cl
ENDROOT
TORSDOF 0
ENDMDL
