MODEL 1
REMARK minimizedAffinity 9.11854267
REMARK minimizedRMSD -1
REMARK  0 active torsions:
REMARK  status: ('A' for Active; 'I' for Inactive)
ROOT
ATOM      1  C   UNL d   1      -5.461  -5.547   5.972  0.00  0.00     0.020 A 
ATOM      2  C1  UNL d   1      -4.196  -5.823   5.456  0.00  0.00     0.020 A 
ATOM      3  C2  UNL d   1      -3.466  -4.817   4.819  0.00  0.00     0.034 A 
ATOM      4  C3  UNL d   1      -4.002  -3.530   4.695  0.00  0.00     0.017 A 
ATOM      5  C4  UNL d   1      -5.272  -3.254   5.213  0.00  0.00     0.017 A 
ATOM      6  C5  UNL d   1      -5.998  -4.265   5.851  0.00  0.00     0.034 A 
ATOM      7 Cl   UNL d   1      -6.000  -1.690   5.099  0.00  0.00    -0.070 Cl
ATOM      8 Cl1  UNL d   1      -3.045  -2.335   3.895  0.00  0.00    -0.070 Cl
ENDROOT
TORSDOF 0
ENDMDL
