MODEL 1
REMARK minimizedAffinity 8.45237637
REMARK minimizedRMSD -1
REMARK  0 active torsions:
REMARK  status: ('A' for Active; 'I' for Inactive)
ROOT
ATOM      1  C   UNL d   1      -2.142   3.506   0.827  0.00  0.00     0.020 A 
ATOM      2  C1  UNL d   1      -3.081   2.477   0.877  0.00  0.00     0.020 A 
ATOM      3  C2  UNL d   1      -2.859   1.368   1.696  0.00  0.00     0.034 A 
ATOM      4  C3  UNL d   1      -1.694   1.285   2.468  0.00  0.00     0.017 A 
ATOM      5  C4  UNL d   1      -0.752   2.319   2.417  0.00  0.00     0.017 A 
ATOM      6  C5  UNL d   1      -0.980   3.427   1.595  0.00  0.00     0.034 A 
ATOM      7 Cl   UNL d   1       0.709   2.288   3.340  0.00  0.00    -0.070 Cl
ATOM      8 Cl1  UNL d   1      -1.484  -0.115   3.457  0.00  0.00    -0.070 Cl
ENDROOT
TORSDOF 0
ENDMDL
