MODEL 1
REMARK minimizedAffinity 0.909697473
REMARK minimizedRMSD -1
REMARK  0 active torsions:
REMARK  status: ('A' for Active; 'I' for Inactive)
ROOT
ATOM      1  C   UNL d   1       6.000  -2.277   0.757  0.00  0.00     0.020 A 
ATOM      2  C1  UNL d   1       5.809  -3.631   0.487  0.00  0.00     0.020 A 
ATOM      3  C2  UNL d   1       4.529  -4.185   0.565  0.00  0.00     0.034 A 
ATOM      4  C3  UNL d   1       3.436  -3.384   0.914  0.00  0.00     0.017 A 
ATOM      5  C4  UNL d   1       3.629  -2.025   1.186  0.00  0.00     0.017 A 
ATOM      6  C5  UNL d   1       4.912  -1.475   1.106  0.00  0.00     0.034 A 
ATOM      7 Cl   UNL d   1       2.329  -0.974   1.624  0.00  0.00    -0.070 Cl
ATOM      8 Cl1  UNL d   1       1.882  -4.135   0.991  0.00  0.00    -0.070 Cl
ENDROOT
TORSDOF 0
ENDMDL
