MODEL 1
REMARK minimizedAffinity 9.87175941
REMARK minimizedRMSD -1
REMARK  0 active torsions:
REMARK  status: ('A' for Active; 'I' for Inactive)
ROOT
ATOM      1  C   UNL d   1      -3.126   2.504   0.898  0.00  0.00     0.020 A 
ATOM      2  C1  UNL d   1      -2.019   3.331   0.714  0.00  0.00     0.020 A 
ATOM      3  C2  UNL d   1      -0.843   3.094   1.430  0.00  0.00     0.034 A 
ATOM      4  C3  UNL d   1      -0.772   2.027   2.333  0.00  0.00     0.017 A 
ATOM      5  C4  UNL d   1      -1.884   1.197   2.517  0.00  0.00     0.017 A 
ATOM      6  C5  UNL d   1      -3.058   1.439   1.798  0.00  0.00     0.034 A 
ATOM      7 Cl   UNL d   1      -1.872  -0.138   3.614  0.00  0.00    -0.070 Cl
ATOM      8 Cl1  UNL d   1       0.713   1.793   3.184  0.00  0.00    -0.070 Cl
ENDROOT
TORSDOF 0
ENDMDL
