MODEL 1
REMARK minimizedAffinity 11.0289574
REMARK minimizedRMSD -1
REMARK  3 active torsions:
REMARK  status: ('A' for Active; 'I' for Inactive)
REMARK    1  A    between atoms: C3'_2  and  C2'_3 
REMARK    2  A    between atoms: C2'_3  and  C1'_4 
REMARK    3  A    between atoms: C1'_4  and  C1_5 
ROOT
ATOM      1  C1  N4B d   1       3.219   1.645  -1.482  0.00  0.00    -0.075 A 
ATOM      2  C2  N4B d   1       4.173   2.612  -1.871  0.00  0.00     0.002 A 
ATOM      3  C3  N4B d   1       3.970   3.359  -3.005  0.00  0.00     0.002 A 
ATOM      4  C4  N4B d   1       2.835   3.146  -3.773  0.00  0.00    -0.004 A 
ATOM      5  C5  N4B d   1       1.906   2.229  -3.377  0.00  0.00     0.002 A 
ATOM      6  C6  N4B d   1       2.095   1.473  -2.237  0.00  0.00     0.002 A 
ENDROOT
BRANCH   1   7
ATOM      7  C1' N4B d   1       3.439   0.744  -0.298  0.00  0.00     0.057 C 
BRANCH   7   8
ATOM      8  C2' N4B d   1       2.267   0.891   0.667  0.00  0.00     0.009 C 
BRANCH   8   9
ATOM      9  C3' N4B d   1       2.055  -0.363   1.498  0.00  0.00     0.004 C 
ATOM     10  C4' N4B d   1       0.628  -0.826   1.497  0.00  0.00     0.003 C 
ENDBRANCH   8   9
ENDBRANCH   7   8
ENDBRANCH   1   7
TORSDOF 3
ENDMDL
