MODEL 1
REMARK minimizedAffinity 14.7868605
REMARK minimizedRMSD -1
REMARK  3 active torsions:
REMARK  status: ('A' for Active; 'I' for Inactive)
REMARK    1  A    between atoms: C3'_2  and  C2'_3 
REMARK    2  A    between atoms: C2'_3  and  C1'_4 
REMARK    3  A    between atoms: C1'_4  and  C1_5 
ROOT
ATOM      1  C1  N4B d   1      -0.623  -1.402   1.923  0.00  0.00    -0.075 A 
ATOM      2  C2  N4B d   1      -1.605  -1.646   0.938  0.00  0.00     0.002 A 
ATOM      3  C3  N4B d   1      -2.718  -0.846   0.865  0.00  0.00     0.002 A 
ATOM      4  C4  N4B d   1      -2.880   0.189   1.774  0.00  0.00    -0.004 A 
ATOM      5  C5  N4B d   1      -1.915   0.434   2.707  0.00  0.00     0.002 A 
ATOM      6  C6  N4B d   1      -0.789  -0.360   2.789  0.00  0.00     0.002 A 
ENDROOT
BRANCH   1   7
ATOM      7  C1' N4B d   1       0.569  -2.303   2.096  0.00  0.00     0.057 C 
BRANCH   7   8
ATOM      8  C2' N4B d   1       1.612  -1.593   2.956  0.00  0.00     0.009 C 
BRANCH   8   9
ATOM      9  C3' N4B d   1       2.383  -2.566   3.832  0.00  0.00     0.004 C 
ATOM     10  C4' N4B d   1       1.487  -3.495   4.596  0.00  0.00     0.003 C 
ENDBRANCH   8   9
ENDBRANCH   7   8
ENDBRANCH   1   7
TORSDOF 3
ENDMDL
