MODEL 1
REMARK minimizedAffinity 8.59598637
REMARK minimizedRMSD -1
REMARK  3 active torsions:
REMARK  status: ('A' for Active; 'I' for Inactive)
REMARK    1  A    between atoms: C3'_2  and  C2'_3 
REMARK    2  A    between atoms: C2'_3  and  C1'_4 
REMARK    3  A    between atoms: C1'_4  and  C1_5 
ROOT
ATOM      1  C1  N4B d   1      -5.898  -4.846   3.237  0.00  0.00    -0.075 A 
ATOM      2  C2  N4B d   1      -5.855  -3.605   3.909  0.00  0.00     0.002 A 
ATOM      3  C3  N4B d   1      -5.885  -3.567   5.282  0.00  0.00     0.002 A 
ATOM      4  C4  N4B d   1      -5.976  -4.750   6.000  0.00  0.00    -0.004 A 
ATOM      5  C5  N4B d   1      -5.991  -5.946   5.343  0.00  0.00     0.002 A 
ATOM      6  C6  N4B d   1      -5.958  -6.000   3.964  0.00  0.00     0.002 A 
ENDROOT
BRANCH   1   7
ATOM      7  C1' N4B d   1      -5.955  -4.935   1.736  0.00  0.00     0.057 C 
BRANCH   7   8
ATOM      8  C2' N4B d   1      -4.763  -4.188   1.145  0.00  0.00     0.009 C 
BRANCH   8   9
ATOM      9  C3' N4B d   1      -4.270  -3.086   2.066  0.00  0.00     0.004 C 
ATOM     10  C4' N4B d   1      -3.051  -2.389   1.538  0.00  0.00     0.003 C 
ENDBRANCH   8   9
ENDBRANCH   7   8
ENDBRANCH   1   7
TORSDOF 3
ENDMDL
