MODEL 1
REMARK minimizedAffinity 7.84142208
REMARK minimizedRMSD -1
REMARK  3 active torsions:
REMARK  status: ('A' for Active; 'I' for Inactive)
REMARK    1  A    between atoms: C3'_2  and  C2'_3 
REMARK    2  A    between atoms: C2'_3  and  C1'_4 
REMARK    3  A    between atoms: C1'_4  and  C1_5 
ROOT
ATOM      1  C1  N4B d   1      -2.409  -0.034   0.955  0.00  0.00    -0.075 A 
ATOM      2  C2  N4B d   1      -3.020   0.531   2.096  0.00  0.00     0.002 A 
ATOM      3  C3  N4B d   1      -2.577   0.192   3.351  0.00  0.00     0.002 A 
ATOM      4  C4  N4B d   1      -1.541  -0.720   3.489  0.00  0.00    -0.004 A 
ATOM      5  C5  N4B d   1      -0.940  -1.241   2.382  0.00  0.00     0.002 A 
ATOM      6  C6  N4B d   1      -1.372  -0.906   1.114  0.00  0.00     0.002 A 
ENDROOT
BRANCH   1   7
ATOM      7  C1' N4B d   1      -2.916   0.241  -0.434  0.00  0.00     0.057 C 
BRANCH   7   8
ATOM      8  C2' N4B d   1      -3.798   1.486  -0.409  0.00  0.00     0.009 C 
BRANCH   8   9
ATOM      9  C3' N4B d   1      -5.260   1.151  -0.649  0.00  0.00     0.004 C 
ATOM     10  C4' N4B d   1      -5.999   0.833   0.616  0.00  0.00     0.003 C 
ENDBRANCH   8   9
ENDBRANCH   7   8
ENDBRANCH   1   7
TORSDOF 3
ENDMDL
