MODEL 1
REMARK minimizedAffinity 13.133852
REMARK minimizedRMSD -1
REMARK  3 active torsions:
REMARK  status: ('A' for Active; 'I' for Inactive)
REMARK    1  A    between atoms: C3'_2  and  C2'_3 
REMARK    2  A    between atoms: C2'_3  and  C1'_4 
REMARK    3  A    between atoms: C1'_4  and  C1_5 
ROOT
ATOM      1  C1  N4B d   1       3.057   1.834  -0.786  0.00  0.00    -0.075 A 
ATOM      2  C2  N4B d   1       2.336   1.289  -1.871  0.00  0.00     0.002 A 
ATOM      3  C3  N4B d   1       2.462   1.837  -3.124  0.00  0.00     0.002 A 
ATOM      4  C4  N4B d   1       3.284   2.938  -3.311  0.00  0.00    -0.004 A 
ATOM      5  C5  N4B d   1       3.997   3.443  -2.263  0.00  0.00     0.002 A 
ATOM      6  C6  N4B d   1       3.883   2.899  -1.000  0.00  0.00     0.002 A 
ENDROOT
BRANCH   1   7
ATOM      7  C1' N4B d   1       2.886   1.322   0.618  0.00  0.00     0.057 C 
BRANCH   7   8
ATOM      8  C2' N4B d   1       2.165  -0.022   0.577  0.00  0.00     0.009 C 
BRANCH   8   9
ATOM      9  C3' N4B d   1       1.301  -0.241   1.807  0.00  0.00     0.004 C 
ATOM     10  C4' N4B d   1       0.009  -0.934   1.494  0.00  0.00     0.003 C 
ENDBRANCH   8   9
ENDBRANCH   7   8
ENDBRANCH   1   7
TORSDOF 3
ENDMDL
