MODEL 1
REMARK minimizedAffinity 12.2066879
REMARK minimizedRMSD -1
REMARK  3 active torsions:
REMARK  status: ('A' for Active; 'I' for Inactive)
REMARK    1  A    between atoms: C3'_2  and  C2'_3 
REMARK    2  A    between atoms: C2'_3  and  C1'_4 
REMARK    3  A    between atoms: C1'_4  and  C1_5 
ROOT
ATOM      1  C1  N4B d   1      -0.614  -0.888   3.992  0.00  0.00    -0.075 A 
ATOM      2  C2  N4B d   1       0.447  -1.697   4.456  0.00  0.00     0.002 A 
ATOM      3  C3  N4B d   1       1.066  -2.575   3.601  0.00  0.00     0.002 A 
ATOM      4  C4  N4B d   1       0.632  -2.674   2.287  0.00  0.00    -0.004 A 
ATOM      5  C5  N4B d   1      -0.376  -1.871   1.840  0.00  0.00     0.002 A 
ATOM      6  C6  N4B d   1      -1.005  -0.982   2.688  0.00  0.00     0.002 A 
ENDROOT
BRANCH   1   7
ATOM      7  C1' N4B d   1      -1.378   0.024   4.912  0.00  0.00     0.057 C 
BRANCH   7   8
ATOM      8  C2' N4B d   1      -2.563   0.619   4.157  0.00  0.00     0.009 C 
BRANCH   8   9
ATOM      9  C3' N4B d   1      -3.784   0.774   5.047  0.00  0.00     0.004 C 
ATOM     10  C4' N4B d   1      -4.659   1.921   4.638  0.00  0.00     0.003 C 
ENDBRANCH   8   9
ENDBRANCH   7   8
ENDBRANCH   1   7
TORSDOF 3
ENDMDL
