MODEL 1
REMARK minimizedAffinity 5.92168665
REMARK minimizedRMSD -1
REMARK  3 active torsions:
REMARK  status: ('A' for Active; 'I' for Inactive)
REMARK    1  A    between atoms: C3'_2  and  C2'_3 
REMARK    2  A    between atoms: C2'_3  and  C1'_4 
REMARK    3  A    between atoms: C1'_4  and  C1_5 
ROOT
ATOM      1  C1  N4B d   1      -0.350   4.898  -4.512  0.00  0.00    -0.075 A 
ATOM      2  C2  N4B d   1      -1.392   4.813  -3.563  0.00  0.00     0.002 A 
ATOM      3  C3  N4B d   1      -2.631   5.326  -3.855  0.00  0.00     0.002 A 
ATOM      4  C4  N4B d   1      -2.847   5.943  -5.078  0.00  0.00    -0.004 A 
ATOM      5  C5  N4B d   1      -1.842   5.999  -6.000  0.00  0.00     0.002 A 
ATOM      6  C6  N4B d   1      -0.593   5.484  -5.721  0.00  0.00     0.002 A 
ENDROOT
BRANCH   1   7
ATOM      7  C1' N4B d   1       1.046   4.428  -4.205  0.00  0.00     0.057 C 
BRANCH   7   8
ATOM      8  C2' N4B d   1       0.972   3.137  -3.395  0.00  0.00     0.009 C 
BRANCH   8   9
ATOM      9  C3' N4B d   1       2.339   2.702  -2.895  0.00  0.00     0.004 C 
ATOM     10  C4' N4B d   1       2.262   1.853  -1.661  0.00  0.00     0.003 C 
ENDBRANCH   8   9
ENDBRANCH   7   8
ENDBRANCH   1   7
TORSDOF 3
ENDMDL
