MODEL 1
REMARK minimizedAffinity -4.36177254
REMARK minimizedRMSD -1
REMARK  0 active torsions:
REMARK  status: ('A' for Active; 'I' for Inactive)
ROOT
ATOM      1  C1  DEN d   1      -1.910  -0.902   1.753  0.00  0.00     0.130 A 
ATOM      2  C2  DEN d   1      -2.471  -0.734   0.415  0.00  0.00    -0.031 A 
ATOM      3  C3  DEN d   1      -1.351  -0.534  -0.527  0.00  0.00     0.027 A 
ATOM      4  C4  DEN d   1       1.182  -0.474  -0.047  0.00  0.00     0.027 A 
ATOM      5  C5  DEN d   1       2.140  -0.557   0.940  0.00  0.00    -0.003 A 
ATOM      6  C6  DEN d   1       1.816  -0.726   2.260  0.00  0.00     0.001 A 
ATOM      7  C7  DEN d   1       0.503  -0.862   2.624  0.00  0.00     0.017 A 
ATOM      8  C8  DEN d   1      -0.469  -0.772   1.637  0.00  0.00    -0.094 A 
ATOM      9  C9  DEN d   1      -0.121  -0.613   0.306  0.00  0.00    -0.072 A 
ENDROOT
TORSDOF 0
ENDMDL
