MODEL 1
REMARK minimizedAffinity -2.8754437
REMARK minimizedRMSD -1
REMARK  0 active torsions:
REMARK  status: ('A' for Active; 'I' for Inactive)
ROOT
ATOM      1  C1  DEN d   1      -0.086  -0.300   2.987  0.00  0.00     0.130 A 
ATOM      2  C2  DEN d   1       1.336   0.032   2.973  0.00  0.00    -0.031 A 
ATOM      3  C3  DEN d   1       1.761   0.164   1.565  0.00  0.00     0.027 A 
ATOM      4  C4  DEN d   1       0.361  -0.105  -0.584  0.00  0.00     0.027 A 
ATOM      5  C5  DEN d   1      -0.891  -0.396  -1.079  0.00  0.00    -0.003 A 
ATOM      6  C6  DEN d   1      -1.946  -0.706  -0.262  0.00  0.00     0.001 A 
ATOM      7  C7  DEN d   1      -1.779  -0.688   1.098  0.00  0.00     0.017 A 
ATOM      8  C8  DEN d   1      -0.517  -0.403   1.604  0.00  0.00    -0.094 A 
ATOM      9  C9  DEN d   1       0.533  -0.080   0.762  0.00  0.00    -0.072 A 
ENDROOT
TORSDOF 0
ENDMDL
