MODEL 1
REMARK minimizedAffinity -1.74618554
REMARK minimizedRMSD -1
REMARK  0 active torsions:
REMARK  status: ('A' for Active; 'I' for Inactive)
ROOT
ATOM      1  C1  DEN d   1       1.232  -1.813   2.595  0.00  0.00     0.130 A 
ATOM      2  C2  DEN d   1       0.232  -1.113   3.397  0.00  0.00    -0.031 A 
ATOM      3  C3  DEN d   1      -0.593  -0.294   2.486  0.00  0.00     0.027 A 
ATOM      4  C4  DEN d   1      -0.422  -0.046  -0.076  0.00  0.00     0.027 A 
ATOM      5  C5  DEN d   1       0.276  -0.435  -1.197  0.00  0.00    -0.003 A 
ATOM      6  C6  DEN d   1       1.355  -1.277  -1.130  0.00  0.00     0.001 A 
ATOM      7  C7  DEN d   1       1.739  -1.793   0.080  0.00  0.00     0.017 A 
ATOM      8  C8  DEN d   1       1.043  -1.400   1.216  0.00  0.00    -0.094 A 
ATOM      9  C9  DEN d   1      -0.052  -0.558   1.125  0.00  0.00    -0.072 A 
ENDROOT
TORSDOF 0
ENDMDL
