MODEL 1
REMARK minimizedAffinity 0.630994499
REMARK minimizedRMSD -1
REMARK  0 active torsions:
REMARK  status: ('A' for Active; 'I' for Inactive)
ROOT
ATOM      1  C1  DEN d   1      -0.405  -4.643   2.960  0.00  0.00     0.130 A 
ATOM      2  C2  DEN d   1      -1.586  -3.799   2.799  0.00  0.00    -0.031 A 
ATOM      3  C3  DEN d   1      -1.140  -2.476   2.317  0.00  0.00     0.027 A 
ATOM      4  C4  DEN d   1       1.251  -1.659   1.803  0.00  0.00     0.027 A 
ATOM      5  C5  DEN d   1       2.582  -2.014   1.798  0.00  0.00    -0.003 A 
ATOM      6  C6  DEN d   1       3.011  -3.248   2.209  0.00  0.00     0.001 A 
ATOM      7  C7  DEN d   1       2.094  -4.189   2.600  0.00  0.00     0.017 A 
ATOM      8  C8  DEN d   1       0.751  -3.836   2.614  0.00  0.00    -0.094 A 
ATOM      9  C9  DEN d   1       0.338  -2.587   2.183  0.00  0.00    -0.072 A 
ENDROOT
TORSDOF 0
ENDMDL
