MODEL 1
REMARK minimizedAffinity -4.46438074
REMARK minimizedRMSD -1
REMARK  0 active torsions:
REMARK  status: ('A' for Active; 'I' for Inactive)
ROOT
ATOM      1  C1  DEN d   1      -0.019  -0.390  -0.970  0.00  0.00     0.130 A 
ATOM      2  C2  DEN d   1      -1.423  -0.784  -0.879  0.00  0.00    -0.031 A 
ATOM      3  C3  DEN d   1      -1.712  -1.119   0.529  0.00  0.00     0.027 A 
ATOM      4  C4  DEN d   1      -0.134  -1.063   2.568  0.00  0.00     0.027 A 
ATOM      5  C5  DEN d   1       1.154  -0.805   2.985  0.00  0.00    -0.003 A 
ATOM      6  C6  DEN d   1       2.141  -0.427   2.114  0.00  0.00     0.001 A 
ATOM      7  C7  DEN d   1       1.845  -0.252   0.787  0.00  0.00     0.017 A 
ATOM      8  C8  DEN d   1       0.551  -0.517   0.359  0.00  0.00    -0.094 A 
ATOM      9  C9  DEN d   1      -0.436  -0.887   1.257  0.00  0.00    -0.072 A 
ENDROOT
TORSDOF 0
ENDMDL
