MODEL 1
REMARK minimizedAffinity -1.72238183
REMARK minimizedRMSD -1
REMARK  0 active torsions:
REMARK  status: ('A' for Active; 'I' for Inactive)
ROOT
ATOM      1  C1  DEN d   1       2.167  -0.788   1.976  0.00  0.00     0.130 A 
ATOM      2  C2  DEN d   1       1.548  -0.912   3.293  0.00  0.00    -0.031 A 
ATOM      3  C3  DEN d   1       0.095  -0.702   3.137  0.00  0.00     0.027 A 
ATOM      4  C4  DEN d   1      -1.252  -0.205   0.994  0.00  0.00     0.027 A 
ATOM      5  C5  DEN d   1      -1.163   0.004  -0.365  0.00  0.00    -0.003 A 
ATOM      6  C6  DEN d   1       0.036  -0.003  -1.028  0.00  0.00     0.001 A 
ATOM      7  C7  DEN d   1       1.191  -0.268  -0.340  0.00  0.00     0.017 A 
ATOM      8  C8  DEN d   1       1.110  -0.472   1.032  0.00  0.00    -0.094 A 
ATOM      9  C9  DEN d   1      -0.113  -0.473   1.681  0.00  0.00    -0.072 A 
ENDROOT
TORSDOF 0
ENDMDL
