MODEL 1
REMARK minimizedAffinity -1.62812865
REMARK minimizedRMSD -1
REMARK  0 active torsions:
REMARK  status: ('A' for Active; 'I' for Inactive)
ROOT
ATOM      1  C1  DEN d   1      -2.906  -1.956  -1.414  0.00  0.00     0.130 A 
ATOM      2  C2  DEN d   1      -3.781  -2.696  -0.509  0.00  0.00    -0.031 A 
ATOM      3  C3  DEN d   1      -3.258  -2.536   0.863  0.00  0.00     0.027 A 
ATOM      4  C4  DEN d   1      -1.193  -1.218   1.669  0.00  0.00     0.027 A 
ATOM      5  C5  DEN d   1      -0.132  -0.436   1.266  0.00  0.00    -0.003 A 
ATOM      6  C6  DEN d   1       0.096  -0.138  -0.052  0.00  0.00     0.001 A 
ATOM      7  C7  DEN d   1      -0.775  -0.586  -1.010  0.00  0.00     0.017 A 
ATOM      8  C8  DEN d   1      -1.843  -1.380  -0.612  0.00  0.00    -0.094 A 
ATOM      9  C9  DEN d   1      -2.063  -1.661   0.726  0.00  0.00    -0.072 A 
ENDROOT
TORSDOF 0
ENDMDL
