MODEL 1
REMARK minimizedAffinity -3.45980382
REMARK minimizedRMSD -1
REMARK  0 active torsions:
REMARK  status: ('A' for Active; 'I' for Inactive)
ROOT
ATOM      1  C1  DEN d   1      -1.741  -0.454  -0.322  0.00  0.00     0.130 A 
ATOM      2  C2  DEN d   1      -1.458  -0.410  -1.754  0.00  0.00    -0.031 A 
ATOM      3  C3  DEN d   1       0.003  -0.524  -1.934  0.00  0.00     0.027 A 
ATOM      4  C4  DEN d   1       1.845  -0.768  -0.144  0.00  0.00     0.027 A 
ATOM      5  C5  DEN d   1       2.093  -0.841   1.208  0.00  0.00    -0.003 A 
ATOM      6  C6  DEN d   1       1.092  -0.758   2.140  0.00  0.00     0.001 A 
ATOM      7  C7  DEN d   1      -0.210  -0.641   1.729  0.00  0.00     0.017 A 
ATOM      8  C8  DEN d   1      -0.467  -0.558   0.366  0.00  0.00    -0.094 A 
ATOM      9  C9  DEN d   1       0.558  -0.657  -0.560  0.00  0.00    -0.072 A 
ENDROOT
TORSDOF 0
ENDMDL
