MODEL 1
REMARK minimizedAffinity -0.169022009
REMARK minimizedRMSD -1
REMARK  0 active torsions:
REMARK  status: ('A' for Active; 'I' for Inactive)
ROOT
ATOM      1  C   UNL d   1      -0.691   4.355   4.971  0.00  0.00    -0.002 A 
ATOM      2  C1  UNL d   1      -1.877   4.266   4.257  0.00  0.00     0.010 A 
ATOM      3  C2  UNL d   1      -1.927   3.575   3.045  0.00  0.00     0.041 A 
ATOM      4  C3  UNL d   1      -0.752   2.967   2.559  0.00  0.00    -0.075 A 
ATOM      5  S   UNL d   1      -0.575   2.068   1.098  0.00  0.00     0.015 SA
ATOM      6  C4  UNL d   1       1.079   1.780   1.389  0.00  0.00     0.022 A 
ATOM      7  C5  UNL d   1       1.503   2.349   2.566  0.00  0.00     0.026 A 
ATOM      8  C6  UNL d   1       0.454   3.042   3.260  0.00  0.00    -0.082 A 
ATOM      9  C7  UNL d   1       0.472   3.750   4.486  0.00  0.00     0.045 A 
ENDROOT
TORSDOF 0
ENDMDL
