MODEL 1
REMARK minimizedAffinity 7.61244059
REMARK minimizedRMSD -1
REMARK  0 active torsions:
REMARK  status: ('A' for Active; 'I' for Inactive)
ROOT
ATOM      1  C   UNL d   1       1.718   2.966   3.332  0.00  0.00    -0.002 A 
ATOM      2  C1  UNL d   1       0.607   3.190   4.132  0.00  0.00     0.010 A 
ATOM      3  C2  UNL d   1      -0.598   2.533   3.875  0.00  0.00     0.041 A 
ATOM      4  C3  UNL d   1      -0.667   1.636   2.791  0.00  0.00    -0.075 A 
ATOM      5  S   UNL d   1      -2.036   0.718   2.287  0.00  0.00     0.015 SA
ATOM      6  C4  UNL d   1      -1.178   0.006   0.998  0.00  0.00     0.022 A 
ATOM      7  C5  UNL d   1       0.122   0.447   0.939  0.00  0.00     0.026 A 
ATOM      8  C6  UNL d   1       0.439   1.393   1.971  0.00  0.00    -0.082 A 
ATOM      9  C7  UNL d   1       1.646   2.076   2.257  0.00  0.00     0.045 A 
ENDROOT
TORSDOF 0
ENDMDL
