MODEL 1
REMARK minimizedAffinity 11.7848215
REMARK minimizedRMSD -1
REMARK  0 active torsions:
REMARK  status: ('A' for Active; 'I' for Inactive)
ROOT
ATOM      1  C   UNL d   1       4.869   2.751  -5.998  0.00  0.00    -0.002 A 
ATOM      2  C1  UNL d   1       4.480   4.083  -5.999  0.00  0.00     0.010 A 
ATOM      3  C2  UNL d   1       3.801   4.625  -4.906  0.00  0.00     0.041 A 
ATOM      4  C3  UNL d   1       3.518   3.798  -3.801  0.00  0.00    -0.075 A 
ATOM      5  S   UNL d   1       2.698   4.245  -2.352  0.00  0.00     0.015 SA
ATOM      6  C4  UNL d   1       2.845   2.678  -1.698  0.00  0.00     0.022 A 
ATOM      7  C5  UNL d   1       3.501   1.822  -2.551  0.00  0.00     0.026 A 
ATOM      8  C6  UNL d   1       3.900   2.454  -3.777  0.00  0.00    -0.082 A 
ATOM      9  C7  UNL d   1       4.586   1.934  -4.901  0.00  0.00     0.045 A 
ENDROOT
TORSDOF 0
ENDMDL
