MODEL 1
REMARK minimizedAffinity -0.162376836
REMARK minimizedRMSD -1
REMARK  0 active torsions:
REMARK  status: ('A' for Active; 'I' for Inactive)
ROOT
ATOM      1  C   UNL d   1      -1.122   3.503   4.932  0.00  0.00    -0.002 A 
ATOM      2  C1  UNL d   1      -2.238   3.141   4.190  0.00  0.00     0.010 A 
ATOM      3  C2  UNL d   1      -2.094   2.511   2.953  0.00  0.00     0.041 A 
ATOM      4  C3  UNL d   1      -0.797   2.245   2.470  0.00  0.00    -0.075 A 
ATOM      5  S   UNL d   1      -0.378   1.482   0.982  0.00  0.00     0.015 SA
ATOM      6  C4  UNL d   1       1.292   1.617   1.297  0.00  0.00     0.022 A 
ATOM      7  C5  UNL d   1       1.541   2.227   2.504  0.00  0.00     0.026 A 
ATOM      8  C6  UNL d   1       0.342   2.599   3.200  0.00  0.00    -0.082 A 
ATOM      9  C7  UNL d   1       0.162   3.238   4.450  0.00  0.00     0.045 A 
ENDROOT
TORSDOF 0
ENDMDL
