MODEL 1
REMARK minimizedAffinity 2.80075026
REMARK minimizedRMSD -1
REMARK  0 active torsions:
REMARK  status: ('A' for Active; 'I' for Inactive)
ROOT
ATOM      1  C   UNL d   1      -0.242   0.949   1.107  0.00  0.00    -0.002 A 
ATOM      2  C1  UNL d   1       0.691   1.851   0.614  0.00  0.00     0.010 A 
ATOM      3  C2  UNL d   1       0.816   3.122   1.177  0.00  0.00     0.041 A 
ATOM      4  C3  UNL d   1      -0.018   3.475   2.256  0.00  0.00    -0.075 A 
ATOM      5  S   UNL d   1      -0.042   4.975   3.104  0.00  0.00     0.015 SA
ATOM      6  C4  UNL d   1      -1.290   4.454   4.142  0.00  0.00     0.022 A 
ATOM      7  C5  UNL d   1      -1.691   3.169   3.862  0.00  0.00     0.026 A 
ATOM      8  C6  UNL d   1      -0.964   2.583   2.771  0.00  0.00    -0.082 A 
ATOM      9  C7  UNL d   1      -1.067   1.302   2.177  0.00  0.00     0.045 A 
ENDROOT
TORSDOF 0
ENDMDL
