MODEL 1
REMARK minimizedAffinity 11.7649584
REMARK minimizedRMSD -1
REMARK  0 active torsions:
REMARK  status: ('A' for Active; 'I' for Inactive)
ROOT
ATOM      1  C   UNL d   1       1.004   3.869   4.045  0.00  0.00    -0.002 A 
ATOM      2  C1  UNL d   1       2.287   3.789   3.522  0.00  0.00     0.010 A 
ATOM      3  C2  UNL d   1       2.547   3.007   2.395  0.00  0.00     0.041 A 
ATOM      4  C3  UNL d   1       1.484   2.302   1.795  0.00  0.00    -0.075 A 
ATOM      5  S   UNL d   1       1.566   1.283   0.407  0.00  0.00     0.015 SA
ATOM      6  C4  UNL d   1      -0.101   0.931   0.475  0.00  0.00     0.022 A 
ATOM      7  C5  UNL d   1      -0.719   1.567   1.525  0.00  0.00     0.026 A 
ATOM      8  C6  UNL d   1       0.184   2.368   2.303  0.00  0.00    -0.082 A 
ATOM      9  C7  UNL d   1      -0.047   3.169   3.448  0.00  0.00     0.045 A 
ENDROOT
TORSDOF 0
ENDMDL
