MODEL 1
REMARK minimizedAffinity 3.58877206
REMARK minimizedRMSD -1
REMARK  0 active torsions:
REMARK  status: ('A' for Active; 'I' for Inactive)
ROOT
ATOM      1  C   UNL d   1      -5.137  -1.195   2.749  0.00  0.00    -0.002 A 
ATOM      2  C1  UNL d   1      -4.370  -2.305   3.072  0.00  0.00     0.010 A 
ATOM      3  C2  UNL d   1      -3.003  -2.330   2.789  0.00  0.00     0.041 A 
ATOM      4  C3  UNL d   1      -2.414  -1.209   2.171  0.00  0.00    -0.075 A 
ATOM      5  S   UNL d   1      -0.759  -1.014   1.730  0.00  0.00     0.015 SA
ATOM      6  C4  UNL d   1      -1.031   0.547   1.104  0.00  0.00     0.022 A 
ATOM      7  C5  UNL d   1      -2.347   0.927   1.220  0.00  0.00     0.026 A 
ATOM      8  C6  UNL d   1      -3.166  -0.079   1.837  0.00  0.00    -0.082 A 
ATOM      9  C7  UNL d   1      -4.550  -0.085   2.136  0.00  0.00     0.045 A 
ENDROOT
TORSDOF 0
ENDMDL
