MODEL 1
REMARK minimizedAffinity 3.71282601
REMARK minimizedRMSD -1
REMARK  0 active torsions:
REMARK  status: ('A' for Active; 'I' for Inactive)
ROOT
ATOM      1  C   UNL d   1      -0.399   4.616   4.335  0.00  0.00    -0.002 A 
ATOM      2  C1  UNL d   1      -1.455   3.716   4.368  0.00  0.00     0.010 A 
ATOM      3  C2  UNL d   1      -1.519   2.662   3.454  0.00  0.00     0.041 A 
ATOM      4  C3  UNL d   1      -0.492   2.526   2.499  0.00  0.00    -0.075 A 
ATOM      5  S   UNL d   1      -0.360   1.312   1.282  0.00  0.00     0.015 SA
ATOM      6  C4  UNL d   1       1.101   1.959   0.690  0.00  0.00     0.022 A 
ATOM      7  C5  UNL d   1       1.493   3.074   1.392  0.00  0.00     0.026 A 
ATOM      8  C6  UNL d   1       0.581   3.419   2.446  0.00  0.00    -0.082 A 
ATOM      9  C7  UNL d   1       0.617   4.477   3.386  0.00  0.00     0.045 A 
ENDROOT
TORSDOF 0
ENDMDL
