MODEL 1
REMARK minimizedAffinity -2.14103937
REMARK minimizedRMSD -1
REMARK  0 active torsions:
REMARK  status: ('A' for Active; 'I' for Inactive)
ROOT
ATOM      1  C   UNL d   1      -0.916   4.491   4.520  0.00  0.00    -0.002 A 
ATOM      2  C1  UNL d   1      -1.755   3.390   4.622  0.00  0.00     0.010 A 
ATOM      3  C2  UNL d   1      -1.573   2.280   3.795  0.00  0.00     0.041 A 
ATOM      4  C3  UNL d   1      -0.523   2.294   2.856  0.00  0.00    -0.075 A 
ATOM      5  S   UNL d   1      -0.110   1.046   1.740  0.00  0.00     0.015 SA
ATOM      6  C4  UNL d   1       1.190   1.945   1.102  0.00  0.00     0.022 A 
ATOM      7  C5  UNL d   1       1.320   3.169   1.714  0.00  0.00     0.026 A 
ATOM      8  C6  UNL d   1       0.335   3.390   2.735  0.00  0.00    -0.082 A 
ATOM      9  C7  UNL d   1       0.125   4.501   3.588  0.00  0.00     0.045 A 
ENDROOT
TORSDOF 0
ENDMDL
