MODEL 1
REMARK minimizedAffinity 14.1445494
REMARK minimizedRMSD -1
REMARK  0 active torsions:
REMARK  status: ('A' for Active; 'I' for Inactive)
ROOT
ATOM      1  C   UNL d   1       1.458   3.864   4.040  0.00  0.00    -0.002 A 
ATOM      2  C1  UNL d   1       0.198   3.522   4.509  0.00  0.00     0.010 A 
ATOM      3  C2  UNL d   1      -0.575   2.572   3.840  0.00  0.00     0.041 A 
ATOM      4  C3  UNL d   1      -0.055   1.964   2.680  0.00  0.00    -0.075 A 
ATOM      5  S   UNL d   1      -0.822   0.773   1.697  0.00  0.00     0.015 SA
ATOM      6  C4  UNL d   1       0.506   0.690   0.632  0.00  0.00     0.022 A 
ATOM      7  C5  UNL d   1       1.518   1.543   1.002  0.00  0.00     0.026 A 
ATOM      8  C6  UNL d   1       1.212   2.291   2.189  0.00  0.00    -0.082 A 
ATOM      9  C7  UNL d   1       1.971   3.259   2.889  0.00  0.00     0.045 A 
ENDROOT
TORSDOF 0
ENDMDL
