MODEL 1
REMARK minimizedAffinity 8.33620834
REMARK minimizedRMSD -1
REMARK  0 active torsions:
REMARK  status: ('A' for Active; 'I' for Inactive)
ROOT
ATOM      1  C   UNL d   1       5.064   4.421   4.539  0.00  0.00    -0.002 A 
ATOM      2  C1  UNL d   1       5.123   5.209   3.398  0.00  0.00     0.010 A 
ATOM      3  C2  UNL d   1       3.986   5.406   2.612  0.00  0.00     0.041 A 
ATOM      4  C3  UNL d   1       2.777   4.793   2.995  0.00  0.00    -0.075 A 
ATOM      5  S   UNL d   1       1.258   4.894   2.186  0.00  0.00     0.015 SA
ATOM      6  C4  UNL d   1       0.495   3.894   3.336  0.00  0.00     0.022 A 
ATOM      7  C5  UNL d   1       1.363   3.484   4.320  0.00  0.00     0.026 A 
ATOM      8  C6  UNL d   1       2.693   3.996   4.140  0.00  0.00    -0.082 A 
ATOM      9  C7  UNL d   1       3.863   3.815   4.917  0.00  0.00     0.045 A 
ENDROOT
TORSDOF 0
ENDMDL
