MODEL 1
REMARK minimizedAffinity 1.0217998
REMARK minimizedRMSD -1
REMARK  0 active torsions:
REMARK  status: ('A' for Active; 'I' for Inactive)
ROOT
ATOM      1  C   UNL d   1       2.016   3.635   2.229  0.00  0.00    -0.002 A 
ATOM      2  C1  UNL d   1       1.225   3.611   3.370  0.00  0.00     0.010 A 
ATOM      3  C2  UNL d   1       0.061   2.841   3.411  0.00  0.00     0.041 A 
ATOM      4  C3  UNL d   1      -0.298   2.087   2.277  0.00  0.00    -0.075 A 
ATOM      5  S   UNL d   1      -1.679   1.070   2.099  0.00  0.00     0.015 SA
ATOM      6  C4  UNL d   1      -1.252   0.643   0.505  0.00  0.00     0.022 A 
ATOM      7  C5  UNL d   1      -0.087   1.252   0.103  0.00  0.00     0.026 A 
ATOM      8  C6  UNL d   1       0.482   2.094   1.117  0.00  0.00    -0.082 A 
ATOM      9  C7  UNL d   1       1.656   2.885   1.106  0.00  0.00     0.045 A 
ENDROOT
TORSDOF 0
ENDMDL
