MODEL 1
REMARK minimizedAffinity 13.2509212
REMARK minimizedRMSD -1
REMARK  0 active torsions:
REMARK  status: ('A' for Active; 'I' for Inactive)
ROOT
ATOM      1  C   UNL d   1       3.357  -1.013  -0.761  0.00  0.00    -0.002 A 
ATOM      2  C1  UNL d   1       2.634  -0.965   0.422  0.00  0.00     0.010 A 
ATOM      3  C2  UNL d   1       1.537  -1.807   0.619  0.00  0.00     0.041 A 
ATOM      4  C3  UNL d   1       1.177  -2.707  -0.403  0.00  0.00    -0.075 A 
ATOM      5  S   UNL d   1      -0.128  -3.834  -0.384  0.00  0.00     0.015 SA
ATOM      6  C4  UNL d   1       0.244  -4.405  -1.946  0.00  0.00     0.022 A 
ATOM      7  C5  UNL d   1       1.334  -3.763  -2.484  0.00  0.00     0.026 A 
ATOM      8  C6  UNL d   1       1.890  -2.774  -1.603  0.00  0.00    -0.082 A 
ATOM      9  C7  UNL d   1       2.997  -1.907  -1.773  0.00  0.00     0.045 A 
ENDROOT
TORSDOF 0
ENDMDL
