MODEL 1
REMARK minimizedAffinity 11.8157892
REMARK minimizedRMSD -1
REMARK  2 active torsions:
REMARK  status: ('A' for Active; 'I' for Inactive)
REMARK    1  A    between atoms: C1_2  and  C2_3 
REMARK    2  A    between atoms: C2_3  and  C3_4 
ROOT
ATOM      1  C3  UNL d   1       0.517   2.648   0.097  0.00  0.00    -0.075 A 
ATOM      2  C4  UNL d   1       1.885   2.342   0.096  0.00  0.00     0.002 A 
ATOM      3  C5  UNL d   1       2.314   1.014   0.100  0.00  0.00     0.002 A 
ATOM      4  C6  UNL d   1       1.383  -0.022   0.116  0.00  0.00    -0.004 A 
ATOM      5  C7  UNL d   1       0.021   0.271   0.134  0.00  0.00     0.002 A 
ATOM      6  C8  UNL d   1      -0.411   1.599   0.125  0.00  0.00     0.002 A 
ENDROOT
BRANCH   1   7
ATOM      7  C2  UNL d   1       0.046   4.083   0.063  0.00  0.00     0.056 C 
BRANCH   7   8
ATOM      8  C1  UNL d   1      -0.705   4.523   1.324  0.00  0.00     0.007 C 
ATOM      9  C   UNL d   1      -1.092   5.995   1.309  0.00  0.00     0.009 C 
ENDBRANCH   7   8
ENDBRANCH   1   7
TORSDOF 2
ENDMDL
