MODEL 1
REMARK minimizedAffinity 7.47007561
REMARK minimizedRMSD -1
REMARK  2 active torsions:
REMARK  status: ('A' for Active; 'I' for Inactive)
REMARK    1  A    between atoms: C1_2  and  C2_3 
REMARK    2  A    between atoms: C2_3  and  C3_4 
ROOT
ATOM      1  C3  UNL d   1       1.891   0.136   2.471  0.00  0.00    -0.075 A 
ATOM      2  C4  UNL d   1       2.094   0.555   3.794  0.00  0.00     0.002 A 
ATOM      3  C5  UNL d   1       2.602   1.826   4.065  0.00  0.00     0.002 A 
ATOM      4  C6  UNL d   1       2.922   2.689   3.018  0.00  0.00    -0.004 A 
ATOM      5  C7  UNL d   1       2.739   2.277   1.700  0.00  0.00     0.002 A 
ATOM      6  C8  UNL d   1       2.227   1.008   1.427  0.00  0.00     0.002 A 
ENDROOT
BRANCH   1   7
ATOM      7  C2  UNL d   1       1.314  -1.227   2.173  0.00  0.00     0.056 C 
BRANCH   7   8
ATOM      8  C1  UNL d   1       0.895  -1.421   0.711  0.00  0.00     0.007 C 
ATOM      9  C   UNL d   1      -0.484  -0.853   0.402  0.00  0.00     0.009 C 
ENDBRANCH   7   8
ENDBRANCH   1   7
TORSDOF 2
ENDMDL
