MODEL 1
REMARK minimizedAffinity 8.48939705
REMARK minimizedRMSD -1
REMARK  2 active torsions:
REMARK  status: ('A' for Active; 'I' for Inactive)
REMARK    1  A    between atoms: C1_2  and  C2_3 
REMARK    2  A    between atoms: C2_3  and  C3_4 
ROOT
ATOM      1  C3  UNL d   1       0.496  -1.044  -0.672  0.00  0.00    -0.075 A 
ATOM      2  C4  UNL d   1       0.591   0.093  -1.488  0.00  0.00     0.002 A 
ATOM      3  C5  UNL d   1       0.616   1.369  -0.925  0.00  0.00     0.002 A 
ATOM      4  C6  UNL d   1       0.535   1.526   0.456  0.00  0.00    -0.004 A 
ATOM      5  C7  UNL d   1       0.423   0.405   1.276  0.00  0.00     0.002 A 
ATOM      6  C8  UNL d   1       0.403  -0.874   0.716  0.00  0.00     0.002 A 
ENDROOT
BRANCH   1   7
ATOM      7  C2  UNL d   1       0.498  -2.429  -1.272  0.00  0.00     0.056 C 
BRANCH   7   8
ATOM      8  C1  UNL d   1       1.608  -2.660  -2.304  0.00  0.00     0.007 C 
ATOM      9  C   UNL d   1       1.883  -4.133  -2.571  0.00  0.00     0.009 C 
ENDBRANCH   7   8
ENDBRANCH   1   7
TORSDOF 2
ENDMDL
