MODEL 1
REMARK minimizedAffinity -1.29848063
REMARK minimizedRMSD -1
REMARK  2 active torsions:
REMARK  status: ('A' for Active; 'I' for Inactive)
REMARK    1  A    between atoms: C1_2  and  C2_3 
REMARK    2  A    between atoms: C2_3  and  C3_4 
ROOT
ATOM      1  C3  UNL d   1       2.652  -0.801   1.983  0.00  0.00    -0.075 A 
ATOM      2  C4  UNL d   1       2.524   0.005   3.123  0.00  0.00     0.002 A 
ATOM      3  C5  UNL d   1       2.465   1.394   3.006  0.00  0.00     0.002 A 
ATOM      4  C6  UNL d   1       2.543   1.994   1.751  0.00  0.00    -0.004 A 
ATOM      5  C7  UNL d   1       2.687   1.204   0.613  0.00  0.00     0.002 A 
ATOM      6  C8  UNL d   1       2.742  -0.187   0.727  0.00  0.00     0.002 A 
ENDROOT
BRANCH   1   7
ATOM      7  C2  UNL d   1       2.687  -2.306   2.100  0.00  0.00     0.056 C 
BRANCH   7   8
ATOM      8  C1  UNL d   1       1.552  -3.017   1.355  0.00  0.00     0.007 C 
ATOM      9  C   UNL d   1       0.190  -2.373   1.580  0.00  0.00     0.009 C 
ENDBRANCH   7   8
ENDBRANCH   1   7
TORSDOF 2
ENDMDL
