MODEL 1
REMARK minimizedAffinity -1.93363476
REMARK minimizedRMSD -1
REMARK  2 active torsions:
REMARK  status: ('A' for Active; 'I' for Inactive)
REMARK    1  A    between atoms: C1_2  and  C2_3 
REMARK    2  A    between atoms: C2_3  and  C3_4 
ROOT
ATOM      1  C3  UNL d   1       4.331  -3.610  -5.338  0.00  0.00    -0.075 A 
ATOM      2  C4  UNL d   1       4.405  -4.848  -5.992  0.00  0.00     0.002 A 
ATOM      3  C5  UNL d   1       3.900  -6.000  -5.387  0.00  0.00     0.002 A 
ATOM      4  C6  UNL d   1       3.325  -5.930  -4.120  0.00  0.00    -0.004 A 
ATOM      5  C7  UNL d   1       3.261  -4.708  -3.454  0.00  0.00     0.002 A 
ATOM      6  C8  UNL d   1       3.761  -3.553  -4.059  0.00  0.00     0.002 A 
ENDROOT
BRANCH   1   7
ATOM      7  C2  UNL d   1       4.849  -2.355  -5.999  0.00  0.00     0.056 C 
BRANCH   7   8
ATOM      8  C1  UNL d   1       3.882  -1.168  -5.929  0.00  0.00     0.007 C 
ATOM      9  C   UNL d   1       4.583   0.182  -6.000  0.00  0.00     0.009 C 
ENDBRANCH   7   8
ENDBRANCH   1   7
TORSDOF 2
ENDMDL
