MODEL 1
REMARK minimizedAffinity 3.85497975
REMARK minimizedRMSD -1
REMARK  0 active torsions:
REMARK  status: ('A' for Active; 'I' for Inactive)
ROOT
ATOM      1  O1  BZF d   1       0.924  -0.774   3.583  0.00  0.00    -0.204 OA
ATOM      2  C2  BZF d   1       1.714  -0.173   2.622  0.00  0.00     0.174 A 
ATOM      3  C3  BZF d   1       2.681  -1.015   2.202  0.00  0.00    -0.012 A 
ATOM      4  C3A BZF d   1       2.425  -2.249   2.881  0.00  0.00    -0.107 A 
ATOM      5  C4  BZF d   1       3.034  -3.471   2.867  0.00  0.00     0.055 A 
ATOM      6  C5  BZF d   1       2.582  -4.443   3.702  0.00  0.00    -0.016 A 
ATOM      7  C6  BZF d   1       1.528  -4.227   4.565  0.00  0.00     0.022 A 
ATOM      8  C7  BZF d   1       0.890  -3.032   4.611  0.00  0.00     0.029 A 
ATOM      9  C7A BZF d   1       1.323  -2.058   3.746  0.00  0.00     0.058 A 
ENDROOT
TORSDOF 0
ENDMDL
