MODEL 1
REMARK minimizedAffinity 1.80057406
REMARK minimizedRMSD -1
REMARK  0 active torsions:
REMARK  status: ('A' for Active; 'I' for Inactive)
ROOT
ATOM      1  O1  BZF d   1       3.125  -1.280   1.667  0.00  0.00    -0.204 OA
ATOM      2  C2  BZF d   1       2.370  -0.141   1.872  0.00  0.00     0.174 A 
ATOM      3  C3  BZF d   1       1.364  -0.383   2.736  0.00  0.00    -0.012 A 
ATOM      4  C3A BZF d   1       1.552  -1.735   3.165  0.00  0.00    -0.107 A 
ATOM      5  C4  BZF d   1       0.882  -2.547   4.035  0.00  0.00     0.055 A 
ATOM      6  C5  BZF d   1       1.280  -3.838   4.174  0.00  0.00    -0.016 A 
ATOM      7  C6  BZF d   1       2.340  -4.353   3.456  0.00  0.00     0.022 A 
ATOM      8  C7  BZF d   1       3.039  -3.585   2.585  0.00  0.00     0.029 A 
ATOM      9  C7A BZF d   1       2.660  -2.270   2.466  0.00  0.00     0.058 A 
ENDROOT
TORSDOF 0
ENDMDL
