MODEL 1
REMARK minimizedAffinity 9.75330257
REMARK minimizedRMSD -1
REMARK  0 active torsions:
REMARK  status: ('A' for Active; 'I' for Inactive)
ROOT
ATOM      1  O1  BZF d   1       3.686  -3.915   2.062  0.00  0.00    -0.204 OA
ATOM      2  C2  BZF d   1       2.799  -4.935   1.776  0.00  0.00     0.174 A 
ATOM      3  C3  BZF d   1       1.531  -4.474   1.753  0.00  0.00    -0.012 A 
ATOM      4  C3A BZF d   1       1.641  -3.062   1.952  0.00  0.00    -0.107 A 
ATOM      5  C4  BZF d   1       0.727  -2.048   2.013  0.00  0.00     0.055 A 
ATOM      6  C5  BZF d   1       1.155  -0.789   2.292  0.00  0.00    -0.016 A 
ATOM      7  C6  BZF d   1       2.486  -0.509   2.522  0.00  0.00     0.022 A 
ATOM      8  C7  BZF d   1       3.430  -1.480   2.467  0.00  0.00     0.029 A 
ATOM      9  C7A BZF d   1       3.005  -2.747   2.152  0.00  0.00     0.058 A 
ENDROOT
TORSDOF 0
ENDMDL
