MODEL 1
REMARK minimizedAffinity 1.80967128
REMARK minimizedRMSD -1
REMARK  0 active torsions:
REMARK  status: ('A' for Active; 'I' for Inactive)
ROOT
ATOM      1  O1  BZF d   1       3.413  -0.929   1.713  0.00  0.00    -0.204 OA
ATOM      2  C2  BZF d   1       2.777   0.197   2.199  0.00  0.00     0.174 A 
ATOM      3  C3  BZF d   1       1.717  -0.143   2.960  0.00  0.00    -0.012 A 
ATOM      4  C3A BZF d   1       1.744  -1.573   3.024  0.00  0.00    -0.107 A 
ATOM      5  C4  BZF d   1       0.957  -2.499   3.647  0.00  0.00     0.055 A 
ATOM      6  C5  BZF d   1       1.210  -3.820   3.450  0.00  0.00    -0.016 A 
ATOM      7  C6  BZF d   1       2.236  -4.248   2.634  0.00  0.00     0.022 A 
ATOM      8  C7  BZF d   1       3.047  -3.367   1.999  0.00  0.00     0.029 A 
ATOM      9  C7A BZF d   1       2.814  -2.032   2.223  0.00  0.00     0.058 A 
ENDROOT
TORSDOF 0
ENDMDL
