MODEL 1
REMARK minimizedAffinity 6.7634387
REMARK minimizedRMSD -1
REMARK  0 active torsions:
REMARK  status: ('A' for Active; 'I' for Inactive)
ROOT
ATOM      1  O1  BZF d   1      -3.828   1.945  -5.106  0.00  0.00    -0.204 OA
ATOM      2  C2  BZF d   1      -3.673   2.816  -4.044  0.00  0.00     0.174 A 
ATOM      3  C3  BZF d   1      -3.439   2.140  -2.901  0.00  0.00    -0.012 A 
ATOM      4  C3A BZF d   1      -3.355   0.765  -3.287  0.00  0.00    -0.107 A 
ATOM      5  C4  BZF d   1      -3.123  -0.391  -2.599  0.00  0.00     0.055 A 
ATOM      6  C5  BZF d   1      -3.179  -1.577  -3.260  0.00  0.00    -0.016 A 
ATOM      7  C6  BZF d   1      -3.470  -1.644  -4.607  0.00  0.00     0.022 A 
ATOM      8  C7  BZF d   1      -3.703  -0.524  -5.334  0.00  0.00     0.029 A 
ATOM      9  C7A BZF d   1      -3.614   0.678  -4.675  0.00  0.00     0.058 A 
ENDROOT
TORSDOF 0
ENDMDL
