MODEL 1
REMARK minimizedAffinity 9.72654247
REMARK minimizedRMSD -1
REMARK  0 active torsions:
REMARK  status: ('A' for Active; 'I' for Inactive)
ROOT
ATOM      1  O1  BZF d   1       5.015  -2.551   4.846  0.00  0.00    -0.204 OA
ATOM      2  C2  BZF d   1       5.998  -2.966   3.969  0.00  0.00     0.174 A 
ATOM      3  C3  BZF d   1       5.469  -3.700   2.969  0.00  0.00    -0.012 A 
ATOM      4  C3A BZF d   1       4.055  -3.669   3.188  0.00  0.00    -0.107 A 
ATOM      5  C4  BZF d   1       2.991  -4.202   2.519  0.00  0.00     0.055 A 
ATOM      6  C5  BZF d   1       1.743  -4.049   3.036  0.00  0.00    -0.016 A 
ATOM      7  C6  BZF d   1       1.525  -3.374   4.219  0.00  0.00     0.022 A 
ATOM      8  C7  BZF d   1       2.549  -2.824   4.915  0.00  0.00     0.029 A 
ATOM      9  C7A BZF d   1       3.807  -2.948   4.379  0.00  0.00     0.058 A 
ENDROOT
TORSDOF 0
ENDMDL
