MODEL 1
REMARK minimizedAffinity 2.62044954
REMARK minimizedRMSD -1
REMARK  0 active torsions:
REMARK  status: ('A' for Active; 'I' for Inactive)
ROOT
ATOM      1  O1  BZF d   1       1.762  -3.418   4.818  0.00  0.00    -0.204 OA
ATOM      2  C2  BZF d   1       2.088  -4.488   4.006  0.00  0.00     0.174 A 
ATOM      3  C3  BZF d   1       2.404  -4.067   2.764  0.00  0.00    -0.012 A 
ATOM      4  C3A BZF d   1       2.356  -2.638   2.827  0.00  0.00    -0.107 A 
ATOM      5  C4  BZF d   1       2.589  -1.650   1.914  0.00  0.00     0.055 A 
ATOM      6  C5  BZF d   1       2.384  -0.356   2.275  0.00  0.00    -0.016 A 
ATOM      7  C6  BZF d   1       1.943  -0.015   3.537  0.00  0.00     0.022 A 
ATOM      8  C7  BZF d   1       1.704  -0.960   4.479  0.00  0.00     0.029 A 
ATOM      9  C7A BZF d   1       1.941  -2.267   4.127  0.00  0.00     0.058 A 
ENDROOT
TORSDOF 0
ENDMDL
