MODEL 1
REMARK minimizedAffinity 10.3644524
REMARK minimizedRMSD -1
REMARK  0 active torsions:
REMARK  status: ('A' for Active; 'I' for Inactive)
ROOT
ATOM      1  O1  BZF d   1      -4.674   0.190  -5.566  0.00  0.00    -0.204 OA
ATOM      2  C2  BZF d   1      -4.748   1.540  -5.849  0.00  0.00     0.174 A 
ATOM      3  C3  BZF d   1      -4.307   2.272  -4.806  0.00  0.00    -0.012 A 
ATOM      4  C3A BZF d   1      -3.848   1.317  -3.844  0.00  0.00    -0.107 A 
ATOM      5  C4  BZF d   1      -3.284   1.429  -2.605  0.00  0.00     0.055 A 
ATOM      6  C5  BZF d   1      -3.019   0.301  -1.895  0.00  0.00    -0.016 A 
ATOM      7  C6  BZF d   1      -3.310  -0.953  -2.390  0.00  0.00     0.022 A 
ATOM      8  C7  BZF d   1      -3.865  -1.115  -3.616  0.00  0.00     0.029 A 
ATOM      9  C7A BZF d   1      -4.103   0.022  -4.350  0.00  0.00     0.058 A 
ENDROOT
TORSDOF 0
ENDMDL
