MODEL 1
REMARK minimizedAffinity 6.9142108
REMARK minimizedRMSD -1
REMARK  0 active torsions:
REMARK  status: ('A' for Active; 'I' for Inactive)
ROOT
ATOM      1  O1  BZF d   1       1.673  -4.068   3.402  0.00  0.00    -0.204 OA
ATOM      2  C2  BZF d   1       2.564  -4.700   2.556  0.00  0.00     0.174 A 
ATOM      3  C3  BZF d   1       3.048  -3.837   1.640  0.00  0.00    -0.012 A 
ATOM      4  C3A BZF d   1       2.491  -2.566   1.989  0.00  0.00    -0.107 A 
ATOM      5  C4  BZF d   1       2.611  -1.311   1.463  0.00  0.00     0.055 A 
ATOM      6  C5  BZF d   1       1.877  -0.299   1.994  0.00  0.00    -0.016 A 
ATOM      7  C6  BZF d   1       1.010  -0.506   3.047  0.00  0.00     0.022 A 
ATOM      8  C7  BZF d   1       0.860  -1.732   3.606  0.00  0.00     0.029 A 
ATOM      9  C7A BZF d   1       1.626  -2.750   3.092  0.00  0.00     0.058 A 
ENDROOT
TORSDOF 0
ENDMDL
