MODEL 1
REMARK minimizedAffinity -0.394116521
REMARK minimizedRMSD -1
REMARK  0 active torsions:
REMARK  status: ('A' for Active; 'I' for Inactive)
ROOT
ATOM      1  O1  BZF d   1       1.154  -0.859   3.737  0.00  0.00    -0.204 OA
ATOM      2  C2  BZF d   1       1.631  -0.297   2.568  0.00  0.00     0.174 A 
ATOM      3  C3  BZF d   1       2.448  -1.155   1.924  0.00  0.00    -0.012 A 
ATOM      4  C3A BZF d   1       2.411  -2.360   2.693  0.00  0.00    -0.107 A 
ATOM      5  C4  BZF d   1       3.005  -3.582   2.554  0.00  0.00     0.055 A 
ATOM      6  C5  BZF d   1       2.820  -4.521   3.519  0.00  0.00    -0.016 A 
ATOM      7  C6  BZF d   1       2.053  -4.270   4.638  0.00  0.00     0.022 A 
ATOM      8  C7  BZF d   1       1.440  -3.075   4.818  0.00  0.00     0.029 A 
ATOM      9  C7A BZF d   1       1.598  -2.136   3.828  0.00  0.00     0.058 A 
ENDROOT
TORSDOF 0
ENDMDL
