MODEL 1
REMARK minimizedAffinity 6.54263735
REMARK minimizedRMSD -1
REMARK  0 active torsions:
REMARK  status: ('A' for Active; 'I' for Inactive)
ROOT
ATOM      1  O1  BZF d   1      -3.562   1.885  -3.603  0.00  0.00    -0.204 OA
ATOM      2  C2  BZF d   1      -2.996   1.151  -2.578  0.00  0.00     0.174 A 
ATOM      3  C3  BZF d   1      -3.441   1.580  -1.380  0.00  0.00    -0.012 A 
ATOM      4  C3A BZF d   1      -4.413   2.587  -1.678  0.00  0.00    -0.107 A 
ATOM      5  C4  BZF d   1      -5.217   3.374  -0.904  0.00  0.00     0.055 A 
ATOM      6  C5  BZF d   1      -6.000   4.309  -1.503  0.00  0.00    -0.016 A 
ATOM      7  C6  BZF d   1      -6.000   4.488  -2.871  0.00  0.00     0.022 A 
ATOM      8  C7  BZF d   1      -5.223   3.728  -3.680  0.00  0.00     0.029 A 
ATOM      9  C7A BZF d   1      -4.455   2.760  -3.081  0.00  0.00     0.058 A 
ENDROOT
TORSDOF 0
ENDMDL
