MODEL 1
REMARK minimizedAffinity 9.47626019
REMARK minimizedRMSD -1
REMARK  2 active torsions:
REMARK  status: ('A' for Active; 'I' for Inactive)
REMARK    1  A    between atoms: C2'_3  and  C1'_4 
REMARK    2  A    between atoms: C1'_4  and  C1_5 
ROOT
ATOM      1  C1  I4B d   1      -3.558   2.254  -3.736  0.00  0.00    -0.075 A 
ATOM      2  C2  I4B d   1      -4.571   1.721  -4.492  0.00  0.00     0.003 A 
ATOM      3  C3  I4B d   1      -5.332   2.550  -5.352  0.00  0.00     0.002 A 
ATOM      4  C4  I4B d   1      -5.079   3.906  -5.386  0.00  0.00    -0.004 A 
ATOM      5  C5  I4B d   1      -4.036   4.442  -4.636  0.00  0.00     0.002 A 
ATOM      6  C6  I4B d   1      -3.262   3.609  -3.815  0.00  0.00     0.003 A 
ENDROOT
BRANCH   1   7
ATOM      7  C1' I4B d   1      -2.796   1.355  -2.814  0.00  0.00     0.060 C 
BRANCH   7   8
ATOM      8  C2' I4B d   1      -3.799   0.540  -2.024  0.00  0.00    -0.013 C 
ATOM      9  C4' I4B d   1      -3.248  -0.820  -1.683  0.00  0.00     0.013 C 
ATOM     10  C3' I4B d   1      -4.148   1.309  -0.785  0.00  0.00     0.013 C 
ENDBRANCH   7   8
ENDBRANCH   1   7
TORSDOF 2
ENDMDL
