MODEL 1
REMARK minimizedAffinity 5.99746418
REMARK minimizedRMSD -1
REMARK  2 active torsions:
REMARK  status: ('A' for Active; 'I' for Inactive)
REMARK    1  A    between atoms: C2'_3  and  C1'_4 
REMARK    2  A    between atoms: C1'_4  and  C1_5 
ROOT
ATOM      1  C1  I4B d   1       2.640  -1.882   2.526  0.00  0.00    -0.075 A 
ATOM      2  C2  I4B d   1       1.560  -1.143   2.112  0.00  0.00     0.003 A 
ATOM      3  C3  I4B d   1       1.010  -1.346   0.823  0.00  0.00     0.002 A 
ATOM      4  C4  I4B d   1       1.599  -2.256  -0.032  0.00  0.00    -0.004 A 
ATOM      5  C5  I4B d   1       2.680  -3.020   0.398  0.00  0.00     0.002 A 
ATOM      6  C6  I4B d   1       3.197  -2.841   1.689  0.00  0.00     0.003 A 
ENDROOT
BRANCH   1   7
ATOM      7  C1' I4B d   1       3.217  -1.619   3.881  0.00  0.00     0.060 C 
BRANCH   7   8
ATOM      8  C2' I4B d   1       4.347  -2.603   4.107  0.00  0.00    -0.013 C 
ATOM      9  C4' I4B d   1       5.685  -1.914   4.065  0.00  0.00     0.013 C 
ATOM     10  C3' I4B d   1       4.122  -3.270   5.431  0.00  0.00     0.013 C 
ENDBRANCH   7   8
ENDBRANCH   1   7
TORSDOF 2
ENDMDL
