MODEL 1
REMARK minimizedAffinity 7.50571632
REMARK minimizedRMSD -1
REMARK  2 active torsions:
REMARK  status: ('A' for Active; 'I' for Inactive)
REMARK    1  A    between atoms: C2'_3  and  C1'_4 
REMARK    2  A    between atoms: C1'_4  and  C1_5 
ROOT
ATOM      1  C1  I4B d   1       2.877  -1.940   2.602  0.00  0.00    -0.075 A 
ATOM      2  C2  I4B d   1       2.256  -2.625   1.588  0.00  0.00     0.003 A 
ATOM      3  C3  I4B d   1       0.899  -2.367   1.280  0.00  0.00     0.002 A 
ATOM      4  C4  I4B d   1       0.190  -1.459   2.039  0.00  0.00    -0.004 A 
ATOM      5  C5  I4B d   1       0.827  -0.749   3.053  0.00  0.00     0.002 A 
ATOM      6  C6  I4B d   1       2.183  -0.982   3.329  0.00  0.00     0.003 A 
ENDROOT
BRANCH   1   7
ATOM      7  C1' I4B d   1       4.303  -2.261   2.922  0.00  0.00     0.060 C 
BRANCH   7   8
ATOM      8  C2' I4B d   1       4.550  -1.895   4.372  0.00  0.00    -0.013 C 
ATOM      9  C4' I4B d   1       4.182  -3.030   5.291  0.00  0.00     0.013 C 
ATOM     10  C3' I4B d   1       5.997  -1.528   4.516  0.00  0.00     0.013 C 
ENDBRANCH   7   8
ENDBRANCH   1   7
TORSDOF 2
ENDMDL
