MODEL 1
REMARK minimizedAffinity 9.59011841
REMARK minimizedRMSD -1
REMARK  2 active torsions:
REMARK  status: ('A' for Active; 'I' for Inactive)
REMARK    1  A    between atoms: C2'_3  and  C1'_4 
REMARK    2  A    between atoms: C1'_4  and  C1_5 
ROOT
ATOM      1  C1  I4B d   1      -2.906   1.264  -2.247  0.00  0.00    -0.075 A 
ATOM      2  C2  I4B d   1      -4.123   0.690  -1.973  0.00  0.00     0.003 A 
ATOM      3  C3  I4B d   1      -4.205  -0.685  -1.644  0.00  0.00     0.002 A 
ATOM      4  C4  I4B d   1      -3.059  -1.454  -1.650  0.00  0.00    -0.004 A 
ATOM      5  C5  I4B d   1      -1.824  -0.866  -1.906  0.00  0.00     0.002 A 
ATOM      6  C6  I4B d   1      -1.745   0.504  -2.194  0.00  0.00     0.003 A 
ENDROOT
BRANCH   1   7
ATOM      7  C1' I4B d   1      -2.860   2.711  -2.622  0.00  0.00     0.060 C 
BRANCH   7   8
ATOM      8  C2' I4B d   1      -2.240   2.816  -4.001  0.00  0.00    -0.013 C 
ATOM      9  C4' I4B d   1      -0.843   3.374  -3.930  0.00  0.00     0.013 C 
ATOM     10  C3' I4B d   1      -2.246   1.448  -4.616  0.00  0.00     0.013 C 
ENDBRANCH   7   8
ENDBRANCH   1   7
TORSDOF 2
ENDMDL
