MODEL 1
REMARK minimizedAffinity 19.3558464
REMARK minimizedRMSD -1
REMARK  2 active torsions:
REMARK  status: ('A' for Active; 'I' for Inactive)
REMARK    1  A    between atoms: C2'_3  and  C1'_4 
REMARK    2  A    between atoms: C1'_4  and  C1_5 
ROOT
ATOM      1  C1  I4B d   1      -3.854   2.558   4.837  0.00  0.00    -0.075 A 
ATOM      2  C2  I4B d   1      -2.697   1.820   4.852  0.00  0.00     0.003 A 
ATOM      3  C3  I4B d   1      -2.397   0.942   3.783  0.00  0.00     0.002 A 
ATOM      4  C4  I4B d   1      -3.301   0.796   2.750  0.00  0.00    -0.004 A 
ATOM      5  C5  I4B d   1      -4.463   1.562   2.725  0.00  0.00     0.002 A 
ATOM      6  C6  I4B d   1      -4.736   2.458   3.769  0.00  0.00     0.003 A 
ENDROOT
BRANCH   1   7
ATOM      7  C1' I4B d   1      -4.154   3.451   5.999  0.00  0.00     0.060 C 
BRANCH   7   8
ATOM      8  C2' I4B d   1      -4.100   4.885   5.512  0.00  0.00    -0.013 C 
ATOM      9  C4' I4B d   1      -5.291   5.670   5.995  0.00  0.00     0.013 C 
ATOM     10  C3' I4B d   1      -2.818   5.491   5.999  0.00  0.00     0.013 C 
ENDBRANCH   7   8
ENDBRANCH   1   7
TORSDOF 2
ENDMDL
