MODEL 1
REMARK minimizedAffinity -1.66063201
REMARK minimizedRMSD -1
REMARK  0 active torsions:
REMARK  status: ('A' for Active; 'I' for Inactive)
ROOT
ATOM      1  C   UNL d   1       2.117   1.629   0.729  0.00  0.00     0.172 C 
ATOM      2  N   UNL d   1       1.003   1.059   0.009  0.00  0.00    -0.070 N 
ATOM      3  C1  UNL d   1       0.864  -0.260  -0.332  0.00  0.00    -0.004 A 
ATOM      4  C2  UNL d   1      -0.329  -0.398  -1.007  0.00  0.00    -0.047 A 
ATOM      5  C3  UNL d   1      -0.928   0.882  -1.076  0.00  0.00    -0.047 A 
ATOM      6  C4  UNL d   1      -0.082   1.766  -0.439  0.00  0.00    -0.004 A 
ENDROOT
TORSDOF 0
ENDMDL
