MODEL 1
REMARK minimizedAffinity -2.50348043
REMARK minimizedRMSD -1
REMARK  0 active torsions:
REMARK  status: ('A' for Active; 'I' for Inactive)
ROOT
ATOM      1  C   UNL d   1       1.774  -0.220   0.145  0.00  0.00     0.172 C 
ATOM      2  N   UNL d   1       2.304   1.043   0.602  0.00  0.00    -0.070 N 
ATOM      3  C1  UNL d   1       1.741   1.845   1.558  0.00  0.00    -0.004 A 
ATOM      4  C2  UNL d   1       2.547   2.954   1.707  0.00  0.00    -0.047 A 
ATOM      5  C3  UNL d   1       3.631   2.812   0.808  0.00  0.00    -0.047 A 
ATOM      6  C4  UNL d   1       3.455   1.621   0.137  0.00  0.00    -0.004 A 
ENDROOT
TORSDOF 0
ENDMDL
