MODEL 1
REMARK minimizedAffinity -3.70792055
REMARK minimizedRMSD -1
REMARK  0 active torsions:
REMARK  status: ('A' for Active; 'I' for Inactive)
ROOT
ATOM      1  C   UNL d   1       0.904   0.147   0.314  0.00  0.00     0.172 C 
ATOM      2  N   UNL d   1       1.425   1.354   0.910  0.00  0.00    -0.070 N 
ATOM      3  C1  UNL d   1       2.732   1.760   0.880  0.00  0.00    -0.004 A 
ATOM      4  C2  UNL d   1       2.819   2.957   1.558  0.00  0.00    -0.047 A 
ATOM      5  C3  UNL d   1       1.518   3.282   2.011  0.00  0.00    -0.047 A 
ATOM      6  C4  UNL d   1       0.675   2.273   1.596  0.00  0.00    -0.004 A 
ENDROOT
TORSDOF 0
ENDMDL
