MODEL 1
REMARK minimizedAffinity -3.19073963
REMARK minimizedRMSD -1
REMARK  0 active torsions:
REMARK  status: ('A' for Active; 'I' for Inactive)
ROOT
ATOM      1  C   UNL d   1      -0.083   0.234  -0.085  0.00  0.00     0.172 C 
ATOM      2  N   UNL d   1      -1.031  -0.803   0.248  0.00  0.00    -0.070 N 
ATOM      3  C1  UNL d   1      -2.264  -0.970  -0.323  0.00  0.00    -0.004 A 
ATOM      4  C2  UNL d   1      -2.856  -2.067   0.265  0.00  0.00    -0.047 A 
ATOM      5  C3  UNL d   1      -1.947  -2.576   1.223  0.00  0.00    -0.047 A 
ATOM      6  C4  UNL d   1      -0.826  -1.775   1.191  0.00  0.00    -0.004 A 
ENDROOT
TORSDOF 0
ENDMDL
