MODEL 1
REMARK minimizedAffinity -2.05454373
REMARK minimizedRMSD -1
REMARK  0 active torsions:
REMARK  status: ('A' for Active; 'I' for Inactive)
ROOT
ATOM      1  C   UNL d   1      -2.181  -2.670  -0.101  0.00  0.00     0.172 C 
ATOM      2  N   UNL d   1      -1.599  -1.398  -0.457  0.00  0.00    -0.070 N 
ATOM      3  C1  UNL d   1      -0.478  -0.848   0.104  0.00  0.00    -0.004 A 
ATOM      4  C2  UNL d   1      -0.252   0.367  -0.507  0.00  0.00    -0.047 A 
ATOM      5  C3  UNL d   1      -1.274   0.554  -1.468  0.00  0.00    -0.047 A 
ATOM      6  C4  UNL d   1      -2.094  -0.554  -1.416  0.00  0.00    -0.004 A 
ENDROOT
TORSDOF 0
ENDMDL
