MODEL 1
REMARK minimizedAffinity -2.20143008
REMARK minimizedRMSD -1
REMARK  0 active torsions:
REMARK  status: ('A' for Active; 'I' for Inactive)
ROOT
ATOM      1  C   UNL d   1       0.015  -0.142  -0.332  0.00  0.00     0.172 C 
ATOM      2  N   UNL d   1      -0.909  -1.234  -0.133  0.00  0.00    -0.070 N 
ATOM      3  C1  UNL d   1      -2.057  -1.449  -0.846  0.00  0.00    -0.004 A 
ATOM      4  C2  UNL d   1      -2.654  -2.589  -0.353  0.00  0.00    -0.047 A 
ATOM      5  C3  UNL d   1      -1.836  -3.076   0.693  0.00  0.00    -0.047 A 
ATOM      6  C4  UNL d   1      -0.762  -2.219   0.809  0.00  0.00    -0.004 A 
ENDROOT
TORSDOF 0
ENDMDL
