MODEL 1
REMARK minimizedAffinity -2.07419133
REMARK minimizedRMSD -1
REMARK  0 active torsions:
REMARK  status: ('A' for Active; 'I' for Inactive)
ROOT
ATOM      1  C   UNL d   1      -0.470  -0.312  -0.256  0.00  0.00     0.172 C 
ATOM      2  N   UNL d   1       0.578   0.607   0.121  0.00  0.00    -0.070 N 
ATOM      3  C1  UNL d   1       1.923   0.363   0.031  0.00  0.00    -0.004 A 
ATOM      4  C2  UNL d   1       2.586   1.483   0.486  0.00  0.00    -0.047 A 
ATOM      5  C3  UNL d   1       1.605   2.431   0.863  0.00  0.00    -0.047 A 
ATOM      6  C4  UNL d   1       0.372   1.863   0.627  0.00  0.00    -0.004 A 
ENDROOT
TORSDOF 0
ENDMDL
