MODEL 1
REMARK minimizedAffinity -0.623393536
REMARK minimizedRMSD -1
REMARK  0 active torsions:
REMARK  status: ('A' for Active; 'I' for Inactive)
ROOT
ATOM      1  C   UNL d   1      -1.856   0.011  -1.858  0.00  0.00     0.172 C 
ATOM      2  N   UNL d   1      -0.788   0.382  -0.961  0.00  0.00    -0.070 N 
ATOM      3  C1  UNL d   1      -0.809   1.436  -0.087  0.00  0.00    -0.004 A 
ATOM      4  C2  UNL d   1       0.394   1.451   0.585  0.00  0.00    -0.047 A 
ATOM      5  C3  UNL d   1       1.165   0.370   0.098  0.00  0.00    -0.047 A 
ATOM      6  C4  UNL d   1       0.410  -0.275  -0.859  0.00  0.00    -0.004 A 
ENDROOT
TORSDOF 0
ENDMDL
