MODEL 1
REMARK minimizedAffinity -2.27173781
REMARK minimizedRMSD -1
REMARK  0 active torsions:
REMARK  status: ('A' for Active; 'I' for Inactive)
ROOT
ATOM      1  C   UNL d   1      -1.185  -2.888   1.001  0.00  0.00     0.172 C 
ATOM      2  N   UNL d   1      -0.144  -1.936   0.691  0.00  0.00    -0.070 N 
ATOM      3  C1  UNL d   1       1.139  -1.971   1.167  0.00  0.00    -0.004 A 
ATOM      4  C2  UNL d   1       1.815  -0.893   0.639  0.00  0.00    -0.047 A 
ATOM      5  C3  UNL d   1       0.907  -0.185  -0.183  0.00  0.00    -0.047 A 
ATOM      6  C4  UNL d   1      -0.299  -0.852  -0.132  0.00  0.00    -0.004 A 
ENDROOT
TORSDOF 0
ENDMDL
