MODEL 1
REMARK minimizedAffinity -1.85247648
REMARK minimizedRMSD -1
REMARK  0 active torsions:
REMARK  status: ('A' for Active; 'I' for Inactive)
ROOT
ATOM      1  C   UNL d   1       1.801  -0.539   0.354  0.00  0.00     0.172 C 
ATOM      2  N   UNL d   1       0.530  -0.430  -0.323  0.00  0.00    -0.070 N 
ATOM      3  C1  UNL d   1      -0.701  -0.532   0.270  0.00  0.00    -0.004 A 
ATOM      4  C2  UNL d   1      -1.656  -0.371  -0.711  0.00  0.00    -0.047 A 
ATOM      5  C3  UNL d   1      -0.975  -0.167  -1.935  0.00  0.00    -0.047 A 
ATOM      6  C4  UNL d   1       0.376  -0.208  -1.666  0.00  0.00    -0.004 A 
ENDROOT
TORSDOF 0
ENDMDL
