MODEL 1
REMARK minimizedAffinity -3.36178637
REMARK minimizedRMSD -1
REMARK  0 active torsions:
REMARK  status: ('A' for Active; 'I' for Inactive)
ROOT
ATOM      1  C   UNL d   1       0.870   0.485   0.030  0.00  0.00     0.172 C 
ATOM      2  N   UNL d   1      -0.458   0.049  -0.333  0.00  0.00    -0.070 N 
ATOM      3  C1  UNL d   1      -1.363   0.772  -1.064  0.00  0.00    -0.004 A 
ATOM      4  C2  UNL d   1      -2.505   0.010  -1.193  0.00  0.00    -0.047 A 
ATOM      5  C3  UNL d   1      -2.279  -1.211  -0.515  0.00  0.00    -0.047 A 
ATOM      6  C4  UNL d   1      -1.004  -1.160   0.008  0.00  0.00    -0.004 A 
ENDROOT
TORSDOF 0
ENDMDL
