MODEL 1
REMARK minimizedAffinity -2.58931804
REMARK minimizedRMSD -1
REMARK  0 active torsions:
REMARK  status: ('A' for Active; 'I' for Inactive)
ROOT
ATOM      1  C   UNL d   1       1.743   0.318   0.230  0.00  0.00     0.172 C 
ATOM      2  N   UNL d   1       0.408  -0.010   0.673  0.00  0.00    -0.070 N 
ATOM      3  C1  UNL d   1      -0.667   0.838   0.663  0.00  0.00    -0.004 A 
ATOM      4  C2  UNL d   1      -1.752   0.150   1.162  0.00  0.00    -0.047 A 
ATOM      5  C3  UNL d   1      -1.313  -1.156   1.483  0.00  0.00    -0.047 A 
ATOM      6  C4  UNL d   1       0.028  -1.228   1.171  0.00  0.00    -0.004 A 
ENDROOT
TORSDOF 0
ENDMDL
