MODEL 1
REMARK minimizedAffinity -3.00820899
REMARK minimizedRMSD -1
REMARK  0 active torsions:
REMARK  status: ('A' for Active; 'I' for Inactive)
ROOT
ATOM      1  C   UNL d   1       0.890   2.900   1.438  0.00  0.00     0.172 C 
ATOM      2  N   UNL d   1       0.550   1.686   0.734  0.00  0.00    -0.070 N 
ATOM      3  C1  UNL d   1      -0.719   1.217   0.520  0.00  0.00    -0.004 A 
ATOM      4  C2  UNL d   1      -0.619   0.037  -0.186  0.00  0.00    -0.047 A 
ATOM      5  C3  UNL d   1       0.758  -0.211  -0.402  0.00  0.00    -0.047 A 
ATOM      6  C4  UNL d   1       1.458   0.825   0.178  0.00  0.00    -0.004 A 
ENDROOT
TORSDOF 0
ENDMDL
