MODEL 1
REMARK minimizedAffinity -3.01670814
REMARK minimizedRMSD -1
REMARK  0 active torsions:
REMARK  status: ('A' for Active; 'I' for Inactive)
ROOT
ATOM      1  C   UNL d   1      -0.332  -2.065   1.584  0.00  0.00     0.172 C 
ATOM      2  N   UNL d   1      -0.807  -1.304   0.451  0.00  0.00    -0.070 N 
ATOM      3  C1  UNL d   1      -2.004  -1.485  -0.187  0.00  0.00    -0.004 A 
ATOM      4  C2  UNL d   1      -2.081  -0.565  -1.210  0.00  0.00    -0.047 A 
ATOM      5  C3  UNL d   1      -0.887   0.195  -1.187  0.00  0.00    -0.047 A 
ATOM      6  C4  UNL d   1      -0.116  -0.284  -0.148  0.00  0.00    -0.004 A 
ENDROOT
TORSDOF 0
ENDMDL
