MODEL 1
REMARK minimizedAffinity -2.80088282
REMARK minimizedRMSD -1
REMARK  0 active torsions:
REMARK  status: ('A' for Active; 'I' for Inactive)
ROOT
ATOM      1  C   UNL d   1       1.814   2.507   0.890  0.00  0.00     0.172 C 
ATOM      2  N   UNL d   1       0.898   1.659   0.164  0.00  0.00    -0.070 N 
ATOM      3  C1  UNL d   1      -0.416   1.941  -0.095  0.00  0.00    -0.004 A 
ATOM      4  C2  UNL d   1      -0.942   0.886  -0.809  0.00  0.00    -0.047 A 
ATOM      5  C3  UNL d   1       0.092  -0.064  -0.984  0.00  0.00    -0.047 A 
ATOM      6  C4  UNL d   1       1.220   0.440  -0.372  0.00  0.00    -0.004 A 
ENDROOT
TORSDOF 0
ENDMDL
