MODEL 1
REMARK minimizedAffinity -3.82079768
REMARK minimizedRMSD -1
REMARK  0 active torsions:
REMARK  status: ('A' for Active; 'I' for Inactive)
ROOT
ATOM      1  C   UNL d   1       1.094  -0.034   0.358  0.00  0.00     0.172 C 
ATOM      2  N   UNL d   1      -0.303  -0.196   0.030  0.00  0.00    -0.070 N 
ATOM      3  C1  UNL d   1      -0.871   0.058  -1.190  0.00  0.00    -0.004 A 
ATOM      4  C2  UNL d   1      -2.218  -0.219  -1.094  0.00  0.00    -0.047 A 
ATOM      5  C3  UNL d   1      -2.468  -0.654   0.230  0.00  0.00    -0.047 A 
ATOM      6  C4  UNL d   1      -1.265  -0.629   0.904  0.00  0.00    -0.004 A 
ENDROOT
TORSDOF 0
ENDMDL
