MODEL 1
REMARK minimizedAffinity -1.48326051
REMARK minimizedRMSD -1
REMARK  0 active torsions:
REMARK  status: ('A' for Active; 'I' for Inactive)
ROOT
ATOM      1  C   UNL d   1      -2.215  -0.672  -1.451  0.00  0.00     0.172 C 
ATOM      2  N   UNL d   1      -0.953  -0.039  -1.145  0.00  0.00    -0.070 N 
ATOM      3  C1  UNL d   1      -0.601   0.494   0.066  0.00  0.00    -0.004 A 
ATOM      4  C2  UNL d   1       0.676   0.999  -0.050  0.00  0.00    -0.047 A 
ATOM      5  C3  UNL d   1       1.105   0.763  -1.378  0.00  0.00    -0.047 A 
ATOM      6  C4  UNL d   1       0.077   0.119  -2.034  0.00  0.00    -0.004 A 
ENDROOT
TORSDOF 0
ENDMDL
