MODEL 1
REMARK minimizedAffinity -0.0860164315
REMARK minimizedRMSD -1
REMARK  0 active torsions:
REMARK  status: ('A' for Active; 'I' for Inactive)
ROOT
ATOM      1  C   UNL d   1       1.952  -2.262  -3.983  0.00  0.00     0.078 C 
ATOM      2  C1  UNL d   1       2.582  -1.585  -2.803  0.00  0.00    -0.077 A 
ATOM      3  C2  UNL d   1       3.809  -0.921  -2.922  0.00  0.00    -0.001 A 
ATOM      4  C3  UNL d   1       4.388  -0.304  -1.812  0.00  0.00     0.003 A 
ATOM      5  C4  UNL d   1       3.747  -0.344  -0.575  0.00  0.00    -0.005 A 
ATOM      6  C5  UNL d   1       2.526  -1.004  -0.447  0.00  0.00     0.003 A 
ATOM      7  C6  UNL d   1       1.946  -1.622  -1.555  0.00  0.00    -0.001 A 
ENDROOT
TORSDOF 0
ENDMDL
