MODEL 1
REMARK minimizedAffinity 2.45499492
REMARK minimizedRMSD -1
REMARK  0 active torsions:
REMARK  status: ('A' for Active; 'I' for Inactive)
ROOT
ATOM      1  C   UNL d   1       2.742  -0.946  -0.888  0.00  0.00     0.078 C 
ATOM      2  C1  UNL d   1       2.327   0.311  -1.591  0.00  0.00    -0.077 A 
ATOM      3  C2  UNL d   1       2.947   0.710  -2.782  0.00  0.00    -0.001 A 
ATOM      4  C3  UNL d   1       2.557   1.888  -3.421  0.00  0.00     0.003 A 
ATOM      5  C4  UNL d   1       1.546   2.678  -2.876  0.00  0.00    -0.005 A 
ATOM      6  C5  UNL d   1       0.925   2.290  -1.690  0.00  0.00     0.003 A 
ATOM      7  C6  UNL d   1       1.314   1.112  -1.050  0.00  0.00    -0.001 A 
ENDROOT
TORSDOF 0
ENDMDL
