MODEL 1
REMARK minimizedAffinity -1.6433773
REMARK minimizedRMSD -1
REMARK  0 active torsions:
REMARK  status: ('A' for Active; 'I' for Inactive)
ROOT
ATOM      1  C   UNL d   1       1.756   0.293  -1.492  0.00  0.00     0.078 C 
ATOM      2  C1  UNL d   1       0.456  -0.435  -1.327  0.00  0.00    -0.077 A 
ATOM      3  C2  UNL d   1       0.347  -1.796  -1.640  0.00  0.00    -0.001 A 
ATOM      4  C3  UNL d   1      -0.872  -2.459  -1.491  0.00  0.00     0.003 A 
ATOM      5  C4  UNL d   1      -1.992  -1.770  -1.029  0.00  0.00    -0.005 A 
ATOM      6  C5  UNL d   1      -1.894  -0.416  -0.717  0.00  0.00     0.003 A 
ATOM      7  C6  UNL d   1      -0.675   0.249  -0.866  0.00  0.00    -0.001 A 
ENDROOT
TORSDOF 0
ENDMDL
