MODEL 1
REMARK minimizedAffinity 4.90437698
REMARK minimizedRMSD -1
REMARK  0 active torsions:
REMARK  status: ('A' for Active; 'I' for Inactive)
ROOT
ATOM      1  C   UNL d   1      -5.251  -4.408  -1.374  0.00  0.00     0.078 C 
ATOM      2  C1  UNL d   1      -4.207  -3.346  -1.200  0.00  0.00    -0.077 A 
ATOM      3  C2  UNL d   1      -4.468  -2.014  -1.543  0.00  0.00    -0.001 A 
ATOM      4  C3  UNL d   1      -3.484  -1.037  -1.385  0.00  0.00     0.003 A 
ATOM      5  C4  UNL d   1      -2.230  -1.383  -0.884  0.00  0.00    -0.005 A 
ATOM      6  C5  UNL d   1      -1.960  -2.706  -0.541  0.00  0.00     0.003 A 
ATOM      7  C6  UNL d   1      -2.943  -3.684  -0.699  0.00  0.00    -0.001 A 
ENDROOT
TORSDOF 0
ENDMDL
