MODEL 1
REMARK minimizedAffinity 1.92051196
REMARK minimizedRMSD -1
REMARK  0 active torsions:
REMARK  status: ('A' for Active; 'I' for Inactive)
ROOT
ATOM      1  C   UNL d   1       2.518  -0.929  -1.321  0.00  0.00     0.078 C 
ATOM      2  C1  UNL d   1       2.201   0.369  -2.002  0.00  0.00    -0.077 A 
ATOM      3  C2  UNL d   1       1.142   1.173  -1.564  0.00  0.00    -0.001 A 
ATOM      4  C3  UNL d   1       0.852   2.374  -2.213  0.00  0.00     0.003 A 
ATOM      5  C4  UNL d   1       1.616   2.781  -3.305  0.00  0.00    -0.005 A 
ATOM      6  C5  UNL d   1       2.670   1.986  -3.750  0.00  0.00     0.003 A 
ATOM      7  C6  UNL d   1       2.961   0.785  -3.102  0.00  0.00    -0.001 A 
ENDROOT
TORSDOF 0
ENDMDL
