MODEL 1
REMARK minimizedAffinity 3.7896831
REMARK minimizedRMSD -1
REMARK  0 active torsions:
REMARK  status: ('A' for Active; 'I' for Inactive)
ROOT
ATOM      1  C   UNL d   1      -2.547  -3.252  -0.017  0.00  0.00     0.078 C 
ATOM      2  C1  UNL d   1      -3.752  -4.092  -0.318  0.00  0.00    -0.077 A 
ATOM      3  C2  UNL d   1      -4.057  -5.219   0.455  0.00  0.00    -0.001 A 
ATOM      4  C3  UNL d   1      -5.176  -5.998   0.157  0.00  0.00     0.003 A 
ATOM      5  C4  UNL d   1      -5.999  -5.659  -0.916  0.00  0.00    -0.005 A 
ATOM      6  C5  UNL d   1      -5.702  -4.541  -1.692  0.00  0.00     0.003 A 
ATOM      7  C6  UNL d   1      -4.583  -3.761  -1.396  0.00  0.00    -0.001 A 
ENDROOT
TORSDOF 0
ENDMDL
