MODEL 1
REMARK minimizedAffinity 7.90653467
REMARK minimizedRMSD -1
REMARK  0 active torsions:
REMARK  status: ('A' for Active; 'I' for Inactive)
ROOT
ATOM      1  C   UNL d   1      -0.730   1.184  -0.396  0.00  0.00     0.078 C 
ATOM      2  C1  UNL d   1       0.476   1.316  -1.278  0.00  0.00    -0.077 A 
ATOM      3  C2  UNL d   1       1.563   0.443  -1.148  0.00  0.00    -0.001 A 
ATOM      4  C3  UNL d   1       2.683   0.584  -1.969  0.00  0.00     0.003 A 
ATOM      5  C4  UNL d   1       2.728   1.598  -2.924  0.00  0.00    -0.005 A 
ATOM      6  C5  UNL d   1       1.652   2.473  -3.059  0.00  0.00     0.003 A 
ATOM      7  C6  UNL d   1       0.531   2.334  -2.239  0.00  0.00    -0.001 A 
ENDROOT
TORSDOF 0
ENDMDL
