MODEL 1
REMARK minimizedAffinity 7.98674631
REMARK minimizedRMSD -1
REMARK  0 active torsions:
REMARK  status: ('A' for Active; 'I' for Inactive)
ROOT
ATOM      1  C   UNL d   1       2.408   0.817  -1.434  0.00  0.00     0.078 C 
ATOM      2  C1  UNL d   1       1.274   1.198  -0.529  0.00  0.00    -0.077 A 
ATOM      3  C2  UNL d   1      -0.057   1.066  -0.947  0.00  0.00    -0.001 A 
ATOM      4  C3  UNL d   1      -1.102   1.434  -0.098  0.00  0.00     0.003 A 
ATOM      5  C4  UNL d   1      -0.828   1.936   1.173  0.00  0.00    -0.005 A 
ATOM      6  C5  UNL d   1       0.492   2.073   1.596  0.00  0.00     0.003 A 
ATOM      7  C6  UNL d   1       1.539   1.705   0.748  0.00  0.00    -0.001 A 
ENDROOT
TORSDOF 0
ENDMDL
