MODEL 1
REMARK minimizedAffinity 3.19782543
REMARK minimizedRMSD -1
REMARK  0 active torsions:
REMARK  status: ('A' for Active; 'I' for Inactive)
ROOT
ATOM      1  C   UNL d   1       1.149  -0.667  -1.113  0.00  0.00     0.078 C 
ATOM      2  C1  UNL d   1      -0.254  -1.167  -0.934  0.00  0.00    -0.077 A 
ATOM      3  C2  UNL d   1      -1.307  -0.281  -0.675  0.00  0.00    -0.001 A 
ATOM      4  C3  UNL d   1      -2.606  -0.761  -0.501  0.00  0.00     0.003 A 
ATOM      5  C4  UNL d   1      -2.864  -2.128  -0.583  0.00  0.00    -0.005 A 
ATOM      6  C5  UNL d   1      -1.822  -3.017  -0.839  0.00  0.00     0.003 A 
ATOM      7  C6  UNL d   1      -0.522  -2.539  -1.013  0.00  0.00    -0.001 A 
ENDROOT
TORSDOF 0
ENDMDL
