MODEL 1
REMARK minimizedAffinity 2.06273174
REMARK minimizedRMSD -1
REMARK  0 active torsions:
REMARK  status: ('A' for Active; 'I' for Inactive)
ROOT
ATOM      1  C   UNL d   1       3.155   0.835  -1.746  0.00  0.00     0.078 C 
ATOM      2  C1  UNL d   1       2.022   1.133  -0.809  0.00  0.00    -0.077 A 
ATOM      3  C2  UNL d   1       2.257   1.398   0.545  0.00  0.00    -0.001 A 
ATOM      4  C3  UNL d   1       1.193   1.664   1.408  0.00  0.00     0.003 A 
ATOM      5  C4  UNL d   1      -0.115   1.665   0.925  0.00  0.00    -0.005 A 
ATOM      6  C5  UNL d   1      -0.359   1.400  -0.421  0.00  0.00     0.003 A 
ATOM      7  C6  UNL d   1       0.705   1.135  -1.285  0.00  0.00    -0.001 A 
ENDROOT
TORSDOF 0
ENDMDL
