MODEL 1
REMARK minimizedAffinity 1.51145911
REMARK minimizedRMSD -1
REMARK  0 active torsions:
REMARK  status: ('A' for Active; 'I' for Inactive)
ROOT
ATOM      1  C   UNL d   1       1.968   1.922  -3.730  0.00  0.00     0.078 C 
ATOM      2  C1  UNL d   1       2.013   0.829  -2.704  0.00  0.00    -0.077 A 
ATOM      3  C2  UNL d   1       3.024  -0.140  -2.727  0.00  0.00    -0.001 A 
ATOM      4  C3  UNL d   1       3.048  -1.157  -1.771  0.00  0.00     0.003 A 
ATOM      5  C4  UNL d   1       2.063  -1.216  -0.787  0.00  0.00    -0.005 A 
ATOM      6  C5  UNL d   1       1.052  -0.258  -0.758  0.00  0.00     0.003 A 
ATOM      7  C6  UNL d   1       1.027   0.760  -1.713  0.00  0.00    -0.001 A 
ENDROOT
TORSDOF 0
ENDMDL
