MODEL 1
REMARK minimizedAffinity -1.36808884
REMARK minimizedRMSD -1
REMARK  1 active torsions:
REMARK  status: ('A' for Active; 'I' for Inactive)
REMARK    1  A    between atoms: C1_2  and  C2_3 
ROOT
ATOM      1  C2  UNL d   1      -0.813  -1.464  -1.526  0.00  0.00    -0.077 A 
ATOM      2  C3  UNL d   1      -0.464  -0.768  -2.692  0.00  0.00     0.002 A 
ATOM      3  C4  UNL d   1      -1.363  -0.680  -3.757  0.00  0.00     0.002 A 
ATOM      4  C5  UNL d   1      -2.617  -1.280  -3.665  0.00  0.00    -0.004 A 
ATOM      5  C6  UNL d   1      -2.972  -1.976  -2.510  0.00  0.00     0.002 A 
ATOM      6  C7  UNL d   1      -2.075  -2.067  -1.445  0.00  0.00     0.002 A 
ENDROOT
BRANCH   1   7
ATOM      7  C1  UNL d   1       0.136  -1.519  -0.358  0.00  0.00     0.055 C 
ATOM      8  C   UNL d   1       1.499  -0.951  -0.724  0.00  0.00     0.019 C 
ENDBRANCH   1   7
TORSDOF 1
ENDMDL
