MODEL 1
REMARK minimizedAffinity -1.0627327
REMARK minimizedRMSD -1
REMARK  1 active torsions:
REMARK  status: ('A' for Active; 'I' for Inactive)
REMARK    1  A    between atoms: C1_2  and  C2_3 
ROOT
ATOM      1  C2  UNL d   1      -0.919  -1.446  -0.482  0.00  0.00    -0.077 A 
ATOM      2  C3  UNL d   1       0.432  -1.329  -0.838  0.00  0.00     0.002 A 
ATOM      3  C4  UNL d   1       1.242  -0.370  -0.228  0.00  0.00     0.002 A 
ATOM      4  C5  UNL d   1       0.713   0.476   0.744  0.00  0.00    -0.004 A 
ATOM      5  C6  UNL d   1      -0.630   0.369   1.104  0.00  0.00     0.002 A 
ATOM      6  C7  UNL d   1      -1.442  -0.588   0.495  0.00  0.00     0.002 A 
ENDROOT
BRANCH   1   7
ATOM      7  C1  UNL d   1      -1.783  -2.512  -1.103  0.00  0.00     0.055 C 
ATOM      8  C   UNL d   1      -2.697  -1.931  -2.172  0.00  0.00     0.019 C 
ENDBRANCH   1   7
TORSDOF 1
ENDMDL
