MODEL 1
REMARK minimizedAffinity -2.92945218
REMARK minimizedRMSD -1
REMARK  1 active torsions:
REMARK  status: ('A' for Active; 'I' for Inactive)
REMARK    1  A    between atoms: C1_2  and  C2_3 
ROOT
ATOM      1  C2  UNL d   1       2.710   1.414   1.674  0.00  0.00    -0.077 A 
ATOM      2  C3  UNL d   1       2.071   1.992   2.780  0.00  0.00     0.002 A 
ATOM      3  C4  UNL d   1       0.678   1.996   2.869  0.00  0.00     0.002 A 
ATOM      4  C5  UNL d   1      -0.088   1.418   1.858  0.00  0.00    -0.004 A 
ATOM      5  C6  UNL d   1       0.538   0.842   0.753  0.00  0.00     0.002 A 
ATOM      6  C7  UNL d   1       1.931   0.839   0.662  0.00  0.00     0.002 A 
ENDROOT
BRANCH   1   7
ATOM      7  C1  UNL d   1       4.214   1.366   1.601  0.00  0.00     0.055 C 
ATOM      8  C   UNL d   1       4.849   2.152   2.738  0.00  0.00     0.019 C 
ENDBRANCH   1   7
TORSDOF 1
ENDMDL
