MODEL 1
REMARK minimizedAffinity 0.591734052
REMARK minimizedRMSD -1
REMARK  1 active torsions:
REMARK  status: ('A' for Active; 'I' for Inactive)
REMARK    1  A    between atoms: C1_2  and  C2_3 
ROOT
ATOM      1  C2  UNL d   1      -2.633  -4.850   0.531  0.00  0.00    -0.077 A 
ATOM      2  C3  UNL d   1      -2.451  -3.462   0.461  0.00  0.00     0.002 A 
ATOM      3  C4  UNL d   1      -1.431  -2.846   1.188  0.00  0.00     0.002 A 
ATOM      4  C5  UNL d   1      -0.583  -3.611   1.987  0.00  0.00    -0.004 A 
ATOM      5  C6  UNL d   1      -0.757  -4.992   2.064  0.00  0.00     0.002 A 
ATOM      6  C7  UNL d   1      -1.777  -5.609   1.339  0.00  0.00     0.002 A 
ENDROOT
BRANCH   1   7
ATOM      7  C1  UNL d   1      -3.702  -5.522  -0.292  0.00  0.00     0.055 C 
ATOM      8  C   UNL d   1      -3.187  -5.888  -1.676  0.00  0.00     0.019 C 
ENDBRANCH   1   7
TORSDOF 1
ENDMDL
