MODEL 1
REMARK minimizedAffinity 0.888932943
REMARK minimizedRMSD -1
REMARK  1 active torsions:
REMARK  status: ('A' for Active; 'I' for Inactive)
REMARK    1  A    between atoms: C1_2  and  C2_3 
ROOT
ATOM      1  C2  UNL d   1      -0.246   2.854   1.178  0.00  0.00    -0.077 A 
ATOM      2  C3  UNL d   1      -1.298   2.269   1.896  0.00  0.00     0.002 A 
ATOM      3  C4  UNL d   1      -1.050   1.220   2.784  0.00  0.00     0.002 A 
ATOM      4  C5  UNL d   1       0.250   0.751   2.965  0.00  0.00    -0.004 A 
ATOM      5  C6  UNL d   1       1.303   1.326   2.254  0.00  0.00     0.002 A 
ATOM      6  C7  UNL d   1       1.056   2.373   1.366  0.00  0.00     0.002 A 
ENDROOT
BRANCH   1   7
ATOM      7  C1  UNL d   1      -0.505   4.018   0.257  0.00  0.00     0.055 C 
ATOM      8  C   UNL d   1      -1.424   3.623  -0.890  0.00  0.00     0.019 C 
ENDBRANCH   1   7
TORSDOF 1
ENDMDL
