MODEL 1
REMARK minimizedAffinity 4.81458282
REMARK minimizedRMSD -1
REMARK  1 active torsions:
REMARK  status: ('A' for Active; 'I' for Inactive)
REMARK    1  A    between atoms: C1_2  and  C2_3 
ROOT
ATOM      1  C2  UNL d   1      -0.258   1.291   1.709  0.00  0.00    -0.077 A 
ATOM      2  C3  UNL d   1      -1.633   1.555   1.640  0.00  0.00     0.002 A 
ATOM      3  C4  UNL d   1      -2.498   0.645   1.029  0.00  0.00     0.002 A 
ATOM      4  C5  UNL d   1      -1.998  -0.536   0.485  0.00  0.00    -0.004 A 
ATOM      5  C6  UNL d   1      -0.632  -0.808   0.547  0.00  0.00     0.002 A 
ATOM      6  C7  UNL d   1       0.234   0.101   1.157  0.00  0.00     0.002 A 
ENDROOT
BRANCH   1   7
ATOM      7  C1  UNL d   1       0.669   2.248   2.411  0.00  0.00     0.055 C 
ATOM      8  C   UNL d   1       2.049   1.637   2.610  0.00  0.00     0.019 C 
ENDBRANCH   1   7
TORSDOF 1
ENDMDL
