MODEL 1
REMARK minimizedAffinity 11.1966991
REMARK minimizedRMSD -1
REMARK  1 active torsions:
REMARK  status: ('A' for Active; 'I' for Inactive)
REMARK    1  A    between atoms: C1_2  and  C2_3 
ROOT
ATOM      1  C2  UNL d   1      -1.675   2.801   0.989  0.00  0.00    -0.077 A 
ATOM      2  C3  UNL d   1      -0.434   3.367   1.312  0.00  0.00     0.002 A 
ATOM      3  C4  UNL d   1       0.409   2.742   2.233  0.00  0.00     0.002 A 
ATOM      4  C5  UNL d   1       0.023   1.546   2.834  0.00  0.00    -0.004 A 
ATOM      5  C6  UNL d   1      -1.210   0.976   2.520  0.00  0.00     0.002 A 
ATOM      6  C7  UNL d   1      -2.055   1.600   1.601  0.00  0.00     0.002 A 
ENDROOT
BRANCH   1   7
ATOM      7  C1  UNL d   1      -2.564   3.448  -0.041  0.00  0.00     0.055 C 
ATOM      8  C   UNL d   1      -1.747   4.129  -1.129  0.00  0.00     0.019 C 
ENDBRANCH   1   7
TORSDOF 1
ENDMDL
