MODEL 1
REMARK minimizedAffinity 0.687951744
REMARK minimizedRMSD -1
REMARK  1 active torsions:
REMARK  status: ('A' for Active; 'I' for Inactive)
REMARK    1  A    between atoms: C1_2  and  C2_3 
ROOT
ATOM      1  C2  UNL d   1      -3.781  -3.996  -1.498  0.00  0.00    -0.077 A 
ATOM      2  C3  UNL d   1      -3.141  -5.243  -1.506  0.00  0.00     0.002 A 
ATOM      3  C4  UNL d   1      -2.057  -5.486  -0.660  0.00  0.00     0.002 A 
ATOM      4  C5  UNL d   1      -1.606  -4.488   0.202  0.00  0.00    -0.004 A 
ATOM      5  C6  UNL d   1      -2.235  -3.243   0.215  0.00  0.00     0.002 A 
ATOM      6  C7  UNL d   1      -3.318  -2.999  -0.630  0.00  0.00     0.002 A 
ENDROOT
BRANCH   1   7
ATOM      7  C1  UNL d   1      -4.982  -3.749  -2.374  0.00  0.00     0.055 C 
ATOM      8  C   UNL d   1      -5.999  -4.874  -2.249  0.00  0.00     0.019 C 
ENDBRANCH   1   7
TORSDOF 1
ENDMDL
