MODEL 1
REMARK minimizedAffinity 0.846917689
REMARK minimizedRMSD -1
REMARK  1 active torsions:
REMARK  status: ('A' for Active; 'I' for Inactive)
REMARK    1  A    between atoms: C1_2  and  C2_3 
ROOT
ATOM      1  C2  UNL d   1       0.907   0.421   1.295  0.00  0.00    -0.077 A 
ATOM      2  C3  UNL d   1       0.856  -0.437   0.187  0.00  0.00     0.002 A 
ATOM      3  C4  UNL d   1       1.993  -0.652  -0.593  0.00  0.00     0.002 A 
ATOM      4  C5  UNL d   1       3.191  -0.016  -0.272  0.00  0.00    -0.004 A 
ATOM      5  C6  UNL d   1       3.251   0.841   0.826  0.00  0.00     0.002 A 
ATOM      6  C7  UNL d   1       2.115   1.058   1.607  0.00  0.00     0.002 A 
ENDROOT
BRANCH   1   7
ATOM      7  C1  UNL d   1      -0.306   0.615   2.167  0.00  0.00     0.055 C 
ATOM      8  C   UNL d   1      -0.668   2.088   2.291  0.00  0.00     0.019 C 
ENDBRANCH   1   7
TORSDOF 1
ENDMDL
