MODEL 1
REMARK minimizedAffinity 7.36995649
REMARK minimizedRMSD -1
REMARK  1 active torsions:
REMARK  status: ('A' for Active; 'I' for Inactive)
REMARK    1  A    between atoms: C1_2  and  C2_3 
ROOT
ATOM      1  C2  UNL d   1       1.654   0.788   1.121  0.00  0.00    -0.077 A 
ATOM      2  C3  UNL d   1       2.873   1.323   0.680  0.00  0.00     0.002 A 
ATOM      3  C4  UNL d   1       3.560   0.733  -0.383  0.00  0.00     0.002 A 
ATOM      4  C5  UNL d   1       3.034  -0.391  -1.016  0.00  0.00    -0.004 A 
ATOM      5  C6  UNL d   1       1.824  -0.931  -0.584  0.00  0.00     0.002 A 
ATOM      6  C7  UNL d   1       1.137  -0.344   0.479  0.00  0.00     0.002 A 
ENDROOT
BRANCH   1   7
ATOM      7  C1  UNL d   1       0.888   1.452   2.235  0.00  0.00     0.055 C 
ATOM      8  C   UNL d   1      -0.205   2.361   1.690  0.00  0.00     0.019 C 
ENDBRANCH   1   7
TORSDOF 1
ENDMDL
