MODEL 1
REMARK minimizedAffinity 10.6569872
REMARK minimizedRMSD -1
REMARK  1 active torsions:
REMARK  status: ('A' for Active; 'I' for Inactive)
REMARK    1  A    between atoms: C1_2  and  C2_3 
ROOT
ATOM      1  C2  UNL d   1      -1.300   0.601   2.551  0.00  0.00    -0.077 A 
ATOM      2  C3  UNL d   1      -0.396   0.246   3.562  0.00  0.00     0.002 A 
ATOM      3  C4  UNL d   1       0.747   1.014   3.789  0.00  0.00     0.002 A 
ATOM      4  C5  UNL d   1       0.994   2.145   3.013  0.00  0.00    -0.004 A 
ATOM      5  C6  UNL d   1       0.103   2.505   2.004  0.00  0.00     0.002 A 
ATOM      6  C7  UNL d   1      -1.040   1.737   1.774  0.00  0.00     0.002 A 
ENDROOT
BRANCH   1   7
ATOM      7  C1  UNL d   1      -2.558  -0.199   2.336  0.00  0.00     0.055 C 
ATOM      8  C   UNL d   1      -3.652   0.220   3.307  0.00  0.00     0.019 C 
ENDBRANCH   1   7
TORSDOF 1
ENDMDL
