MODEL 1
REMARK minimizedAffinity -0.282105297
REMARK minimizedRMSD -1
REMARK  1 active torsions:
REMARK  status: ('A' for Active; 'I' for Inactive)
REMARK    1  A    between atoms: C1_2  and  C2_3 
ROOT
ATOM      1  C2  UNL d   1      -4.933   5.353   1.560  0.00  0.00    -0.077 A 
ATOM      2  C3  UNL d   1      -4.415   4.079   1.832  0.00  0.00     0.002 A 
ATOM      3  C4  UNL d   1      -4.666   3.461   3.059  0.00  0.00     0.002 A 
ATOM      4  C5  UNL d   1      -5.440   4.108   4.021  0.00  0.00    -0.004 A 
ATOM      5  C6  UNL d   1      -5.958   5.376   3.761  0.00  0.00     0.002 A 
ATOM      6  C7  UNL d   1      -5.707   5.995   2.536  0.00  0.00     0.002 A 
ENDROOT
BRANCH   1   7
ATOM      7  C1  UNL d   1      -4.705   6.000   0.219  0.00  0.00     0.055 C 
ATOM      8  C   UNL d   1      -5.974   6.000  -0.619  0.00  0.00     0.019 C 
ENDBRANCH   1   7
TORSDOF 1
ENDMDL
