MODEL 1
REMARK minimizedAffinity 6.71570778
REMARK minimizedRMSD -1
REMARK  1 active torsions:
REMARK  status: ('A' for Active; 'I' for Inactive)
REMARK    1  A    between atoms: C1_2  and  C2_3 
ROOT
ATOM      1  C2  UNL d   1       1.213   1.388   1.111  0.00  0.00    -0.077 A 
ATOM      2  C3  UNL d   1       2.581   1.454   0.814  0.00  0.00     0.002 A 
ATOM      3  C4  UNL d   1       3.156   0.541  -0.073  0.00  0.00     0.002 A 
ATOM      4  C5  UNL d   1       2.369  -0.440  -0.673  0.00  0.00    -0.004 A 
ATOM      5  C6  UNL d   1       1.007  -0.514  -0.383  0.00  0.00     0.002 A 
ATOM      6  C7  UNL d   1       0.432   0.396   0.505  0.00  0.00     0.002 A 
ENDROOT
BRANCH   1   7
ATOM      7  C1  UNL d   1       0.581   2.402   2.029  0.00  0.00     0.055 C 
ATOM      8  C   UNL d   1      -0.906   2.553   1.748  0.00  0.00     0.019 C 
ENDBRANCH   1   7
TORSDOF 1
ENDMDL
