MODEL 1
REMARK minimizedAffinity -2.04762483
REMARK minimizedRMSD -1
REMARK  0 active torsions:
REMARK  status: ('A' for Active; 'I' for Inactive)
ROOT
ATOM      1  C   UNL d   1      -1.199   0.122   1.936  0.00  0.00     0.124 A 
ATOM      2  C1  UNL d   1      -1.089  -0.042   0.562  0.00  0.00     0.062 A 
ATOM      3  C2  UNL d   1       0.160  -0.237  -0.022  0.00  0.00     0.162 A 
ATOM      4  C3  UNL d   1       1.309  -0.269   0.768  0.00  0.00    -0.034 A 
ATOM      5  C4  UNL d   1       1.190  -0.102   2.149  0.00  0.00     0.162 A 
ATOM      6  C5  UNL d   1      -0.060   0.091   2.728  0.00  0.00     0.062 A 
ATOM      7  F   UNL d   1      -0.165   0.250   4.055  0.00  0.00    -0.097 F 
ATOM      8  F1  UNL d   1       2.274  -0.128   2.939  0.00  0.00    -0.096 F 
ATOM      9  I   UNL d   1       3.178  -0.559  -0.100  0.00  0.00    -0.060 I 
ATOM     10  F2  UNL d   1       0.237  -0.392  -1.352  0.00  0.00    -0.096 F 
ATOM     11  F3  UNL d   1      -2.187  -0.013  -0.206  0.00  0.00    -0.097 F 
ATOM     12  F4  UNL d   1      -2.402   0.309   2.494  0.00  0.00    -0.092 F 
ENDROOT
TORSDOF 0
ENDMDL
