MODEL 1
REMARK minimizedAffinity 4.47709703
REMARK minimizedRMSD -1
REMARK  0 active torsions:
REMARK  status: ('A' for Active; 'I' for Inactive)
ROOT
ATOM      1  C   UNL d   1      -0.510   0.855   1.232  0.00  0.00     0.124 A 
ATOM      2  C1  UNL d   1      -1.319  -0.137   1.768  0.00  0.00     0.062 A 
ATOM      3  C2  UNL d   1      -0.929  -0.813   2.920  0.00  0.00     0.162 A 
ATOM      4  C3  UNL d   1       0.277  -0.498   3.546  0.00  0.00    -0.034 A 
ATOM      5  C4  UNL d   1       1.087   0.500   3.001  0.00  0.00     0.162 A 
ATOM      6  C5  UNL d   1       0.692   1.172   1.849  0.00  0.00     0.062 A 
ATOM      7  F   UNL d   1       1.476   2.130   1.333  0.00  0.00    -0.097 F 
ATOM      8  F1  UNL d   1       2.253   0.828   3.577  0.00  0.00    -0.096 F 
ATOM      9  I   UNL d   1       0.865  -1.506   5.269  0.00  0.00    -0.060 I 
ATOM     10  F2  UNL d   1      -1.731  -1.767   3.416  0.00  0.00    -0.096 F 
ATOM     11  F3  UNL d   1      -2.481  -0.446   1.173  0.00  0.00    -0.097 F 
ATOM     12  F4  UNL d   1      -0.887   1.503   0.122  0.00  0.00    -0.092 F 
ENDROOT
TORSDOF 0
ENDMDL
