MODEL 1
REMARK minimizedAffinity 0.448145628
REMARK minimizedRMSD -1
REMARK  0 active torsions:
REMARK  status: ('A' for Active; 'I' for Inactive)
ROOT
ATOM      1  C   UNL d   1      -2.023  -0.287   1.530  0.00  0.00     0.124 A 
ATOM      2  C1  UNL d   1      -1.766  -0.578   0.198  0.00  0.00     0.062 A 
ATOM      3  C2  UNL d   1      -0.457  -0.744  -0.243  0.00  0.00     0.162 A 
ATOM      4  C3  UNL d   1       0.608  -0.621   0.650  0.00  0.00    -0.034 A 
ATOM      5  C4  UNL d   1       0.342  -0.327   1.988  0.00  0.00     0.162 A 
ATOM      6  C5  UNL d   1      -0.969  -0.161   2.424  0.00  0.00     0.062 A 
ATOM      7  F   UNL d   1      -1.214   0.120   3.712  0.00  0.00    -0.097 F 
ATOM      8  F1  UNL d   1       1.342  -0.201   2.874  0.00  0.00    -0.096 F 
ATOM      9  I   UNL d   1       2.567  -0.869  -0.006  0.00  0.00    -0.060 I 
ATOM     10  F2  UNL d   1      -0.239  -1.025  -1.537  0.00  0.00    -0.096 F 
ATOM     11  F3  UNL d   1      -2.783  -0.699  -0.668  0.00  0.00    -0.097 F 
ATOM     12  F4  UNL d   1      -3.284  -0.126   1.952  0.00  0.00    -0.092 F 
ENDROOT
TORSDOF 0
ENDMDL
