MODEL 1
REMARK minimizedAffinity 19.8507519
REMARK minimizedRMSD -1
REMARK  0 active torsions:
REMARK  status: ('A' for Active; 'I' for Inactive)
ROOT
ATOM      1  C   UNL d   1      -2.695   0.376   2.262  0.00  0.00     0.124 A 
ATOM      2  C1  UNL d   1      -2.710   0.866   0.963  0.00  0.00     0.062 A 
ATOM      3  C2  UNL d   1      -1.587   0.731   0.151  0.00  0.00     0.162 A 
ATOM      4  C3  UNL d   1      -0.440   0.103   0.635  0.00  0.00    -0.034 A 
ATOM      5  C4  UNL d   1      -0.432  -0.386   1.943  0.00  0.00     0.162 A 
ATOM      6  C5  UNL d   1      -1.557  -0.249   2.750  0.00  0.00     0.062 A 
ATOM      7  F   UNL d   1      -1.540  -0.723   4.005  0.00  0.00    -0.097 F 
ATOM      8  F1  UNL d   1       0.654  -0.996   2.440  0.00  0.00    -0.096 F 
ATOM      9  I   UNL d   1       1.241  -0.100  -0.575  0.00  0.00    -0.060 I 
ATOM     10  F2  UNL d   1      -1.630   1.214  -1.099  0.00  0.00    -0.096 F 
ATOM     11  F3  UNL d   1      -3.808   1.471   0.489  0.00  0.00    -0.097 F 
ATOM     12  F4  UNL d   1      -3.776   0.508   3.041  0.00  0.00    -0.092 F 
ENDROOT
TORSDOF 0
ENDMDL
