MODEL 1
REMARK minimizedAffinity 5.52110147
REMARK minimizedRMSD -1
REMARK  2 active torsions:
REMARK  status: ('A' for Active; 'I' for Inactive)
REMARK    1  A    between atoms: C1_2  and  C2_3 
REMARK    2  A    between atoms: C2_3  and  C3_4 
ROOT
ATOM      1  C3  UNL d   1       2.312   1.287   0.917  0.00  0.00    -0.075 A 
ATOM      2  C4  UNL d   1       1.953  -0.055   0.727  0.00  0.00     0.002 A 
ATOM      3  C5  UNL d   1       2.002  -0.958   1.789  0.00  0.00     0.002 A 
ATOM      4  C6  UNL d   1       2.420  -0.535   3.049  0.00  0.00    -0.004 A 
ATOM      5  C7  UNL d   1       2.795   0.793   3.245  0.00  0.00     0.002 A 
ATOM      6  C8  UNL d   1       2.742   1.700   2.185  0.00  0.00     0.002 A 
ENDROOT
BRANCH   1   7
ATOM      7  C2  UNL d   1       2.233   2.276  -0.222  0.00  0.00     0.056 C 
BRANCH   7   8
ATOM      8  C1  UNL d   1       0.956   3.124  -0.224  0.00  0.00     0.007 C 
ATOM      9  C   UNL d   1       0.992   4.261  -1.236  0.00  0.00     0.009 C 
ENDBRANCH   7   8
ENDBRANCH   1   7
TORSDOF 2
ENDMDL
