MODEL 1
REMARK minimizedAffinity 11.5147018
REMARK minimizedRMSD -1
REMARK  2 active torsions:
REMARK  status: ('A' for Active; 'I' for Inactive)
REMARK    1  A    between atoms: C1_2  and  C2_3 
REMARK    2  A    between atoms: C2_3  and  C3_4 
ROOT
ATOM      1  C3  UNL d   1       3.989  -1.297  -3.825  0.00  0.00    -0.075 A 
ATOM      2  C4  UNL d   1       3.372  -0.347  -4.653  0.00  0.00     0.002 A 
ATOM      3  C5  UNL d   1       4.059   0.200  -5.736  0.00  0.00     0.002 A 
ATOM      4  C6  UNL d   1       5.372  -0.186  -6.000  0.00  0.00    -0.004 A 
ATOM      5  C7  UNL d   1       6.000  -1.116  -5.175  0.00  0.00     0.002 A 
ATOM      6  C8  UNL d   1       5.313  -1.669  -4.092  0.00  0.00     0.002 A 
ENDROOT
BRANCH   1   7
ATOM      7  C2  UNL d   1       3.240  -1.915  -2.668  0.00  0.00     0.056 C 
BRANCH   7   8
ATOM      8  C1  UNL d   1       1.955  -2.644  -3.075  0.00  0.00     0.007 C 
ATOM      9  C   UNL d   1       1.404  -3.547  -1.979  0.00  0.00     0.009 C 
ENDBRANCH   7   8
ENDBRANCH   1   7
TORSDOF 2
ENDMDL
