MODEL 1
REMARK minimizedAffinity 3.9597013
REMARK minimizedRMSD -1
REMARK  2 active torsions:
REMARK  status: ('A' for Active; 'I' for Inactive)
REMARK    1  A    between atoms: C1_2  and  C2_3 
REMARK    2  A    between atoms: C2_3  and  C3_4 
ROOT
ATOM      1  C3  UNL d   1      -4.606  -2.238  -5.436  0.00  0.00    -0.075 A 
ATOM      2  C4  UNL d   1      -5.870  -2.846  -5.446  0.00  0.00     0.002 A 
ATOM      3  C5  UNL d   1      -5.998  -4.208  -5.717  0.00  0.00     0.002 A 
ATOM      4  C6  UNL d   1      -4.869  -4.977  -5.991  0.00  0.00    -0.004 A 
ATOM      5  C7  UNL d   1      -3.610  -4.379  -6.000  0.00  0.00     0.002 A 
ATOM      6  C8  UNL d   1      -3.478  -3.017  -5.725  0.00  0.00     0.002 A 
ENDROOT
BRANCH   1   7
ATOM      7  C2  UNL d   1      -4.458  -0.770  -5.114  0.00  0.00     0.056 C 
BRANCH   7   8
ATOM      8  C1  UNL d   1      -3.254  -0.445  -4.224  0.00  0.00     0.007 C 
ATOM      9  C   UNL d   1      -3.437   0.827  -3.407  0.00  0.00     0.009 C 
ENDBRANCH   7   8
ENDBRANCH   1   7
TORSDOF 2
ENDMDL
