MODEL 1
REMARK minimizedAffinity 13.1099405
REMARK minimizedRMSD -1
REMARK  2 active torsions:
REMARK  status: ('A' for Active; 'I' for Inactive)
REMARK    1  A    between atoms: C1_2  and  C2_3 
REMARK    2  A    between atoms: C2_3  and  C3_4 
ROOT
ATOM      1  C3  UNL d   1       5.264  -0.098  -5.345  0.00  0.00    -0.075 A 
ATOM      2  C4  UNL d   1       4.433   0.060  -4.226  0.00  0.00     0.002 A 
ATOM      3  C5  UNL d   1       3.853  -1.050  -3.612  0.00  0.00     0.002 A 
ATOM      4  C6  UNL d   1       4.088  -2.329  -4.113  0.00  0.00    -0.004 A 
ATOM      5  C7  UNL d   1       4.898  -2.496  -5.233  0.00  0.00     0.002 A 
ATOM      6  C8  UNL d   1       5.483  -1.387  -5.848  0.00  0.00     0.002 A 
ENDROOT
BRANCH   1   7
ATOM      7  C2  UNL d   1       5.918   1.097  -5.997  0.00  0.00     0.056 C 
BRANCH   7   8
ATOM      8  C1  UNL d   1       5.076   2.376  -5.942  0.00  0.00     0.007 C 
ATOM      9  C   UNL d   1       5.885   3.612  -5.572  0.00  0.00     0.009 C 
ENDBRANCH   7   8
ENDBRANCH   1   7
TORSDOF 2
ENDMDL
