MODEL 1
REMARK minimizedAffinity 11.1163349
REMARK minimizedRMSD -1
REMARK  2 active torsions:
REMARK  status: ('A' for Active; 'I' for Inactive)
REMARK    1  A    between atoms: C1_2  and  C2_3 
REMARK    2  A    between atoms: C2_3  and  C3_4 
ROOT
ATOM      1  C3  UNL d   1      -2.851   2.570  -0.524  0.00  0.00    -0.075 A 
ATOM      2  C4  UNL d   1      -1.889   2.166   0.413  0.00  0.00     0.002 A 
ATOM      3  C5  UNL d   1      -2.021   2.515   1.758  0.00  0.00     0.002 A 
ATOM      4  C6  UNL d   1      -3.108   3.278   2.180  0.00  0.00    -0.004 A 
ATOM      5  C7  UNL d   1      -4.061   3.698   1.254  0.00  0.00     0.002 A 
ATOM      6  C8  UNL d   1      -3.934   3.347  -0.091  0.00  0.00     0.002 A 
ENDROOT
BRANCH   1   7
ATOM      7  C2  UNL d   1      -2.730   2.171  -1.976  0.00  0.00     0.056 C 
BRANCH   7   8
ATOM      8  C1  UNL d   1      -3.846   1.242  -2.463  0.00  0.00     0.007 C 
ATOM      9  C   UNL d   1      -4.595   1.785  -3.672  0.00  0.00     0.009 C 
ENDBRANCH   7   8
ENDBRANCH   1   7
TORSDOF 2
ENDMDL
