MODEL 1
REMARK minimizedAffinity 8.46030998
REMARK minimizedRMSD -1
REMARK  2 active torsions:
REMARK  status: ('A' for Active; 'I' for Inactive)
REMARK    1  A    between atoms: C1_2  and  C2_3 
REMARK    2  A    between atoms: C2_3  and  C3_4 
ROOT
ATOM      1  C3  UNL d   1       1.686  -0.436   1.672  0.00  0.00    -0.075 A 
ATOM      2  C4  UNL d   1       1.253   0.768   2.246  0.00  0.00     0.002 A 
ATOM      3  C5  UNL d   1       1.603   1.991   1.673  0.00  0.00     0.002 A 
ATOM      4  C6  UNL d   1       2.398   2.026   0.530  0.00  0.00    -0.004 A 
ATOM      5  C7  UNL d   1       2.847   0.837  -0.039  0.00  0.00     0.002 A 
ATOM      6  C8  UNL d   1       2.494  -0.389   0.529  0.00  0.00     0.002 A 
ENDROOT
BRANCH   1   7
ATOM      7  C2  UNL d   1       1.285  -1.764   2.270  0.00  0.00     0.056 C 
BRANCH   7   8
ATOM      8  C1  UNL d   1       1.624  -1.906   3.758  0.00  0.00     0.007 C 
ATOM      9  C   UNL d   1       2.799  -2.839   4.020  0.00  0.00     0.009 C 
ENDBRANCH   7   8
ENDBRANCH   1   7
TORSDOF 2
ENDMDL
