MODEL 1
REMARK minimizedAffinity -0.450033158
REMARK minimizedRMSD -1
REMARK  2 active torsions:
REMARK  status: ('A' for Active; 'I' for Inactive)
REMARK    1  A    between atoms: C1_2  and  C2_3 
REMARK    2  A    between atoms: C2_3  and  C3_4 
ROOT
ATOM      1  C3  UNL d   1       5.286  -2.025  -4.700  0.00  0.00    -0.075 A 
ATOM      2  C4  UNL d   1       3.903  -2.107  -4.478  0.00  0.00     0.002 A 
ATOM      3  C5  UNL d   1       3.248  -1.137  -3.719  0.00  0.00     0.002 A 
ATOM      4  C6  UNL d   1       3.966  -0.080  -3.165  0.00  0.00    -0.004 A 
ATOM      5  C7  UNL d   1       5.342   0.004  -3.365  0.00  0.00     0.002 A 
ATOM      6  C8  UNL d   1       6.000  -0.963  -4.128  0.00  0.00     0.002 A 
ENDROOT
BRANCH   1   7
ATOM      7  C2  UNL d   1       5.996  -3.055  -5.544  0.00  0.00     0.056 C 
BRANCH   7   8
ATOM      8  C1  UNL d   1       5.311  -4.426  -5.562  0.00  0.00     0.007 C 
ATOM      9  C   UNL d   1       6.000  -5.453  -4.674  0.00  0.00     0.009 C 
ENDBRANCH   7   8
ENDBRANCH   1   7
TORSDOF 2
ENDMDL
