MODEL 1
REMARK minimizedAffinity -3.76235247
REMARK minimizedRMSD -1
REMARK  0 active torsions:
REMARK  status: ('A' for Active; 'I' for Inactive)
ROOT
ATOM      1  C   UNL d   1       1.383   1.381  -1.820  0.00  0.00     0.077 C 
ATOM      2  C1  UNL d   1       0.615   0.901  -0.624  0.00  0.00    -0.074 A 
ATOM      3  C2  UNL d   1       1.193   0.019   0.294  0.00  0.00    -0.005 A 
ATOM      4  C3  UNL d   1       0.470  -0.411   1.407  0.00  0.00     0.006 A 
ATOM      5  C4  UNL d   1      -0.836   0.036   1.612  0.00  0.00    -0.005 A 
ATOM      6  C5  UNL d   1      -1.430   0.919   0.705  0.00  0.00    -0.074 A 
ATOM      7  C6  UNL d   1      -2.829   1.417   0.915  0.00  0.00     0.077 C 
ATOM      8  C7  UNL d   1      -0.695   1.352  -0.407  0.00  0.00    -0.001 A 
ENDROOT
TORSDOF 0
ENDMDL
