MODEL 1
REMARK minimizedAffinity -4.90301847
REMARK minimizedRMSD -1
REMARK  0 active torsions:
REMARK  status: ('A' for Active; 'I' for Inactive)
ROOT
ATOM      1  C   UNL d   1      -2.426   2.639   1.025  0.00  0.00     0.077 C 
ATOM      2  C1  UNL d   1      -1.439   1.510   1.020  0.00  0.00    -0.074 A 
ATOM      3  C2  UNL d   1      -0.875   1.043   2.211  0.00  0.00    -0.005 A 
ATOM      4  C3  UNL d   1       0.034  -0.015   2.192  0.00  0.00     0.006 A 
ATOM      5  C4  UNL d   1       0.387  -0.616   0.983  0.00  0.00    -0.005 A 
ATOM      6  C5  UNL d   1      -0.168  -0.163  -0.219  0.00  0.00    -0.074 A 
ATOM      7  C6  UNL d   1       0.193  -0.804  -1.526  0.00  0.00     0.077 C 
ATOM      8  C7  UNL d   1      -1.086   0.896  -0.190  0.00  0.00    -0.001 A 
ENDROOT
TORSDOF 0
ENDMDL
