MODEL 1
REMARK minimizedAffinity -4.906528
REMARK minimizedRMSD -1
REMARK  0 active torsions:
REMARK  status: ('A' for Active; 'I' for Inactive)
ROOT
ATOM      1  C   UNL d   1       1.125  -1.711  -0.755  0.00  0.00     0.077 C 
ATOM      2  C1  UNL d   1       0.418  -0.462  -0.319  0.00  0.00    -0.074 A 
ATOM      3  C2  UNL d   1      -0.155  -0.367   0.954  0.00  0.00    -0.005 A 
ATOM      4  C3  UNL d   1      -0.801   0.804   1.348  0.00  0.00     0.006 A 
ATOM      5  C4  UNL d   1      -0.881   1.891   0.477  0.00  0.00    -0.005 A 
ATOM      6  C5  UNL d   1      -0.314   1.815  -0.799  0.00  0.00    -0.074 A 
ATOM      7  C6  UNL d   1      -0.382   2.977  -1.745  0.00  0.00     0.077 C 
ATOM      8  C7  UNL d   1       0.340   0.637  -1.186  0.00  0.00    -0.001 A 
ENDROOT
TORSDOF 0
ENDMDL
