MODEL 1
REMARK minimizedAffinity -5.90053225
REMARK minimizedRMSD -1
REMARK  0 active torsions:
REMARK  status: ('A' for Active; 'I' for Inactive)
ROOT
ATOM      1  C   UNL d   1      -2.305   2.445   0.824  0.00  0.00     0.077 C 
ATOM      2  C1  UNL d   1      -1.263   1.367   0.837  0.00  0.00    -0.074 A 
ATOM      3  C2  UNL d   1      -1.074   0.564   1.967  0.00  0.00    -0.005 A 
ATOM      4  C3  UNL d   1      -0.106  -0.440   1.962  0.00  0.00     0.006 A 
ATOM      5  C4  UNL d   1       0.681  -0.652   0.829  0.00  0.00    -0.005 A 
ATOM      6  C5  UNL d   1       0.505   0.140  -0.310  0.00  0.00    -0.074 A 
ATOM      7  C6  UNL d   1       1.336  -0.081  -1.539  0.00  0.00     0.077 C 
ATOM      8  C7  UNL d   1      -0.474   1.143  -0.299  0.00  0.00    -0.001 A 
ENDROOT
TORSDOF 0
ENDMDL
