MODEL 1
REMARK minimizedAffinity -0.355828792
REMARK minimizedRMSD -1
REMARK  0 active torsions:
REMARK  status: ('A' for Active; 'I' for Inactive)
ROOT
ATOM      1  C   UNL d   1       0.549   2.629  -2.254  0.00  0.00     0.077 C 
ATOM      2  C1  UNL d   1      -0.068   1.647  -1.304  0.00  0.00    -0.074 A 
ATOM      3  C2  UNL d   1      -1.378   1.816  -0.844  0.00  0.00    -0.005 A 
ATOM      4  C3  UNL d   1      -1.941   0.889   0.032  0.00  0.00     0.006 A 
ATOM      5  C4  UNL d   1      -1.202  -0.215   0.457  0.00  0.00    -0.005 A 
ATOM      6  C5  UNL d   1       0.109  -0.402   0.008  0.00  0.00    -0.074 A 
ATOM      7  C6  UNL d   1       0.915  -1.589   0.447  0.00  0.00     0.077 C 
ATOM      8  C7  UNL d   1       0.666   0.530  -0.878  0.00  0.00    -0.001 A 
ENDROOT
TORSDOF 0
ENDMDL
