MODEL 1
REMARK minimizedAffinity -5.27995586
REMARK minimizedRMSD -1
REMARK  0 active torsions:
REMARK  status: ('A' for Active; 'I' for Inactive)
ROOT
ATOM      1  C   UNL d   1      -2.322   1.236   0.927  0.00  0.00     0.077 C 
ATOM      2  C1  UNL d   1      -1.095   0.903   0.130  0.00  0.00    -0.074 A 
ATOM      3  C2  UNL d   1      -0.297   1.913  -0.417  0.00  0.00    -0.005 A 
ATOM      4  C3  UNL d   1       0.846   1.589  -1.147  0.00  0.00     0.006 A 
ATOM      5  C4  UNL d   1       1.201   0.253  -1.339  0.00  0.00    -0.005 A 
ATOM      6  C5  UNL d   1       0.416  -0.771  -0.799  0.00  0.00    -0.074 A 
ATOM      7  C6  UNL d   1       0.790  -2.211  -0.987  0.00  0.00     0.077 C 
ATOM      8  C7  UNL d   1      -0.727  -0.436  -0.060  0.00  0.00    -0.001 A 
ENDROOT
TORSDOF 0
ENDMDL
