MODEL 1
REMARK minimizedAffinity -4.31612015
REMARK minimizedRMSD -1
REMARK  0 active torsions:
REMARK  status: ('A' for Active; 'I' for Inactive)
ROOT
ATOM      1  C   UNL d   1      -2.326   2.138   1.210  0.00  0.00     0.077 C 
ATOM      2  C1  UNL d   1      -1.290   1.057   1.123  0.00  0.00    -0.074 A 
ATOM      3  C2  UNL d   1      -0.598   0.631   2.261  0.00  0.00    -0.005 A 
ATOM      4  C3  UNL d   1       0.356  -0.382   2.166  0.00  0.00     0.006 A 
ATOM      5  C4  UNL d   1       0.628  -0.979   0.934  0.00  0.00    -0.005 A 
ATOM      6  C5  UNL d   1      -0.055  -0.567  -0.214  0.00  0.00    -0.074 A 
ATOM      7  C6  UNL d   1       0.218  -1.204  -1.545  0.00  0.00     0.077 C 
ATOM      8  C7  UNL d   1      -1.017   0.447  -0.110  0.00  0.00    -0.001 A 
ENDROOT
TORSDOF 0
ENDMDL
