MODEL 1
REMARK minimizedAffinity -5.16160583
REMARK minimizedRMSD -1
REMARK  0 active torsions:
REMARK  status: ('A' for Active; 'I' for Inactive)
ROOT
ATOM      1  C   UNL d   1      -2.080   1.743   0.904  0.00  0.00     0.077 C 
ATOM      2  C1  UNL d   1      -0.879   1.362   0.092  0.00  0.00    -0.074 A 
ATOM      3  C2  UNL d   1      -0.274   2.282  -0.771  0.00  0.00    -0.005 A 
ATOM      4  C3  UNL d   1       0.849   1.916  -1.514  0.00  0.00     0.006 A 
ATOM      5  C4  UNL d   1       1.378   0.630  -1.401  0.00  0.00    -0.005 A 
ATOM      6  C5  UNL d   1       0.787  -0.303  -0.542  0.00  0.00    -0.074 A 
ATOM      7  C6  UNL d   1       1.349  -1.687  -0.401  0.00  0.00     0.077 C 
ATOM      8  C7  UNL d   1      -0.337   0.074   0.206  0.00  0.00    -0.001 A 
ENDROOT
TORSDOF 0
ENDMDL
