MODEL 1
REMARK minimizedAffinity -3.5413394
REMARK minimizedRMSD -1
REMARK  0 active torsions:
REMARK  status: ('A' for Active; 'I' for Inactive)
ROOT
ATOM      1  C   UNL d   1      -2.268   2.061   0.780  0.00  0.00     0.077 C 
ATOM      2  C1  UNL d   1      -1.150   1.489  -0.040  0.00  0.00    -0.074 A 
ATOM      3  C2  UNL d   1      -0.496   2.262  -1.004  0.00  0.00    -0.005 A 
ATOM      4  C3  UNL d   1       0.549   1.719  -1.752  0.00  0.00     0.006 A 
ATOM      5  C4  UNL d   1       0.950   0.399  -1.543  0.00  0.00    -0.005 A 
ATOM      6  C5  UNL d   1       0.309  -0.389  -0.582  0.00  0.00    -0.074 A 
ATOM      7  C6  UNL d   1       0.734  -1.807  -0.338  0.00  0.00     0.077 C 
ATOM      8  C7  UNL d   1      -0.736   0.166   0.170  0.00  0.00    -0.001 A 
ENDROOT
TORSDOF 0
ENDMDL
