MODEL 1
REMARK minimizedAffinity -4.70554543
REMARK minimizedRMSD -1
REMARK  0 active torsions:
REMARK  status: ('A' for Active; 'I' for Inactive)
ROOT
ATOM      1  C   UNL d   1       0.600  -1.098  -0.694  0.00  0.00     0.077 C 
ATOM      2  C1  UNL d   1      -0.253  -0.031  -0.075  0.00  0.00    -0.074 A 
ATOM      3  C2  UNL d   1      -1.445   0.378  -0.680  0.00  0.00    -0.005 A 
ATOM      4  C3  UNL d   1      -2.233   1.365  -0.087  0.00  0.00     0.006 A 
ATOM      5  C4  UNL d   1      -1.837   1.952   1.115  0.00  0.00    -0.005 A 
ATOM      6  C5  UNL d   1      -0.648   1.555   1.736  0.00  0.00    -0.074 A 
ATOM      7  C6  UNL d   1      -0.213   2.169   3.033  0.00  0.00     0.077 C 
ATOM      8  C7  UNL d   1       0.134   0.558   1.137  0.00  0.00    -0.001 A 
ENDROOT
TORSDOF 0
ENDMDL
