MODEL 1
REMARK minimizedAffinity -4.44223595
REMARK minimizedRMSD -1
REMARK  0 active torsions:
REMARK  status: ('A' for Active; 'I' for Inactive)
ROOT
ATOM      1  C   UNL d   1       1.367   0.788  -1.275  0.00  0.00     0.077 C 
ATOM      2  C1  UNL d   1       0.511   0.569  -0.063  0.00  0.00    -0.074 A 
ATOM      3  C2  UNL d   1       0.998  -0.133   1.044  0.00  0.00    -0.005 A 
ATOM      4  C3  UNL d   1       0.193  -0.320   2.168  0.00  0.00     0.006 A 
ATOM      5  C4  UNL d   1      -1.104   0.193   2.196  0.00  0.00    -0.005 A 
ATOM      6  C5  UNL d   1      -1.608   0.898   1.099  0.00  0.00    -0.074 A 
ATOM      7  C6  UNL d   1      -2.997   1.464   1.116  0.00  0.00     0.077 C 
ATOM      8  C7  UNL d   1      -0.791   1.088  -0.024  0.00  0.00    -0.001 A 
ENDROOT
TORSDOF 0
ENDMDL
