MODEL 1
REMARK minimizedAffinity -5.43054724
REMARK minimizedRMSD -1
REMARK  0 active torsions:
REMARK  status: ('A' for Active; 'I' for Inactive)
ROOT
ATOM      1  C   UNL d   1       0.013   2.048   3.897  0.00  0.00     0.077 C 
ATOM      2  C1  UNL d   1      -0.505   1.587   2.567  0.00  0.00    -0.074 A 
ATOM      3  C2  UNL d   1      -1.579   2.235   1.950  0.00  0.00    -0.005 A 
ATOM      4  C3  UNL d   1      -2.043   1.802   0.708  0.00  0.00     0.006 A 
ATOM      5  C4  UNL d   1      -1.439   0.717   0.072  0.00  0.00    -0.005 A 
ATOM      6  C5  UNL d   1      -0.362   0.057   0.673  0.00  0.00    -0.074 A 
ATOM      7  C6  UNL d   1       0.306  -1.104  -0.002  0.00  0.00     0.077 C 
ATOM      8  C7  UNL d   1       0.103   0.503   1.918  0.00  0.00    -0.001 A 
ENDROOT
TORSDOF 0
ENDMDL
