MODEL 1
REMARK minimizedAffinity -3.08610415
REMARK minimizedRMSD -1
REMARK  0 active torsions:
REMARK  status: ('A' for Active; 'I' for Inactive)
ROOT
ATOM      1  C   UNL d   1      -2.438   1.604   0.366  0.00  0.00     0.077 C 
ATOM      2  C1  UNL d   1      -1.155   0.852   0.556  0.00  0.00    -0.074 A 
ATOM      3  C2  UNL d   1      -0.500   0.847   1.792  0.00  0.00    -0.005 A 
ATOM      4  C3  UNL d   1       0.688   0.135   1.956  0.00  0.00     0.006 A 
ATOM      5  C4  UNL d   1       1.232  -0.578   0.887  0.00  0.00    -0.005 A 
ATOM      6  C5  UNL d   1       0.592  -0.586  -0.356  0.00  0.00    -0.074 A 
ATOM      7  C6  UNL d   1       1.159  -1.355  -1.512  0.00  0.00     0.077 C 
ATOM      8  C7  UNL d   1      -0.605   0.127  -0.511  0.00  0.00    -0.001 A 
ENDROOT
TORSDOF 0
ENDMDL
