MODEL 1
REMARK minimizedAffinity -5.46636057
REMARK minimizedRMSD -1
REMARK  0 active torsions:
REMARK  status: ('A' for Active; 'I' for Inactive)
ROOT
ATOM      1  C   UNL d   1      -0.897  -0.895   3.034  0.00  0.00     0.077 C 
ATOM      2  C1  UNL d   1      -0.886  -0.061   1.788  0.00  0.00    -0.074 A 
ATOM      3  C2  UNL d   1      -1.959   0.780   1.476  0.00  0.00    -0.005 A 
ATOM      4  C3  UNL d   1      -1.931   1.557   0.318  0.00  0.00     0.006 A 
ATOM      5  C4  UNL d   1      -0.830   1.502  -0.538  0.00  0.00    -0.005 A 
ATOM      6  C5  UNL d   1       0.252   0.668  -0.242  0.00  0.00    -0.074 A 
ATOM      7  C6  UNL d   1       1.447   0.604  -1.147  0.00  0.00     0.077 C 
ATOM      8  C7  UNL d   1       0.219  -0.105   0.926  0.00  0.00    -0.001 A 
ENDROOT
TORSDOF 0
ENDMDL
