MODEL 1
REMARK minimizedAffinity -4.57237864
REMARK minimizedRMSD -1
REMARK  0 active torsions:
REMARK  status: ('A' for Active; 'I' for Inactive)
ROOT
ATOM      1  C   UNL d   1       1.048  -1.001  -0.889  0.00  0.00     0.077 C 
ATOM      2  C1  UNL d   1       0.551   0.333  -0.417  0.00  0.00    -0.074 A 
ATOM      3  C2  UNL d   1       0.905   1.509  -1.086  0.00  0.00    -0.005 A 
ATOM      4  C3  UNL d   1       0.427   2.742  -0.641  0.00  0.00     0.006 A 
ATOM      5  C4  UNL d   1      -0.408   2.811   0.475  0.00  0.00    -0.005 A 
ATOM      6  C5  UNL d   1      -0.773   1.645   1.155  0.00  0.00    -0.074 A 
ATOM      7  C6  UNL d   1      -1.678   1.700   2.351  0.00  0.00     0.077 C 
ATOM      8  C7  UNL d   1      -0.295   0.409   0.698  0.00  0.00    -0.001 A 
ENDROOT
TORSDOF 0
ENDMDL
