MODEL 1
REMARK minimizedAffinity -2.15040278
REMARK minimizedRMSD -1
REMARK  0 active torsions:
REMARK  status: ('A' for Active; 'I' for Inactive)
ROOT
ATOM      1  C   UNL d   1       0.469  -1.369   2.801  0.00  0.00     0.077 C 
ATOM      2  C1  UNL d   1       0.058  -0.536   1.623  0.00  0.00    -0.074 A 
ATOM      3  C2  UNL d   1       0.648  -0.722   0.369  0.00  0.00    -0.005 A 
ATOM      4  C3  UNL d   1       0.248   0.054  -0.719  0.00  0.00     0.006 A 
ATOM      5  C4  UNL d   1      -0.745   1.022  -0.564  0.00  0.00    -0.005 A 
ATOM      6  C5  UNL d   1      -1.347   1.222   0.682  0.00  0.00    -0.074 A 
ATOM      7  C6  UNL d   1      -2.423   2.251   0.864  0.00  0.00     0.077 C 
ATOM      8  C7  UNL d   1      -0.945   0.433   1.769  0.00  0.00    -0.001 A 
ENDROOT
TORSDOF 0
ENDMDL
