MODEL 1
REMARK minimizedAffinity -3.82513952
REMARK minimizedRMSD -1
REMARK  0 active torsions:
REMARK  status: ('A' for Active; 'I' for Inactive)
ROOT
ATOM      1  C   UNL d   1       1.232  -5.375  -1.115  0.00  0.00     0.077 C 
ATOM      2  C1  UNL d   1       0.878  -4.084  -1.791  0.00  0.00    -0.074 A 
ATOM      3  C2  UNL d   1       0.449  -4.063  -3.122  0.00  0.00    -0.005 A 
ATOM      4  C3  UNL d   1       0.115  -2.856  -3.734  0.00  0.00     0.006 A 
ATOM      5  C4  UNL d   1       0.204  -1.659  -3.023  0.00  0.00    -0.005 A 
ATOM      6  C5  UNL d   1       0.630  -1.660  -1.691  0.00  0.00    -0.074 A 
ATOM      7  C6  UNL d   1       0.722  -0.383  -0.909  0.00  0.00     0.077 C 
ATOM      8  C7  UNL d   1       0.958  -2.878  -1.080  0.00  0.00    -0.001 A 
ENDROOT
TORSDOF 0
ENDMDL
