MODEL 1
REMARK minimizedAffinity -4.45544195
REMARK minimizedRMSD -1
REMARK  0 active torsions:
REMARK  status: ('A' for Active; 'I' for Inactive)
ROOT
ATOM      1  C   UNL d   1       1.324  -0.147  -0.334  0.00  0.00     0.077 C 
ATOM      2  C1  UNL d   1      -0.015   0.045   0.316  0.00  0.00    -0.074 A 
ATOM      3  C2  UNL d   1      -0.705  -1.037   0.873  0.00  0.00    -0.005 A 
ATOM      4  C3  UNL d   1      -1.944  -0.842   1.482  0.00  0.00     0.006 A 
ATOM      5  C4  UNL d   1      -2.505   0.434   1.541  0.00  0.00    -0.005 A 
ATOM      6  C5  UNL d   1      -1.830   1.528   0.990  0.00  0.00    -0.074 A 
ATOM      7  C6  UNL d   1      -2.414   2.908   1.053  0.00  0.00     0.077 C 
ATOM      8  C7  UNL d   1      -0.581   1.325   0.385  0.00  0.00    -0.001 A 
ENDROOT
TORSDOF 0
ENDMDL
