MODEL 1
REMARK minimizedAffinity 3.33051682
REMARK minimizedRMSD -1
REMARK  1 active torsions:
REMARK  status: ('A' for Active; 'I' for Inactive)
REMARK    1  A    between atoms: C3_4  and  O_7 
ROOT
ATOM      1  C   UNL d   1      -3.343  -3.244   2.681  0.00  0.00    -0.033 A 
ATOM      2  C1  UNL d   1      -4.509  -2.994   1.953  0.00  0.00     0.039 A 
ATOM      3  C2  UNL d   1      -4.944  -3.910   0.993  0.00  0.00    -0.080 A 
ATOM      4  C3  UNL d   1      -4.206  -5.070   0.771  0.00  0.00     0.150 A 
ATOM      5  C4  UNL d   1      -3.047  -5.326   1.495  0.00  0.00    -0.007 A 
ATOM      6  C5  UNL d   1      -2.613  -4.411   2.453  0.00  0.00     0.039 A 
ENDROOT
BRANCH   4   7
ATOM      7  O   UNL d   1      -4.589  -5.990  -0.159  0.00  0.00    -0.526 OA
ATOM      8  H5  UNL d   1      -5.391  -5.666  -0.601  0.00  0.00     0.418 HD
ENDBRANCH   4   7
TORSDOF 1
ENDMDL
