MODEL 1
REMARK minimizedAffinity 12.4813948
REMARK minimizedRMSD -1
REMARK  1 active torsions:
REMARK  status: ('A' for Active; 'I' for Inactive)
REMARK    1  A    between atoms: C3_4  and  O_7 
ROOT
ATOM      1  C   UNL d   1      -0.589   2.990  -2.268  0.00  0.00    -0.033 A 
ATOM      2  C1  UNL d   1      -1.333   3.527  -3.320  0.00  0.00     0.039 A 
ATOM      3  C2  UNL d   1      -2.587   2.999  -3.632  0.00  0.00    -0.080 A 
ATOM      4  C3  UNL d   1      -3.086   1.936  -2.885  0.00  0.00     0.150 A 
ATOM      5  C4  UNL d   1      -2.352   1.399  -1.832  0.00  0.00    -0.007 A 
ATOM      6  C5  UNL d   1      -1.100   1.927  -1.523  0.00  0.00     0.039 A 
ENDROOT
BRANCH   4   7
ATOM      7  O   UNL d   1      -4.303   1.385  -3.155  0.00  0.00    -0.526 OA
ATOM      8  H5  UNL d   1      -4.683   1.839  -3.925  0.00  0.00     0.418 HD
ENDBRANCH   4   7
TORSDOF 1
ENDMDL
