MODEL 1
REMARK minimizedAffinity 11.251771
REMARK minimizedRMSD -1
REMARK  1 active torsions:
REMARK  status: ('A' for Active; 'I' for Inactive)
REMARK    1  A    between atoms: C3_4  and  O_7 
ROOT
ATOM      1  C   UNL d   1      -2.580   2.909  -3.004  0.00  0.00    -0.033 A 
ATOM      2  C1  UNL d   1      -2.842   3.787  -1.951  0.00  0.00     0.039 A 
ATOM      3  C2  UNL d   1      -1.878   4.004  -0.964  0.00  0.00    -0.080 A 
ATOM      4  C3  UNL d   1      -0.658   3.339  -1.043  0.00  0.00     0.150 A 
ATOM      5  C4  UNL d   1      -0.389   2.465  -2.091  0.00  0.00    -0.007 A 
ATOM      6  C5  UNL d   1      -1.353   2.249  -3.075  0.00  0.00     0.039 A 
ENDROOT
BRANCH   4   7
ATOM      7  O   UNL d   1       0.312   3.515  -0.101  0.00  0.00    -0.526 OA
ATOM      8  H5  UNL d   1      -0.025   4.124   0.578  0.00  0.00     0.418 HD
ENDBRANCH   4   7
TORSDOF 1
ENDMDL
