MODEL 1
REMARK minimizedAffinity 8.18972206
REMARK minimizedRMSD -1
REMARK  1 active torsions:
REMARK  status: ('A' for Active; 'I' for Inactive)
REMARK    1  A    between atoms: C3_4  and  O_7 
ROOT
ATOM      1  C   UNL d   1       1.286  -0.143   2.750  0.00  0.00    -0.033 A 
ATOM      2  C1  UNL d   1       2.524   0.484   2.592  0.00  0.00     0.039 A 
ATOM      3  C2  UNL d   1       3.511  -0.107   1.801  0.00  0.00    -0.080 A 
ATOM      4  C3  UNL d   1       3.248  -1.322   1.173  0.00  0.00     0.150 A 
ATOM      5  C4  UNL d   1       2.016  -1.949   1.323  0.00  0.00    -0.007 A 
ATOM      6  C5  UNL d   1       1.031  -1.358   2.115  0.00  0.00     0.039 A 
ENDROOT
BRANCH   4   7
ATOM      7  O   UNL d   1       4.182  -1.939   0.395  0.00  0.00    -0.526 OA
ATOM      8  H5  UNL d   1       4.993  -1.405   0.406  0.00  0.00     0.418 HD
ENDBRANCH   4   7
TORSDOF 1
ENDMDL
