MODEL 1
REMARK minimizedAffinity 12.4537802
REMARK minimizedRMSD -1
REMARK  1 active torsions:
REMARK  status: ('A' for Active; 'I' for Inactive)
REMARK    1  A    between atoms: C3_4  and  O_7 
ROOT
ATOM      1  C   UNL d   1      -1.435   2.119  -1.475  0.00  0.00    -0.033 A 
ATOM      2  C1  UNL d   1      -0.197   2.282  -2.100  0.00  0.00     0.039 A 
ATOM      3  C2  UNL d   1       0.810   3.020  -1.475  0.00  0.00    -0.080 A 
ATOM      4  C3  UNL d   1       0.567   3.588  -0.227  0.00  0.00     0.150 A 
ATOM      5  C4  UNL d   1      -0.663   3.426   0.402  0.00  0.00    -0.007 A 
ATOM      6  C5  UNL d   1      -1.668   2.690  -0.224  0.00  0.00     0.039 A 
ENDROOT
BRANCH   4   7
ATOM      7  O   UNL d   1       1.517   4.320   0.420  0.00  0.00    -0.526 OA
ATOM      8  H5  UNL d   1       2.305   4.371  -0.147  0.00  0.00     0.418 HD
ENDBRANCH   4   7
TORSDOF 1
ENDMDL
