MODEL 1
REMARK minimizedAffinity 13.5191975
REMARK minimizedRMSD -1
REMARK  1 active torsions:
REMARK  status: ('A' for Active; 'I' for Inactive)
REMARK    1  A    between atoms: C3_4  and  O_7 
ROOT
ATOM      1  C   UNL d   1      -1.820   5.726  -5.236  0.00  0.00    -0.033 A 
ATOM      2  C1  UNL d   1      -1.821   5.951  -3.858  0.00  0.00     0.039 A 
ATOM      3  C2  UNL d   1      -1.889   4.873  -2.973  0.00  0.00    -0.080 A 
ATOM      4  C3  UNL d   1      -1.955   3.578  -3.478  0.00  0.00     0.150 A 
ATOM      5  C4  UNL d   1      -1.951   3.346  -4.850  0.00  0.00    -0.007 A 
ATOM      6  C5  UNL d   1      -1.884   4.424  -5.732  0.00  0.00     0.039 A 
ENDROOT
BRANCH   4   7
ATOM      7  O   UNL d   1      -2.028   2.494  -2.654  0.00  0.00    -0.526 OA
ATOM      8  H5  UNL d   1      -2.050   2.808  -1.735  0.00  0.00     0.418 HD
ENDBRANCH   4   7
TORSDOF 1
ENDMDL
