MODEL 1
REMARK minimizedAffinity 2.44695687
REMARK minimizedRMSD -1
REMARK  1 active torsions:
REMARK  status: ('A' for Active; 'I' for Inactive)
REMARK    1  A    between atoms: C3_4  and  O_7 
ROOT
ATOM      1  C   UNL d   1      -3.968  -3.122   2.518  0.00  0.00    -0.033 A 
ATOM      2  C1  UNL d   1      -5.277  -3.022   2.043  0.00  0.00     0.039 A 
ATOM      3  C2  UNL d   1      -5.661  -3.719   0.896  0.00  0.00    -0.080 A 
ATOM      4  C3  UNL d   1      -4.728  -4.512   0.234  0.00  0.00     0.150 A 
ATOM      5  C4  UNL d   1      -3.423  -4.620   0.703  0.00  0.00    -0.007 A 
ATOM      6  C5  UNL d   1      -3.041  -3.922   1.848  0.00  0.00     0.039 A 
ENDROOT
BRANCH   4   7
ATOM      7  O   UNL d   1      -5.055  -5.207  -0.892  0.00  0.00    -0.526 OA
ATOM      8  H5  UNL d   1      -5.981  -5.015  -1.115  0.00  0.00     0.418 HD
ENDBRANCH   4   7
TORSDOF 1
ENDMDL
