MODEL 1
REMARK minimizedAffinity 8.87966919
REMARK minimizedRMSD -1
REMARK  1 active torsions:
REMARK  status: ('A' for Active; 'I' for Inactive)
REMARK    1  A    between atoms: C3_4  and  O_7 
ROOT
ATOM      1  C   UNL d   1       2.964  -0.731   1.198  0.00  0.00    -0.033 A 
ATOM      2  C1  UNL d   1       1.696  -1.136   1.621  0.00  0.00     0.039 A 
ATOM      3  C2  UNL d   1       1.206  -0.718   2.860  0.00  0.00    -0.080 A 
ATOM      4  C3  UNL d   1       1.991   0.104   3.664  0.00  0.00     0.150 A 
ATOM      5  C4  UNL d   1       3.252   0.514   3.246  0.00  0.00    -0.007 A 
ATOM      6  C5  UNL d   1       3.741   0.095   2.010  0.00  0.00     0.039 A 
ENDROOT
BRANCH   4   7
ATOM      7  O   UNL d   1       1.556   0.534   4.882  0.00  0.00    -0.526 OA
ATOM      8  H5  UNL d   1       0.680   0.148   5.050  0.00  0.00     0.418 HD
ENDBRANCH   4   7
TORSDOF 1
ENDMDL
