MODEL 1
REMARK minimizedAffinity 6.68528223
REMARK minimizedRMSD -1
REMARK  1 active torsions:
REMARK  status: ('A' for Active; 'I' for Inactive)
REMARK    1  A    between atoms: C3_4  and  O_7 
ROOT
ATOM      1  C   UNL d   1      -1.278  -3.238   1.919  0.00  0.00    -0.033 A 
ATOM      2  C1  UNL d   1      -0.016  -2.668   1.742  0.00  0.00     0.039 A 
ATOM      3  C2  UNL d   1       0.422  -1.656   2.598  0.00  0.00    -0.080 A 
ATOM      4  C3  UNL d   1      -0.410  -1.225   3.627  0.00  0.00     0.150 A 
ATOM      5  C4  UNL d   1      -1.668  -1.790   3.812  0.00  0.00    -0.007 A 
ATOM      6  C5  UNL d   1      -2.103  -2.800   2.955  0.00  0.00     0.039 A 
ENDROOT
BRANCH   4   7
ATOM      7  O   UNL d   1      -0.029  -0.237   4.486  0.00  0.00    -0.526 OA
ATOM      8  H5  UNL d   1       0.851   0.079   4.220  0.00  0.00     0.418 HD
ENDBRANCH   4   7
TORSDOF 1
ENDMDL
