MODEL 1
REMARK minimizedAffinity 15.9514608
REMARK minimizedRMSD -1
REMARK  1 active torsions:
REMARK  status: ('A' for Active; 'I' for Inactive)
REMARK    1  A    between atoms: C3_4  and  O_7 
ROOT
ATOM      1  C   UNL d   1       0.406  -1.974   1.459  0.00  0.00    -0.033 A 
ATOM      2  C1  UNL d   1      -0.707  -2.269   2.249  0.00  0.00     0.039 A 
ATOM      3  C2  UNL d   1      -0.893  -1.615   3.468  0.00  0.00    -0.080 A 
ATOM      4  C3  UNL d   1       0.039  -0.668   3.885  0.00  0.00     0.150 A 
ATOM      5  C4  UNL d   1       1.148  -0.367   3.101  0.00  0.00    -0.007 A 
ATOM      6  C5  UNL d   1       1.333  -1.022   1.884  0.00  0.00     0.039 A 
ENDROOT
BRANCH   4   7
ATOM      7  O   UNL d   1      -0.098  -0.007   5.069  0.00  0.00    -0.526 OA
ATOM      8  H5  UNL d   1      -0.894  -0.339   5.516  0.00  0.00     0.418 HD
ENDBRANCH   4   7
TORSDOF 1
ENDMDL
