MODEL 1
REMARK minimizedAffinity 1.0178889
REMARK minimizedRMSD -1
REMARK  1 active torsions:
REMARK  status: ('A' for Active; 'I' for Inactive)
REMARK    1  A    between atoms: C3_4  and  O_7 
ROOT
ATOM      1  C   UNL d   1       0.226  -0.499   3.976  0.00  0.00    -0.033 A 
ATOM      2  C1  UNL d   1       0.455  -1.128   2.750  0.00  0.00     0.039 A 
ATOM      3  C2  UNL d   1      -0.453  -2.073   2.269  0.00  0.00    -0.080 A 
ATOM      4  C3  UNL d   1      -1.584  -2.379   3.020  0.00  0.00     0.150 A 
ATOM      5  C4  UNL d   1      -1.820  -1.754   4.240  0.00  0.00    -0.007 A 
ATOM      6  C5  UNL d   1      -0.912  -0.811   4.720  0.00  0.00     0.039 A 
ENDROOT
BRANCH   4   7
ATOM      7  O   UNL d   1      -2.495  -3.299   2.593  0.00  0.00    -0.526 OA
ATOM      8  H5  UNL d   1      -2.187  -3.670   1.750  0.00  0.00     0.418 HD
ENDBRANCH   4   7
TORSDOF 1
ENDMDL
