MODEL 1
REMARK minimizedAffinity 11.2272863
REMARK minimizedRMSD -1
REMARK  1 active torsions:
REMARK  status: ('A' for Active; 'I' for Inactive)
REMARK    1  A    between atoms: C3_4  and  O_7 
ROOT
ATOM      1  C   UNL d   1      -0.198  -1.104   2.088  0.00  0.00    -0.033 A 
ATOM      2  C1  UNL d   1       1.180  -0.889   2.018  0.00  0.00     0.039 A 
ATOM      3  C2  UNL d   1       1.864  -0.371   3.120  0.00  0.00    -0.080 A 
ATOM      4  C3  UNL d   1       1.160  -0.074   4.283  0.00  0.00     0.150 A 
ATOM      5  C4  UNL d   1      -0.212  -0.289   4.361  0.00  0.00    -0.007 A 
ATOM      6  C5  UNL d   1      -0.894  -0.806   3.259  0.00  0.00     0.039 A 
ENDROOT
BRANCH   4   7
ATOM      7  O   UNL d   1       1.783   0.438   5.382  0.00  0.00    -0.526 OA
ATOM      8  H5  UNL d   1       2.724   0.561   5.173  0.00  0.00     0.418 HD
ENDBRANCH   4   7
TORSDOF 1
ENDMDL
