MODEL 1
REMARK minimizedAffinity 15.8052235
REMARK minimizedRMSD -1
REMARK  1 active torsions:
REMARK  status: ('A' for Active; 'I' for Inactive)
REMARK    1  A    between atoms: C3_4  and  O_7 
ROOT
ATOM      1  C   UNL d   1       1.225  -0.976   1.443  0.00  0.00    -0.033 A 
ATOM      2  C1  UNL d   1       0.231  -0.720   2.390  0.00  0.00     0.039 A 
ATOM      3  C2  UNL d   1       0.574  -0.215   3.646  0.00  0.00    -0.080 A 
ATOM      4  C3  UNL d   1       1.912   0.030   3.942  0.00  0.00     0.150 A 
ATOM      5  C4  UNL d   1       2.907  -0.219   3.002  0.00  0.00    -0.007 A 
ATOM      6  C5  UNL d   1       2.563  -0.724   1.749  0.00  0.00     0.039 A 
ENDROOT
BRANCH   4   7
ATOM      7  O   UNL d   1       2.296   0.518   5.156  0.00  0.00    -0.526 OA
ATOM      8  H5  UNL d   1       1.505   0.614   5.712  0.00  0.00     0.418 HD
ENDBRANCH   4   7
TORSDOF 1
ENDMDL
