MODEL 1
REMARK minimizedAffinity 3.75770426
REMARK minimizedRMSD -1
REMARK  1 active torsions:
REMARK  status: ('A' for Active; 'I' for Inactive)
REMARK    1  A    between atoms: C3_4  and  O_7 
ROOT
ATOM      1  C   UNL d   1      -1.798   2.269  -2.417  0.00  0.00    -0.033 A 
ATOM      2  C1  UNL d   1      -1.637   3.575  -2.883  0.00  0.00     0.039 A 
ATOM      3  C2  UNL d   1      -2.511   4.580  -2.464  0.00  0.00    -0.080 A 
ATOM      4  C3  UNL d   1      -3.540   4.266  -1.580  0.00  0.00     0.150 A 
ATOM      5  C4  UNL d   1      -3.704   2.967  -1.110  0.00  0.00    -0.007 A 
ATOM      6  C5  UNL d   1      -2.831   1.965  -1.530  0.00  0.00     0.039 A 
ENDROOT
BRANCH   4   7
ATOM      7  O   UNL d   1      -4.421   5.212  -1.147  0.00  0.00    -0.526 OA
ATOM      8  H5  UNL d   1      -4.203   6.056  -1.577  0.00  0.00     0.418 HD
ENDBRANCH   4   7
TORSDOF 1
ENDMDL
