MODEL 1
REMARK minimizedAffinity 7.97111988
REMARK minimizedRMSD -1
REMARK  1 active torsions:
REMARK  status: ('A' for Active; 'I' for Inactive)
REMARK    1  A    between atoms: C3_4  and  O_7 
ROOT
ATOM      1  C   UNL d   1      -2.229   2.346  -1.096  0.00  0.00    -0.033 A 
ATOM      2  C1  UNL d   1      -0.996   2.236  -1.740  0.00  0.00     0.039 A 
ATOM      3  C2  UNL d   1      -0.807   2.818  -2.995  0.00  0.00    -0.080 A 
ATOM      4  C3  UNL d   1      -1.858   3.506  -3.594  0.00  0.00     0.150 A 
ATOM      5  C4  UNL d   1      -3.089   3.623  -2.957  0.00  0.00    -0.007 A 
ATOM      6  C5  UNL d   1      -3.276   3.041  -1.704  0.00  0.00     0.039 A 
ENDROOT
BRANCH   4   7
ATOM      7  O   UNL d   1      -1.723   4.086  -4.821  0.00  0.00    -0.526 OA
ATOM      8  H5  UNL d   1      -0.829   3.899  -5.153  0.00  0.00     0.418 HD
ENDBRANCH   4   7
TORSDOF 1
ENDMDL
