MODEL 1
REMARK minimizedAffinity 7.23694706
REMARK minimizedRMSD -1
REMARK  1 active torsions:
REMARK  status: ('A' for Active; 'I' for Inactive)
REMARK    1  A    between atoms: C3_4  and  O_7 
ROOT
ATOM      1  C   UNL d   1      -0.427   3.116  -2.375  0.00  0.00    -0.033 A 
ATOM      2  C1  UNL d   1      -0.740   2.134  -1.434  0.00  0.00     0.039 A 
ATOM      3  C2  UNL d   1      -2.039   1.627  -1.357  0.00  0.00    -0.080 A 
ATOM      4  C3  UNL d   1      -3.013   2.110  -2.226  0.00  0.00     0.150 A 
ATOM      5  C4  UNL d   1      -2.707   3.086  -3.169  0.00  0.00    -0.007 A 
ATOM      6  C5  UNL d   1      -1.410   3.592  -3.243  0.00  0.00     0.039 A 
ENDROOT
BRANCH   4   7
ATOM      7  O   UNL d   1      -4.296   1.649  -2.186  0.00  0.00    -0.526 OA
ATOM      8  H5  UNL d   1      -4.367   0.999  -1.467  0.00  0.00     0.418 HD
ENDBRANCH   4   7
TORSDOF 1
ENDMDL
