MODEL 1
REMARK minimizedAffinity -1.6838119
REMARK minimizedRMSD -1
REMARK  1 active torsions:
REMARK  status: ('A' for Active; 'I' for Inactive)
REMARK    1  A    between atoms: C3_4  and  O_7 
ROOT
ATOM      1  C   UNL d   1       1.826  -0.152  -0.202  0.00  0.00    -0.033 A 
ATOM      2  C1  UNL d   1       1.143   1.065  -0.259  0.00  0.00     0.039 A 
ATOM      3  C2  UNL d   1      -0.095   1.203   0.372  0.00  0.00    -0.080 A 
ATOM      4  C3  UNL d   1      -0.638   0.119   1.056  0.00  0.00     0.150 A 
ATOM      5  C4  UNL d   1       0.038  -1.095   1.120  0.00  0.00    -0.007 A 
ATOM      6  C5  UNL d   1       1.274  -1.231   0.488  0.00  0.00     0.039 A 
ENDROOT
BRANCH   4   7
ATOM      7  O   UNL d   1      -1.845   0.204   1.683  0.00  0.00    -0.526 OA
ATOM      8  H5  UNL d   1      -2.210   1.092   1.530  0.00  0.00     0.418 HD
ENDBRANCH   4   7
TORSDOF 1
ENDMDL
