MODEL 1
REMARK minimizedAffinity -4.69501781
REMARK minimizedRMSD -1
REMARK  1 active torsions:
REMARK  status: ('A' for Active; 'I' for Inactive)
REMARK    1  A    between atoms: C1_2  and  C2_3 
ROOT
ATOM      1  C2  UNL d   1      -0.015  -0.409  -0.162  0.00  0.00    -0.073 A 
ATOM      2  C3  UNL d   1       0.954  -0.905  -1.041  0.00  0.00    -0.002 A 
ATOM      3  C4  UNL d   1       2.101  -1.529  -0.547  0.00  0.00     0.004 A 
ATOM      4  C5  UNL d   1       2.287  -1.669   0.828  0.00  0.00    -0.004 A 
ATOM      5  C6  UNL d   1       1.324  -1.190   1.723  0.00  0.00    -0.075 A 
ATOM      6  C7  UNL d   1       1.510  -1.331   3.205  0.00  0.00     0.076 C 
ATOM      7  C8  UNL d   1       0.176  -0.563   1.219  0.00  0.00     0.001 A 
ENDROOT
BRANCH   1   8
ATOM      8  C1  UNL d   1      -1.258   0.259  -0.690  0.00  0.00     0.053 C 
ATOM      9  C   UNL d   1      -0.956   1.175  -1.865  0.00  0.00     0.018 C 
ENDBRANCH   1   8
TORSDOF 1
ENDMDL
