MODEL 1
REMARK minimizedAffinity -6.52529478
REMARK minimizedRMSD -1
REMARK  1 active torsions:
REMARK  status: ('A' for Active; 'I' for Inactive)
REMARK    1  A    between atoms: C1_2  and  C2_3 
ROOT
ATOM      1  C2  UNL d   1       0.127  -0.228   0.139  0.00  0.00    -0.073 A 
ATOM      2  C3  UNL d   1       0.971  -0.997  -0.670  0.00  0.00    -0.002 A 
ATOM      3  C4  UNL d   1       1.994  -1.756  -0.102  0.00  0.00     0.004 A 
ATOM      4  C5  UNL d   1       2.181  -1.759   1.281  0.00  0.00    -0.004 A 
ATOM      5  C6  UNL d   1       1.341  -1.006   2.108  0.00  0.00    -0.075 A 
ATOM      6  C7  UNL d   1       1.530  -0.997   3.596  0.00  0.00     0.076 C 
ATOM      7  C8  UNL d   1       0.317  -0.244   1.529  0.00  0.00     0.001 A 
ENDROOT
BRANCH   1   8
ATOM      8  C1  UNL d   1      -0.983   0.588  -0.470  0.00  0.00     0.053 C 
ATOM      9  C   UNL d   1      -0.504   1.407  -1.657  0.00  0.00     0.018 C 
ENDBRANCH   1   8
TORSDOF 1
ENDMDL
