MODEL 1
REMARK minimizedAffinity -6.31744432
REMARK minimizedRMSD -1
REMARK  1 active torsions:
REMARK  status: ('A' for Active; 'I' for Inactive)
REMARK    1  A    between atoms: C1_2  and  C2_3 
ROOT
ATOM      1  C2  UNL d   1       0.276  -0.206   1.504  0.00  0.00    -0.073 A 
ATOM      2  C3  UNL d   1       0.720   0.336   0.292  0.00  0.00    -0.002 A 
ATOM      3  C4  UNL d   1      -0.141   0.411  -0.804  0.00  0.00     0.004 A 
ATOM      4  C5  UNL d   1      -1.454  -0.048  -0.698  0.00  0.00    -0.004 A 
ATOM      5  C6  UNL d   1      -1.920  -0.582   0.508  0.00  0.00    -0.075 A 
ATOM      6  C7  UNL d   1      -3.329  -1.081   0.637  0.00  0.00     0.076 C 
ATOM      7  C8  UNL d   1      -1.049  -0.656   1.603  0.00  0.00     0.001 A 
ENDROOT
BRANCH   1   8
ATOM      8  C1  UNL d   1       1.199  -0.283   2.692  0.00  0.00     0.053 C 
ATOM      9  C   UNL d   1       2.226  -1.394   2.544  0.00  0.00     0.018 C 
ENDBRANCH   1   8
TORSDOF 1
ENDMDL
