MODEL 1
REMARK minimizedAffinity -3.04199839
REMARK minimizedRMSD -1
REMARK  0 active torsions:
REMARK  status: ('A' for Active; 'I' for Inactive)
ROOT
ATOM      1  C4' PXY d   1       1.741  -3.718   1.977  0.00  0.00     0.077 C 
ATOM      2  C1' PXY d   1       0.081   1.317  -0.327  0.00  0.00     0.077 C 
ATOM      3  C1  PXY d   1       0.527  -0.004   0.269  0.00  0.00    -0.082 A 
ATOM      4  C2  PXY d   1      -0.362  -0.789   0.857  0.00  0.00     0.003 A 
ATOM      5  C3  PXY d   1       0.030  -1.972   1.430  0.00  0.00     0.003 A 
ATOM      6  C4  PXY d   1       1.334  -2.380   1.353  0.00  0.00    -0.082 A 
ATOM      7  C5  PXY d   1       2.245  -1.589   0.746  0.00  0.00     0.003 A 
ATOM      8  C6  PXY d   1       1.835  -0.373   0.207  0.00  0.00     0.003 A 
ENDROOT
TORSDOF 0
ENDMDL
