MODEL 1
REMARK minimizedAffinity -1.36461687
REMARK minimizedRMSD -1
REMARK  0 active torsions:
REMARK  status: ('A' for Active; 'I' for Inactive)
ROOT
ATOM      1  C4' PXY d   1       2.576   0.323  -0.670  0.00  0.00     0.077 C 
ATOM      2  C1' PXY d   1      -2.070  -1.514   2.237  0.00  0.00     0.077 C 
ATOM      3  C1  PXY d   1      -0.859  -1.025   1.468  0.00  0.00    -0.082 A 
ATOM      4  C2  PXY d   1       0.219  -1.787   1.390  0.00  0.00     0.003 A 
ATOM      5  C3  PXY d   1       1.334  -1.347   0.726  0.00  0.00     0.003 A 
ATOM      6  C4  PXY d   1       1.327  -0.135   0.088  0.00  0.00    -0.082 A 
ATOM      7  C5  PXY d   1       0.227   0.645   0.153  0.00  0.00     0.003 A 
ATOM      8  C6  PXY d   1      -0.880   0.197   0.868  0.00  0.00     0.003 A 
ENDROOT
TORSDOF 0
ENDMDL
