MODEL 1
REMARK minimizedAffinity -5.49781704
REMARK minimizedRMSD -1
REMARK  0 active torsions:
REMARK  status: ('A' for Active; 'I' for Inactive)
ROOT
ATOM      1  C4' PXY d   1      -0.310   2.380  -0.407  0.00  0.00     0.077 C 
ATOM      2  C1' PXY d   1       2.145  -2.509   1.458  0.00  0.00     0.077 C 
ATOM      3  C1  PXY d   1       1.490  -1.233   0.969  0.00  0.00    -0.082 A 
ATOM      4  C2  PXY d   1       2.215  -0.326   0.334  0.00  0.00     0.003 A 
ATOM      5  C3  PXY d   1       1.646   0.847  -0.087  0.00  0.00     0.003 A 
ATOM      6  C4  PXY d   1       0.308   1.073   0.096  0.00  0.00    -0.082 A 
ATOM      7  C5  PXY d   1      -0.442   0.148   0.733  0.00  0.00     0.003 A 
ATOM      8  C6  PXY d   1       0.164  -1.019   1.190  0.00  0.00     0.003 A 
ENDROOT
TORSDOF 0
ENDMDL
