MODEL 1
REMARK minimizedAffinity -3.55983782
REMARK minimizedRMSD -1
REMARK  0 active torsions:
REMARK  status: ('A' for Active; 'I' for Inactive)
ROOT
ATOM      1  C4' PXY d   1       0.052   4.993  -3.646  0.00  0.00     0.077 C 
ATOM      2  C1' PXY d   1      -2.794   0.246  -1.980  0.00  0.00     0.077 C 
ATOM      3  C1  PXY d   1      -2.057   1.493  -2.426  0.00  0.00    -0.082 A 
ATOM      4  C2  PXY d   1      -0.760   1.606  -2.190  0.00  0.00     0.003 A 
ATOM      5  C3  PXY d   1      -0.084   2.741  -2.558  0.00  0.00     0.003 A 
ATOM      6  C4  PXY d   1      -0.731   3.748  -3.222  0.00  0.00    -0.082 A 
ATOM      7  C5  PXY d   1      -2.052   3.636  -3.476  0.00  0.00     0.003 A 
ATOM      8  C6  PXY d   1      -2.729   2.493  -3.058  0.00  0.00     0.003 A 
ENDROOT
TORSDOF 0
ENDMDL
