MODEL 1
REMARK minimizedAffinity -5.62661314
REMARK minimizedRMSD -1
REMARK  0 active torsions:
REMARK  status: ('A' for Active; 'I' for Inactive)
ROOT
ATOM      1  C4' PXY d   1      -1.493   1.679   0.094  0.00  0.00     0.077 C 
ATOM      2  C1' PXY d   1       1.854  -2.933   1.064  0.00  0.00     0.077 C 
ATOM      3  C1  PXY d   1       0.987  -1.716   0.808  0.00  0.00    -0.082 A 
ATOM      4  C2  PXY d   1      -0.246  -1.679   1.288  0.00  0.00     0.003 A 
ATOM      5  C3  PXY d   1      -1.055  -0.600   1.038  0.00  0.00     0.003 A 
ATOM      6  C4  PXY d   1      -0.579   0.475   0.336  0.00  0.00    -0.082 A 
ATOM      7  C5  PXY d   1       0.681   0.449  -0.148  0.00  0.00     0.003 A 
ATOM      8  C6  PXY d   1       1.472  -0.673   0.081  0.00  0.00     0.003 A 
ENDROOT
TORSDOF 0
ENDMDL
