MODEL 1
REMARK minimizedAffinity -3.5179913
REMARK minimizedRMSD -1
REMARK  0 active torsions:
REMARK  status: ('A' for Active; 'I' for Inactive)
ROOT
ATOM      1  C4' PXY d   1      -0.821   1.483  -1.047  0.00  0.00     0.077 C 
ATOM      2  C1' PXY d   1       1.370  -2.948   1.949  0.00  0.00     0.077 C 
ATOM      3  C1  PXY d   1       0.808  -1.781   1.162  0.00  0.00    -0.082 A 
ATOM      4  C2  PXY d   1      -0.458  -1.433   1.324  0.00  0.00     0.003 A 
ATOM      5  C3  PXY d   1      -0.992  -0.400   0.596  0.00  0.00     0.003 A 
ATOM      6  C4  PXY d   1      -0.208   0.317  -0.267  0.00  0.00    -0.082 A 
ATOM      7  C5  PXY d   1       1.088  -0.025  -0.430  0.00  0.00     0.003 A 
ATOM      8  C6  PXY d   1       1.600  -1.103   0.288  0.00  0.00     0.003 A 
ENDROOT
TORSDOF 0
ENDMDL
