MODEL 1
REMARK minimizedAffinity 0.608610034
REMARK minimizedRMSD -1
REMARK  0 active torsions:
REMARK  status: ('A' for Active; 'I' for Inactive)
ROOT
ATOM      1  C4' PXY d   1      -2.253   1.423  -2.983  0.00  0.00     0.077 C 
ATOM      2  C1' PXY d   1       1.031   5.999  -4.280  0.00  0.00     0.077 C 
ATOM      3  C1  PXY d   1       0.164   4.800  -3.951  0.00  0.00    -0.082 A 
ATOM      4  C2  PXY d   1      -0.034   4.463  -2.687  0.00  0.00     0.003 A 
ATOM      5  C3  PXY d   1      -0.789   3.363  -2.373  0.00  0.00     0.003 A 
ATOM      6  C4  PXY d   1      -1.392   2.631  -3.361  0.00  0.00    -0.082 A 
ATOM      7  C5  PXY d   1      -1.204   2.975  -4.653  0.00  0.00     0.003 A 
ATOM      8  C6  PXY d   1      -0.400   4.071  -4.952  0.00  0.00     0.003 A 
ENDROOT
TORSDOF 0
ENDMDL
