MODEL 1
REMARK minimizedAffinity -5.20626307
REMARK minimizedRMSD -1
REMARK  0 active torsions:
REMARK  status: ('A' for Active; 'I' for Inactive)
ROOT
ATOM      1  C4' PXY d   1       3.304   0.401  -0.746  0.00  0.00     0.077 C 
ATOM      2  C1' PXY d   1      -0.699  -2.618   2.132  0.00  0.00     0.077 C 
ATOM      3  C1  PXY d   1       0.343  -1.825   1.367  0.00  0.00    -0.082 A 
ATOM      4  C2  PXY d   1       1.626  -1.990   1.647  0.00  0.00     0.003 A 
ATOM      5  C3  PXY d   1       2.579  -1.257   0.987  0.00  0.00     0.003 A 
ATOM      6  C4  PXY d   1       2.219  -0.385  -0.006  0.00  0.00    -0.082 A 
ATOM      7  C5  PXY d   1       0.912  -0.219  -0.304  0.00  0.00     0.003 A 
ATOM      8  C6  PXY d   1      -0.042  -0.942   0.406  0.00  0.00     0.003 A 
ENDROOT
TORSDOF 0
ENDMDL
