MODEL 1
REMARK minimizedAffinity -2.94265938
REMARK minimizedRMSD -1
REMARK  0 active torsions:
REMARK  status: ('A' for Active; 'I' for Inactive)
ROOT
ATOM      1  C4' PXY d   1       0.782  -3.092   1.186  0.00  0.00     0.077 C 
ATOM      2  C1' PXY d   1      -1.664   2.038   0.131  0.00  0.00     0.077 C 
ATOM      3  C1  PXY d   1      -1.027   0.693   0.419  0.00  0.00    -0.082 A 
ATOM      4  C2  PXY d   1       0.054   0.324  -0.247  0.00  0.00     0.003 A 
ATOM      5  C3  PXY d   1       0.624  -0.902  -0.022  0.00  0.00     0.003 A 
ATOM      6  C4  PXY d   1       0.112  -1.738   0.934  0.00  0.00    -0.082 A 
ATOM      7  C5  PXY d   1      -0.985  -1.365   1.626  0.00  0.00     0.003 A 
ATOM      8  C6  PXY d   1      -1.573  -0.133   1.353  0.00  0.00     0.003 A 
ENDROOT
TORSDOF 0
ENDMDL
