MODEL 1
REMARK minimizedAffinity -5.15361738
REMARK minimizedRMSD -1
REMARK  0 active torsions:
REMARK  status: ('A' for Active; 'I' for Inactive)
ROOT
ATOM      1  C4' PXY d   1      -1.375   0.738  -1.733  0.00  0.00     0.077 C 
ATOM      2  C1' PXY d   1       0.723  -2.770   2.354  0.00  0.00     0.077 C 
ATOM      3  C1  PXY d   1       0.163  -1.847   1.290  0.00  0.00    -0.082 A 
ATOM      4  C2  PXY d   1       0.554  -1.984   0.033  0.00  0.00     0.003 A 
ATOM      5  C3  PXY d   1       0.082  -1.138  -0.937  0.00  0.00     0.003 A 
ATOM      6  C4  PXY d   1      -0.842  -0.177  -0.627  0.00  0.00    -0.082 A 
ATOM      7  C5  PXY d   1      -1.255  -0.037   0.651  0.00  0.00     0.003 A 
ATOM      8  C6  PXY d   1      -0.732  -0.880   1.628  0.00  0.00     0.003 A 
ENDROOT
TORSDOF 0
ENDMDL
