MODEL 1
REMARK minimizedAffinity -3.01767087
REMARK minimizedRMSD -1
REMARK  0 active torsions:
REMARK  status: ('A' for Active; 'I' for Inactive)
ROOT
ATOM      1  C4' PXY d   1       1.395  -2.856   0.887  0.00  0.00     0.077 C 
ATOM      2  C1' PXY d   1      -0.707   2.402  -0.273  0.00  0.00     0.077 C 
ATOM      3  C1  PXY d   1      -0.147   1.024   0.022  0.00  0.00    -0.082 A 
ATOM      4  C2  PXY d   1      -0.893   0.138   0.660  0.00  0.00     0.003 A 
ATOM      5  C3  PXY d   1      -0.392  -1.102   0.963  0.00  0.00     0.003 A 
ATOM      6  C4  PXY d   1       0.868  -1.456   0.561  0.00  0.00    -0.082 A 
ATOM      7  C5  PXY d   1       1.632  -0.561  -0.101  0.00  0.00     0.003 A 
ATOM      8  C6  PXY d   1       1.119   0.706  -0.362  0.00  0.00     0.003 A 
ENDROOT
TORSDOF 0
ENDMDL
