MODEL 1
REMARK minimizedAffinity -5.62935495
REMARK minimizedRMSD -1
REMARK  0 active torsions:
REMARK  status: ('A' for Active; 'I' for Inactive)
ROOT
ATOM      1  C4' PXY d   1       1.410  -2.557   1.969  0.00  0.00     0.077 C 
ATOM      2  C1' PXY d   1      -0.927   1.866  -0.928  0.00  0.00     0.077 C 
ATOM      3  C1  PXY d   1      -0.322   0.709  -0.157  0.00  0.00    -0.082 A 
ATOM      4  C2  PXY d   1       0.873   0.251  -0.496  0.00  0.00     0.003 A 
ATOM      5  C3  PXY d   1       1.422  -0.815   0.169  0.00  0.00     0.003 A 
ATOM      6  C4  PXY d   1       0.764  -1.385   1.226  0.00  0.00    -0.082 A 
ATOM      7  C5  PXY d   1      -0.451  -0.917   1.584  0.00  0.00     0.003 A 
ATOM      8  C6  PXY d   1      -1.008   0.139   0.870  0.00  0.00     0.003 A 
ENDROOT
TORSDOF 0
ENDMDL
