MODEL 1
REMARK minimizedAffinity -1.54747248
REMARK minimizedRMSD -1
REMARK  0 active torsions:
REMARK  status: ('A' for Active; 'I' for Inactive)
ROOT
ATOM      1  C4' PXY d   1      -2.287   2.526  -4.261  0.00  0.00     0.077 C 
ATOM      2  C1' PXY d   1      -1.471   0.121   0.932  0.00  0.00     0.077 C 
ATOM      3  C1  PXY d   1      -1.694   0.742  -0.432  0.00  0.00    -0.082 A 
ATOM      4  C2  PXY d   1      -0.741   1.479  -0.979  0.00  0.00     0.003 A 
ATOM      5  C3  PXY d   1      -0.938   2.075  -2.198  0.00  0.00     0.003 A 
ATOM      6  C4  PXY d   1      -2.102   1.871  -2.889  0.00  0.00    -0.082 A 
ATOM      7  C5  PXY d   1      -3.075   1.112  -2.343  0.00  0.00     0.003 A 
ATOM      8  C6  PXY d   1      -2.872   0.550  -1.086  0.00  0.00     0.003 A 
ENDROOT
TORSDOF 0
ENDMDL
