MODEL 1
REMARK minimizedAffinity 1.59851897
REMARK minimizedRMSD -1
REMARK  0 active torsions:
REMARK  status: ('A' for Active; 'I' for Inactive)
ROOT
ATOM      1  C4' PXY d   1      -0.718  -0.625   1.075  0.00  0.00     0.077 C 
ATOM      2  C1' PXY d   1      -2.365   2.509  -3.494  0.00  0.00     0.077 C 
ATOM      3  C1  PXY d   1      -1.921   1.690  -2.298  0.00  0.00    -0.082 A 
ATOM      4  C2  PXY d   1      -2.703   0.727  -1.838  0.00  0.00     0.003 A 
ATOM      5  C3  PXY d   1      -2.331  -0.002  -0.738  0.00  0.00     0.003 A 
ATOM      6  C4  PXY d   1      -1.122   0.221  -0.135  0.00  0.00    -0.082 A 
ATOM      7  C5  PXY d   1      -0.313   1.195  -0.606  0.00  0.00     0.003 A 
ATOM      8  C6  PXY d   1      -0.728   1.951  -1.698  0.00  0.00     0.003 A 
ENDROOT
TORSDOF 0
ENDMDL
