MODEL 1
REMARK minimizedAffinity -5.18010759
REMARK minimizedRMSD -1
REMARK  0 active torsions:
REMARK  status: ('A' for Active; 'I' for Inactive)
ROOT
ATOM      1  C4' PXY d   1      -0.846   2.109  -0.770  0.00  0.00     0.077 C 
ATOM      2  C1' PXY d   1       1.818  -2.606   1.250  0.00  0.00     0.077 C 
ATOM      3  C1  PXY d   1       1.131  -1.364   0.719  0.00  0.00    -0.082 A 
ATOM      4  C2  PXY d   1      -0.139  -1.142   1.015  0.00  0.00     0.003 A 
ATOM      5  C3  PXY d   1      -0.785  -0.039   0.517  0.00  0.00     0.003 A 
ATOM      6  C4  PXY d   1      -0.109   0.873  -0.248  0.00  0.00    -0.082 A 
ATOM      7  C5  PXY d   1       1.191   0.659  -0.545  0.00  0.00     0.003 A 
ATOM      8  C6  PXY d   1       1.817  -0.487  -0.064  0.00  0.00     0.003 A 
ENDROOT
TORSDOF 0
ENDMDL
