MODEL 1
REMARK minimizedAffinity -4.86415434
REMARK minimizedRMSD -1
REMARK  0 active torsions:
REMARK  status: ('A' for Active; 'I' for Inactive)
ROOT
ATOM      1  C4' PXY d   1       1.530  -3.315   0.904  0.00  0.00     0.077 C 
ATOM      2  C1' PXY d   1      -0.780   1.809  -0.445  0.00  0.00     0.077 C 
ATOM      3  C1  PXY d   1      -0.166   0.467  -0.101  0.00  0.00    -0.082 A 
ATOM      4  C2  PXY d   1      -0.884  -0.434   0.549  0.00  0.00     0.003 A 
ATOM      5  C3  PXY d   1      -0.334  -1.641   0.896  0.00  0.00     0.003 A 
ATOM      6  C4  PXY d   1       0.948  -1.950   0.528  0.00  0.00    -0.082 A 
ATOM      7  C5  PXY d   1       1.684  -1.040  -0.145  0.00  0.00     0.003 A 
ATOM      8  C6  PXY d   1       1.121   0.195  -0.452  0.00  0.00     0.003 A 
ENDROOT
TORSDOF 0
ENDMDL
