MODEL 1
REMARK minimizedAffinity -5.01624298
REMARK minimizedRMSD -1
REMARK  0 active torsions:
REMARK  status: ('A' for Active; 'I' for Inactive)
ROOT
ATOM      1  C4' PXY d   1      -1.575   2.140  -1.470  0.00  0.00     0.077 C 
ATOM      2  C1' PXY d   1       2.065  -1.771   0.737  0.00  0.00     0.077 C 
ATOM      3  C1  PXY d   1       1.100  -0.754   0.160  0.00  0.00    -0.082 A 
ATOM      4  C2  PXY d   1       1.546   0.170  -0.677  0.00  0.00     0.003 A 
ATOM      5  C3  PXY d   1       0.694   1.117  -1.183  0.00  0.00     0.003 A 
ATOM      6  C4  PXY d   1      -0.639   1.087  -0.871  0.00  0.00    -0.082 A 
ATOM      7  C5  PXY d   1      -1.104   0.141  -0.027  0.00  0.00     0.003 A 
ATOM      8  C6  PXY d   1      -0.214  -0.786   0.509  0.00  0.00     0.003 A 
ENDROOT
TORSDOF 0
ENDMDL
