MODEL 1
REMARK minimizedAffinity -3.13213825
REMARK minimizedRMSD -1
REMARK  0 active torsions:
REMARK  status: ('A' for Active; 'I' for Inactive)
ROOT
ATOM      1  C4' PXY d   1      -1.763   1.101  -1.165  0.00  0.00     0.077 C 
ATOM      2  C1' PXY d   1       3.046  -1.326   0.933  0.00  0.00     0.077 C 
ATOM      3  C1  PXY d   1       1.778  -0.700   0.387  0.00  0.00    -0.082 A 
ATOM      4  C2  PXY d   1       1.856   0.191  -0.588  0.00  0.00     0.003 A 
ATOM      5  C3  PXY d   1       0.722   0.791  -1.072  0.00  0.00     0.003 A 
ATOM      6  C4  PXY d   1      -0.509   0.436  -0.589  0.00  0.00    -0.082 A 
ATOM      7  C5  PXY d   1      -0.598  -0.480   0.399  0.00  0.00     0.003 A 
ATOM      8  C6  PXY d   1       0.569  -1.047   0.904  0.00  0.00     0.003 A 
ENDROOT
TORSDOF 0
ENDMDL
