MODEL 1
REMARK minimizedAffinity -5.44364548
REMARK minimizedRMSD -1
REMARK  0 active torsions:
REMARK  status: ('A' for Active; 'I' for Inactive)
ROOT
ATOM      1  C4' PXY d   1       0.524   6.000  -4.137  0.00  0.00     0.077 C 
ATOM      2  C1' PXY d   1      -2.501   1.317  -2.609  0.00  0.00     0.077 C 
ATOM      3  C1  PXY d   1      -1.705   2.540  -3.021  0.00  0.00    -0.082 A 
ATOM      4  C2  PXY d   1      -1.171   3.316  -2.093  0.00  0.00     0.003 A 
ATOM      5  C3  PXY d   1      -0.476   4.444  -2.447  0.00  0.00     0.003 A 
ATOM      6  C4  PXY d   1      -0.279   4.750  -3.767  0.00  0.00    -0.082 A 
ATOM      7  C5  PXY d   1      -0.812   3.957  -4.721  0.00  0.00     0.003 A 
ATOM      8  C6  PXY d   1      -1.549   2.840  -4.339  0.00  0.00     0.003 A 
ENDROOT
TORSDOF 0
ENDMDL
