MODEL 1
REMARK minimizedAffinity -2.99015117
REMARK minimizedRMSD -1
REMARK  1 active torsions:
REMARK  status: ('A' for Active; 'I' for Inactive)
REMARK    1  A    between atoms: C3_4  and  O_7 
ROOT
ATOM      1  C   UNL d   1       0.561   1.133  -0.118  0.00  0.00    -0.033 A 
ATOM      2  C1  UNL d   1       1.644   0.748   0.675  0.00  0.00     0.039 A 
ATOM      3  C2  UNL d   1       1.607  -0.461   1.372  0.00  0.00    -0.080 A 
ATOM      4  C3  UNL d   1       0.483  -1.275   1.267  0.00  0.00     0.150 A 
ATOM      5  C4  UNL d   1      -0.598  -0.900   0.476  0.00  0.00    -0.007 A 
ATOM      6  C5  UNL d   1      -0.559   0.308  -0.219  0.00  0.00     0.039 A 
ENDROOT
BRANCH   4   7
ATOM      7  O   UNL d   1       0.398  -2.462   1.933  0.00  0.00    -0.526 OA
ATOM      8  H5  UNL d   1       1.205  -2.576   2.462  0.00  0.00     0.418 HD
ENDBRANCH   4   7
TORSDOF 1
ENDMDL
