MODEL 1
REMARK minimizedAffinity -5.02271414
REMARK minimizedRMSD -1
REMARK  1 active torsions:
REMARK  status: ('A' for Active; 'I' for Inactive)
REMARK    1  A    between atoms: C3_4  and  O_7 
ROOT
ATOM      1  C   UNL d   1      -0.219  -0.018   0.527  0.00  0.00    -0.033 A 
ATOM      2  C1  UNL d   1       0.359   1.099  -0.079  0.00  0.00     0.039 A 
ATOM      3  C2  UNL d   1       1.748   1.243  -0.101  0.00  0.00    -0.080 A 
ATOM      4  C3  UNL d   1       2.545   0.264   0.484  0.00  0.00     0.150 A 
ATOM      5  C4  UNL d   1       1.976  -0.854   1.086  0.00  0.00    -0.007 A 
ATOM      6  C5  UNL d   1       0.589  -0.995   1.108  0.00  0.00     0.039 A 
ENDROOT
BRANCH   4   7
ATOM      7  O   UNL d   1       3.905   0.363   0.492  0.00  0.00    -0.526 OA
ATOM      8  H5  UNL d   1       4.155   1.200   0.066  0.00  0.00     0.418 HD
ENDBRANCH   4   7
TORSDOF 1
ENDMDL
