MODEL 1
REMARK minimizedAffinity -4.22977304
REMARK minimizedRMSD -1
REMARK  1 active torsions:
REMARK  status: ('A' for Active; 'I' for Inactive)
REMARK    1  A    between atoms: C3_4  and  O_7 
ROOT
ATOM      1  C   UNL d   1      -0.134   0.176   0.746  0.00  0.00    -0.033 A 
ATOM      2  C1  UNL d   1       0.746   1.025   1.420  0.00  0.00     0.039 A 
ATOM      3  C2  UNL d   1       2.120   0.782   1.382  0.00  0.00    -0.080 A 
ATOM      4  C3  UNL d   1       2.601  -0.311   0.667  0.00  0.00     0.150 A 
ATOM      5  C4  UNL d   1       1.731  -1.159  -0.010  0.00  0.00    -0.007 A 
ATOM      6  C5  UNL d   1       0.358  -0.915   0.030  0.00  0.00     0.039 A 
ENDROOT
BRANCH   4   7
ATOM      7  O   UNL d   1       3.934  -0.592   0.605  0.00  0.00    -0.526 OA
ATOM      8  H5  UNL d   1       4.411   0.062   1.143  0.00  0.00     0.418 HD
ENDBRANCH   4   7
TORSDOF 1
ENDMDL
