MODEL 1
REMARK minimizedAffinity -3.22842479
REMARK minimizedRMSD -1
REMARK  1 active torsions:
REMARK  status: ('A' for Active; 'I' for Inactive)
REMARK    1  A    between atoms: C3_4  and  O_7 
ROOT
ATOM      1  C   UNL d   1       2.132  -1.499   2.795  0.00  0.00    -0.033 A 
ATOM      2  C1  UNL d   1       2.790  -0.379   2.283  0.00  0.00     0.039 A 
ATOM      3  C2  UNL d   1       2.222   0.347   1.233  0.00  0.00    -0.080 A 
ATOM      4  C3  UNL d   1       0.999  -0.057   0.707  0.00  0.00     0.150 A 
ATOM      5  C4  UNL d   1       0.336  -1.169   1.215  0.00  0.00    -0.007 A 
ATOM      6  C5  UNL d   1       0.904  -1.893   2.262  0.00  0.00     0.039 A 
ENDROOT
BRANCH   4   7
ATOM      7  O   UNL d   1       0.408   0.617  -0.321  0.00  0.00    -0.526 OA
ATOM      8  H5  UNL d   1       0.993   1.345  -0.588  0.00  0.00     0.418 HD
ENDBRANCH   4   7
TORSDOF 1
ENDMDL
