MODEL 1
REMARK minimizedAffinity -5.57685137
REMARK minimizedRMSD -1
REMARK  1 active torsions:
REMARK  status: ('A' for Active; 'I' for Inactive)
REMARK    1  A    between atoms: C3_4  and  O_7 
ROOT
ATOM      1  C   UNL d   1       3.284  -1.074   1.427  0.00  0.00    -0.033 A 
ATOM      2  C1  UNL d   1       2.816   0.072   0.781  0.00  0.00     0.039 A 
ATOM      3  C2  UNL d   1       1.465   0.184   0.447  0.00  0.00    -0.080 A 
ATOM      4  C3  UNL d   1       0.594  -0.854   0.764  0.00  0.00     0.150 A 
ATOM      5  C4  UNL d   1       1.053  -1.997   1.411  0.00  0.00    -0.007 A 
ATOM      6  C5  UNL d   1       2.402  -2.107   1.743  0.00  0.00     0.039 A 
ENDROOT
BRANCH   4   7
ATOM      7  O   UNL d   1      -0.732  -0.792   0.453  0.00  0.00    -0.526 OA
ATOM      8  H5  UNL d   1      -0.899   0.042  -0.017  0.00  0.00     0.418 HD
ENDBRANCH   4   7
TORSDOF 1
ENDMDL
