MODEL 1
REMARK minimizedAffinity -4.22079372
REMARK minimizedRMSD -1
REMARK  1 active torsions:
REMARK  status: ('A' for Active; 'I' for Inactive)
REMARK    1  A    between atoms: C3_4  and  O_7 
ROOT
ATOM      1  C   UNL d   1      -0.706  -0.571   0.423  0.00  0.00    -0.033 A 
ATOM      2  C1  UNL d   1      -0.039   0.652   0.514  0.00  0.00     0.039 A 
ATOM      3  C2  UNL d   1       1.357   0.687   0.548  0.00  0.00    -0.080 A 
ATOM      4  C3  UNL d   1       2.072  -0.506   0.489  0.00  0.00     0.150 A 
ATOM      5  C4  UNL d   1       1.413  -1.728   0.394  0.00  0.00    -0.007 A 
ATOM      6  C5  UNL d   1       0.020  -1.761   0.361  0.00  0.00     0.039 A 
ENDROOT
BRANCH   4   7
ATOM      7  O   UNL d   1       3.434  -0.523   0.524  0.00  0.00    -0.526 OA
ATOM      8  H5  UNL d   1       3.751   0.391   0.620  0.00  0.00     0.418 HD
ENDBRANCH   4   7
TORSDOF 1
ENDMDL
