MODEL 1
REMARK minimizedAffinity -5.07768011
REMARK minimizedRMSD -1
REMARK  1 active torsions:
REMARK  status: ('A' for Active; 'I' for Inactive)
REMARK    1  A    between atoms: C3_4  and  O_7 
ROOT
ATOM      1  C   UNL d   1      -0.474   0.268   0.762  0.00  0.00    -0.033 A 
ATOM      2  C1  UNL d   1       0.306   1.383   0.450  0.00  0.00     0.039 A 
ATOM      3  C2  UNL d   1       1.696   1.269   0.385  0.00  0.00    -0.080 A 
ATOM      4  C3  UNL d   1       2.292   0.035   0.632  0.00  0.00     0.150 A 
ATOM      5  C4  UNL d   1       1.521  -1.081   0.939  0.00  0.00    -0.007 A 
ATOM      6  C5  UNL d   1       0.133  -0.964   1.005  0.00  0.00     0.039 A 
ENDROOT
BRANCH   4   7
ATOM      7  O   UNL d   1       3.645  -0.125   0.585  0.00  0.00    -0.526 OA
ATOM      8  H5  UNL d   1       4.050   0.737   0.390  0.00  0.00     0.418 HD
ENDBRANCH   4   7
TORSDOF 1
ENDMDL
