MODEL 1
REMARK minimizedAffinity -4.52530432
REMARK minimizedRMSD -1
REMARK  1 active torsions:
REMARK  status: ('A' for Active; 'I' for Inactive)
REMARK    1  A    between atoms: C3_4  and  O_7 
ROOT
ATOM      1  C   UNL d   1      -0.149  -2.015   1.442  0.00  0.00    -0.033 A 
ATOM      2  C1  UNL d   1      -0.047  -0.835   0.704  0.00  0.00     0.039 A 
ATOM      3  C2  UNL d   1       1.109  -0.056   0.784  0.00  0.00    -0.080 A 
ATOM      4  C3  UNL d   1       2.156  -0.470   1.603  0.00  0.00     0.150 A 
ATOM      5  C4  UNL d   1       2.063  -1.647   2.338  0.00  0.00    -0.007 A 
ATOM      6  C5  UNL d   1       0.907  -2.422   2.258  0.00  0.00     0.039 A 
ENDROOT
BRANCH   4   7
ATOM      7  O   UNL d   1       3.302   0.259   1.717  0.00  0.00    -0.526 OA
ATOM      8  H5  UNL d   1       3.212   1.061   1.175  0.00  0.00     0.418 HD
ENDBRANCH   4   7
TORSDOF 1
ENDMDL
