MODEL 1
REMARK minimizedAffinity -4.80780268
REMARK minimizedRMSD -1
REMARK  1 active torsions:
REMARK  status: ('A' for Active; 'I' for Inactive)
REMARK    1  A    between atoms: C3_4  and  O_7 
ROOT
ATOM      1  C   UNL d   1       0.391  -2.284   1.396  0.00  0.00    -0.033 A 
ATOM      2  C1  UNL d   1       1.549  -2.465   2.156  0.00  0.00     0.039 A 
ATOM      3  C2  UNL d   1       2.681  -1.688   1.903  0.00  0.00    -0.080 A 
ATOM      4  C3  UNL d   1       2.642  -0.734   0.889  0.00  0.00     0.150 A 
ATOM      5  C4  UNL d   1       1.491  -0.547   0.131  0.00  0.00    -0.007 A 
ATOM      6  C5  UNL d   1       0.362  -1.324   0.385  0.00  0.00     0.039 A 
ENDROOT
BRANCH   4   7
ATOM      7  O   UNL d   1       3.724   0.044   0.602  0.00  0.00    -0.526 OA
ATOM      8  H5  UNL d   1       4.455  -0.216   1.187  0.00  0.00     0.418 HD
ENDBRANCH   4   7
TORSDOF 1
ENDMDL
