MODEL 1
REMARK minimizedAffinity -3.83837867
REMARK minimizedRMSD -1
REMARK  1 active torsions:
REMARK  status: ('A' for Active; 'I' for Inactive)
REMARK    1  A    between atoms: C1_2  and  C2_3 
ROOT
ATOM      1  C2  UNL d   1       0.013  -0.297  -1.677  0.00  0.00    -0.081 A 
ATOM      2  C3  UNL d   1      -0.781  -1.271  -1.059  0.00  0.00     0.006 A 
ATOM      3  C4  UNL d   1      -1.167  -1.128   0.276  0.00  0.00     0.002 A 
ATOM      4  C5  UNL d   1      -0.773  -0.006   1.012  0.00  0.00    -0.080 A 
ATOM      5  C6  UNL d   1      -1.206   0.175   2.437  0.00  0.00     0.076 C 
ATOM      6  C7  UNL d   1       0.034   0.959   0.400  0.00  0.00     0.002 A 
ATOM      7  C8  UNL d   1       0.421   0.816  -0.934  0.00  0.00     0.006 A 
ENDROOT
BRANCH   1   8
ATOM      8  C1  UNL d   1       0.377  -0.417  -3.135  0.00  0.00     0.054 C 
ATOM      9  C   UNL d   1       1.207   0.772  -3.597  0.00  0.00     0.018 C 
ENDBRANCH   1   8
TORSDOF 1
ENDMDL
