MODEL 1
REMARK minimizedAffinity -3.95347118
REMARK minimizedRMSD -1
REMARK  1 active torsions:
REMARK  status: ('A' for Active; 'I' for Inactive)
REMARK    1  A    between atoms: C1_2  and  C2_3 
ROOT
ATOM      1  C2  UNL d   1       0.733  -0.020  -1.803  0.00  0.00    -0.081 A 
ATOM      2  C3  UNL d   1      -0.225   1.000  -1.740  0.00  0.00     0.006 A 
ATOM      3  C4  UNL d   1      -1.068   1.112  -0.631  0.00  0.00     0.002 A 
ATOM      4  C5  UNL d   1      -0.963   0.212   0.435  0.00  0.00    -0.080 A 
ATOM      5  C6  UNL d   1      -1.841   0.339   1.643  0.00  0.00     0.076 C 
ATOM      6  C7  UNL d   1      -0.018  -0.817   0.364  0.00  0.00     0.002 A 
ATOM      7  C8  UNL d   1       0.825  -0.930  -0.744  0.00  0.00     0.006 A 
ENDROOT
BRANCH   1   8
ATOM      8  C1  UNL d   1       1.687  -0.104  -2.967  0.00  0.00     0.054 C 
ATOM      9  C   UNL d   1       1.098   0.542  -4.213  0.00  0.00     0.018 C 
ENDBRANCH   1   8
TORSDOF 1
ENDMDL
