MODEL 1
REMARK minimizedAffinity -5.40263987
REMARK minimizedRMSD -1
REMARK  1 active torsions:
REMARK  status: ('A' for Active; 'I' for Inactive)
REMARK    1  A    between atoms: C1_2  and  C2_3 
ROOT
ATOM      1  C2  UNL d   1       0.372  -0.291  -0.611  0.00  0.00    -0.081 A 
ATOM      2  C3  UNL d   1      -0.922   0.161  -0.325  0.00  0.00     0.006 A 
ATOM      3  C4  UNL d   1      -1.268   0.540   0.974  0.00  0.00     0.002 A 
ATOM      4  C5  UNL d   1      -0.325   0.483   2.005  0.00  0.00    -0.080 A 
ATOM      5  C6  UNL d   1      -0.676   0.916   3.398  0.00  0.00     0.076 C 
ATOM      6  C7  UNL d   1       0.963   0.016   1.723  0.00  0.00     0.002 A 
ATOM      7  C8  UNL d   1       1.309  -0.365   0.425  0.00  0.00     0.006 A 
ENDROOT
BRANCH   1   8
ATOM      8  C1  UNL d   1       0.767  -0.640  -2.024  0.00  0.00     0.054 C 
ATOM      9  C   UNL d   1       1.718   0.398  -2.605  0.00  0.00     0.018 C 
ENDBRANCH   1   8
TORSDOF 1
ENDMDL
