MODEL 1
REMARK minimizedAffinity -2.42633367
REMARK minimizedRMSD -1
REMARK  1 active torsions:
REMARK  status: ('A' for Active; 'I' for Inactive)
REMARK    1  A    between atoms: C1_2  and  C2_3 
ROOT
ATOM      1  C2  UNL d   1       0.093  -0.417  -0.587  0.00  0.00    -0.081 A 
ATOM      2  C3  UNL d   1       1.230  -0.605   0.209  0.00  0.00     0.006 A 
ATOM      3  C4  UNL d   1       1.183  -0.353   1.582  0.00  0.00     0.002 A 
ATOM      4  C5  UNL d   1      -0.003   0.083   2.184  0.00  0.00    -0.080 A 
ATOM      5  C6  UNL d   1      -0.075   0.328   3.662  0.00  0.00     0.076 C 
ATOM      6  C7  UNL d   1      -1.133   0.288   1.386  0.00  0.00     0.002 A 
ATOM      7  C8  UNL d   1      -1.087   0.037   0.013  0.00  0.00     0.006 A 
ENDROOT
BRANCH   1   8
ATOM      8  C1  UNL d   1       0.123  -0.749  -2.057  0.00  0.00     0.054 C 
ATOM      9  C   UNL d   1       0.909   0.290  -2.843  0.00  0.00     0.018 C 
ENDBRANCH   1   8
TORSDOF 1
ENDMDL
