MODEL 1
REMARK minimizedAffinity -1.70716512
REMARK minimizedRMSD -1
REMARK  1 active torsions:
REMARK  status: ('A' for Active; 'I' for Inactive)
REMARK    1  A    between atoms: C1_2  and  C2_3 
ROOT
ATOM      1  C2  UNL d   1      -0.150  -0.066  -1.056  0.00  0.00    -0.081 A 
ATOM      2  C3  UNL d   1      -1.456   0.212  -0.635  0.00  0.00     0.006 A 
ATOM      3  C4  UNL d   1      -1.731   0.438   0.716  0.00  0.00     0.002 A 
ATOM      4  C5  UNL d   1      -0.705   0.397   1.666  0.00  0.00    -0.080 A 
ATOM      5  C6  UNL d   1      -0.982   0.668   3.115  0.00  0.00     0.076 C 
ATOM      6  C7  UNL d   1       0.597   0.102   1.248  0.00  0.00     0.002 A 
ATOM      7  C8  UNL d   1       0.873  -0.125  -0.102  0.00  0.00     0.006 A 
ENDROOT
BRANCH   1   8
ATOM      8  C1  UNL d   1       0.162  -0.246  -2.520  0.00  0.00     0.054 C 
ATOM      9  C   UNL d   1       0.988   0.914  -3.057  0.00  0.00     0.018 C 
ENDBRANCH   1   8
TORSDOF 1
ENDMDL
