MODEL 1
REMARK minimizedAffinity -0.269733101
REMARK minimizedRMSD -1
REMARK  1 active torsions:
REMARK  status: ('A' for Active; 'I' for Inactive)
REMARK    1  A    between atoms: C1_2  and  C2_3 
ROOT
ATOM      1  C2  UNL d   1      -0.110  -0.310  -0.745  0.00  0.00    -0.081 A 
ATOM      2  C3  UNL d   1      -1.357   0.110  -0.267  0.00  0.00     0.006 A 
ATOM      3  C4  UNL d   1      -1.513   0.483   1.070  0.00  0.00     0.002 A 
ATOM      4  C5  UNL d   1      -0.425   0.450   1.949  0.00  0.00    -0.080 A 
ATOM      5  C6  UNL d   1      -0.572   0.876   3.379  0.00  0.00     0.076 C 
ATOM      6  C7  UNL d   1       0.817   0.013   1.475  0.00  0.00     0.002 A 
ATOM      7  C8  UNL d   1       0.974  -0.360   0.138  0.00  0.00     0.006 A 
ENDROOT
BRANCH   1   8
ATOM      8  C1  UNL d   1       0.077  -0.650  -2.202  0.00  0.00     0.054 C 
ATOM      9  C   UNL d   1       0.988   0.355  -2.893  0.00  0.00     0.018 C 
ENDBRANCH   1   8
TORSDOF 1
ENDMDL
