MODEL 1
REMARK minimizedAffinity -2.47866082
REMARK minimizedRMSD -1
REMARK  0 active torsions:
REMARK  status: ('A' for Active; 'I' for Inactive)
ROOT
ATOM      1  C4' PXY d   1       0.245   0.979   2.262  0.00  0.00     0.077 C 
ATOM      2  C1' PXY d   1       0.576  -1.117  -3.114  0.00  0.00     0.077 C 
ATOM      3  C1  PXY d   1       0.501  -0.573  -1.702  0.00  0.00    -0.082 A 
ATOM      4  C2  PXY d   1      -0.678  -0.290  -1.172  0.00  0.00     0.003 A 
ATOM      5  C3  PXY d   1      -0.762   0.233   0.093  0.00  0.00     0.003 A 
ATOM      6  C4  PXY d   1       0.368   0.419   0.843  0.00  0.00    -0.082 A 
ATOM      7  C5  PXY d   1       1.574   0.123   0.313  0.00  0.00     0.003 A 
ATOM      8  C6  PXY d   1       1.641  -0.368  -0.988  0.00  0.00     0.003 A 
ENDROOT
TORSDOF 0
ENDMDL
