MODEL 1
REMARK minimizedAffinity -3.75727773
REMARK minimizedRMSD -1
REMARK  0 active torsions:
REMARK  status: ('A' for Active; 'I' for Inactive)
ROOT
ATOM      1  C4' PXY d   1       1.162  -0.885  -2.250  0.00  0.00     0.077 C 
ATOM      2  C1' PXY d   1      -1.806   1.123   2.286  0.00  0.00     0.077 C 
ATOM      3  C1  PXY d   1      -1.018   0.606   1.098  0.00  0.00    -0.082 A 
ATOM      4  C2  PXY d   1      -1.637  -0.087   0.155  0.00  0.00     0.003 A 
ATOM      5  C3  PXY d   1      -0.934  -0.590  -0.909  0.00  0.00     0.003 A 
ATOM      6  C4  PXY d   1       0.405  -0.335  -1.038  0.00  0.00    -0.082 A 
ATOM      7  C5  PXY d   1       1.041   0.380  -0.086  0.00  0.00     0.003 A 
ATOM      8  C6  PXY d   1       0.318   0.846   1.008  0.00  0.00     0.003 A 
ENDROOT
TORSDOF 0
ENDMDL
