MODEL 1
REMARK minimizedAffinity -1.63752067
REMARK minimizedRMSD -1
REMARK  0 active torsions:
REMARK  status: ('A' for Active; 'I' for Inactive)
ROOT
ATOM      1  C4' PXY d   1       0.177  -0.740  -2.331  0.00  0.00     0.077 C 
ATOM      2  C1' PXY d   1      -0.486   1.507   2.953  0.00  0.00     0.077 C 
ATOM      3  C1  PXY d   1      -0.325   0.913   1.568  0.00  0.00    -0.082 A 
ATOM      4  C2  PXY d   1       0.886   0.637   1.112  0.00  0.00     0.003 A 
ATOM      5  C3  PXY d   1       1.053   0.129  -0.151  0.00  0.00     0.003 A 
ATOM      6  C4  PXY d   1      -0.034  -0.148  -0.935  0.00  0.00    -0.082 A 
ATOM      7  C5  PXY d   1      -1.274   0.121  -0.473  0.00  0.00     0.003 A 
ATOM      8  C6  PXY d   1      -1.419   0.674   0.796  0.00  0.00     0.003 A 
ENDROOT
TORSDOF 0
ENDMDL
