MODEL 1
REMARK minimizedAffinity -2.20215583
REMARK minimizedRMSD -1
REMARK  0 active torsions:
REMARK  status: ('A' for Active; 'I' for Inactive)
ROOT
ATOM      1  C4' PXY d   1       1.086   0.027  -2.544  0.00  0.00     0.077 C 
ATOM      2  C1' PXY d   1      -2.324  -0.373   2.106  0.00  0.00     0.077 C 
ATOM      3  C1  PXY d   1      -1.421  -0.262   0.894  0.00  0.00    -0.082 A 
ATOM      4  C2  PXY d   1      -1.947  -0.299  -0.319  0.00  0.00     0.003 A 
ATOM      5  C3  PXY d   1      -1.141  -0.232  -1.427  0.00  0.00     0.003 A 
ATOM      6  C4  PXY d   1       0.212  -0.072  -1.291  0.00  0.00    -0.082 A 
ATOM      7  C5  PXY d   1       0.755  -0.023  -0.057  0.00  0.00     0.003 A 
ATOM      8  C6  PXY d   1      -0.075  -0.135   1.055  0.00  0.00     0.003 A 
ENDROOT
TORSDOF 0
ENDMDL
