MODEL 1
REMARK minimizedAffinity -4.09843445
REMARK minimizedRMSD -1
REMARK  0 active torsions:
REMARK  status: ('A' for Active; 'I' for Inactive)
ROOT
ATOM      1  C4' PXY d   1       0.683  -0.837  -2.340  0.00  0.00     0.077 C 
ATOM      2  C1' PXY d   1      -1.060   1.008   2.853  0.00  0.00     0.077 C 
ATOM      3  C1  PXY d   1      -0.614   0.519   1.489  0.00  0.00    -0.082 A 
ATOM      4  C2  PXY d   1       0.676   0.374   1.236  0.00  0.00     0.003 A 
ATOM      5  C3  PXY d   1       1.098  -0.037  -0.002  0.00  0.00     0.003 A 
ATOM      6  C4  PXY d   1       0.187  -0.354  -0.974  0.00  0.00    -0.082 A 
ATOM      7  C5  PXY d   1      -1.131  -0.219  -0.720  0.00  0.00     0.003 A 
ATOM      8  C6  PXY d   1      -1.538   0.239   0.530  0.00  0.00     0.003 A 
ENDROOT
TORSDOF 0
ENDMDL
