MODEL 1
REMARK minimizedAffinity -2.67490816
REMARK minimizedRMSD -1
REMARK  0 active torsions:
REMARK  status: ('A' for Active; 'I' for Inactive)
ROOT
ATOM      1  C4' PXY d   1       2.509  -0.940   0.724  0.00  0.00     0.077 C 
ATOM      2  C1' PXY d   1      -3.046   0.637   0.980  0.00  0.00     0.077 C 
ATOM      3  C1  PXY d   1      -1.587   0.231   0.924  0.00  0.00    -0.082 A 
ATOM      4  C2  PXY d   1      -1.068  -0.188  -0.220  0.00  0.00     0.003 A 
ATOM      5  C3  PXY d   1       0.241  -0.590  -0.281  0.00  0.00     0.003 A 
ATOM      6  C4  PXY d   1       1.043  -0.511   0.826  0.00  0.00    -0.082 A 
ATOM      7  C5  PXY d   1       0.524  -0.075   1.993  0.00  0.00     0.003 A 
ATOM      8  C6  PXY d   1      -0.818   0.289   2.045  0.00  0.00     0.003 A 
ENDROOT
TORSDOF 0
ENDMDL
