MODEL 1
REMARK minimizedAffinity 16.8437901
REMARK minimizedRMSD -1
REMARK  0 active torsions:
REMARK  status: ('A' for Active; 'I' for Inactive)
ROOT
ATOM      1  C   UNL d   1       1.927  -0.813   3.381  0.00  0.00    -0.002 A 
ATOM      2  C1  UNL d   1       0.979  -0.568   2.398  0.00  0.00     0.010 A 
ATOM      3  C2  UNL d   1       0.013   0.424   2.574  0.00  0.00     0.041 A 
ATOM      4  C3  UNL d   1       0.016   1.175   3.766  0.00  0.00    -0.075 A 
ATOM      5  S   UNL d   1      -1.070   2.441   4.200  0.00  0.00     0.015 SA
ATOM      6  C4  UNL d   1      -0.302   2.688   5.701  0.00  0.00     0.022 A 
ATOM      7  C5  UNL d   1       0.760   1.833   5.883  0.00  0.00     0.026 A 
ATOM      8  C6  UNL d   1       0.961   0.947   4.771  0.00  0.00    -0.082 A 
ATOM      9  C7  UNL d   1       1.927  -0.066   4.563  0.00  0.00     0.045 A 
ENDROOT
TORSDOF 0
ENDMDL
