MODEL 1
REMARK minimizedAffinity 20.0671768
REMARK minimizedRMSD -1
REMARK  0 active torsions:
REMARK  status: ('A' for Active; 'I' for Inactive)
ROOT
ATOM      1  C   UNL d   1       1.021  -1.026   3.005  0.00  0.00    -0.002 A 
ATOM      2  C1  UNL d   1       0.079  -0.429   2.181  0.00  0.00     0.010 A 
ATOM      3  C2  UNL d   1      -0.603   0.718   2.594  0.00  0.00     0.041 A 
ATOM      4  C3  UNL d   1      -0.317   1.260   3.862  0.00  0.00    -0.075 A 
ATOM      5  S   UNL d   1      -1.026   2.659   4.579  0.00  0.00     0.015 SA
ATOM      6  C4  UNL d   1      -0.094   2.497   5.996  0.00  0.00     0.022 A 
ATOM      7  C5  UNL d   1       0.743   1.408   5.942  0.00  0.00     0.026 A 
ATOM      8  C6  UNL d   1       0.629   0.678   4.710  0.00  0.00    -0.082 A 
ATOM      9  C7  UNL d   1       1.303  -0.484   4.263  0.00  0.00     0.045 A 
ENDROOT
TORSDOF 0
ENDMDL
