MODEL 1
REMARK minimizedAffinity 19.4293861
REMARK minimizedRMSD -1
REMARK  0 active torsions:
REMARK  status: ('A' for Active; 'I' for Inactive)
ROOT
ATOM      1  C   UNL d   1       0.996  -1.629   2.293  0.00  0.00    -0.002 A 
ATOM      2  C1  UNL d   1       1.751  -1.438   3.442  0.00  0.00     0.010 A 
ATOM      3  C2  UNL d   1       1.587  -0.288   4.217  0.00  0.00     0.041 A 
ATOM      4  C3  UNL d   1       0.641   0.675   3.815  0.00  0.00    -0.075 A 
ATOM      5  S   UNL d   1       0.268   2.160   4.608  0.00  0.00     0.015 SA
ATOM      6  C4  UNL d   1      -0.903   2.575   3.442  0.00  0.00     0.022 A 
ATOM      7  C5  UNL d   1      -1.019   1.616   2.464  0.00  0.00     0.026 A 
ATOM      8  C6  UNL d   1      -0.132   0.505   2.663  0.00  0.00    -0.082 A 
ATOM      9  C7  UNL d   1       0.058  -0.671   1.898  0.00  0.00     0.045 A 
ENDROOT
TORSDOF 0
ENDMDL
