MODEL 1
REMARK minimizedAffinity 25.4850559
REMARK minimizedRMSD -1
REMARK  0 active torsions:
REMARK  status: ('A' for Active; 'I' for Inactive)
ROOT
ATOM      1  C   UNL d   1      -0.720  -5.911  -6.000  0.00  0.00    -0.002 A 
ATOM      2  C1  UNL d   1      -1.887  -5.160  -5.993  0.00  0.00     0.010 A 
ATOM      3  C2  UNL d   1      -1.865  -3.817  -5.609  0.00  0.00     0.041 A 
ATOM      4  C3  UNL d   1      -0.639  -3.236  -5.231  0.00  0.00    -0.075 A 
ATOM      5  S   UNL d   1      -0.372  -1.610  -4.726  0.00  0.00     0.015 SA
ATOM      6  C4  UNL d   1       1.298  -1.873  -4.508  0.00  0.00     0.022 A 
ATOM      7  C5  UNL d   1       1.660  -3.164  -4.809  0.00  0.00     0.026 A 
ATOM      8  C6  UNL d   1       0.550  -3.971  -5.231  0.00  0.00    -0.082 A 
ATOM      9  C7  UNL d   1       0.495  -5.330  -5.624  0.00  0.00     0.045 A 
ENDROOT
TORSDOF 0
ENDMDL
