MODEL 1
REMARK minimizedAffinity 12.5371227
REMARK minimizedRMSD -1
REMARK  0 active torsions:
REMARK  status: ('A' for Active; 'I' for Inactive)
ROOT
ATOM      1  C   UNL d   1       2.256  -1.647   5.725  0.00  0.00    -0.002 A 
ATOM      2  C1  UNL d   1       2.907  -0.433   5.559  0.00  0.00     0.010 A 
ATOM      3  C2  UNL d   1       2.701   0.332   4.410  0.00  0.00     0.041 A 
ATOM      4  C3  UNL d   1       1.820  -0.147   3.421  0.00  0.00    -0.075 A 
ATOM      5  S   UNL d   1       1.412   0.620   1.932  0.00  0.00     0.015 SA
ATOM      6  C4  UNL d   1       0.364  -0.645   1.481  0.00  0.00     0.022 A 
ATOM      7  C5  UNL d   1       0.314  -1.637   2.431  0.00  0.00     0.026 A 
ATOM      8  C6  UNL d   1       1.152  -1.366   3.566  0.00  0.00    -0.082 A 
ATOM      9  C7  UNL d   1       1.382  -2.119   4.742  0.00  0.00     0.045 A 
ENDROOT
TORSDOF 0
ENDMDL
