MODEL 1
REMARK minimizedAffinity -2.16446161
REMARK minimizedRMSD -1
REMARK  1 active torsions:
REMARK  status: ('A' for Active; 'I' for Inactive)
REMARK    1  A    between atoms: N_2  and  C1_3 
ROOT
ATOM      1  C1  UNL d   1      -0.516  -0.728   0.260  0.00  0.00     0.143 A 
ATOM      2  C2  UNL d   1      -0.522   0.214  -0.774  0.00  0.00    -0.057 A 
ATOM      3  C3  UNL d   1      -1.284   1.385  -0.685  0.00  0.00     0.033 A 
ATOM      4  C4  UNL d   1      -2.078   1.622   0.433  0.00  0.00    -0.042 A 
ATOM      5  C5  UNL d   1      -2.106   0.688   1.462  0.00  0.00     0.033 A 
ATOM      6  C6  UNL d   1      -1.338  -0.477   1.370  0.00  0.00    -0.057 A 
ENDROOT
BRANCH   1   7
ATOM      7  N   UNL d   1       0.143  -1.958   0.189  0.00  0.00    -0.732 N 
ATOM      8  C   UNL d   1       1.349  -2.103  -0.598  0.00  0.00     0.284 C 
ATOM      9  H3  UNL d   1       0.173  -2.436   1.086  0.00  0.00     0.395 HD
ENDBRANCH   1   7
TORSDOF 1
ENDMDL
