MODEL 1
REMARK minimizedAffinity -3.02449608
REMARK minimizedRMSD -1
REMARK  1 active torsions:
REMARK  status: ('A' for Active; 'I' for Inactive)
REMARK    1  A    between atoms: N_2  and  C1_3 
ROOT
ATOM      1  C1  UNL d   1      -3.048   0.015   3.569  0.00  0.00     0.143 A 
ATOM      2  C2  UNL d   1      -2.571   1.246   4.032  0.00  0.00    -0.057 A 
ATOM      3  C3  UNL d   1      -1.701   2.025   3.259  0.00  0.00     0.033 A 
ATOM      4  C4  UNL d   1      -1.269   1.572   2.017  0.00  0.00    -0.042 A 
ATOM      5  C5  UNL d   1      -1.710   0.340   1.548  0.00  0.00     0.033 A 
ATOM      6  C6  UNL d   1      -2.584  -0.431   2.321  0.00  0.00    -0.057 A 
ENDROOT
BRANCH   1   7
ATOM      7  N   UNL d   1      -3.835  -0.851   4.332  0.00  0.00    -0.732 N 
ATOM      8  C   UNL d   1      -4.530  -1.957   3.708  0.00  0.00     0.284 C 
ATOM      9  H3  UNL d   1      -3.407  -1.080   5.226  0.00  0.00     0.395 HD
ENDBRANCH   1   7
TORSDOF 1
ENDMDL
