MODEL 1
REMARK minimizedAffinity -0.772564709
REMARK minimizedRMSD -1
REMARK  1 active torsions:
REMARK  status: ('A' for Active; 'I' for Inactive)
REMARK    1  A    between atoms: N_2  and  C1_3 
ROOT
ATOM      1  C1  UNL d   1      -3.105  -0.948   3.879  0.00  0.00     0.143 A 
ATOM      2  C2  UNL d   1      -3.105  -0.783   2.490  0.00  0.00    -0.057 A 
ATOM      3  C3  UNL d   1      -2.639   0.398   1.900  0.00  0.00     0.033 A 
ATOM      4  C4  UNL d   1      -2.192   1.450   2.692  0.00  0.00    -0.042 A 
ATOM      5  C5  UNL d   1      -2.206   1.317   4.076  0.00  0.00     0.033 A 
ATOM      6  C6  UNL d   1      -2.666   0.133   4.660  0.00  0.00    -0.057 A 
ENDROOT
BRANCH   1   7
ATOM      7  N   UNL d   1      -3.646  -2.059   4.530  0.00  0.00    -0.732 N 
ATOM      8  C   UNL d   1      -4.917  -2.612   4.113  0.00  0.00     0.284 C 
ATOM      9  H3  UNL d   1      -2.942  -2.759   4.755  0.00  0.00     0.395 HD
ENDBRANCH   1   7
TORSDOF 1
ENDMDL
