MODEL 1
REMARK minimizedAffinity -5.07067728
REMARK minimizedRMSD -1
REMARK  1 active torsions:
REMARK  status: ('A' for Active; 'I' for Inactive)
REMARK    1  A    between atoms: N_2  and  C1_3 
ROOT
ATOM      1  C1  UNL d   1      -0.258   0.385   0.157  0.00  0.00     0.143 A 
ATOM      2  C2  UNL d   1       0.835   1.034  -0.428  0.00  0.00    -0.057 A 
ATOM      3  C3  UNL d   1       1.773   0.330  -1.192  0.00  0.00     0.033 A 
ATOM      4  C4  UNL d   1       1.651  -1.045  -1.360  0.00  0.00    -0.042 A 
ATOM      5  C5  UNL d   1       0.587  -1.715  -0.767  0.00  0.00     0.033 A 
ATOM      6  C6  UNL d   1      -0.351  -1.005  -0.011  0.00  0.00    -0.057 A 
ENDROOT
BRANCH   1   7
ATOM      7  N   UNL d   1      -1.170   1.013   1.009  0.00  0.00    -0.732 N 
ATOM      8  C   UNL d   1      -2.086   0.232   1.813  0.00  0.00     0.284 C 
ATOM      9  H3  UNL d   1      -0.763   1.807   1.497  0.00  0.00     0.395 HD
ENDBRANCH   1   7
TORSDOF 1
ENDMDL
