MODEL 1
REMARK minimizedAffinity -3.76945233
REMARK minimizedRMSD -1
REMARK  1 active torsions:
REMARK  status: ('A' for Active; 'I' for Inactive)
REMARK    1  A    between atoms: N_2  and  C1_3 
ROOT
ATOM      1  C1  UNL d   1      -0.709   0.577   1.170  0.00  0.00     0.143 A 
ATOM      2  C2  UNL d   1      -0.485   1.556   2.144  0.00  0.00    -0.057 A 
ATOM      3  C3  UNL d   1      -1.434   1.822   3.138  0.00  0.00     0.033 A 
ATOM      4  C4  UNL d   1      -2.641   1.132   3.158  0.00  0.00    -0.042 A 
ATOM      5  C5  UNL d   1      -2.897   0.172   2.185  0.00  0.00     0.033 A 
ATOM      6  C6  UNL d   1      -1.942  -0.093   1.199  0.00  0.00    -0.057 A 
ENDROOT
BRANCH   1   7
ATOM      7  N   UNL d   1       0.152   0.335   0.097  0.00  0.00    -0.732 N 
ATOM      8  C   UNL d   1       0.783  -0.957  -0.064  0.00  0.00     0.284 C 
ATOM      9  H3  UNL d   1      -0.183   0.745  -0.771  0.00  0.00     0.395 HD
ENDBRANCH   1   7
TORSDOF 1
ENDMDL
