MODEL 1
REMARK minimizedAffinity -2.02927732
REMARK minimizedRMSD -1
REMARK  1 active torsions:
REMARK  status: ('A' for Active; 'I' for Inactive)
REMARK    1  A    between atoms: N_2  and  C1_3 
ROOT
ATOM      1  C1  UNL d   1       0.991  -0.814  -0.790  0.00  0.00     0.143 A 
ATOM      2  C2  UNL d   1       0.226  -1.647   0.034  0.00  0.00    -0.057 A 
ATOM      3  C3  UNL d   1      -0.790  -1.130   0.847  0.00  0.00     0.033 A 
ATOM      4  C4  UNL d   1      -1.040   0.238   0.874  0.00  0.00    -0.042 A 
ATOM      5  C5  UNL d   1      -0.275   1.088   0.082  0.00  0.00     0.033 A 
ATOM      6  C6  UNL d   1       0.733   0.565  -0.733  0.00  0.00    -0.057 A 
ENDROOT
BRANCH   1   7
ATOM      7  N   UNL d   1       2.079  -1.255  -1.547  0.00  0.00    -0.732 N 
ATOM      8  C   UNL d   1       3.397  -0.696  -1.337  0.00  0.00     0.284 C 
ATOM      9  H3  UNL d   1       2.072  -2.262  -1.687  0.00  0.00     0.395 HD
ENDBRANCH   1   7
TORSDOF 1
ENDMDL
