MODEL 1
REMARK minimizedAffinity -4.29794264
REMARK minimizedRMSD -1
REMARK  1 active torsions:
REMARK  status: ('A' for Active; 'I' for Inactive)
REMARK    1  A    between atoms: N_2  and  C1_3 
ROOT
ATOM      1  C1  UNL d   1      -0.498   0.263   0.020  0.00  0.00     0.143 A 
ATOM      2  C2  UNL d   1      -0.310  -1.093   0.310  0.00  0.00    -0.057 A 
ATOM      3  C3  UNL d   1       0.865  -1.758  -0.060  0.00  0.00     0.033 A 
ATOM      4  C4  UNL d   1       1.864  -1.085  -0.755  0.00  0.00    -0.042 A 
ATOM      5  C5  UNL d   1       1.688   0.257  -1.076  0.00  0.00     0.033 A 
ATOM      6  C6  UNL d   1       0.516   0.918  -0.698  0.00  0.00    -0.057 A 
ENDROOT
BRANCH   1   7
ATOM      7  N   UNL d   1      -1.684   0.956   0.274  0.00  0.00    -0.732 N 
ATOM      8  C   UNL d   1      -2.366   0.809   1.542  0.00  0.00     0.284 C 
ATOM      9  H3  UNL d   1      -1.659   1.911  -0.077  0.00  0.00     0.395 HD
ENDBRANCH   1   7
TORSDOF 1
ENDMDL
