MODEL 1
REMARK minimizedAffinity -3.53033638
REMARK minimizedRMSD -1
REMARK  1 active torsions:
REMARK  status: ('A' for Active; 'I' for Inactive)
REMARK    1  A    between atoms: N_2  and  C1_3 
ROOT
ATOM      1  C1  UNL d   1      -1.767   0.463   1.393  0.00  0.00     0.143 A 
ATOM      2  C2  UNL d   1      -2.888  -0.075   2.035  0.00  0.00    -0.057 A 
ATOM      3  C3  UNL d   1      -3.233   0.310   3.336  0.00  0.00     0.033 A 
ATOM      4  C4  UNL d   1      -2.445   1.220   4.031  0.00  0.00    -0.042 A 
ATOM      5  C5  UNL d   1      -1.312   1.749   3.422  0.00  0.00     0.033 A 
ATOM      6  C6  UNL d   1      -0.976   1.366   2.120  0.00  0.00    -0.057 A 
ENDROOT
BRANCH   1   7
ATOM      7  N   UNL d   1      -1.315   0.047   0.138  0.00  0.00    -0.732 N 
ATOM      8  C   UNL d   1      -0.004  -0.546  -0.015  0.00  0.00     0.284 C 
ATOM      9  H3  UNL d   1      -2.044  -0.411  -0.405  0.00  0.00     0.395 HD
ENDBRANCH   1   7
TORSDOF 1
ENDMDL
