MODEL 1
REMARK minimizedAffinity 9.03611374
REMARK minimizedRMSD -1
REMARK  1 active torsions:
REMARK  status: ('A' for Active; 'I' for Inactive)
REMARK    1  A    between atoms: N_2  and  C1_3 
ROOT
ATOM      1  C1  UNL d   1      -1.655  -0.597  -0.323  0.00  0.00     0.143 A 
ATOM      2  C2  UNL d   1      -2.214   0.118   0.741  0.00  0.00    -0.057 A 
ATOM      3  C3  UNL d   1      -1.607   1.278   1.236  0.00  0.00     0.033 A 
ATOM      4  C4  UNL d   1      -0.409   1.729   0.691  0.00  0.00    -0.042 A 
ATOM      5  C5  UNL d   1       0.178   1.020  -0.351  0.00  0.00     0.033 A 
ATOM      6  C6  UNL d   1      -0.437  -0.134  -0.845  0.00  0.00    -0.057 A 
ENDROOT
BRANCH   1   7
ATOM      7  N   UNL d   1      -2.159  -1.812  -0.794  0.00  0.00    -0.732 N 
ATOM      8  C   UNL d   1      -1.856  -3.051  -0.110  0.00  0.00     0.284 C 
ATOM      9  H3  UNL d   1      -3.123  -1.736  -1.110  0.00  0.00     0.395 HD
ENDBRANCH   1   7
TORSDOF 1
ENDMDL
