MODEL 1
REMARK minimizedAffinity -3.81275177
REMARK minimizedRMSD -1
REMARK  1 active torsions:
REMARK  status: ('A' for Active; 'I' for Inactive)
REMARK    1  A    between atoms: N_2  and  C1_3 
ROOT
ATOM      1  C1  UNL d   1      -0.366  -0.064   0.283  0.00  0.00     0.143 A 
ATOM      2  C2  UNL d   1       0.003  -1.410   0.181  0.00  0.00    -0.057 A 
ATOM      3  C3  UNL d   1       1.189  -1.791  -0.458  0.00  0.00     0.033 A 
ATOM      4  C4  UNL d   1       2.014  -0.832  -1.036  0.00  0.00    -0.042 A 
ATOM      5  C5  UNL d   1       1.655   0.509  -0.969  0.00  0.00     0.033 A 
ATOM      6  C6  UNL d   1       0.473   0.884  -0.322  0.00  0.00    -0.057 A 
ENDROOT
BRANCH   1   7
ATOM      7  N   UNL d   1      -1.580   0.371   0.820  0.00  0.00    -0.732 N 
ATOM      8  C   UNL d   1      -1.655   0.843   2.186  0.00  0.00     0.284 C 
ATOM      9  H3  UNL d   1      -2.121   0.923   0.159  0.00  0.00     0.395 HD
ENDBRANCH   1   7
TORSDOF 1
ENDMDL
