MODEL 1
REMARK minimizedAffinity -2.42049122
REMARK minimizedRMSD -1
REMARK  1 active torsions:
REMARK  status: ('A' for Active; 'I' for Inactive)
REMARK    1  A    between atoms: N_2  and  C1_3 
ROOT
ATOM      1  C1  UNL d   1       1.160   0.183  -0.530  0.00  0.00     0.143 A 
ATOM      2  C2  UNL d   1       2.190  -0.637  -1.003  0.00  0.00    -0.057 A 
ATOM      3  C3  UNL d   1       2.959  -0.270  -2.114  0.00  0.00     0.033 A 
ATOM      4  C4  UNL d   1       2.691   0.915  -2.792  0.00  0.00    -0.042 A 
ATOM      5  C5  UNL d   1       1.656   1.734  -2.354  0.00  0.00     0.033 A 
ATOM      6  C6  UNL d   1       0.896   1.364  -1.240  0.00  0.00    -0.057 A 
ENDROOT
BRANCH   1   7
ATOM      7  N   UNL d   1       0.297  -0.174   0.508  0.00  0.00    -0.732 N 
ATOM      8  C   UNL d   1      -1.095   0.220   0.478  0.00  0.00     0.284 C 
ATOM      9  H3  UNL d   1       0.452  -1.125   0.833  0.00  0.00     0.395 HD
ENDBRANCH   1   7
TORSDOF 1
ENDMDL
