MODEL 1
REMARK minimizedAffinity -3.30641437
REMARK minimizedRMSD -1
REMARK  1 active torsions:
REMARK  status: ('A' for Active; 'I' for Inactive)
REMARK    1  A    between atoms: N_2  and  C1_3 
ROOT
ATOM      1  C1  UNL d   1      -0.882  -0.136   0.455  0.00  0.00     0.143 A 
ATOM      2  C2  UNL d   1      -0.635  -1.463   0.087  0.00  0.00    -0.057 A 
ATOM      3  C3  UNL d   1       0.509  -1.815  -0.639  0.00  0.00     0.033 A 
ATOM      4  C4  UNL d   1       1.415  -0.838  -1.037  0.00  0.00    -0.042 A 
ATOM      5  C5  UNL d   1       1.177   0.491  -0.705  0.00  0.00     0.033 A 
ATOM      6  C6  UNL d   1       0.036   0.835   0.026  0.00  0.00    -0.057 A 
ENDROOT
BRANCH   1   7
ATOM      7  N   UNL d   1      -2.050   0.290   1.091  0.00  0.00    -0.732 N 
ATOM      8  C   UNL d   1      -1.985   1.155   2.250  0.00  0.00     0.284 C 
ATOM      9  H3  UNL d   1      -2.785   0.535   0.431  0.00  0.00     0.395 HD
ENDBRANCH   1   7
TORSDOF 1
ENDMDL
