MODEL 1
REMARK minimizedAffinity -2.33850312
REMARK minimizedRMSD -1
REMARK  0 active torsions:
REMARK  status: ('A' for Active; 'I' for Inactive)
ROOT
ATOM      1  C   UNL d   1      -0.070  -0.897   2.286  0.00  0.00     0.023 A 
ATOM      2  C1  UNL d   1      -1.359  -0.505   1.924  0.00  0.00     0.003 A 
ATOM      3  C2  UNL d   1      -1.577   0.140   0.705  0.00  0.00     0.048 A 
ATOM      4  C3  UNL d   1      -0.502   0.388  -0.148  0.00  0.00     0.023 A 
ATOM      5  C4  UNL d   1       0.789  -0.004   0.209  0.00  0.00     0.048 A 
ATOM      6  C5  UNL d   1       1.002  -0.647   1.430  0.00  0.00     0.003 A 
ATOM      7  I   UNL d   1      -0.825   1.346  -1.964  0.00  0.00    -0.146 I 
ENDROOT
TORSDOF 0
ENDMDL
