MODEL 1
REMARK minimizedAffinity -0.0890268087
REMARK minimizedRMSD -1
REMARK  0 active torsions:
REMARK  status: ('A' for Active; 'I' for Inactive)
ROOT
ATOM      1  C   UNL d   1       2.773  -0.338   0.881  0.00  0.00     0.023 A 
ATOM      2  C1  UNL d   1       1.895  -0.134   1.945  0.00  0.00     0.003 A 
ATOM      3  C2  UNL d   1       0.516  -0.124   1.722  0.00  0.00     0.048 A 
ATOM      4  C3  UNL d   1       0.023  -0.320   0.433  0.00  0.00     0.023 A 
ATOM      5  C4  UNL d   1       0.898  -0.525  -0.635  0.00  0.00     0.048 A 
ATOM      6  C5  UNL d   1       2.275  -0.533  -0.408  0.00  0.00     0.003 A 
ATOM      7  I   UNL d   1      -2.028  -0.306   0.098  0.00  0.00    -0.146 I 
ENDROOT
TORSDOF 0
ENDMDL
