MODEL 1
REMARK minimizedAffinity -3.66776633
REMARK minimizedRMSD -1
REMARK  0 active torsions:
REMARK  status: ('A' for Active; 'I' for Inactive)
ROOT
ATOM      1  C   UNL d   1       0.054  -0.912   2.586  0.00  0.00     0.023 A 
ATOM      2  C1  UNL d   1       1.133  -0.675   1.735  0.00  0.00     0.003 A 
ATOM      3  C2  UNL d   1       0.910  -0.334   0.400  0.00  0.00     0.048 A 
ATOM      4  C3  UNL d   1      -0.396  -0.229  -0.078  0.00  0.00     0.023 A 
ATOM      5  C4  UNL d   1      -1.480  -0.464   0.770  0.00  0.00     0.048 A 
ATOM      6  C5  UNL d   1      -1.251  -0.807   2.105  0.00  0.00     0.003 A 
ATOM      7  I   UNL d   1      -0.732   0.279  -2.065  0.00  0.00    -0.146 I 
ENDROOT
TORSDOF 0
ENDMDL
