MODEL 1
REMARK minimizedAffinity -1.93159056
REMARK minimizedRMSD -1
REMARK  0 active torsions:
REMARK  status: ('A' for Active; 'I' for Inactive)
ROOT
ATOM      1  C   UNL d   1       0.194  -1.240   2.680  0.00  0.00     0.023 A 
ATOM      2  C1  UNL d   1      -1.126  -1.179   2.231  0.00  0.00     0.003 A 
ATOM      3  C2  UNL d   1      -1.444  -0.438   1.092  0.00  0.00     0.048 A 
ATOM      4  C3  UNL d   1      -0.438   0.240   0.405  0.00  0.00     0.023 A 
ATOM      5  C4  UNL d   1       0.884   0.182   0.849  0.00  0.00     0.048 A 
ATOM      6  C5  UNL d   1       1.197  -0.560   1.989  0.00  0.00     0.003 A 
ATOM      7  I   UNL d   1      -0.909   1.344  -1.292  0.00  0.00    -0.146 I 
ENDROOT
TORSDOF 0
ENDMDL
