MODEL 1
REMARK minimizedAffinity -1.01944768
REMARK minimizedRMSD -1
REMARK  0 active torsions:
REMARK  status: ('A' for Active; 'I' for Inactive)
ROOT
ATOM      1  C   UNL d   1       1.749  -0.815   0.601  0.00  0.00     0.023 A 
ATOM      2  C1  UNL d   1       0.820   0.120   1.058  0.00  0.00     0.003 A 
ATOM      3  C2  UNL d   1      -0.029   0.762   0.154  0.00  0.00     0.048 A 
ATOM      4  C3  UNL d   1       0.055   0.463  -1.205  0.00  0.00     0.023 A 
ATOM      5  C4  UNL d   1       0.983  -0.473  -1.667  0.00  0.00     0.048 A 
ATOM      6  C5  UNL d   1       1.830  -1.111  -0.759  0.00  0.00     0.003 A 
ATOM      7  I   UNL d   1      -1.207   1.417  -2.553  0.00  0.00    -0.146 I 
ENDROOT
TORSDOF 0
ENDMDL
