MODEL 1
REMARK minimizedAffinity 3.01993155
REMARK minimizedRMSD -1
REMARK  0 active torsions:
REMARK  status: ('A' for Active; 'I' for Inactive)
ROOT
ATOM      1  C   UNL d   1       4.152   4.874   3.295  0.00  0.00     0.172 C 
ATOM      2  N   UNL d   1       2.842   4.925   2.689  0.00  0.00    -0.070 N 
ATOM      3  C1  UNL d   1       2.311   5.998   2.025  0.00  0.00    -0.004 A 
ATOM      4  C2  UNL d   1       1.048   5.647   1.598  0.00  0.00    -0.047 A 
ATOM      5  C3  UNL d   1       0.813   4.318   2.020  0.00  0.00    -0.047 A 
ATOM      6  C4  UNL d   1       1.939   3.895   2.693  0.00  0.00    -0.004 A 
ENDROOT
TORSDOF 0
ENDMDL
