MODEL 1
REMARK minimizedAffinity 3.51815867
REMARK minimizedRMSD -1
REMARK  0 active torsions:
REMARK  status: ('A' for Active; 'I' for Inactive)
ROOT
ATOM      1  C   UNL d   1       5.266   2.128  -2.418  0.00  0.00     0.172 C 
ATOM      2  N   UNL d   1       4.297   1.320  -1.716  0.00  0.00    -0.070 N 
ATOM      3  C1  UNL d   1       3.349   0.524  -2.300  0.00  0.00    -0.004 A 
ATOM      4  C2  UNL d   1       2.625  -0.079  -1.294  0.00  0.00    -0.047 A 
ATOM      5  C3  UNL d   1       3.156   0.372  -0.062  0.00  0.00    -0.047 A 
ATOM      6  C4  UNL d   1       4.190   1.237  -0.353  0.00  0.00    -0.004 A 
ENDROOT
TORSDOF 0
ENDMDL
