MODEL 1
REMARK minimizedAffinity 2.50563622
REMARK minimizedRMSD -1
REMARK  0 active torsions:
REMARK  status: ('A' for Active; 'I' for Inactive)
ROOT
ATOM      1  C   UNL d   1       6.000   2.619  -2.284  0.00  0.00     0.172 C 
ATOM      2  N   UNL d   1       4.999   1.772  -1.678  0.00  0.00    -0.070 N 
ATOM      3  C1  UNL d   1       4.908   1.471  -0.346  0.00  0.00    -0.004 A 
ATOM      4  C2  UNL d   1       3.823   0.639  -0.174  0.00  0.00    -0.047 A 
ATOM      5  C3  UNL d   1       3.242   0.432  -1.448  0.00  0.00    -0.047 A 
ATOM      6  C4  UNL d   1       3.990   1.145  -2.361  0.00  0.00    -0.004 A 
ENDROOT
TORSDOF 0
ENDMDL
