MODEL 1
REMARK minimizedAffinity 4.11005497
REMARK minimizedRMSD -1
REMARK  0 active torsions:
REMARK  status: ('A' for Active; 'I' for Inactive)
ROOT
ATOM      1  C   UNL d   1       1.918   0.778  -0.510  0.00  0.00     0.172 C 
ATOM      2  N   UNL d   1       0.936   1.809  -0.271  0.00  0.00    -0.070 N 
ATOM      3  C1  UNL d   1      -0.291   1.897  -0.871  0.00  0.00    -0.004 A 
ATOM      4  C2  UNL d   1      -0.924   3.017  -0.377  0.00  0.00    -0.047 A 
ATOM      5  C3  UNL d   1      -0.046   3.624   0.552  0.00  0.00    -0.047 A 
ATOM      6  C4  UNL d   1       1.099   2.856   0.598  0.00  0.00    -0.004 A 
ENDROOT
TORSDOF 0
ENDMDL
