MODEL 1
REMARK minimizedAffinity 4.30139589
REMARK minimizedRMSD -1
REMARK  0 active torsions:
REMARK  status: ('A' for Active; 'I' for Inactive)
ROOT
ATOM      1  C   UNL d   1      -0.162   3.441   0.270  0.00  0.00     0.172 C 
ATOM      2  N   UNL d   1       0.686   2.315  -0.045  0.00  0.00    -0.070 N 
ATOM      3  C1  UNL d   1       0.417   1.350  -0.978  0.00  0.00    -0.004 A 
ATOM      4  C2  UNL d   1       1.466   0.457  -0.976  0.00  0.00    -0.047 A 
ATOM      5  C3  UNL d   1       2.398   0.900  -0.007  0.00  0.00    -0.047 A 
ATOM      6  C4  UNL d   1       1.889   2.052   0.554  0.00  0.00    -0.004 A 
ENDROOT
TORSDOF 0
ENDMDL
