MODEL 1
REMARK minimizedAffinity -3.7955091
REMARK minimizedRMSD -1
REMARK  0 active torsions:
REMARK  status: ('A' for Active; 'I' for Inactive)
ROOT
ATOM      1  C   UNL d   1      -2.797   0.754  -2.980  0.00  0.00     0.172 C 
ATOM      2  N   UNL d   1      -3.968   0.926  -3.808  0.00  0.00    -0.070 N 
ATOM      3  C1  UNL d   1      -5.121   0.192  -3.722  0.00  0.00    -0.004 A 
ATOM      4  C2  UNL d   1      -5.993   0.664  -4.679  0.00  0.00    -0.047 A 
ATOM      5  C3  UNL d   1      -5.342   1.716  -5.364  0.00  0.00    -0.047 A 
ATOM      6  C4  UNL d   1      -4.090   1.858  -4.805  0.00  0.00    -0.004 A 
ENDROOT
TORSDOF 0
ENDMDL
