MODEL 1
REMARK minimizedAffinity 2.64105487
REMARK minimizedRMSD -1
REMARK  0 active torsions:
REMARK  status: ('A' for Active; 'I' for Inactive)
ROOT
ATOM      1  C   UNL d   1      -0.447   4.555   1.384  0.00  0.00     0.172 C 
ATOM      2  N   UNL d   1      -0.808   3.462   0.513  0.00  0.00    -0.070 N 
ATOM      3  C1  UNL d   1       0.069   2.640  -0.142  0.00  0.00    -0.004 A 
ATOM      4  C2  UNL d   1      -0.668   1.729  -0.868  0.00  0.00    -0.047 A 
ATOM      5  C3  UNL d   1      -2.035   2.015  -0.642  0.00  0.00    -0.047 A 
ATOM      6  C4  UNL d   1      -2.094   3.092   0.216  0.00  0.00    -0.004 A 
ENDROOT
TORSDOF 0
ENDMDL
