MODEL 1
REMARK minimizedAffinity 5.71577024
REMARK minimizedRMSD -1
REMARK  0 active torsions:
REMARK  status: ('A' for Active; 'I' for Inactive)
ROOT
ATOM      1  C   UNL d   1      -0.978   2.427  -0.539  0.00  0.00     0.172 C 
ATOM      2  N   UNL d   1      -0.623   3.442   0.425  0.00  0.00    -0.070 N 
ATOM      3  C1  UNL d   1      -1.070   4.736   0.423  0.00  0.00    -0.004 A 
ATOM      4  C2  UNL d   1      -0.504   5.380   1.503  0.00  0.00    -0.047 A 
ATOM      5  C3  UNL d   1       0.312   4.440   2.176  0.00  0.00    -0.047 A 
ATOM      6  C4  UNL d   1       0.220   3.249   1.488  0.00  0.00    -0.004 A 
ENDROOT
TORSDOF 0
ENDMDL
