MODEL 1
REMARK minimizedAffinity -3.72515059
REMARK minimizedRMSD -1
REMARK  0 active torsions:
REMARK  status: ('A' for Active; 'I' for Inactive)
ROOT
ATOM      1  C   UNL d   1      -2.549   0.075  -3.334  0.00  0.00     0.172 C 
ATOM      2  N   UNL d   1      -3.640   0.463  -4.196  0.00  0.00    -0.070 N 
ATOM      3  C1  UNL d   1      -3.552   1.325  -5.257  0.00  0.00    -0.004 A 
ATOM      4  C2  UNL d   1      -4.806   1.431  -5.819  0.00  0.00    -0.047 A 
ATOM      5  C3  UNL d   1      -5.678   0.605  -5.071  0.00  0.00    -0.047 A 
ATOM      6  C4  UNL d   1      -4.930   0.017  -4.072  0.00  0.00    -0.004 A 
ENDROOT
TORSDOF 0
ENDMDL
