MODEL 1
REMARK minimizedAffinity -2.30852079
REMARK minimizedRMSD -1
REMARK  0 active torsions:
REMARK  status: ('A' for Active; 'I' for Inactive)
ROOT
ATOM      1  C   UNL d   1       0.979  -0.784  -0.591  0.00  0.00     0.172 C 
ATOM      2  N   UNL d   1       0.167   0.010   0.302  0.00  0.00    -0.070 N 
ATOM      3  C1  UNL d   1      -0.438  -0.441   1.445  0.00  0.00    -0.004 A 
ATOM      4  C2  UNL d   1      -1.116   0.617   2.009  0.00  0.00    -0.047 A 
ATOM      5  C3  UNL d   1      -0.913   1.743   1.176  0.00  0.00    -0.047 A 
ATOM      6  C4  UNL d   1      -0.116   1.339   0.127  0.00  0.00    -0.004 A 
ENDROOT
TORSDOF 0
ENDMDL
