MODEL 1
REMARK minimizedAffinity -2.03945923
REMARK minimizedRMSD -1
REMARK  0 active torsions:
REMARK  status: ('A' for Active; 'I' for Inactive)
ROOT
ATOM      1  C   UNL d   1      -1.294   1.320   1.961  0.00  0.00     0.172 C 
ATOM      2  N   UNL d   1      -0.537   0.554   0.999  0.00  0.00    -0.070 N 
ATOM      3  C1  UNL d   1       0.003  -0.686   1.213  0.00  0.00    -0.004 A 
ATOM      4  C2  UNL d   1       0.644  -1.072   0.055  0.00  0.00    -0.047 A 
ATOM      5  C3  UNL d   1       0.485  -0.027  -0.886  0.00  0.00    -0.047 A 
ATOM      6  C4  UNL d   1      -0.250   0.967  -0.275  0.00  0.00    -0.004 A 
ENDROOT
TORSDOF 0
ENDMDL
