MODEL 1
REMARK minimizedAffinity -2.88348532
REMARK minimizedRMSD -1
REMARK  0 active torsions:
REMARK  status: ('A' for Active; 'I' for Inactive)
ROOT
ATOM      1  C   UNL d   1      -0.090   0.666  -0.260  0.00  0.00     0.172 C 
ATOM      2  N   UNL d   1      -0.973   1.531   0.488  0.00  0.00    -0.070 N 
ATOM      3  C1  UNL d   1      -2.128   1.144   1.113  0.00  0.00    -0.004 A 
ATOM      4  C2  UNL d   1      -2.676   2.257   1.713  0.00  0.00    -0.047 A 
ATOM      5  C3  UNL d   1      -1.822   3.351   1.438  0.00  0.00    -0.047 A 
ATOM      6  C4  UNL d   1      -0.775   2.873   0.677  0.00  0.00    -0.004 A 
ENDROOT
TORSDOF 0
ENDMDL
