MODEL 1
REMARK minimizedAffinity -1.87145841
REMARK minimizedRMSD -1
REMARK  0 active torsions:
REMARK  status: ('A' for Active; 'I' for Inactive)
ROOT
ATOM      1  C   UNL d   1      -0.246  -0.766  -0.145  0.00  0.00     0.172 C 
ATOM      2  N   UNL d   1      -0.115  -1.816  -1.128  0.00  0.00    -0.070 N 
ATOM      3  C1  UNL d   1       0.906  -2.727  -1.191  0.00  0.00    -0.004 A 
ATOM      4  C2  UNL d   1       0.666  -3.555  -2.266  0.00  0.00    -0.047 A 
ATOM      5  C3  UNL d   1      -0.540  -3.127  -2.870  0.00  0.00    -0.047 A 
ATOM      6  C4  UNL d   1      -1.002  -2.048  -2.146  0.00  0.00    -0.004 A 
ENDROOT
TORSDOF 0
ENDMDL
