MODEL 1
REMARK minimizedAffinity -0.277452886
REMARK minimizedRMSD -1
REMARK  0 active torsions:
REMARK  status: ('A' for Active; 'I' for Inactive)
ROOT
ATOM      1  C   UNL d   1      -1.286   1.250   2.022  0.00  0.00     0.172 C 
ATOM      2  N   UNL d   1      -0.524   0.555   1.010  0.00  0.00    -0.070 N 
ATOM      3  C1  UNL d   1      -0.017  -0.712   1.123  0.00  0.00    -0.004 A 
ATOM      4  C2  UNL d   1       0.641  -1.008  -0.051  0.00  0.00    -0.047 A 
ATOM      5  C3  UNL d   1       0.526   0.120  -0.898  0.00  0.00    -0.047 A 
ATOM      6  C4  UNL d   1      -0.200   1.073  -0.216  0.00  0.00    -0.004 A 
ENDROOT
TORSDOF 0
ENDMDL
