MODEL 1
REMARK minimizedAffinity -1.80837584
REMARK minimizedRMSD -1
REMARK  0 active torsions:
REMARK  status: ('A' for Active; 'I' for Inactive)
ROOT
ATOM      1  C   UNL d   1      -0.416  -0.551   1.636  0.00  0.00     0.172 C 
ATOM      2  N   UNL d   1      -0.353   0.300   0.471  0.00  0.00    -0.070 N 
ATOM      3  C1  UNL d   1       0.533   0.171  -0.565  0.00  0.00    -0.004 A 
ATOM      4  C2  UNL d   1       0.268   1.172  -1.475  0.00  0.00    -0.047 A 
ATOM      5  C3  UNL d   1      -0.815   1.929  -0.968  0.00  0.00    -0.047 A 
ATOM      6  C4  UNL d   1      -1.180   1.367   0.238  0.00  0.00    -0.004 A 
ENDROOT
TORSDOF 0
ENDMDL
