MODEL 1
REMARK minimizedAffinity 0.69520247
REMARK minimizedRMSD -1
REMARK  0 active torsions:
REMARK  status: ('A' for Active; 'I' for Inactive)
ROOT
ATOM      1  C   UNL d   1       0.467  -0.248  -0.363  0.00  0.00     0.172 C 
ATOM      2  N   UNL d   1      -0.295   0.461   0.638  0.00  0.00    -0.070 N 
ATOM      3  C1  UNL d   1      -0.627   1.789   0.596  0.00  0.00    -0.004 A 
ATOM      4  C2  UNL d   1      -1.353   2.078   1.731  0.00  0.00    -0.047 A 
ATOM      5  C3  UNL d   1      -1.461   0.883   2.481  0.00  0.00    -0.047 A 
ATOM      6  C4  UNL d   1      -0.797  -0.102   1.782  0.00  0.00    -0.004 A 
ENDROOT
TORSDOF 0
ENDMDL
