MODEL 1
REMARK minimizedAffinity -3.85742569
REMARK minimizedRMSD -1
REMARK  0 active torsions:
REMARK  status: ('A' for Active; 'I' for Inactive)
ROOT
ATOM      1  C   UNL d   1      -2.181   1.741   1.177  0.00  0.00     0.172 C 
ATOM      2  N   UNL d   1      -1.179   0.938   0.517  0.00  0.00    -0.070 N 
ATOM      3  C1  UNL d   1      -0.660  -0.238   0.988  0.00  0.00    -0.004 A 
ATOM      4  C2  UNL d   1       0.263  -0.691   0.070  0.00  0.00    -0.047 A 
ATOM      5  C3  UNL d   1       0.301   0.247  -0.989  0.00  0.00    -0.047 A 
ATOM      6  C4  UNL d   1      -0.601   1.245  -0.687  0.00  0.00    -0.004 A 
ENDROOT
TORSDOF 0
ENDMDL
