MODEL 1
REMARK minimizedAffinity -3.63925076
REMARK minimizedRMSD -1
REMARK  0 active torsions:
REMARK  status: ('A' for Active; 'I' for Inactive)
ROOT
ATOM      1  C   UNL d   1       0.516   1.550  -1.860  0.00  0.00     0.172 C 
ATOM      2  N   UNL d   1       0.598   0.109  -1.810  0.00  0.00    -0.070 N 
ATOM      3  C1  UNL d   1       1.245  -0.620  -0.848  0.00  0.00    -0.004 A 
ATOM      4  C2  UNL d   1       1.091  -1.955  -1.156  0.00  0.00    -0.047 A 
ATOM      5  C3  UNL d   1       0.326  -2.030  -2.344  0.00  0.00    -0.047 A 
ATOM      6  C4  UNL d   1       0.034  -0.738  -2.727  0.00  0.00    -0.004 A 
ENDROOT
TORSDOF 0
ENDMDL
