MODEL 1
REMARK minimizedAffinity -2.02991486
REMARK minimizedRMSD -1
REMARK  0 active torsions:
REMARK  status: ('A' for Active; 'I' for Inactive)
ROOT
ATOM      1  C   UNL d   1      -0.755   2.786   1.436  0.00  0.00     0.172 C 
ATOM      2  N   UNL d   1      -0.858   1.349   1.538  0.00  0.00    -0.070 N 
ATOM      3  C1  UNL d   1      -1.560   0.665   2.494  0.00  0.00    -0.004 A 
ATOM      4  C2  UNL d   1      -1.409  -0.682   2.246  0.00  0.00    -0.047 A 
ATOM      5  C3  UNL d   1      -0.587  -0.813   1.102  0.00  0.00    -0.047 A 
ATOM      6  C4  UNL d   1      -0.260   0.460   0.684  0.00  0.00    -0.004 A 
ENDROOT
TORSDOF 0
ENDMDL
