MODEL 1
REMARK minimizedAffinity -3.5207026
REMARK minimizedRMSD -1
REMARK  0 active torsions:
REMARK  status: ('A' for Active; 'I' for Inactive)
ROOT
ATOM      1  C   UNL d   1      -0.088   3.365   0.379  0.00  0.00     0.172 C 
ATOM      2  N   UNL d   1       0.013   1.931   0.516  0.00  0.00    -0.070 N 
ATOM      3  C1  UNL d   1       0.693   1.094  -0.328  0.00  0.00    -0.004 A 
ATOM      4  C2  UNL d   1       0.549  -0.192   0.146  0.00  0.00    -0.047 A 
ATOM      5  C3  UNL d   1      -0.245  -0.125   1.316  0.00  0.00    -0.047 A 
ATOM      6  C4  UNL d   1      -0.563   1.200   1.522  0.00  0.00    -0.004 A 
ENDROOT
TORSDOF 0
ENDMDL
