MODEL 1
REMARK minimizedAffinity -2.42426896
REMARK minimizedRMSD -1
REMARK  0 active torsions:
REMARK  status: ('A' for Active; 'I' for Inactive)
ROOT
ATOM      1  C   UNL d   1       0.512  -0.694  -0.269  0.00  0.00     0.172 C 
ATOM      2  N   UNL d   1       0.498  -1.815  -1.178  0.00  0.00    -0.070 N 
ATOM      3  C1  UNL d   1       1.351  -2.885  -1.140  0.00  0.00    -0.004 A 
ATOM      4  C2  UNL d   1       1.011  -3.734  -2.171  0.00  0.00    -0.047 A 
ATOM      5  C3  UNL d   1      -0.084  -3.153  -2.854  0.00  0.00    -0.047 A 
ATOM      6  C4  UNL d   1      -0.381  -1.966  -2.218  0.00  0.00    -0.004 A 
ENDROOT
TORSDOF 0
ENDMDL
