MODEL 1
REMARK minimizedAffinity -3.04542947
REMARK minimizedRMSD -1
REMARK  0 active torsions:
REMARK  status: ('A' for Active; 'I' for Inactive)
ROOT
ATOM      1  C   UNL d   1      -0.858   0.477   1.428  0.00  0.00     0.172 C 
ATOM      2  N   UNL d   1      -0.492  -0.386   0.328  0.00  0.00    -0.070 N 
ATOM      3  C1  UNL d   1      -1.358  -1.140  -0.417  0.00  0.00    -0.004 A 
ATOM      4  C2  UNL d   1      -0.620  -1.818  -1.363  0.00  0.00    -0.047 A 
ATOM      5  C3  UNL d   1       0.736  -1.459  -1.180  0.00  0.00    -0.047 A 
ATOM      6  C4  UNL d   1       0.787  -0.571  -0.126  0.00  0.00    -0.004 A 
ENDROOT
TORSDOF 0
ENDMDL
