MODEL 1
REMARK minimizedAffinity -3.73783278
REMARK minimizedRMSD -1
REMARK  0 active torsions:
REMARK  status: ('A' for Active; 'I' for Inactive)
ROOT
ATOM      1  C   UNL d   1      -0.074   0.037  -0.071  0.00  0.00     0.172 C 
ATOM      2  N   UNL d   1      -0.454   1.347   0.403  0.00  0.00    -0.070 N 
ATOM      3  C1  UNL d   1      -1.289   1.604   1.458  0.00  0.00    -0.004 A 
ATOM      4  C2  UNL d   1      -1.396   2.972   1.588  0.00  0.00    -0.047 A 
ATOM      5  C3  UNL d   1      -0.599   3.557   0.576  0.00  0.00    -0.047 A 
ATOM      6  C4  UNL d   1      -0.027   2.528  -0.143  0.00  0.00    -0.004 A 
ENDROOT
TORSDOF 0
ENDMDL
