MODEL 1
REMARK minimizedAffinity -2.71062779
REMARK minimizedRMSD -1
REMARK  0 active torsions:
REMARK  status: ('A' for Active; 'I' for Inactive)
ROOT
ATOM      1  C   UNL d   1       0.776  -0.665  -0.961  0.00  0.00     0.172 C 
ATOM      2  N   UNL d   1       0.119   0.139   0.042  0.00  0.00    -0.070 N 
ATOM      3  C1  UNL d   1      -0.622  -0.340   1.090  0.00  0.00    -0.004 A 
ATOM      4  C2  UNL d   1      -1.075   0.741   1.815  0.00  0.00    -0.047 A 
ATOM      5  C3  UNL d   1      -0.592   1.910   1.180  0.00  0.00    -0.047 A 
ATOM      6  C4  UNL d   1       0.144   1.508   0.086  0.00  0.00    -0.004 A 
ENDROOT
TORSDOF 0
ENDMDL
