MODEL 1
REMARK minimizedAffinity -2.51685333
REMARK minimizedRMSD -1
REMARK  0 active torsions:
REMARK  status: ('A' for Active; 'I' for Inactive)
ROOT
ATOM      1  C   UNL d   1       0.688  -0.247  -0.541  0.00  0.00     0.172 C 
ATOM      2  N   UNL d   1       0.551  -1.550  -1.148  0.00  0.00    -0.070 N 
ATOM      3  C1  UNL d   1       1.201  -2.688  -0.750  0.00  0.00    -0.004 A 
ATOM      4  C2  UNL d   1       0.801  -3.714  -1.578  0.00  0.00    -0.047 A 
ATOM      5  C3  UNL d   1      -0.121  -3.174  -2.506  0.00  0.00    -0.047 A 
ATOM      6  C4  UNL d   1      -0.257  -1.833  -2.217  0.00  0.00    -0.004 A 
ENDROOT
TORSDOF 0
ENDMDL
