MODEL 1
REMARK minimizedAffinity 7.96456718
REMARK minimizedRMSD -1
REMARK  2 active torsions:
REMARK  status: ('A' for Active; 'I' for Inactive)
REMARK    1  A    between atoms: C2'_3  and  C1'_4 
REMARK    2  A    between atoms: C1'_4  and  C1_5 
ROOT
ATOM      1  C1  I4B d   1       2.893  -4.348  -1.763  0.00  0.00    -0.075 A 
ATOM      2  C2  I4B d   1       1.864  -5.251  -1.673  0.00  0.00     0.003 A 
ATOM      3  C3  I4B d   1       1.223  -5.480  -0.431  0.00  0.00     0.002 A 
ATOM      4  C4  I4B d   1       1.674  -4.825   0.697  0.00  0.00    -0.004 A 
ATOM      5  C5  I4B d   1       2.703  -3.893   0.599  0.00  0.00     0.002 A 
ATOM      6  C6  I4B d   1       3.309  -3.644  -0.641  0.00  0.00     0.003 A 
ENDROOT
BRANCH   1   7
ATOM      7  C1' I4B d   1       3.570  -4.156  -3.084  0.00  0.00     0.060 C 
BRANCH   7   8
ATOM      8  C2' I4B d   1       4.740  -5.115  -3.153  0.00  0.00    -0.013 C 
ATOM      9  C4' I4B d   1       5.510  -4.945  -4.436  0.00  0.00     0.013 C 
ATOM     10  C3' I4B d   1       5.614  -4.865  -1.960  0.00  0.00     0.013 C 
ENDBRANCH   7   8
ENDBRANCH   1   7
TORSDOF 2
ENDMDL
