MODEL 1
REMARK minimizedAffinity 20.2691479
REMARK minimizedRMSD -1
REMARK  2 active torsions:
REMARK  status: ('A' for Active; 'I' for Inactive)
REMARK    1  A    between atoms: C2'_3  and  C1'_4 
REMARK    2  A    between atoms: C1'_4  and  C1_5 
ROOT
ATOM      1  C1  I4B d   1       1.955  -2.880   3.214  0.00  0.00    -0.075 A 
ATOM      2  C2  I4B d   1       2.622  -3.840   3.935  0.00  0.00     0.003 A 
ATOM      3  C3  I4B d   1       2.523  -3.868   5.347  0.00  0.00     0.002 A 
ATOM      4  C4  I4B d   1       1.793  -2.893   5.997  0.00  0.00    -0.004 A 
ATOM      5  C5  I4B d   1       1.099  -1.935   5.263  0.00  0.00     0.002 A 
ATOM      6  C6  I4B d   1       1.171  -1.935   3.863  0.00  0.00     0.003 A 
ENDROOT
BRANCH   1   7
ATOM      7  C1' I4B d   1       2.109  -2.860   1.726  0.00  0.00     0.060 C 
BRANCH   7   8
ATOM      8  C2' I4B d   1       2.864  -1.601   1.352  0.00  0.00    -0.013 C 
ATOM      9  C4' I4B d   1       3.580  -1.765   0.037  0.00  0.00     0.013 C 
ATOM     10  C3' I4B d   1       1.880  -0.470   1.295  0.00  0.00     0.013 C 
ENDBRANCH   7   8
ENDBRANCH   1   7
TORSDOF 2
ENDMDL
