MODEL 1
REMARK minimizedAffinity 10.124155
REMARK minimizedRMSD -1
REMARK  2 active torsions:
REMARK  status: ('A' for Active; 'I' for Inactive)
REMARK    1  A    between atoms: C2'_3  and  C1'_4 
REMARK    2  A    between atoms: C1'_4  and  C1_5 
ROOT
ATOM      1  C1  I4B d   1      -3.677   2.423  -3.473  0.00  0.00    -0.075 A 
ATOM      2  C2  I4B d   1      -3.262   2.932  -4.678  0.00  0.00     0.003 A 
ATOM      3  C3  I4B d   1      -3.545   4.276  -5.021  0.00  0.00     0.002 A 
ATOM      4  C4  I4B d   1      -4.284   5.056  -4.156  0.00  0.00    -0.004 A 
ATOM      5  C5  I4B d   1      -4.685   4.547  -2.924  0.00  0.00     0.002 A 
ATOM      6  C6  I4B d   1      -4.369   3.226  -2.575  0.00  0.00     0.003 A 
ENDROOT
BRANCH   1   7
ATOM      7  C1' I4B d   1      -3.390   0.990  -3.157  0.00  0.00     0.060 C 
BRANCH   7   8
ATOM      8  C2' I4B d   1      -2.694   0.938  -1.813  0.00  0.00    -0.013 C 
ATOM      9  C4' I4B d   1      -2.386  -0.481  -1.412  0.00  0.00     0.013 C 
ATOM     10  C3' I4B d   1      -1.441   1.757  -1.907  0.00  0.00     0.013 C 
ENDBRANCH   7   8
ENDBRANCH   1   7
TORSDOF 2
ENDMDL
