MODEL 1
REMARK minimizedAffinity 13.7570133
REMARK minimizedRMSD -1
REMARK  2 active torsions:
REMARK  status: ('A' for Active; 'I' for Inactive)
REMARK    1  A    between atoms: C2'_3  and  C1'_4 
REMARK    2  A    between atoms: C1'_4  and  C1_5 
ROOT
ATOM      1  C1  I4B d   1       0.597  -3.968   0.400  0.00  0.00    -0.075 A 
ATOM      2  C2  I4B d   1      -0.728  -3.857   0.740  0.00  0.00     0.003 A 
ATOM      3  C3  I4B d   1      -1.725  -4.444  -0.076  0.00  0.00     0.002 A 
ATOM      4  C4  I4B d   1      -1.359  -5.085  -1.242  0.00  0.00    -0.004 A 
ATOM      5  C5  I4B d   1      -0.014  -5.216  -1.574  0.00  0.00     0.002 A 
ATOM      6  C6  I4B d   1       0.972  -4.665  -0.742  0.00  0.00     0.003 A 
ENDROOT
BRANCH   1   7
ATOM      7  C1' I4B d   1       1.622  -3.308   1.267  0.00  0.00     0.060 C 
BRANCH   7   8
ATOM      8  C2' I4B d   1       1.807  -1.888   0.772  0.00  0.00    -0.013 C 
ATOM      9  C4' I4B d   1       1.422  -0.888   1.831  0.00  0.00     0.013 C 
ATOM     10  C3' I4B d   1       3.241  -1.722   0.366  0.00  0.00     0.013 C 
ENDBRANCH   7   8
ENDBRANCH   1   7
TORSDOF 2
ENDMDL
