MODEL 1
REMARK minimizedAffinity 7.7530961
REMARK minimizedRMSD -1
REMARK  2 active torsions:
REMARK  status: ('A' for Active; 'I' for Inactive)
REMARK    1  A    between atoms: C2'_3  and  C1'_4 
REMARK    2  A    between atoms: C1'_4  and  C1_5 
ROOT
ATOM      1  C1  I4B d   1       1.550  -2.269   3.388  0.00  0.00    -0.075 A 
ATOM      2  C2  I4B d   1       1.130  -1.488   4.436  0.00  0.00     0.003 A 
ATOM      3  C3  I4B d   1       1.497  -1.819   5.763  0.00  0.00     0.002 A 
ATOM      4  C4  I4B d   1       2.236  -2.960   6.000  0.00  0.00    -0.004 A 
ATOM      5  C5  I4B d   1       2.680  -3.738   4.935  0.00  0.00     0.002 A 
ATOM      6  C6  I4B d   1       2.346  -3.384   3.619  0.00  0.00     0.003 A 
ENDROOT
BRANCH   1   7
ATOM      7  C1' I4B d   1       1.118  -1.909   2.002  0.00  0.00     0.060 C 
BRANCH   7   8
ATOM      8  C2' I4B d   1       2.160  -0.979   1.415  0.00  0.00    -0.013 C 
ATOM      9  C4' I4B d   1       2.981  -1.677   0.362  0.00  0.00     0.013 C 
ATOM     10  C3' I4B d   1       1.449   0.212   0.846  0.00  0.00     0.013 C 
ENDBRANCH   7   8
ENDBRANCH   1   7
TORSDOF 2
ENDMDL
