MODEL 1
REMARK minimizedAffinity 2.52880001
REMARK minimizedRMSD -1
REMARK  2 active torsions:
REMARK  status: ('A' for Active; 'I' for Inactive)
REMARK    1  A    between atoms: C2'_3  and  C1'_4 
REMARK    2  A    between atoms: C1'_4  and  C1_5 
ROOT
ATOM      1  C1  I4B d   1      -3.695   2.495  -3.188  0.00  0.00    -0.075 A 
ATOM      2  C2  I4B d   1      -4.308   3.318  -2.276  0.00  0.00     0.003 A 
ATOM      3  C3  I4B d   1      -4.626   4.654  -2.622  0.00  0.00     0.002 A 
ATOM      4  C4  I4B d   1      -4.269   5.137  -3.864  0.00  0.00    -0.004 A 
ATOM      5  C5  I4B d   1      -3.668   4.295  -4.795  0.00  0.00     0.002 A 
ATOM      6  C6  I4B d   1      -3.390   2.962  -4.460  0.00  0.00     0.003 A 
ENDROOT
BRANCH   1   7
ATOM      7  C1' I4B d   1      -3.344   1.100  -2.778  0.00  0.00     0.060 C 
BRANCH   7   8
ATOM      8  C2' I4B d   1      -2.549   1.178  -1.491  0.00  0.00    -0.013 C 
ATOM      9  C4' I4B d   1      -2.481  -0.164  -0.810  0.00  0.00     0.013 C 
ATOM     10  C3' I4B d   1      -1.178   1.686  -1.823  0.00  0.00     0.013 C 
ENDBRANCH   7   8
ENDBRANCH   1   7
TORSDOF 2
ENDMDL
