MODEL 1
REMARK minimizedAffinity 19.1956978
REMARK minimizedRMSD -1
REMARK  2 active torsions:
REMARK  status: ('A' for Active; 'I' for Inactive)
REMARK    1  A    between atoms: C2'_3  and  C1'_4 
REMARK    2  A    between atoms: C1'_4  and  C1_5 
ROOT
ATOM      1  C1  I4B d   1       1.379  -2.303   3.575  0.00  0.00    -0.075 A 
ATOM      2  C2  I4B d   1       0.962  -1.743   4.757  0.00  0.00     0.003 A 
ATOM      3  C3  I4B d   1       1.439  -2.247   5.991  0.00  0.00     0.002 A 
ATOM      4  C4  I4B d   1       2.286  -3.336   5.999  0.00  0.00    -0.004 A 
ATOM      5  C5  I4B d   1       2.725  -3.888   4.799  0.00  0.00     0.002 A 
ATOM      6  C6  I4B d   1       2.279  -3.360   3.579  0.00  0.00     0.003 A 
ENDROOT
BRANCH   1   7
ATOM      7  C1' I4B d   1       0.830  -1.767   2.291  0.00  0.00     0.060 C 
BRANCH   7   8
ATOM      8  C2' I4B d   1       1.879  -0.864   1.675  0.00  0.00    -0.013 C 
ATOM      9  C4' I4B d   1       2.618  -1.564   0.565  0.00  0.00     0.013 C 
ATOM     10  C3' I4B d   1       1.191   0.370   1.173  0.00  0.00     0.013 C 
ENDBRANCH   7   8
ENDBRANCH   1   7
TORSDOF 2
ENDMDL
