MODEL 1
REMARK minimizedAffinity -5.65975618
REMARK minimizedRMSD -1
REMARK  0 active torsions:
REMARK  status: ('A' for Active; 'I' for Inactive)
ROOT
ATOM      1  C2' OXE d   1      -1.454   0.350   1.405  0.00  0.00     0.078 C 
ATOM      2  C1' OXE d   1       0.061  -0.676  -0.723  0.00  0.00     0.078 C 
ATOM      3  C1  OXE d   1       0.675   0.419   0.114  0.00  0.00    -0.078 A 
ATOM      4  C2  OXE d   1      -0.092   0.947   1.124  0.00  0.00    -0.078 A 
ATOM      5  C3  OXE d   1       0.446   1.920   1.961  0.00  0.00     0.003 A 
ATOM      6  C4  OXE d   1       1.702   2.474   1.688  0.00  0.00    -0.002 A 
ATOM      7  C5  OXE d   1       2.484   1.978   0.640  0.00  0.00    -0.002 A 
ATOM      8  C6  OXE d   1       2.004   0.923  -0.129  0.00  0.00     0.003 A 
ENDROOT
TORSDOF 0
ENDMDL
