MODEL 1
REMARK minimizedAffinity -4.10396242
REMARK minimizedRMSD -1
REMARK  0 active torsions:
REMARK  status: ('A' for Active; 'I' for Inactive)
ROOT
ATOM      1  C2' OXE d   1      -0.075  -0.270  -0.278  0.00  0.00     0.078 C 
ATOM      2  C1' OXE d   1       2.709   0.087  -0.228  0.00  0.00     0.078 C 
ATOM      3  C1  OXE d   1       1.861   1.055   0.559  0.00  0.00    -0.078 A 
ATOM      4  C2  OXE d   1       0.497   0.901   0.491  0.00  0.00    -0.078 A 
ATOM      5  C3  OXE d   1      -0.328   1.733   1.242  0.00  0.00     0.003 A 
ATOM      6  C4  OXE d   1       0.209   2.819   1.943  0.00  0.00    -0.002 A 
ATOM      7  C5  OXE d   1       1.592   3.018   1.993  0.00  0.00    -0.002 A 
ATOM      8  C6  OXE d   1       2.433   2.121   1.343  0.00  0.00     0.003 A 
ENDROOT
TORSDOF 0
ENDMDL
