MODEL 1
REMARK minimizedAffinity -5.41955519
REMARK minimizedRMSD -1
REMARK  0 active torsions:
REMARK  status: ('A' for Active; 'I' for Inactive)
ROOT
ATOM      1  C2' OXE d   1      -0.757   0.867   1.871  0.00  0.00     0.078 C 
ATOM      2  C1' OXE d   1       0.288  -0.895  -0.049  0.00  0.00     0.078 C 
ATOM      3  C1  OXE d   1       1.073   0.355   0.259  0.00  0.00    -0.078 A 
ATOM      4  C2  OXE d   1       0.531   1.235   1.166  0.00  0.00    -0.078 A 
ATOM      5  C3  OXE d   1       1.240   2.377   1.527  0.00  0.00     0.003 A 
ATOM      6  C4  OXE d   1       2.425   2.715   0.863  0.00  0.00    -0.002 A 
ATOM      7  C5  OXE d   1       2.974   1.852  -0.093  0.00  0.00    -0.002 A 
ATOM      8  C6  OXE d   1       2.334   0.651  -0.374  0.00  0.00     0.003 A 
ENDROOT
TORSDOF 0
ENDMDL
