MODEL 1
REMARK minimizedAffinity -0.606029928
REMARK minimizedRMSD -1
REMARK  0 active torsions:
REMARK  status: ('A' for Active; 'I' for Inactive)
ROOT
ATOM      1  C2' OXE d   1      -1.147  -0.761  -0.737  0.00  0.00     0.078 C 
ATOM      2  C1' OXE d   1      -2.013  -0.074   1.844  0.00  0.00     0.078 C 
ATOM      3  C1  OXE d   1      -0.799   0.634   1.298  0.00  0.00    -0.078 A 
ATOM      4  C2  OXE d   1      -0.354   0.258   0.053  0.00  0.00    -0.078 A 
ATOM      5  C3  OXE d   1       0.729   0.918  -0.520  0.00  0.00     0.003 A 
ATOM      6  C4  OXE d   1       1.463   1.852   0.220  0.00  0.00    -0.002 A 
ATOM      7  C5  OXE d   1       1.051   2.221   1.505  0.00  0.00    -0.002 A 
ATOM      8  C6  OXE d   1      -0.100   1.653   2.041  0.00  0.00     0.003 A 
ENDROOT
TORSDOF 0
ENDMDL
