MODEL 1
REMARK minimizedAffinity -5.11721945
REMARK minimizedRMSD -1
REMARK  0 active torsions:
REMARK  status: ('A' for Active; 'I' for Inactive)
ROOT
ATOM      1  C2' OXE d   1      -1.221   0.943   1.200  0.00  0.00     0.078 C 
ATOM      2  C1' OXE d   1       0.053  -1.032  -0.334  0.00  0.00     0.078 C 
ATOM      3  C1  OXE d   1       0.893   0.110   0.180  0.00  0.00    -0.078 A 
ATOM      4  C2  OXE d   1       0.252   1.096   0.891  0.00  0.00    -0.078 A 
ATOM      5  C3  OXE d   1       0.990   2.144   1.435  0.00  0.00     0.003 A 
ATOM      6  C4  OXE d   1       2.350   2.283   1.136  0.00  0.00    -0.002 A 
ATOM      7  C5  OXE d   1       3.015   1.311   0.381  0.00  0.00    -0.002 A 
ATOM      8  C6  OXE d   1       2.311   0.198  -0.068  0.00  0.00     0.003 A 
ENDROOT
TORSDOF 0
ENDMDL
