MODEL 1
REMARK minimizedAffinity -5.51021147
REMARK minimizedRMSD -1
REMARK  0 active torsions:
REMARK  status: ('A' for Active; 'I' for Inactive)
ROOT
ATOM      1  C2' OXE d   1      -0.083  -0.901  -0.224  0.00  0.00     0.078 C 
ATOM      2  C1' OXE d   1      -1.599   1.121   0.999  0.00  0.00     0.078 C 
ATOM      3  C1  OXE d   1      -0.114   1.343   0.859  0.00  0.00    -0.078 A 
ATOM      4  C2  OXE d   1       0.627   0.328   0.302  0.00  0.00    -0.078 A 
ATOM      5  C3  OXE d   1       1.993   0.503   0.099  0.00  0.00     0.003 A 
ATOM      6  C4  OXE d   1       2.644   1.639   0.598  0.00  0.00    -0.002 A 
ATOM      7  C5  OXE d   1       1.914   2.666   1.204  0.00  0.00    -0.002 A 
ATOM      8  C6  OXE d   1       0.531   2.553   1.305  0.00  0.00     0.003 A 
ENDROOT
TORSDOF 0
ENDMDL
