MODEL 1
REMARK minimizedAffinity -3.29491019
REMARK minimizedRMSD -1
REMARK  0 active torsions:
REMARK  status: ('A' for Active; 'I' for Inactive)
ROOT
ATOM      1  C2' OXE d   1       1.809   2.796   1.642  0.00  0.00     0.078 C 
ATOM      2  C1' OXE d   1       3.378   1.307  -0.147  0.00  0.00     0.078 C 
ATOM      3  C1  OXE d   1       1.972   0.832   0.118  0.00  0.00    -0.078 A 
ATOM      4  C2  OXE d   1       1.227   1.540   1.030  0.00  0.00    -0.078 A 
ATOM      5  C3  OXE d   1      -0.096   1.177   1.270  0.00  0.00     0.003 A 
ATOM      6  C4  OXE d   1      -0.623   0.008   0.708  0.00  0.00    -0.002 A 
ATOM      7  C5  OXE d   1       0.132  -0.750  -0.193  0.00  0.00    -0.002 A 
ATOM      8  C6  OXE d   1       1.414  -0.329  -0.531  0.00  0.00     0.003 A 
ENDROOT
TORSDOF 0
ENDMDL
