MODEL 1
REMARK minimizedAffinity -3.79846311
REMARK minimizedRMSD -1
REMARK  0 active torsions:
REMARK  status: ('A' for Active; 'I' for Inactive)
ROOT
ATOM      1  C2' OXE d   1      -1.145  -0.199  -0.558  0.00  0.00     0.078 C 
ATOM      2  C1' OXE d   1      -1.452  -0.255   2.231  0.00  0.00     0.078 C 
ATOM      3  C1  OXE d   1      -0.354   0.608   1.661  0.00  0.00    -0.078 A 
ATOM      4  C2  OXE d   1      -0.182   0.593   0.298  0.00  0.00    -0.078 A 
ATOM      5  C3  OXE d   1       0.780   1.414  -0.284  0.00  0.00     0.003 A 
ATOM      6  C4  OXE d   1       1.674   2.136   0.516  0.00  0.00    -0.002 A 
ATOM      7  C5  OXE d   1       1.541   2.134   1.909  0.00  0.00    -0.002 A 
ATOM      8  C6  OXE d   1       0.508   1.411   2.494  0.00  0.00     0.003 A 
ENDROOT
TORSDOF 0
ENDMDL
