MODEL 1
REMARK minimizedAffinity -2.64835095
REMARK minimizedRMSD -1
REMARK  0 active torsions:
REMARK  status: ('A' for Active; 'I' for Inactive)
ROOT
ATOM      1  C2' OXE d   1      -1.646   0.892   1.190  0.00  0.00     0.078 C 
ATOM      2  C1' OXE d   1      -0.055  -0.617  -0.562  0.00  0.00     0.078 C 
ATOM      3  C1  OXE d   1       0.613   0.484   0.223  0.00  0.00    -0.078 A 
ATOM      4  C2  OXE d   1      -0.182   1.248   1.043  0.00  0.00    -0.078 A 
ATOM      5  C3  OXE d   1       0.393   2.241   1.830  0.00  0.00     0.003 A 
ATOM      6  C4  OXE d   1       1.746   2.570   1.681  0.00  0.00    -0.002 A 
ATOM      7  C5  OXE d   1       2.566   1.830   0.821  0.00  0.00    -0.002 A 
ATOM      8  C6  OXE d   1       2.025   0.759   0.119  0.00  0.00     0.003 A 
ENDROOT
TORSDOF 0
ENDMDL
