MODEL 1
REMARK minimizedAffinity -4.22725153
REMARK minimizedRMSD -1
REMARK  0 active torsions:
REMARK  status: ('A' for Active; 'I' for Inactive)
ROOT
ATOM      1  C2' OXE d   1       0.188  -0.954  -0.453  0.00  0.00     0.078 C 
ATOM      2  C1' OXE d   1      -1.455   0.548   1.257  0.00  0.00     0.078 C 
ATOM      3  C1  OXE d   1      -0.036   1.017   1.054  0.00  0.00    -0.078 A 
ATOM      4  C2  OXE d   1       0.774   0.250   0.252  0.00  0.00    -0.078 A 
ATOM      5  C3  OXE d   1       2.076   0.667  -0.012  0.00  0.00     0.003 A 
ATOM      6  C4  OXE d   1       2.614   1.776   0.652  0.00  0.00    -0.002 A 
ATOM      7  C5  OXE d   1       1.817   2.549   1.503  0.00  0.00    -0.002 A 
ATOM      8  C6  OXE d   1       0.480   2.208   1.681  0.00  0.00     0.003 A 
ENDROOT
TORSDOF 0
ENDMDL
