MODEL 1
REMARK minimizedAffinity -4.78911591
REMARK minimizedRMSD -1
REMARK  0 active torsions:
REMARK  status: ('A' for Active; 'I' for Inactive)
ROOT
ATOM      1  C2' OXE d   1      -1.336   0.317   1.905  0.00  0.00     0.078 C 
ATOM      2  C1' OXE d   1      -0.394  -0.766  -0.508  0.00  0.00     0.078 C 
ATOM      3  C1  OXE d   1       0.414   0.336   0.131  0.00  0.00    -0.078 A 
ATOM      4  C2  OXE d   1      -0.079   0.892   1.287  0.00  0.00    -0.078 A 
ATOM      5  C3  OXE d   1       0.654   1.874   1.947  0.00  0.00     0.003 A 
ATOM      6  C4  OXE d   1       1.810   2.407   1.364  0.00  0.00    -0.002 A 
ATOM      7  C5  OXE d   1       2.308   1.882   0.167  0.00  0.00    -0.002 A 
ATOM      8  C6  OXE d   1       1.647   0.820  -0.439  0.00  0.00     0.003 A 
ENDROOT
TORSDOF 0
ENDMDL
