MODEL 1
REMARK minimizedAffinity -4.40627956
REMARK minimizedRMSD -1
REMARK  0 active torsions:
REMARK  status: ('A' for Active; 'I' for Inactive)
ROOT
ATOM      1  C2' OXE d   1      -1.415   0.206   2.020  0.00  0.00     0.078 C 
ATOM      2  C1' OXE d   1      -0.520  -1.067  -0.316  0.00  0.00     0.078 C 
ATOM      3  C1  OXE d   1       0.198   0.185   0.121  0.00  0.00    -0.078 A 
ATOM      4  C2  OXE d   1      -0.277   0.828   1.240  0.00  0.00    -0.078 A 
ATOM      5  C3  OXE d   1       0.382   1.957   1.718  0.00  0.00     0.003 A 
ATOM      6  C4  OXE d   1       1.428   2.531   0.985  0.00  0.00    -0.002 A 
ATOM      7  C5  OXE d   1       1.901   1.915  -0.179  0.00  0.00    -0.002 A 
ATOM      8  C6  OXE d   1       1.326   0.721  -0.600  0.00  0.00     0.003 A 
ENDROOT
TORSDOF 0
ENDMDL
