MODEL 1
REMARK minimizedAffinity -6.23167562
REMARK minimizedRMSD -1
REMARK  0 active torsions:
REMARK  status: ('A' for Active; 'I' for Inactive)
ROOT
ATOM      1  C2' OXE d   1       0.088  -0.396  -0.179  0.00  0.00     0.078 C 
ATOM      2  C1' OXE d   1      -0.783   1.740   1.420  0.00  0.00     0.078 C 
ATOM      3  C1  OXE d   1       0.668   1.716   1.007  0.00  0.00    -0.078 A 
ATOM      4  C2  OXE d   1       1.095   0.642   0.264  0.00  0.00    -0.078 A 
ATOM      5  C3  OXE d   1       2.411   0.598  -0.189  0.00  0.00     0.003 A 
ATOM      6  C4  OXE d   1       3.339   1.557   0.233  0.00  0.00    -0.002 A 
ATOM      7  C5  OXE d   1       2.933   2.638   1.023  0.00  0.00    -0.002 A 
ATOM      8  C6  OXE d   1       1.595   2.754   1.383  0.00  0.00     0.003 A 
ENDROOT
TORSDOF 0
ENDMDL
