MODEL 1
REMARK minimizedAffinity -4.8625555
REMARK minimizedRMSD -1
REMARK  0 active torsions:
REMARK  status: ('A' for Active; 'I' for Inactive)
ROOT
ATOM      1  C2' OXE d   1      -0.289  -1.107  -0.582  0.00  0.00     0.078 C 
ATOM      2  C1' OXE d   1      -1.874   0.144   1.369  0.00  0.00     0.078 C 
ATOM      3  C1  OXE d   1      -0.512   0.728   1.088  0.00  0.00    -0.078 A 
ATOM      4  C2  OXE d   1       0.276   0.082   0.166  0.00  0.00    -0.078 A 
ATOM      5  C3  OXE d   1       1.519   0.611  -0.170  0.00  0.00     0.003 A 
ATOM      6  C4  OXE d   1       2.037   1.705   0.533  0.00  0.00    -0.002 A 
ATOM      7  C5  OXE d   1       1.268   2.354   1.504  0.00  0.00    -0.002 A 
ATOM      8  C6  OXE d   1      -0.023   1.905   1.763  0.00  0.00     0.003 A 
ENDROOT
TORSDOF 0
ENDMDL
