MODEL 1
REMARK minimizedAffinity -4.84479284
REMARK minimizedRMSD -1
REMARK  0 active torsions:
REMARK  status: ('A' for Active; 'I' for Inactive)
ROOT
ATOM      1  C2' OXE d   1      -1.305   1.102   1.340  0.00  0.00     0.078 C 
ATOM      2  C1' OXE d   1      -0.280  -1.086  -0.088  0.00  0.00     0.078 C 
ATOM      3  C1  OXE d   1       0.666   0.040   0.248  0.00  0.00    -0.078 A 
ATOM      4  C2  OXE d   1       0.145   1.128   0.907  0.00  0.00    -0.078 A 
ATOM      5  C3  OXE d   1       0.985   2.169   1.289  0.00  0.00     0.003 A 
ATOM      6  C4  OXE d   1       2.323   2.190   0.876  0.00  0.00    -0.002 A 
ATOM      7  C5  OXE d   1       2.864   1.110   0.171  0.00  0.00    -0.002 A 
ATOM      8  C6  OXE d   1       2.062   0.010  -0.114  0.00  0.00     0.003 A 
ENDROOT
TORSDOF 0
ENDMDL
