MODEL 1
REMARK minimizedAffinity -4.04899645
REMARK minimizedRMSD -1
REMARK  0 active torsions:
REMARK  status: ('A' for Active; 'I' for Inactive)
ROOT
ATOM      1  C2' OXE d   1       3.189   1.295  -0.354  0.00  0.00     0.078 C 
ATOM      2  C1' OXE d   1       1.510   2.932   1.190  0.00  0.00     0.078 C 
ATOM      3  C1  OXE d   1       0.948   1.627   0.683  0.00  0.00    -0.078 A 
ATOM      4  C2  OXE d   1       1.761   0.854  -0.110  0.00  0.00    -0.078 A 
ATOM      5  C3  OXE d   1       1.312  -0.385  -0.559  0.00  0.00     0.003 A 
ATOM      6  C4  OXE d   1      -0.013  -0.781  -0.337  0.00  0.00    -0.002 A 
ATOM      7  C5  OXE d   1      -0.870   0.010   0.435  0.00  0.00    -0.002 A 
ATOM      8  C6  OXE d   1      -0.394   1.194   0.987  0.00  0.00     0.003 A 
ENDROOT
TORSDOF 0
ENDMDL
