MODEL 1
REMARK minimizedAffinity -0.0566501655
REMARK minimizedRMSD -1
REMARK  0 active torsions:
REMARK  status: ('A' for Active; 'I' for Inactive)
ROOT
ATOM      1  C2' OXE d   1      -3.734  -2.109  -3.905  0.00  0.00     0.078 C 
ATOM      2  C1' OXE d   1      -3.794  -3.093  -1.277  0.00  0.00     0.078 C 
ATOM      3  C1  OXE d   1      -2.585  -2.298  -1.703  0.00  0.00    -0.078 A 
ATOM      4  C2  OXE d   1      -2.543  -1.861  -3.005  0.00  0.00    -0.078 A 
ATOM      5  C3  OXE d   1      -1.476  -1.077  -3.435  0.00  0.00     0.003 A 
ATOM      6  C4  OXE d   1      -0.373  -0.861  -2.599  0.00  0.00    -0.002 A 
ATOM      7  C5  OXE d   1      -0.378  -1.331  -1.281  0.00  0.00    -0.002 A 
ATOM      8  C6  OXE d   1      -1.492  -2.014  -0.806  0.00  0.00     0.003 A 
ENDROOT
TORSDOF 0
ENDMDL
