MODEL 1
REMARK minimizedAffinity -5.39822006
REMARK minimizedRMSD -1
REMARK  0 active torsions:
REMARK  status: ('A' for Active; 'I' for Inactive)
ROOT
ATOM      1  C2' OXE d   1       1.072  -1.129  -0.757  0.00  0.00     0.078 C 
ATOM      2  C1' OXE d   1       3.114   0.768  -0.424  0.00  0.00     0.078 C 
ATOM      3  C1  OXE d   1       1.772   1.063   0.198  0.00  0.00    -0.078 A 
ATOM      4  C2  OXE d   1       0.765   0.151  -0.009  0.00  0.00    -0.078 A 
ATOM      5  C3  OXE d   1      -0.476   0.347   0.588  0.00  0.00     0.003 A 
ATOM      6  C4  OXE d   1      -0.755   1.538   1.270  0.00  0.00    -0.002 A 
ATOM      7  C5  OXE d   1       0.245   2.498   1.459  0.00  0.00    -0.002 A 
ATOM      8  C6  OXE d   1       1.523   2.257   0.967  0.00  0.00     0.003 A 
ENDROOT
TORSDOF 0
ENDMDL
