MODEL 1
REMARK minimizedAffinity -6.05726719
REMARK minimizedRMSD -1
REMARK  0 active torsions:
REMARK  status: ('A' for Active; 'I' for Inactive)
ROOT
ATOM      1  C2' OXE d   1      -1.075   0.794   1.727  0.00  0.00     0.078 C 
ATOM      2  C1' OXE d   1       0.286  -0.932  -0.020  0.00  0.00     0.078 C 
ATOM      3  C1  OXE d   1       0.979   0.342   0.392  0.00  0.00    -0.078 A 
ATOM      4  C2  OXE d   1       0.288   1.203   1.210  0.00  0.00    -0.078 A 
ATOM      5  C3  OXE d   1       0.902   2.366   1.663  0.00  0.00     0.003 A 
ATOM      6  C4  OXE d   1       2.158   2.742   1.172  0.00  0.00    -0.002 A 
ATOM      7  C5  OXE d   1       2.864   1.899   0.307  0.00  0.00    -0.002 A 
ATOM      8  C6  OXE d   1       2.308   0.678  -0.058  0.00  0.00     0.003 A 
ENDROOT
TORSDOF 0
ENDMDL
