MODEL 1
REMARK minimizedAffinity -1.30439031
REMARK minimizedRMSD -1
REMARK  0 active torsions:
REMARK  status: ('A' for Active; 'I' for Inactive)
ROOT
ATOM      1  C4' PXY d   1      -3.528   1.079   0.655  0.00  0.00     0.077 C 
ATOM      2  C1' PXY d   1       2.036  -0.487   0.631  0.00  0.00     0.077 C 
ATOM      3  C1  PXY d   1       0.579  -0.068   0.627  0.00  0.00    -0.082 A 
ATOM      4  C2  PXY d   1      -0.132  -0.165   1.739  0.00  0.00     0.003 A 
ATOM      5  C3  PXY d   1      -1.459   0.179   1.745  0.00  0.00     0.003 A 
ATOM      6  C4  PXY d   1      -2.051   0.677   0.615  0.00  0.00    -0.082 A 
ATOM      7  C5  PXY d   1      -1.329   0.789  -0.520  0.00  0.00     0.003 A 
ATOM      8  C6  PXY d   1       0.006   0.396  -0.516  0.00  0.00     0.003 A 
ENDROOT
TORSDOF 0
ENDMDL
