MODEL 1
REMARK minimizedAffinity -4.54605532
REMARK minimizedRMSD -1
REMARK  0 active torsions:
REMARK  status: ('A' for Active; 'I' for Inactive)
ROOT
ATOM      1  C4' PXY d   1      -0.248  -2.670  -1.436  0.00  0.00     0.077 C 
ATOM      2  C1' PXY d   1       2.167   1.497   1.760  0.00  0.00     0.077 C 
ATOM      3  C1  PXY d   1       1.522   0.409   0.925  0.00  0.00    -0.082 A 
ATOM      4  C2  PXY d   1       2.157  -0.737   0.740  0.00  0.00     0.003 A 
ATOM      5  C3  PXY d   1       1.602  -1.719  -0.040  0.00  0.00     0.003 A 
ATOM      6  C4  PXY d   1       0.361  -1.547  -0.592  0.00  0.00    -0.082 A 
ATOM      7  C5  PXY d   1      -0.298  -0.385  -0.399  0.00  0.00     0.003 A 
ATOM      8  C6  PXY d   1       0.301   0.616   0.361  0.00  0.00     0.003 A 
ENDROOT
TORSDOF 0
ENDMDL
