MODEL 1
REMARK minimizedAffinity -2.02524614
REMARK minimizedRMSD -1
REMARK  0 active torsions:
REMARK  status: ('A' for Active; 'I' for Inactive)
ROOT
ATOM      1  C4' PXY d   1      -1.747   1.052  -1.267  0.00  0.00     0.077 C 
ATOM      2  C1' PXY d   1       2.711  -1.557   1.328  0.00  0.00     0.077 C 
ATOM      3  C1  PXY d   1       1.542  -0.864   0.657  0.00  0.00    -0.082 A 
ATOM      4  C2  PXY d   1       0.785  -1.536  -0.196  0.00  0.00     0.003 A 
ATOM      5  C3  PXY d   1      -0.257  -0.916  -0.835  0.00  0.00     0.003 A 
ATOM      6  C4  PXY d   1      -0.561   0.391  -0.559  0.00  0.00    -0.082 A 
ATOM      7  C5  PXY d   1       0.200   1.079   0.318  0.00  0.00     0.003 A 
ATOM      8  C6  PXY d   1       1.278   0.443   0.925  0.00  0.00     0.003 A 
ENDROOT
TORSDOF 0
ENDMDL
