MODEL 1
REMARK minimizedAffinity -3.46523094
REMARK minimizedRMSD -1
REMARK  0 active torsions:
REMARK  status: ('A' for Active; 'I' for Inactive)
ROOT
ATOM      1  C4' PXY d   1      -2.788   1.445   1.101  0.00  0.00     0.077 C 
ATOM      2  C1' PXY d   1       1.964  -1.711   0.167  0.00  0.00     0.077 C 
ATOM      3  C1  PXY d   1       0.721  -0.876   0.402  0.00  0.00    -0.082 A 
ATOM      4  C2  PXY d   1       0.173  -0.843   1.605  0.00  0.00     0.003 A 
ATOM      5  C3  PXY d   1      -0.970  -0.118   1.828  0.00  0.00     0.003 A 
ATOM      6  C4  PXY d   1      -1.527   0.623   0.820  0.00  0.00    -0.082 A 
ATOM      7  C5  PXY d   1      -0.967   0.603  -0.408  0.00  0.00     0.003 A 
ATOM      8  C6  PXY d   1       0.169  -0.172  -0.623  0.00  0.00     0.003 A 
ENDROOT
TORSDOF 0
ENDMDL
