MODEL 1
REMARK minimizedAffinity -3.80136847
REMARK minimizedRMSD -1
REMARK  0 active torsions:
REMARK  status: ('A' for Active; 'I' for Inactive)
ROOT
ATOM      1  C4' PXY d   1      -1.879  -0.024  -0.674  0.00  0.00     0.077 C 
ATOM      2  C1' PXY d   1       3.622  -1.211   0.643  0.00  0.00     0.077 C 
ATOM      3  C1  PXY d   1       2.179  -0.911   0.291  0.00  0.00    -0.082 A 
ATOM      4  C2  PXY d   1       1.748   0.340   0.307  0.00  0.00     0.003 A 
ATOM      5  C3  PXY d   1       0.438   0.626   0.022  0.00  0.00     0.003 A 
ATOM      6  C4  PXY d   1      -0.428  -0.373  -0.335  0.00  0.00    -0.082 A 
ATOM      7  C5  PXY d   1       0.007  -1.650  -0.364  0.00  0.00     0.003 A 
ATOM      8  C6  PXY d   1       1.330  -1.924  -0.031  0.00  0.00     0.003 A 
ENDROOT
TORSDOF 0
ENDMDL
