MODEL 1
REMARK minimizedAffinity -4.12619495
REMARK minimizedRMSD -1
REMARK  0 active torsions:
REMARK  status: ('A' for Active; 'I' for Inactive)
ROOT
ATOM      1  C4' PXY d   1       1.537  -1.440  -0.474  0.00  0.00     0.077 C 
ATOM      2  C1' PXY d   1      -3.806   0.520   0.538  0.00  0.00     0.077 C 
ATOM      3  C1  PXY d   1      -2.405   0.012   0.261  0.00  0.00    -0.082 A 
ATOM      4  C2  PXY d   1      -1.966  -1.070   0.884  0.00  0.00     0.003 A 
ATOM      5  C3  PXY d   1      -0.691  -1.525   0.669  0.00  0.00     0.003 A 
ATOM      6  C4  PXY d   1       0.126  -0.897  -0.232  0.00  0.00    -0.082 A 
ATOM      7  C5  PXY d   1      -0.318   0.201  -0.880  0.00  0.00     0.003 A 
ATOM      8  C6  PXY d   1      -1.602   0.671  -0.618  0.00  0.00     0.003 A 
ENDROOT
TORSDOF 0
ENDMDL
