MODEL 1
REMARK minimizedAffinity -5.47941113
REMARK minimizedRMSD -1
REMARK  0 active torsions:
REMARK  status: ('A' for Active; 'I' for Inactive)
ROOT
ATOM      1  C4' PXY d   1      -1.145   1.137  -0.755  0.00  0.00     0.077 C 
ATOM      2  C1' PXY d   1       3.690  -1.428   1.105  0.00  0.00     0.077 C 
ATOM      3  C1  PXY d   1       2.419  -0.766   0.610  0.00  0.00    -0.082 A 
ATOM      4  C2  PXY d   1       2.345   0.554   0.564  0.00  0.00     0.003 A 
ATOM      5  C3  PXY d   1       1.192   1.170   0.149  0.00  0.00     0.003 A 
ATOM      6  C4  PXY d   1       0.122   0.425  -0.272  0.00  0.00    -0.082 A 
ATOM      7  C5  PXY d   1       0.194  -0.922  -0.237  0.00  0.00     0.003 A 
ATOM      8  C6  PXY d   1       1.359  -1.527   0.226  0.00  0.00     0.003 A 
ENDROOT
TORSDOF 0
ENDMDL
