MODEL 1
REMARK minimizedAffinity -4.54369497
REMARK minimizedRMSD -1
REMARK  0 active torsions:
REMARK  status: ('A' for Active; 'I' for Inactive)
ROOT
ATOM      1  C4' PXY d   1       4.005   1.516  -0.049  0.00  0.00     0.077 C 
ATOM      2  C1' PXY d   1      -0.369  -2.262  -0.092  0.00  0.00     0.077 C 
ATOM      3  C1  PXY d   1       0.786  -1.280  -0.076  0.00  0.00    -0.082 A 
ATOM      4  C2  PXY d   1       0.540   0.019  -0.024  0.00  0.00     0.003 A 
ATOM      5  C3  PXY d   1       1.572   0.921  -0.041  0.00  0.00     0.003 A 
ATOM      6  C4  PXY d   1       2.871   0.489  -0.057  0.00  0.00    -0.082 A 
ATOM      7  C5  PXY d   1       3.130  -0.835  -0.100  0.00  0.00     0.003 A 
ATOM      8  C6  PXY d   1       2.068  -1.734  -0.123  0.00  0.00     0.003 A 
ENDROOT
TORSDOF 0
ENDMDL
