MODEL 1
REMARK minimizedAffinity -2.64198017
REMARK minimizedRMSD -1
REMARK  0 active torsions:
REMARK  status: ('A' for Active; 'I' for Inactive)
ROOT
ATOM      1  C4' PXY d   1       2.793  -1.501   0.000  0.00  0.00     0.077 C 
ATOM      2  C1' PXY d   1      -2.349   1.125  -0.282  0.00  0.00     0.077 C 
ATOM      3  C1  PXY d   1      -1.006   0.425  -0.209  0.00  0.00    -0.082 A 
ATOM      4  C2  PXY d   1       0.016   1.029   0.375  0.00  0.00     0.003 A 
ATOM      5  C3  PXY d   1       1.245   0.424   0.421  0.00  0.00     0.003 A 
ATOM      6  C4  PXY d   1       1.417  -0.835  -0.088  0.00  0.00    -0.082 A 
ATOM      7  C5  PXY d   1       0.377  -1.463  -0.676  0.00  0.00     0.003 A 
ATOM      8  C6  PXY d   1      -0.853  -0.814  -0.750  0.00  0.00     0.003 A 
ENDROOT
TORSDOF 0
ENDMDL
