MODEL 1
REMARK minimizedAffinity -4.53162146
REMARK minimizedRMSD -1
REMARK  0 active torsions:
REMARK  status: ('A' for Active; 'I' for Inactive)
ROOT
ATOM      1  C4' PXY d   1      -2.549   0.672   0.547  0.00  0.00     0.077 C 
ATOM      2  C1' PXY d   1       2.660  -1.434  -0.812  0.00  0.00     0.077 C 
ATOM      3  C1  PXY d   1       1.289  -0.894  -0.455  0.00  0.00    -0.082 A 
ATOM      4  C2  PXY d   1       0.966   0.344  -0.792  0.00  0.00     0.003 A 
ATOM      5  C3  PXY d   1      -0.257   0.859  -0.449  0.00  0.00     0.003 A 
ATOM      6  C4  PXY d   1      -1.179   0.082   0.199  0.00  0.00    -0.082 A 
ATOM      7  C5  PXY d   1      -0.861  -1.186   0.537  0.00  0.00     0.003 A 
ATOM      8  C6  PXY d   1       0.401  -1.677   0.216  0.00  0.00     0.003 A 
ENDROOT
TORSDOF 0
ENDMDL
