MODEL 1
REMARK minimizedAffinity -5.34209824
REMARK minimizedRMSD -1
REMARK  0 active torsions:
REMARK  status: ('A' for Active; 'I' for Inactive)
ROOT
ATOM      1  C4' PXY d   1      -2.354   0.678  -0.402  0.00  0.00     0.077 C 
ATOM      2  C1' PXY d   1       2.822  -1.722   0.531  0.00  0.00     0.077 C 
ATOM      3  C1  PXY d   1       1.463  -1.101   0.276  0.00  0.00    -0.082 A 
ATOM      4  C2  PXY d   1       1.198   0.108   0.745  0.00  0.00     0.003 A 
ATOM      5  C3  PXY d   1      -0.037   0.672   0.551  0.00  0.00     0.003 A 
ATOM      6  C4  PXY d   1      -0.992   0.015  -0.177  0.00  0.00    -0.082 A 
ATOM      7  C5  PXY d   1      -0.726  -1.214  -0.669  0.00  0.00     0.003 A 
ATOM      8  C6  PXY d   1       0.519  -1.786  -0.425  0.00  0.00     0.003 A 
ENDROOT
TORSDOF 0
ENDMDL
