MODEL 1
REMARK minimizedAffinity -3.9149158
REMARK minimizedRMSD -1
REMARK  0 active torsions:
REMARK  status: ('A' for Active; 'I' for Inactive)
ROOT
ATOM      1  C4' PXY d   1       0.909  -0.275   0.135  0.00  0.00     0.077 C 
ATOM      2  C1' PXY d   1      -4.589   1.379   0.803  0.00  0.00     0.077 C 
ATOM      3  C1  PXY d   1      -3.149   0.944   0.615  0.00  0.00    -0.082 A 
ATOM      4  C2  PXY d   1      -2.478   0.444   1.640  0.00  0.00     0.003 A 
ATOM      5  C3  PXY d   1      -1.165   0.075   1.495  0.00  0.00     0.003 A 
ATOM      6  C4  PXY d   1      -0.549   0.169   0.276  0.00  0.00    -0.082 A 
ATOM      7  C5  PXY d   1      -1.231   0.668  -0.777  0.00  0.00     0.003 A 
ATOM      8  C6  PXY d   1      -2.550   1.075  -0.599  0.00  0.00     0.003 A 
ENDROOT
TORSDOF 0
ENDMDL
