MODEL 1
REMARK minimizedAffinity -3.59450316
REMARK minimizedRMSD -1
REMARK  0 active torsions:
REMARK  status: ('A' for Active; 'I' for Inactive)
ROOT
ATOM      1  C4' PXY d   1       3.138  -1.085   0.749  0.00  0.00     0.077 C 
ATOM      2  C1' PXY d   1      -2.014   1.410  -0.059  0.00  0.00     0.077 C 
ATOM      3  C1  PXY d   1      -0.657   0.767   0.153  0.00  0.00    -0.082 A 
ATOM      4  C2  PXY d   1      -0.464  -0.490  -0.212  0.00  0.00     0.003 A 
ATOM      5  C3  PXY d   1       0.747  -1.096   0.001  0.00  0.00     0.003 A 
ATOM      6  C4  PXY d   1       1.788  -0.392   0.546  0.00  0.00    -0.082 A 
ATOM      7  C5  PXY d   1       1.602   0.894   0.911  0.00  0.00     0.003 A 
ATOM      8  C6  PXY d   1       0.353   1.478   0.724  0.00  0.00     0.003 A 
ENDROOT
TORSDOF 0
ENDMDL
