MODEL 1
REMARK minimizedAffinity -1.906739
REMARK minimizedRMSD -1
REMARK  0 active torsions:
REMARK  status: ('A' for Active; 'I' for Inactive)
ROOT
ATOM      1  C4' PXY d   1       1.702  -0.627  -0.016  0.00  0.00     0.077 C 
ATOM      2  C1' PXY d   1      -3.667   0.963   1.420  0.00  0.00     0.077 C 
ATOM      3  C1  PXY d   1      -2.261   0.549   1.031  0.00  0.00    -0.082 A 
ATOM      4  C2  PXY d   1      -1.623  -0.359   1.751  0.00  0.00     0.003 A 
ATOM      5  C3  PXY d   1      -0.340  -0.721   1.433  0.00  0.00     0.003 A 
ATOM      6  C4  PXY d   1       0.278  -0.187   0.334  0.00  0.00    -0.082 A 
ATOM      7  C5  PXY d   1      -0.370   0.733  -0.413  0.00  0.00     0.003 A 
ATOM      8  C6  PXY d   1      -1.657   1.117  -0.048  0.00  0.00     0.003 A 
ENDROOT
TORSDOF 0
ENDMDL
