MODEL 1
REMARK minimizedAffinity 14.7803478
REMARK minimizedRMSD -1
REMARK  2 active torsions:
REMARK  status: ('A' for Active; 'I' for Inactive)
REMARK    1  A    between atoms: C2'_3  and  C1'_4 
REMARK    2  A    between atoms: C1'_4  and  C1_5 
ROOT
ATOM      1  C1  I4B d   1       3.360   2.147   1.812  0.00  0.00    -0.075 A 
ATOM      2  C2  I4B d   1       2.416   1.845   2.762  0.00  0.00     0.003 A 
ATOM      3  C3  I4B d   1       1.065   2.222   2.570  0.00  0.00     0.002 A 
ATOM      4  C4  I4B d   1       0.713   2.940   1.445  0.00  0.00    -0.004 A 
ATOM      5  C5  I4B d   1       1.667   3.226   0.472  0.00  0.00     0.002 A 
ATOM      6  C6  I4B d   1       2.996   2.816   0.650  0.00  0.00     0.003 A 
ENDROOT
BRANCH   1   7
ATOM      7  C1' I4B d   1       4.784   1.762   2.062  0.00  0.00     0.060 C 
BRANCH   7   8
ATOM      8  C2' I4B d   1       5.178   2.293   3.425  0.00  0.00    -0.013 C 
ATOM      9  C4' I4B d   1       5.997   1.285   4.187  0.00  0.00     0.013 C 
ATOM     10  C3' I4B d   1       5.940   3.569   3.223  0.00  0.00     0.013 C 
ENDBRANCH   7   8
ENDBRANCH   1   7
TORSDOF 2
ENDMDL
