MODEL 1
REMARK minimizedAffinity 8.28529739
REMARK minimizedRMSD -1
REMARK  2 active torsions:
REMARK  status: ('A' for Active; 'I' for Inactive)
REMARK    1  A    between atoms: C2'_3  and  C1'_4 
REMARK    2  A    between atoms: C1'_4  and  C1_5 
ROOT
ATOM      1  C1  I4B d   1       1.517   2.168  -0.016  0.00  0.00    -0.075 A 
ATOM      2  C2  I4B d   1       1.991   1.548   1.113  0.00  0.00     0.003 A 
ATOM      3  C3  I4B d   1       2.843   2.244   2.004  0.00  0.00     0.002 A 
ATOM      4  C4  I4B d   1       3.233   3.533   1.704  0.00  0.00    -0.004 A 
ATOM      5  C5  I4B d   1       2.732   4.168   0.571  0.00  0.00     0.002 A 
ATOM      6  C6  I4B d   1       1.859   3.486  -0.288  0.00  0.00     0.003 A 
ENDROOT
BRANCH   1   7
ATOM      7  C1' I4B d   1       0.645   1.392  -0.952  0.00  0.00     0.060 C 
BRANCH   7   8
ATOM      8  C2' I4B d   1       1.544   0.560  -1.844  0.00  0.00    -0.013 C 
ATOM      9  C4' I4B d   1       1.073  -0.869  -1.911  0.00  0.00     0.013 C 
ATOM     10  C3' I4B d   1       1.556   1.190  -3.205  0.00  0.00     0.013 C 
ENDBRANCH   7   8
ENDBRANCH   1   7
TORSDOF 2
ENDMDL
