MODEL 1
REMARK minimizedAffinity 11.7152071
REMARK minimizedRMSD -1
REMARK  2 active torsions:
REMARK  status: ('A' for Active; 'I' for Inactive)
REMARK    1  A    between atoms: C2'_3  and  C1'_4 
REMARK    2  A    between atoms: C1'_4  and  C1_5 
ROOT
ATOM      1  C1  I4B d   1       1.872   1.309  -4.380  0.00  0.00    -0.075 A 
ATOM      2  C2  I4B d   1       1.213   2.151  -5.242  0.00  0.00     0.003 A 
ATOM      3  C3  I4B d   1       1.925   3.156  -5.941  0.00  0.00     0.002 A 
ATOM      4  C4  I4B d   1       3.277   3.315  -5.711  0.00  0.00    -0.004 A 
ATOM      5  C5  I4B d   1       3.947   2.446  -4.854  0.00  0.00     0.002 A 
ATOM      6  C6  I4B d   1       3.243   1.429  -4.194  0.00  0.00     0.003 A 
ENDROOT
BRANCH   1   7
ATOM      7  C1' I4B d   1       1.083   0.281  -3.634  0.00  0.00     0.060 C 
BRANCH   7   8
ATOM      8  C2' I4B d   1       1.398   0.430  -2.159  0.00  0.00    -0.013 C 
ATOM      9  C4' I4B d   1       0.248   1.055  -1.416  0.00  0.00     0.013 C 
ATOM     10  C3' I4B d   1       1.720  -0.930  -1.615  0.00  0.00     0.013 C 
ENDBRANCH   7   8
ENDBRANCH   1   7
TORSDOF 2
ENDMDL
