MODEL 1
REMARK minimizedAffinity 4.81525278
REMARK minimizedRMSD -1
REMARK  2 active torsions:
REMARK  status: ('A' for Active; 'I' for Inactive)
REMARK    1  A    between atoms: C2'_3  and  C1'_4 
REMARK    2  A    between atoms: C1'_4  and  C1_5 
ROOT
ATOM      1  C1  I4B d   1       4.979   0.897   3.868  0.00  0.00    -0.075 A 
ATOM      2  C2  I4B d   1       5.765   1.281   4.926  0.00  0.00     0.003 A 
ATOM      3  C3  I4B d   1       6.000   0.389   6.000  0.00  0.00     0.002 A 
ATOM      4  C4  I4B d   1       5.392  -0.850   5.999  0.00  0.00    -0.004 A 
ATOM      5  C5  I4B d   1       4.614  -1.246   4.915  0.00  0.00     0.002 A 
ATOM      6  C6  I4B d   1       4.416  -0.372   3.837  0.00  0.00     0.003 A 
ENDROOT
BRANCH   1   7
ATOM      7  C1' I4B d   1       4.725   1.877   2.766  0.00  0.00     0.060 C 
BRANCH   7   8
ATOM      8  C2' I4B d   1       4.141   3.132   3.383  0.00  0.00    -0.013 C 
ATOM      9  C4' I4B d   1       5.014   4.329   3.111  0.00  0.00     0.013 C 
ATOM     10  C3' I4B d   1       2.765   3.326   2.821  0.00  0.00     0.013 C 
ENDBRANCH   7   8
ENDBRANCH   1   7
TORSDOF 2
ENDMDL
