MODEL 1
REMARK minimizedAffinity 2.82367396
REMARK minimizedRMSD -1
REMARK  2 active torsions:
REMARK  status: ('A' for Active; 'I' for Inactive)
REMARK    1  A    between atoms: C2'_3  and  C1'_4 
REMARK    2  A    between atoms: C1'_4  and  C1_5 
ROOT
ATOM      1  C1  I4B d   1       1.469   1.833  -2.064  0.00  0.00    -0.075 A 
ATOM      2  C2  I4B d   1       2.021   1.996  -3.310  0.00  0.00     0.003 A 
ATOM      3  C3  I4B d   1       2.765   3.163  -3.613  0.00  0.00     0.002 A 
ATOM      4  C4  I4B d   1       2.888   4.156  -2.663  0.00  0.00    -0.004 A 
ATOM      5  C5  I4B d   1       2.347   3.978  -1.393  0.00  0.00     0.002 A 
ATOM      6  C6  I4B d   1       1.644   2.804  -1.087  0.00  0.00     0.003 A 
ENDROOT
BRANCH   1   7
ATOM      7  C1' I4B d   1       0.662   0.604  -1.789  0.00  0.00     0.060 C 
BRANCH   7   8
ATOM      8  C2' I4B d   1       1.596  -0.589  -1.841  0.00  0.00    -0.013 C 
ATOM      9  C4' I4B d   1       2.630  -0.520  -0.748  0.00  0.00     0.013 C 
ATOM     10  C3' I4B d   1       0.765  -1.832  -1.723  0.00  0.00     0.013 C 
ENDBRANCH   7   8
ENDBRANCH   1   7
TORSDOF 2
ENDMDL
