MODEL 1
REMARK minimizedAffinity 9.05467701
REMARK minimizedRMSD -1
REMARK  2 active torsions:
REMARK  status: ('A' for Active; 'I' for Inactive)
REMARK    1  A    between atoms: C2'_3  and  C1'_4 
REMARK    2  A    between atoms: C1'_4  and  C1_5 
ROOT
ATOM      1  C1  I4B d   1       0.536  -0.061  -0.819  0.00  0.00    -0.075 A 
ATOM      2  C2  I4B d   1       1.562  -0.729  -1.440  0.00  0.00     0.003 A 
ATOM      3  C3  I4B d   1       1.642  -2.140  -1.365  0.00  0.00     0.002 A 
ATOM      4  C4  I4B d   1       0.711  -2.835  -0.621  0.00  0.00    -0.004 A 
ATOM      5  C5  I4B d   1      -0.342  -2.158  -0.011  0.00  0.00     0.002 A 
ATOM      6  C6  I4B d   1      -0.437  -0.763  -0.121  0.00  0.00     0.003 A 
ENDROOT
BRANCH   1   7
ATOM      7  C1' I4B d   1       0.500   1.433  -0.892  0.00  0.00     0.060 C 
BRANCH   7   8
ATOM      8  C2' I4B d   1       1.007   1.977   0.428  0.00  0.00    -0.013 C 
ATOM      9  C4' I4B d   1       2.449   2.399   0.327  0.00  0.00     0.013 C 
ATOM     10  C3' I4B d   1       0.132   3.130   0.820  0.00  0.00     0.013 C 
ENDBRANCH   7   8
ENDBRANCH   1   7
TORSDOF 2
ENDMDL
