MODEL 1
REMARK minimizedAffinity 4.44997549
REMARK minimizedRMSD -1
REMARK  2 active torsions:
REMARK  status: ('A' for Active; 'I' for Inactive)
REMARK    1  A    between atoms: C2'_3  and  C1'_4 
REMARK    2  A    between atoms: C1'_4  and  C1_5 
ROOT
ATOM      1  C1  I4B d   1      -0.528  -2.497   0.028  0.00  0.00    -0.075 A 
ATOM      2  C2  I4B d   1      -1.536  -1.604   0.295  0.00  0.00     0.003 A 
ATOM      3  C3  I4B d   1      -1.378  -0.234  -0.026  0.00  0.00     0.002 A 
ATOM      4  C4  I4B d   1      -0.185   0.205  -0.562  0.00  0.00    -0.004 A 
ATOM      5  C5  I4B d   1       0.827  -0.705  -0.853  0.00  0.00     0.002 A 
ATOM      6  C6  I4B d   1       0.650  -2.066  -0.567  0.00  0.00     0.003 A 
ENDROOT
BRANCH   1   7
ATOM      7  C1' I4B d   1      -0.716  -3.931   0.410  0.00  0.00     0.060 C 
BRANCH   7   8
ATOM      8  C2' I4B d   1      -2.090  -4.363  -0.059  0.00  0.00    -0.013 C 
ATOM      9  C4' I4B d   1      -2.159  -4.424  -1.562  0.00  0.00     0.013 C 
ATOM     10  C3' I4B d   1      -2.389  -5.699   0.552  0.00  0.00     0.013 C 
ENDBRANCH   7   8
ENDBRANCH   1   7
TORSDOF 2
ENDMDL
