MODEL 1
REMARK minimizedAffinity 10.3205442
REMARK minimizedRMSD -1
REMARK  2 active torsions:
REMARK  status: ('A' for Active; 'I' for Inactive)
REMARK    1  A    between atoms: C2'_3  and  C1'_4 
REMARK    2  A    between atoms: C1'_4  and  C1_5 
ROOT
ATOM      1  C1  I4B d   1      -0.010  -0.966  -0.092  0.00  0.00    -0.075 A 
ATOM      2  C2  I4B d   1      -0.731  -2.008   0.437  0.00  0.00     0.003 A 
ATOM      3  C3  I4B d   1      -0.209  -3.323   0.409  0.00  0.00     0.002 A 
ATOM      4  C4  I4B d   1       1.007  -3.559  -0.199  0.00  0.00    -0.004 A 
ATOM      5  C5  I4B d   1       1.747  -2.498  -0.714  0.00  0.00     0.002 A 
ATOM      6  C6  I4B d   1       1.241  -1.192  -0.650  0.00  0.00     0.003 A 
ENDROOT
BRANCH   1   7
ATOM      7  C1' I4B d   1      -0.606   0.405  -0.074  0.00  0.00     0.060 C 
BRANCH   7   8
ATOM      8  C2' I4B d   1       0.450   1.380  -0.555  0.00  0.00    -0.013 C 
ATOM      9  C4' I4B d   1      -0.074   2.244  -1.672  0.00  0.00     0.013 C 
ATOM     10  C3' I4B d   1       0.881   2.211   0.616  0.00  0.00     0.013 C 
ENDBRANCH   7   8
ENDBRANCH   1   7
TORSDOF 2
ENDMDL
