MODEL 1
REMARK minimizedAffinity 5.58395529
REMARK minimizedRMSD -1
REMARK  2 active torsions:
REMARK  status: ('A' for Active; 'I' for Inactive)
REMARK    1  A    between atoms: C2'_3  and  C1'_4 
REMARK    2  A    between atoms: C1'_4  and  C1_5 
ROOT
ATOM      1  C1  I4B d   1       0.508   0.279  -0.529  0.00  0.00    -0.075 A 
ATOM      2  C2  I4B d   1       1.008  -0.164  -1.728  0.00  0.00     0.003 A 
ATOM      3  C3  I4B d   1       1.418  -1.511  -1.875  0.00  0.00     0.002 A 
ATOM      4  C4  I4B d   1       1.359  -2.362  -0.790  0.00  0.00    -0.004 A 
ATOM      5  C5  I4B d   1       0.831  -1.917   0.418  0.00  0.00     0.002 A 
ATOM      6  C6  I4B d   1       0.391  -0.592   0.547  0.00  0.00     0.003 A 
ENDROOT
BRANCH   1   7
ATOM      7  C1' I4B d   1       0.115   1.716  -0.399  0.00  0.00     0.060 C 
BRANCH   7   8
ATOM      8  C2' I4B d   1       0.886   2.308   0.763  0.00  0.00    -0.013 C 
ATOM      9  C4' I4B d   1       2.302   2.633   0.369  0.00  0.00     0.013 C 
ATOM     10  C3' I4B d   1       0.157   3.535   1.225  0.00  0.00     0.013 C 
ENDBRANCH   7   8
ENDBRANCH   1   7
TORSDOF 2
ENDMDL
