MODEL 1
REMARK minimizedAffinity 2.92973208
REMARK minimizedRMSD -1
REMARK  2 active torsions:
REMARK  status: ('A' for Active; 'I' for Inactive)
REMARK    1  A    between atoms: C2'_3  and  C1'_4 
REMARK    2  A    between atoms: C1'_4  and  C1_5 
ROOT
ATOM      1  C1  I4B d   1       5.161   2.077   4.646  0.00  0.00    -0.075 A 
ATOM      2  C2  I4B d   1       5.281   1.263   5.745  0.00  0.00     0.003 A 
ATOM      3  C3  I4B d   1       5.645  -0.096   5.589  0.00  0.00     0.002 A 
ATOM      4  C4  I4B d   1       5.828  -0.609   4.321  0.00  0.00    -0.004 A 
ATOM      5  C5  I4B d   1       5.727   0.223   3.209  0.00  0.00     0.002 A 
ATOM      6  C6  I4B d   1       5.404   1.577   3.373  0.00  0.00     0.003 A 
ENDROOT
BRANCH   1   7
ATOM      7  C1' I4B d   1       4.743   3.500   4.845  0.00  0.00     0.060 C 
BRANCH   7   8
ATOM      8  C2' I4B d   1       5.980   4.369   4.738  0.00  0.00    -0.013 C 
ATOM      9  C4' I4B d   1       5.996   5.137   3.443  0.00  0.00     0.013 C 
ATOM     10  C3' I4B d   1       5.997   5.295   5.918  0.00  0.00     0.013 C 
ENDBRANCH   7   8
ENDBRANCH   1   7
TORSDOF 2
ENDMDL
