MODEL 1
REMARK minimizedAffinity 3.60276365
REMARK minimizedRMSD -1
REMARK  2 active torsions:
REMARK  status: ('A' for Active; 'I' for Inactive)
REMARK    1  A    between atoms: C2'_3  and  C1'_4 
REMARK    2  A    between atoms: C1'_4  and  C1_5 
ROOT
ATOM      1  C1  I4B d   1       1.443  -1.129  -1.532  0.00  0.00    -0.075 A 
ATOM      2  C2  I4B d   1       0.389  -0.380  -1.070  0.00  0.00     0.003 A 
ATOM      3  C3  I4B d   1      -0.444  -0.881  -0.041  0.00  0.00     0.002 A 
ATOM      4  C4  I4B d   1      -0.220  -2.148   0.459  0.00  0.00    -0.004 A 
ATOM      5  C5  I4B d   1       0.863  -2.896   0.006  0.00  0.00     0.002 A 
ATOM      6  C6  I4B d   1       1.707  -2.379  -0.988  0.00  0.00     0.003 A 
ENDROOT
BRANCH   1   7
ATOM      7  C1' I4B d   1       2.283  -0.582  -2.643  0.00  0.00     0.060 C 
BRANCH   7   8
ATOM      8  C2' I4B d   1       1.352  -0.092  -3.734  0.00  0.00    -0.013 C 
ATOM      9  C4' I4B d   1       1.894   1.147  -4.397  0.00  0.00     0.013 C 
ATOM     10  C3' I4B d   1       1.176  -1.204  -4.725  0.00  0.00     0.013 C 
ENDBRANCH   7   8
ENDBRANCH   1   7
TORSDOF 2
ENDMDL
