MODEL 1
REMARK minimizedAffinity 4.65468216
REMARK minimizedRMSD -1
REMARK  2 active torsions:
REMARK  status: ('A' for Active; 'I' for Inactive)
REMARK    1  A    between atoms: C2'_3  and  C1'_4 
REMARK    2  A    between atoms: C1'_4  and  C1_5 
ROOT
ATOM      1  C1  I4B d   1       1.316  -1.304  -1.531  0.00  0.00    -0.075 A 
ATOM      2  C2  I4B d   1       0.626  -0.172  -1.178  0.00  0.00     0.003 A 
ATOM      3  C3  I4B d   1      -0.446  -0.249  -0.256  0.00  0.00     0.002 A 
ATOM      4  C4  I4B d   1      -0.823  -1.477   0.247  0.00  0.00    -0.004 A 
ATOM      5  C5  I4B d   1      -0.107  -2.621  -0.094  0.00  0.00     0.002 A 
ATOM      6  C6  I4B d   1       0.977  -2.533  -0.979  0.00  0.00     0.003 A 
ENDROOT
BRANCH   1   7
ATOM      7  C1' I4B d   1       2.421  -1.192  -2.533  0.00  0.00     0.060 C 
BRANCH   7   8
ATOM      8  C2' I4B d   1       1.906  -0.386  -3.708  0.00  0.00    -0.013 C 
ATOM      9  C4' I4B d   1       3.036   0.270  -4.456  0.00  0.00     0.013 C 
ATOM     10  C3' I4B d   1       1.131  -1.311  -4.599  0.00  0.00     0.013 C 
ENDBRANCH   7   8
ENDBRANCH   1   7
TORSDOF 2
ENDMDL
