MODEL 1
REMARK minimizedAffinity 12.9475899
REMARK minimizedRMSD -1
REMARK  2 active torsions:
REMARK  status: ('A' for Active; 'I' for Inactive)
REMARK    1  A    between atoms: C2'_3  and  C1'_4 
REMARK    2  A    between atoms: C1'_4  and  C1_5 
ROOT
ATOM      1  C1  I4B d   1       1.733  -1.388  -1.856  0.00  0.00    -0.075 A 
ATOM      2  C2  I4B d   1       1.439  -0.748  -0.678  0.00  0.00     0.003 A 
ATOM      3  C3  I4B d   1       0.691  -1.410   0.325  0.00  0.00     0.002 A 
ATOM      4  C4  I4B d   1       0.217  -2.684   0.090  0.00  0.00    -0.004 A 
ATOM      5  C5  I4B d   1       0.536  -3.340  -1.095  0.00  0.00     0.002 A 
ATOM      6  C6  I4B d   1       1.309  -2.693  -2.070  0.00  0.00     0.003 A 
ENDROOT
BRANCH   1   7
ATOM      7  C1' I4B d   1       2.497  -0.647  -2.908  0.00  0.00     0.060 C 
BRANCH   7   8
ATOM      8  C2' I4B d   1       1.519   0.226  -3.667  0.00  0.00    -0.013 C 
ATOM      9  C4' I4B d   1       0.992   1.337  -2.799  0.00  0.00     0.013 C 
ATOM     10  C3' I4B d   1       2.225   0.770  -4.874  0.00  0.00     0.013 C 
ENDBRANCH   7   8
ENDBRANCH   1   7
TORSDOF 2
ENDMDL
