MODEL 1
REMARK minimizedAffinity -1.28340077
REMARK minimizedRMSD -1
REMARK  2 active torsions:
REMARK  status: ('A' for Active; 'I' for Inactive)
REMARK    1  A    between atoms: C2'_3  and  C1'_4 
REMARK    2  A    between atoms: C1'_4  and  C1_5 
ROOT
ATOM      1  C1  I4B d   1       5.068   1.065   5.429  0.00  0.00    -0.075 A 
ATOM      2  C2  I4B d   1       5.999   1.975   5.863  0.00  0.00     0.003 A 
ATOM      3  C3  I4B d   1       6.000   3.294   5.349  0.00  0.00     0.002 A 
ATOM      4  C4  I4B d   1       5.090   3.644   4.372  0.00  0.00    -0.004 A 
ATOM      5  C5  I4B d   1       4.131   2.727   3.950  0.00  0.00     0.002 A 
ATOM      6  C6  I4B d   1       4.112   1.433   4.490  0.00  0.00     0.003 A 
ENDROOT
BRANCH   1   7
ATOM      7  C1' I4B d   1       5.116  -0.329   5.968  0.00  0.00     0.060 C 
BRANCH   7   8
ATOM      8  C2' I4B d   1       4.839  -1.283   4.824  0.00  0.00    -0.013 C 
ATOM      9  C4' I4B d   1       5.986  -1.310   3.848  0.00  0.00     0.013 C 
ATOM     10  C3' I4B d   1       4.589  -2.643   5.404  0.00  0.00     0.013 C 
ENDBRANCH   7   8
ENDBRANCH   1   7
TORSDOF 2
ENDMDL
