MODEL 1
REMARK minimizedAffinity -4.77476692
REMARK minimizedRMSD -1
REMARK  2 active torsions:
REMARK  status: ('A' for Active; 'I' for Inactive)
REMARK    1  A    between atoms: C2'_3  and  C1'_4 
REMARK    2  A    between atoms: C1'_4  and  C1_5 
ROOT
ATOM      1  C1  I4B d   1       0.421  -0.279  -1.250  0.00  0.00    -0.075 A 
ATOM      2  C2  I4B d   1       1.146  -1.008  -0.342  0.00  0.00     0.003 A 
ATOM      3  C3  I4B d   1       1.124  -0.662   1.031  0.00  0.00     0.002 A 
ATOM      4  C4  I4B d   1       0.408   0.444   1.441  0.00  0.00    -0.004 A 
ATOM      5  C5  I4B d   1      -0.345   1.169   0.522  0.00  0.00     0.002 A 
ATOM      6  C6  I4B d   1      -0.349   0.798  -0.830  0.00  0.00     0.003 A 
ENDROOT
BRANCH   1   7
ATOM      7  C1' I4B d   1       0.493  -0.652  -2.697  0.00  0.00     0.060 C 
BRANCH   7   8
ATOM      8  C2' I4B d   1       0.932   0.572  -3.474  0.00  0.00    -0.013 C 
ATOM      9  C4' I4B d   1       2.399   0.510  -3.806  0.00  0.00     0.013 C 
ATOM     10  C3' I4B d   1       0.098   0.655  -4.717  0.00  0.00     0.013 C 
ENDBRANCH   7   8
ENDBRANCH   1   7
TORSDOF 2
ENDMDL
