MODEL 1
REMARK minimizedAffinity -4.82715416
REMARK minimizedRMSD -1
REMARK  2 active torsions:
REMARK  status: ('A' for Active; 'I' for Inactive)
REMARK    1  A    between atoms: C2'_3  and  C1'_4 
REMARK    2  A    between atoms: C1'_4  and  C1_5 
ROOT
ATOM      1  C1  I4B d   1       0.373  -0.264  -0.618  0.00  0.00    -0.075 A 
ATOM      2  C2  I4B d   1      -0.959   0.067  -0.651  0.00  0.00     0.003 A 
ATOM      3  C3  I4B d   1      -1.552   0.747   0.440  0.00  0.00     0.002 A 
ATOM      4  C4  I4B d   1      -0.794   1.030   1.558  0.00  0.00    -0.004 A 
ATOM      5  C5  I4B d   1       0.562   0.714   1.580  0.00  0.00     0.002 A 
ATOM      6  C6  I4B d   1       1.152   0.075   0.481  0.00  0.00     0.003 A 
ENDROOT
BRANCH   1   7
ATOM      7  C1' I4B d   1       0.959  -1.011  -1.774  0.00  0.00     0.060 C 
BRANCH   7   8
ATOM      8  C2' I4B d   1       0.698  -0.205  -3.031  0.00  0.00    -0.013 C 
ATOM      9  C4' I4B d   1       1.967   0.416  -3.553  0.00  0.00     0.013 C 
ATOM     10  C3' I4B d   1       0.085  -1.121  -4.048  0.00  0.00     0.013 C 
ENDBRANCH   7   8
ENDBRANCH   1   7
TORSDOF 2
ENDMDL
