MODEL 1
REMARK minimizedAffinity -5.21635151
REMARK minimizedRMSD -1
REMARK  2 active torsions:
REMARK  status: ('A' for Active; 'I' for Inactive)
REMARK    1  A    between atoms: C2'_3  and  C1'_4 
REMARK    2  A    between atoms: C1'_4  and  C1_5 
ROOT
ATOM      1  C1  I4B d   1       0.188   0.921  -0.882  0.00  0.00    -0.075 A 
ATOM      2  C2  I4B d   1       0.426  -0.394  -0.568  0.00  0.00     0.003 A 
ATOM      3  C3  I4B d   1       1.149  -1.220  -1.462  0.00  0.00     0.002 A 
ATOM      4  C4  I4B d   1       1.569  -0.708  -2.673  0.00  0.00    -0.004 A 
ATOM      5  C5  I4B d   1       1.347   0.632  -2.979  0.00  0.00     0.002 A 
ATOM      6  C6  I4B d   1       0.663   1.455  -2.073  0.00  0.00     0.003 A 
ENDROOT
BRANCH   1   7
ATOM      7  C1' I4B d   1      -0.607   1.757   0.071  0.00  0.00     0.060 C 
BRANCH   7   8
ATOM      8  C2' I4B d   1      -0.881   0.923   1.306  0.00  0.00    -0.013 C 
ATOM      9  C4' I4B d   1      -0.558   1.688   2.563  0.00  0.00     0.013 C 
ATOM     10  C3' I4B d   1      -2.324   0.514   1.277  0.00  0.00     0.013 C 
ENDBRANCH   7   8
ENDBRANCH   1   7
TORSDOF 2
ENDMDL
