MODEL 1
REMARK minimizedAffinity -2.16498995
REMARK minimizedRMSD -1
REMARK  2 active torsions:
REMARK  status: ('A' for Active; 'I' for Inactive)
REMARK    1  A    between atoms: C2'_3  and  C1'_4 
REMARK    2  A    between atoms: C1'_4  and  C1_5 
ROOT
ATOM      1  C1  I4B d   1      -0.018  -0.319  -0.431  0.00  0.00    -0.075 A 
ATOM      2  C2  I4B d   1      -1.049   0.504  -0.811  0.00  0.00     0.003 A 
ATOM      3  C3  I4B d   1      -1.816   1.183   0.167  0.00  0.00     0.002 A 
ATOM      4  C4  I4B d   1      -1.553   0.972   1.505  0.00  0.00    -0.004 A 
ATOM      5  C5  I4B d   1      -0.493   0.155   1.887  0.00  0.00     0.002 A 
ATOM      6  C6  I4B d   1       0.288  -0.485   0.914  0.00  0.00     0.003 A 
ENDROOT
BRANCH   1   7
ATOM      7  C1' I4B d   1       0.751  -1.046  -1.488  0.00  0.00     0.060 C 
BRANCH   7   8
ATOM      8  C2' I4B d   1       0.877  -0.129  -2.688  0.00  0.00    -0.013 C 
ATOM      9  C4' I4B d   1       2.308   0.282  -2.912  0.00  0.00     0.013 C 
ATOM     10  C3' I4B d   1       0.327  -0.851  -3.882  0.00  0.00     0.013 C 
ENDBRANCH   7   8
ENDBRANCH   1   7
TORSDOF 2
ENDMDL
