MODEL 1
REMARK minimizedAffinity -3.35424185
REMARK minimizedRMSD -1
REMARK  2 active torsions:
REMARK  status: ('A' for Active; 'I' for Inactive)
REMARK    1  A    between atoms: C2'_3  and  C1'_4 
REMARK    2  A    between atoms: C1'_4  and  C1_5 
ROOT
ATOM      1  C1  I4B d   1      -0.677   0.834   1.997  0.00  0.00    -0.075 A 
ATOM      2  C2  I4B d   1      -1.840   0.344   1.456  0.00  0.00     0.003 A 
ATOM      3  C3  I4B d   1      -1.832  -0.254   0.173  0.00  0.00     0.002 A 
ATOM      4  C4  I4B d   1      -0.658  -0.295  -0.551  0.00  0.00    -0.004 A 
ATOM      5  C5  I4B d   1       0.524   0.182   0.008  0.00  0.00     0.002 A 
ATOM      6  C6  I4B d   1       0.518   0.739   1.295  0.00  0.00     0.003 A 
ENDROOT
BRANCH   1   7
ATOM      7  C1' I4B d   1      -0.728   1.489   3.341  0.00  0.00     0.060 C 
BRANCH   7   8
ATOM      8  C2' I4B d   1       0.392   0.912   4.183  0.00  0.00    -0.013 C 
ATOM      9  C4' I4B d   1       0.295   1.377   5.612  0.00  0.00     0.013 C 
ATOM     10  C3' I4B d   1       0.317  -0.583   4.094  0.00  0.00     0.013 C 
ENDBRANCH   7   8
ENDBRANCH   1   7
TORSDOF 2
ENDMDL
