MODEL 1
REMARK minimizedAffinity -5.04252243
REMARK minimizedRMSD -1
REMARK  0 active torsions:
REMARK  status: ('A' for Active; 'I' for Inactive)
ROOT
ATOM      1  C   UNL d   1       2.421   1.549  -2.948  0.00  0.00     0.020 A 
ATOM      2  C1  UNL d   1       3.007   0.296  -2.767  0.00  0.00     0.020 A 
ATOM      3  C2  UNL d   1       2.407  -0.639  -1.922  0.00  0.00     0.034 A 
ATOM      4  C3  UNL d   1       1.219  -0.324  -1.253  0.00  0.00     0.017 A 
ATOM      5  C4  UNL d   1       0.632   0.934  -1.435  0.00  0.00     0.017 A 
ATOM      6  C5  UNL d   1       1.236   1.867  -2.283  0.00  0.00     0.034 A 
ATOM      7 Cl   UNL d   1      -0.834   1.395  -0.644  0.00  0.00    -0.070 Cl
ATOM      8 Cl1  UNL d   1       0.532  -1.529  -0.223  0.00  0.00    -0.070 Cl
ENDROOT
TORSDOF 0
ENDMDL
