MODEL 1
REMARK minimizedAffinity -3.97000766
REMARK minimizedRMSD -1
REMARK  0 active torsions:
REMARK  status: ('A' for Active; 'I' for Inactive)
ROOT
ATOM      1  C   UNL d   1      -0.038  -0.714   0.493  0.00  0.00     0.020 A 
ATOM      2  C1  UNL d   1      -0.632   0.503   0.161  0.00  0.00     0.020 A 
ATOM      3  C2  UNL d   1       0.015   1.380  -0.712  0.00  0.00     0.034 A 
ATOM      4  C3  UNL d   1       1.260   1.043  -1.255  0.00  0.00     0.017 A 
ATOM      5  C4  UNL d   1       1.856  -0.178  -0.920  0.00  0.00     0.017 A 
ATOM      6  C5  UNL d   1       1.203  -1.053  -0.046  0.00  0.00     0.034 A 
ATOM      7 Cl   UNL d   1       3.390  -0.664  -1.550  0.00  0.00    -0.070 Cl
ATOM      8 Cl1  UNL d   1       2.003   2.176  -2.327  0.00  0.00    -0.070 Cl
ENDROOT
TORSDOF 0
ENDMDL
