MODEL 1
REMARK minimizedAffinity -2.12670827
REMARK minimizedRMSD -1
REMARK  0 active torsions:
REMARK  status: ('A' for Active; 'I' for Inactive)
ROOT
ATOM      1  C   UNL d   1      -1.306   1.357  -0.227  0.00  0.00     0.020 A 
ATOM      2  C1  UNL d   1      -0.991   0.138   0.372  0.00  0.00     0.020 A 
ATOM      3  C2  UNL d   1       0.135  -0.574  -0.045  0.00  0.00     0.034 A 
ATOM      4  C3  UNL d   1       0.951  -0.068  -1.064  0.00  0.00     0.017 A 
ATOM      5  C4  UNL d   1       0.633   1.155  -1.665  0.00  0.00     0.017 A 
ATOM      6  C5  UNL d   1      -0.496   1.864  -1.243  0.00  0.00     0.034 A 
ATOM      7 Cl   UNL d   1       1.591   1.844  -2.928  0.00  0.00    -0.070 Cl
ATOM      8 Cl1  UNL d   1       2.328  -1.002  -1.529  0.00  0.00    -0.070 Cl
ENDROOT
TORSDOF 0
ENDMDL
