MODEL 1
REMARK minimizedAffinity -3.95322323
REMARK minimizedRMSD -1
REMARK  0 active torsions:
REMARK  status: ('A' for Active; 'I' for Inactive)
ROOT
ATOM      1  C   UNL d   1       2.684  -0.864  -1.853  0.00  0.00     0.020 A 
ATOM      2  C1  UNL d   1       1.970  -1.745  -1.041  0.00  0.00     0.020 A 
ATOM      3  C2  UNL d   1       0.788  -1.326  -0.427  0.00  0.00     0.034 A 
ATOM      4  C3  UNL d   1       0.316  -0.023  -0.623  0.00  0.00     0.017 A 
ATOM      5  C4  UNL d   1       1.033   0.860  -1.438  0.00  0.00     0.017 A 
ATOM      6  C5  UNL d   1       2.216   0.435  -2.050  0.00  0.00     0.034 A 
ATOM      7 Cl   UNL d   1       0.514   2.483  -1.727  0.00  0.00    -0.070 Cl
ATOM      8 Cl1  UNL d   1      -1.153   0.427   0.167  0.00  0.00    -0.070 Cl
ENDROOT
TORSDOF 0
ENDMDL
