MODEL 1
REMARK minimizedAffinity -2.96142936
REMARK minimizedRMSD -1
REMARK  0 active torsions:
REMARK  status: ('A' for Active; 'I' for Inactive)
ROOT
ATOM      1  C   UNL d   1       1.840  -1.295  -0.745  0.00  0.00     0.020 A 
ATOM      2  C1  UNL d   1       0.759  -1.767  -0.002  0.00  0.00     0.020 A 
ATOM      3  C2  UNL d   1      -0.384  -0.979   0.146  0.00  0.00     0.034 A 
ATOM      4  C3  UNL d   1      -0.449   0.286  -0.450  0.00  0.00     0.017 A 
ATOM      5  C4  UNL d   1       0.637   0.759  -1.196  0.00  0.00     0.017 A 
ATOM      6  C5  UNL d   1       1.779  -0.034  -1.341  0.00  0.00     0.034 A 
ATOM      7 Cl   UNL d   1       0.631   2.309  -1.960  0.00  0.00    -0.070 Cl
ATOM      8 Cl1  UNL d   1      -1.893   1.207  -0.225  0.00  0.00    -0.070 Cl
ENDROOT
TORSDOF 0
ENDMDL
