MODEL 1
REMARK minimizedAffinity -5.77527142
REMARK minimizedRMSD -1
REMARK  0 active torsions:
REMARK  status: ('A' for Active; 'I' for Inactive)
ROOT
ATOM      1  C   UNL d   1       2.323  -1.021  -1.159  0.00  0.00     0.020 A 
ATOM      2  C1  UNL d   1       2.540  -0.067  -2.152  0.00  0.00     0.020 A 
ATOM      3  C2  UNL d   1       1.695   1.040  -2.253  0.00  0.00     0.034 A 
ATOM      4  C3  UNL d   1       0.629   1.196  -1.359  0.00  0.00     0.017 A 
ATOM      5  C4  UNL d   1       0.412   0.238  -0.363  0.00  0.00     0.017 A 
ATOM      6  C5  UNL d   1       1.261  -0.869  -0.267  0.00  0.00     0.034 A 
ATOM      7 Cl   UNL d   1      -0.883   0.361   0.775  0.00  0.00    -0.070 Cl
ATOM      8 Cl1  UNL d   1      -0.375   2.590  -1.542  0.00  0.00    -0.070 Cl
ENDROOT
TORSDOF 0
ENDMDL
