MODEL 1
REMARK minimizedAffinity -3.69932532
REMARK minimizedRMSD -1
REMARK  0 active torsions:
REMARK  status: ('A' for Active; 'I' for Inactive)
ROOT
ATOM      1  C   UNL d   1       2.963  -0.017  -2.085  0.00  0.00     0.020 A 
ATOM      2  C1  UNL d   1       2.242   1.113  -2.466  0.00  0.00     0.020 A 
ATOM      3  C2  UNL d   1       0.991   1.367  -1.901  0.00  0.00     0.034 A 
ATOM      4  C3  UNL d   1       0.456   0.489  -0.951  0.00  0.00     0.017 A 
ATOM      5  C4  UNL d   1       1.181  -0.646  -0.569  0.00  0.00     0.017 A 
ATOM      6  C5  UNL d   1       2.433  -0.895  -1.138  0.00  0.00     0.034 A 
ATOM      7 Cl   UNL d   1       0.587  -1.775   0.597  0.00  0.00    -0.070 Cl
ATOM      8 Cl1  UNL d   1      -1.096   0.865  -0.292  0.00  0.00    -0.070 Cl
ENDROOT
TORSDOF 0
ENDMDL
