MODEL 1
REMARK minimizedAffinity -4.66831923
REMARK minimizedRMSD -1
REMARK  0 active torsions:
REMARK  status: ('A' for Active; 'I' for Inactive)
ROOT
ATOM      1  C   UNL d   1      -1.045   0.551  -0.155  0.00  0.00     0.020 A 
ATOM      2  C1  UNL d   1      -0.329  -0.414   0.551  0.00  0.00     0.020 A 
ATOM      3  C2  UNL d   1       1.006  -0.669   0.228  0.00  0.00     0.034 A 
ATOM      4  C3  UNL d   1       1.628   0.043  -0.804  0.00  0.00     0.017 A 
ATOM      5  C4  UNL d   1       0.908   1.012  -1.512  0.00  0.00     0.017 A 
ATOM      6  C5  UNL d   1      -0.428   1.262  -1.185  0.00  0.00     0.034 A 
ATOM      7 Cl   UNL d   1       1.608   1.930  -2.798  0.00  0.00    -0.070 Cl
ATOM      8 Cl1  UNL d   1       3.281  -0.324  -1.149  0.00  0.00    -0.070 Cl
ENDROOT
TORSDOF 0
ENDMDL
