MODEL 1
REMARK minimizedAffinity -1.95105505
REMARK minimizedRMSD -1
REMARK  0 active torsions:
REMARK  status: ('A' for Active; 'I' for Inactive)
ROOT
ATOM      1  C   UNL d   1       1.378  -2.410   0.277  0.00  0.00     0.020 A 
ATOM      2  C1  UNL d   1       2.173  -1.791  -0.687  0.00  0.00     0.020 A 
ATOM      3  C2  UNL d   1       1.786  -0.564  -1.229  0.00  0.00     0.034 A 
ATOM      4  C3  UNL d   1       0.600   0.049  -0.808  0.00  0.00     0.017 A 
ATOM      5  C4  UNL d   1      -0.198  -0.573   0.159  0.00  0.00     0.017 A 
ATOM      6  C5  UNL d   1       0.195  -1.802   0.699  0.00  0.00     0.034 A 
ATOM      7 Cl   UNL d   1      -1.675   0.121   0.729  0.00  0.00    -0.070 Cl
ATOM      8 Cl1  UNL d   1       0.182   1.566  -1.521  0.00  0.00    -0.070 Cl
ENDROOT
TORSDOF 0
ENDMDL
