MODEL 1
REMARK minimizedAffinity -2.35382938
REMARK minimizedRMSD -1
REMARK  0 active torsions:
REMARK  status: ('A' for Active; 'I' for Inactive)
ROOT
ATOM      1  C   UNL d   1       2.873   0.542  -0.661  0.00  0.00     0.020 A 
ATOM      2  C1  UNL d   1       2.971  -0.780  -1.094  0.00  0.00     0.020 A 
ATOM      3  C2  UNL d   1       1.906  -1.661  -0.894  0.00  0.00     0.034 A 
ATOM      4  C3  UNL d   1       0.739  -1.222  -0.259  0.00  0.00     0.017 A 
ATOM      5  C4  UNL d   1       0.641   0.105   0.175  0.00  0.00     0.017 A 
ATOM      6  C5  UNL d   1       1.710   0.983  -0.028  0.00  0.00     0.034 A 
ATOM      7 Cl   UNL d   1      -0.768   0.720   0.966  0.00  0.00    -0.070 Cl
ATOM      8 Cl1  UNL d   1      -0.539  -2.365  -0.045  0.00  0.00    -0.070 Cl
ENDROOT
TORSDOF 0
ENDMDL
