MODEL 1
REMARK minimizedAffinity -5.59003448
REMARK minimizedRMSD -1
REMARK  0 active torsions:
REMARK  status: ('A' for Active; 'I' for Inactive)
ROOT
ATOM      1  C   UNL d   1       3.063  -0.027  -2.226  0.00  0.00     0.020 A 
ATOM      2  C1  UNL d   1       2.806  -0.884  -1.157  0.00  0.00     0.020 A 
ATOM      3  C2  UNL d   1       1.714  -0.649  -0.320  0.00  0.00     0.034 A 
ATOM      4  C3  UNL d   1       0.873   0.446  -0.551  0.00  0.00     0.017 A 
ATOM      5  C4  UNL d   1       1.132   1.307  -1.624  0.00  0.00     0.017 A 
ATOM      6  C5  UNL d   1       2.227   1.066  -2.459  0.00  0.00     0.034 A 
ATOM      7 Cl   UNL d   1       0.140   2.679  -1.971  0.00  0.00    -0.070 Cl
ATOM      8 Cl1  UNL d   1      -0.460   0.676   0.524  0.00  0.00    -0.070 Cl
ENDROOT
TORSDOF 0
ENDMDL
