MODEL 1
REMARK minimizedAffinity -3.78326702
REMARK minimizedRMSD -1
REMARK  0 active torsions:
REMARK  status: ('A' for Active; 'I' for Inactive)
ROOT
ATOM      1  C   UNL d   1       2.585  -0.124  -2.023  0.00  0.00     0.020 A 
ATOM      2  C1  UNL d   1       1.735   0.976  -2.137  0.00  0.00     0.020 A 
ATOM      3  C2  UNL d   1       0.616   1.082  -1.309  0.00  0.00     0.034 A 
ATOM      4  C3  UNL d   1       0.344   0.088  -0.362  0.00  0.00     0.017 A 
ATOM      5  C4  UNL d   1       1.198  -1.015  -0.248  0.00  0.00     0.017 A 
ATOM      6  C5  UNL d   1       2.317  -1.117  -1.080  0.00  0.00     0.034 A 
ATOM      7 Cl   UNL d   1       0.928  -2.281   0.897  0.00  0.00    -0.070 Cl
ATOM      8 Cl1  UNL d   1      -1.057   0.285   0.630  0.00  0.00    -0.070 Cl
ENDROOT
TORSDOF 0
ENDMDL
