MODEL 1
REMARK minimizedAffinity -6.39680338
REMARK minimizedRMSD -1
REMARK  0 active torsions:
REMARK  status: ('A' for Active; 'I' for Inactive)
ROOT
ATOM      1  C   UNL d   1       2.472   1.135  -1.975  0.00  0.00     0.020 A 
ATOM      2  C1  UNL d   1       3.092  -0.086  -1.713  0.00  0.00     0.020 A 
ATOM      3  C2  UNL d   1       2.405  -1.083  -1.017  0.00  0.00     0.034 A 
ATOM      4  C3  UNL d   1       1.094  -0.860  -0.579  0.00  0.00     0.017 A 
ATOM      5  C4  UNL d   1       0.473   0.366  -0.843  0.00  0.00     0.017 A 
ATOM      6  C5  UNL d   1       1.165   1.360  -1.541  0.00  0.00     0.034 A 
ATOM      7 Cl   UNL d   1      -1.143   0.714  -0.335  0.00  0.00    -0.070 Cl
ATOM      8 Cl1  UNL d   1       0.305  -2.137   0.276  0.00  0.00    -0.070 Cl
ENDROOT
TORSDOF 0
ENDMDL
