MODEL 1
REMARK minimizedAffinity -4.00076675
REMARK minimizedRMSD -1
REMARK  0 active torsions:
REMARK  status: ('A' for Active; 'I' for Inactive)
ROOT
ATOM      1  C   UNL d   1      -1.269   0.620  -0.205  0.00  0.00     0.020 A 
ATOM      2  C1  UNL d   1      -0.722  -0.600   0.191  0.00  0.00     0.020 A 
ATOM      3  C2  UNL d   1       0.605  -0.904  -0.122  0.00  0.00     0.034 A 
ATOM      4  C3  UNL d   1       1.388   0.013  -0.833  0.00  0.00     0.017 A 
ATOM      5  C4  UNL d   1       0.838   1.237  -1.229  0.00  0.00     0.017 A 
ATOM      6  C5  UNL d   1      -0.491   1.536  -0.913  0.00  0.00     0.034 A 
ATOM      7 Cl   UNL d   1       1.742   2.418  -2.108  0.00  0.00    -0.070 Cl
ATOM      8 Cl1  UNL d   1       3.021  -0.429  -1.185  0.00  0.00    -0.070 Cl
ENDROOT
TORSDOF 0
ENDMDL
