MODEL 1
REMARK minimizedAffinity -2.17712736
REMARK minimizedRMSD -1
REMARK  0 active torsions:
REMARK  status: ('A' for Active; 'I' for Inactive)
ROOT
ATOM      1  C   UNL d   1       2.711  -0.817  -0.870  0.00  0.00     0.020 A 
ATOM      2  C1  UNL d   1       2.198   0.475  -0.755  0.00  0.00     0.020 A 
ATOM      3  C2  UNL d   1       0.899   0.671  -0.280  0.00  0.00     0.034 A 
ATOM      4  C3  UNL d   1       0.110  -0.427   0.082  0.00  0.00     0.017 A 
ATOM      5  C4  UNL d   1       0.626  -1.722  -0.033  0.00  0.00     0.017 A 
ATOM      6  C5  UNL d   1       1.926  -1.913  -0.509  0.00  0.00     0.034 A 
ATOM      7 Cl   UNL d   1      -0.289  -3.125   0.395  0.00  0.00    -0.070 Cl
ATOM      8 Cl1  UNL d   1      -1.487  -0.111   0.663  0.00  0.00    -0.070 Cl
ENDROOT
TORSDOF 0
ENDMDL
