MODEL 1
REMARK minimizedAffinity -4.79775095
REMARK minimizedRMSD -1
REMARK  0 active torsions:
REMARK  status: ('A' for Active; 'I' for Inactive)
ROOT
ATOM      1  C   UNL d   1       2.235  -1.459  -0.776  0.00  0.00     0.020 A 
ATOM      2  C1  UNL d   1       2.910  -0.715  -1.743  0.00  0.00     0.020 A 
ATOM      3  C2  UNL d   1       2.415   0.529  -2.139  0.00  0.00     0.034 A 
ATOM      4  C3  UNL d   1       1.240   1.033  -1.569  0.00  0.00     0.017 A 
ATOM      5  C4  UNL d   1       0.563   0.286  -0.598  0.00  0.00     0.017 A 
ATOM      6  C5  UNL d   1       1.064  -0.959  -0.204  0.00  0.00     0.034 A 
ATOM      7 Cl   UNL d   1      -0.891   0.842   0.152  0.00  0.00    -0.070 Cl
ATOM      8 Cl1  UNL d   1       0.685   2.578  -2.106  0.00  0.00    -0.070 Cl
ENDROOT
TORSDOF 0
ENDMDL
