MODEL 1
REMARK minimizedAffinity -5.46639585
REMARK minimizedRMSD -1
REMARK  0 active torsions:
REMARK  status: ('A' for Active; 'I' for Inactive)
ROOT
ATOM      1  C   UNL d   1       2.127  -1.545  -1.441  0.00  0.00     0.020 A 
ATOM      2  C1  UNL d   1       2.789  -0.577  -2.194  0.00  0.00     0.020 A 
ATOM      3  C2  UNL d   1       2.317   0.737  -2.212  0.00  0.00     0.034 A 
ATOM      4  C3  UNL d   1       1.179   1.086  -1.476  0.00  0.00     0.017 A 
ATOM      5  C4  UNL d   1       0.514   0.113  -0.721  0.00  0.00     0.017 A 
ATOM      6  C5  UNL d   1       0.992  -1.201  -0.706  0.00  0.00     0.034 A 
ATOM      7 Cl   UNL d   1      -0.896   0.468   0.213  0.00  0.00    -0.070 Cl
ATOM      8 Cl1  UNL d   1       0.651   2.730  -1.545  0.00  0.00    -0.070 Cl
ENDROOT
TORSDOF 0
ENDMDL
