MODEL 1
REMARK minimizedAffinity -4.13809204
REMARK minimizedRMSD -1
REMARK  0 active torsions:
REMARK  status: ('A' for Active; 'I' for Inactive)
ROOT
ATOM      1  C   UNL d   1       2.885   0.451  -2.138  0.00  0.00     0.020 A 
ATOM      2  C1  UNL d   1       2.033   1.483  -2.528  0.00  0.00     0.020 A 
ATOM      3  C2  UNL d   1       0.723   1.528  -2.044  0.00  0.00     0.034 A 
ATOM      4  C3  UNL d   1       0.263   0.538  -1.169  0.00  0.00     0.017 A 
ATOM      5  C4  UNL d   1       1.119  -0.498  -0.778  0.00  0.00     0.017 A 
ATOM      6  C5  UNL d   1       2.429  -0.537  -1.266  0.00  0.00     0.034 A 
ATOM      7 Cl   UNL d   1       0.623  -1.755   0.299  0.00  0.00    -0.070 Cl
ATOM      8 Cl1  UNL d   1      -1.368   0.655  -0.610  0.00  0.00    -0.070 Cl
ENDROOT
TORSDOF 0
ENDMDL
