MODEL 1
REMARK minimizedAffinity -2.11823487
REMARK minimizedRMSD -1
REMARK  0 active torsions:
REMARK  status: ('A' for Active; 'I' for Inactive)
ROOT
ATOM      1  C4' PXY d   1       5.999   5.276  -0.503  0.00  0.00     0.077 C 
ATOM      2  C1' PXY d   1       4.417  -0.272  -0.145  0.00  0.00     0.077 C 
ATOM      3  C1  PXY d   1       4.832   1.184  -0.226  0.00  0.00    -0.082 A 
ATOM      4  C2  PXY d   1       4.563   1.881  -1.318  0.00  0.00     0.003 A 
ATOM      5  C3  PXY d   1       4.960   3.189  -1.420  0.00  0.00     0.003 A 
ATOM      6  C4  PXY d   1       5.590   3.806  -0.373  0.00  0.00    -0.082 A 
ATOM      7  C5  PXY d   1       5.859   3.105   0.748  0.00  0.00     0.003 A 
ATOM      8  C6  PXY d   1       5.485   1.766   0.817  0.00  0.00     0.003 A 
ENDROOT
TORSDOF 0
ENDMDL
