MODEL 1
REMARK minimizedAffinity 1.712448
REMARK minimizedRMSD -1
REMARK  0 active torsions:
REMARK  status: ('A' for Active; 'I' for Inactive)
ROOT
ATOM      1  C4' PXY d   1      -0.041   1.715   0.002  0.00  0.00     0.077 C 
ATOM      2  C1' PXY d   1      -4.065   4.843   2.729  0.00  0.00     0.077 C 
ATOM      3  C1  PXY d   1      -3.016   4.012   2.017  0.00  0.00    -0.082 A 
ATOM      4  C2  PXY d   1      -1.794   4.494   1.863  0.00  0.00     0.003 A 
ATOM      5  C3  PXY d   1      -0.842   3.768   1.193  0.00  0.00     0.003 A 
ATOM      6  C4  PXY d   1      -1.129   2.515   0.723  0.00  0.00    -0.082 A 
ATOM      7  C5  PXY d   1      -2.372   2.012   0.885  0.00  0.00     0.003 A 
ATOM      8  C6  PXY d   1      -3.335   2.781   1.531  0.00  0.00     0.003 A 
ENDROOT
TORSDOF 0
ENDMDL
