MODEL 1
REMARK minimizedAffinity 4.94306707
REMARK minimizedRMSD -1
REMARK  0 active torsions:
REMARK  status: ('A' for Active; 'I' for Inactive)
ROOT
ATOM      1  C4' PXY d   1       5.182   3.365  -1.300  0.00  0.00     0.077 C 
ATOM      2  C1' PXY d   1       3.469  -2.017  -0.069  0.00  0.00     0.077 C 
ATOM      3  C1  PXY d   1       3.929  -0.607  -0.384  0.00  0.00    -0.082 A 
ATOM      4  C2  PXY d   1       3.050   0.289  -0.801  0.00  0.00     0.003 A 
ATOM      5  C3  PXY d   1       3.453   1.560  -1.121  0.00  0.00     0.003 A 
ATOM      6  C4  PXY d   1       4.761   1.932  -0.961  0.00  0.00    -0.082 A 
ATOM      7  C5  PXY d   1       5.662   1.026  -0.526  0.00  0.00     0.003 A 
ATOM      8  C6  PXY d   1       5.240  -0.270  -0.246  0.00  0.00     0.003 A 
ENDROOT
TORSDOF 0
ENDMDL
