MODEL 1
REMARK minimizedAffinity 5.7439537
REMARK minimizedRMSD -1
REMARK  0 active torsions:
REMARK  status: ('A' for Active; 'I' for Inactive)
ROOT
ATOM      1  C4' PXY d   1       2.631   3.268   3.138  0.00  0.00     0.077 C 
ATOM      2  C1' PXY d   1      -2.291   1.588   0.615  0.00  0.00     0.077 C 
ATOM      3  C1  PXY d   1      -1.001   2.041   1.271  0.00  0.00    -0.082 A 
ATOM      4  C2  PXY d   1      -0.109   1.140   1.649  0.00  0.00     0.003 A 
ATOM      5  C3  PXY d   1       1.048   1.529   2.273  0.00  0.00     0.003 A 
ATOM      6  C4  PXY d   1       1.319   2.858   2.463  0.00  0.00    -0.082 A 
ATOM      7  C5  PXY d   1       0.419   3.783   2.070  0.00  0.00     0.003 A 
ATOM      8  C6  PXY d   1      -0.768   3.365   1.476  0.00  0.00     0.003 A 
ENDROOT
TORSDOF 0
ENDMDL
