MODEL 1
REMARK minimizedAffinity 5.27119827
REMARK minimizedRMSD -1
REMARK  0 active torsions:
REMARK  status: ('A' for Active; 'I' for Inactive)
ROOT
ATOM      1  C4' PXY d   1       0.120  -3.604  -1.313  0.00  0.00     0.077 C 
ATOM      2  C1' PXY d   1       4.193   0.404  -0.439  0.00  0.00     0.077 C 
ATOM      3  C1  PXY d   1       3.134  -0.657  -0.668  0.00  0.00    -0.082 A 
ATOM      4  C2  PXY d   1       2.012  -0.337  -1.291  0.00  0.00     0.003 A 
ATOM      5  C3  PXY d   1       1.030  -1.275  -1.478  0.00  0.00     0.003 A 
ATOM      6  C4  PXY d   1       1.221  -2.568  -1.069  0.00  0.00    -0.082 A 
ATOM      7  C5  PXY d   1       2.368  -2.905  -0.441  0.00  0.00     0.003 A 
ATOM      8  C6  PXY d   1       3.335  -1.927  -0.225  0.00  0.00     0.003 A 
ENDROOT
TORSDOF 0
ENDMDL
