MODEL 1
REMARK minimizedAffinity 15.0051613
REMARK minimizedRMSD -1
REMARK  0 active torsions:
REMARK  status: ('A' for Active; 'I' for Inactive)
ROOT
ATOM      1  C4' PXY d   1       2.669  -0.384  -0.525  0.00  0.00     0.077 C 
ATOM      2  C1' PXY d   1      -2.076   2.416   1.226  0.00  0.00     0.077 C 
ATOM      3  C1  PXY d   1      -0.825   1.686   0.778  0.00  0.00    -0.082 A 
ATOM      4  C2  PXY d   1      -0.665   1.389  -0.502  0.00  0.00     0.003 A 
ATOM      5  C3  PXY d   1       0.445   0.701  -0.920  0.00  0.00     0.003 A 
ATOM      6  C4  PXY d   1       1.426   0.360  -0.028  0.00  0.00    -0.082 A 
ATOM      7  C5  PXY d   1       1.275   0.670   1.277  0.00  0.00     0.003 A 
ATOM      8  C6  PXY d   1       0.122   1.332   1.688  0.00  0.00     0.003 A 
ENDROOT
TORSDOF 0
ENDMDL
