MODEL 1
REMARK minimizedAffinity 8.57878113
REMARK minimizedRMSD -1
REMARK  0 active torsions:
REMARK  status: ('A' for Active; 'I' for Inactive)
ROOT
ATOM      1  C4' PXY d   1       3.450  -0.284  -0.750  0.00  0.00     0.077 C 
ATOM      2  C1' PXY d   1      -0.263  -4.683  -1.275  0.00  0.00     0.077 C 
ATOM      3  C1  PXY d   1       0.709  -3.527  -1.150  0.00  0.00    -0.082 A 
ATOM      4  C2  PXY d   1       1.609  -3.531  -0.180  0.00  0.00     0.003 A 
ATOM      5  C3  PXY d   1       2.475  -2.478  -0.033  0.00  0.00     0.003 A 
ATOM      6  C4  PXY d   1       2.455  -1.435  -0.920  0.00  0.00    -0.082 A 
ATOM      7  C5  PXY d   1       1.547  -1.429  -1.919  0.00  0.00     0.003 A 
ATOM      8  C6  PXY d   1       0.650  -2.488  -2.026  0.00  0.00     0.003 A 
ENDROOT
TORSDOF 0
ENDMDL
