MODEL 1
REMARK minimizedAffinity 17.8433342
REMARK minimizedRMSD -1
REMARK  0 active torsions:
REMARK  status: ('A' for Active; 'I' for Inactive)
ROOT
ATOM      1  C4' PXY d   1       2.526  -2.581   0.102  0.00  0.00     0.077 C 
ATOM      2  C1' PXY d   1      -1.423  -5.810  -2.617  0.00  0.00     0.077 C 
ATOM      3  C1  PXY d   1      -0.381  -4.962  -1.915  0.00  0.00    -0.082 A 
ATOM      4  C2  PXY d   1      -0.154  -5.139  -0.624  0.00  0.00     0.003 A 
ATOM      5  C3  PXY d   1       0.761  -4.359   0.033  0.00  0.00     0.003 A 
ATOM      6  C4  PXY d   1       1.490  -3.422  -0.650  0.00  0.00    -0.082 A 
ATOM      7  C5  PXY d   1       1.272  -3.242  -1.969  0.00  0.00     0.003 A 
ATOM      8  C6  PXY d   1       0.309  -4.016  -2.609  0.00  0.00     0.003 A 
ENDROOT
TORSDOF 0
ENDMDL
