MODEL 1
REMARK minimizedAffinity 10.0248327
REMARK minimizedRMSD -1
REMARK  0 active torsions:
REMARK  status: ('A' for Active; 'I' for Inactive)
ROOT
ATOM      1  C4' PXY d   1      -5.342   4.047  -4.703  0.00  0.00     0.077 C 
ATOM      2  C1' PXY d   1      -2.480  -0.874  -3.701  0.00  0.00     0.077 C 
ATOM      3  C1  PXY d   1      -3.240   0.412  -3.956  0.00  0.00    -0.082 A 
ATOM      4  C2  PXY d   1      -2.986   1.117  -5.047  0.00  0.00     0.003 A 
ATOM      5  C3  PXY d   1      -3.642   2.299  -5.278  0.00  0.00     0.003 A 
ATOM      6  C4  PXY d   1      -4.605   2.737  -4.409  0.00  0.00    -0.082 A 
ATOM      7  C5  PXY d   1      -4.878   2.019  -3.300  0.00  0.00     0.003 A 
ATOM      8  C6  PXY d   1      -4.172   0.843  -3.063  0.00  0.00     0.003 A 
ENDROOT
TORSDOF 0
ENDMDL
