MODEL 1
REMARK minimizedAffinity 2.61796069
REMARK minimizedRMSD -1
REMARK  0 active torsions:
REMARK  status: ('A' for Active; 'I' for Inactive)
ROOT
ATOM      1  C4' PXY d   1       0.874  -0.364   3.440  0.00  0.00     0.077 C 
ATOM      2  C1' PXY d   1      -0.047  -5.669   5.543  0.00  0.00     0.077 C 
ATOM      3  C1  PXY d   1       0.191  -4.282   4.979  0.00  0.00    -0.082 A 
ATOM      4  C2  PXY d   1       1.020  -3.458   5.599  0.00  0.00     0.003 A 
ATOM      5  C3  PXY d   1       1.222  -2.189   5.121  0.00  0.00     0.003 A 
ATOM      6  C4  PXY d   1       0.610  -1.777   3.968  0.00  0.00    -0.082 A 
ATOM      7  C5  PXY d   1      -0.229  -2.615   3.324  0.00  0.00     0.003 A 
ATOM      8  C6  PXY d   1      -0.453  -3.885   3.848  0.00  0.00     0.003 A 
ENDROOT
TORSDOF 0
ENDMDL
