MODEL 1
REMARK minimizedAffinity 14.9141073
REMARK minimizedRMSD -1
REMARK  0 active torsions:
REMARK  status: ('A' for Active; 'I' for Inactive)
ROOT
ATOM      1  C4' PXY d   1       2.511  -2.305   1.197  0.00  0.00     0.077 C 
ATOM      2  C1' PXY d   1       4.884   2.115  -1.674  0.00  0.00     0.077 C 
ATOM      3  C1  PXY d   1       4.251   0.958  -0.927  0.00  0.00    -0.082 A 
ATOM      4  C2  PXY d   1       4.736   0.594   0.248  0.00  0.00     0.003 A 
ATOM      5  C3  PXY d   1       4.196  -0.471   0.922  0.00  0.00     0.003 A 
ATOM      6  C4  PXY d   1       3.113  -1.136   0.412  0.00  0.00    -0.082 A 
ATOM      7  C5  PXY d   1       2.605  -0.764  -0.781  0.00  0.00     0.003 A 
ATOM      8  C6  PXY d   1       3.194   0.293  -1.469  0.00  0.00     0.003 A 
ENDROOT
TORSDOF 0
ENDMDL
