MODEL 1
REMARK minimizedAffinity 10.6775417
REMARK minimizedRMSD -1
REMARK  0 active torsions:
REMARK  status: ('A' for Active; 'I' for Inactive)
ROOT
ATOM      1  C4' PXY d   1       2.672  -1.590   0.461  0.00  0.00     0.077 C 
ATOM      2  C1' PXY d   1       5.918   2.943  -1.066  0.00  0.00     0.077 C 
ATOM      3  C1  PXY d   1       5.057   1.759  -0.672  0.00  0.00    -0.082 A 
ATOM      4  C2  PXY d   1       5.378   1.043   0.393  0.00  0.00     0.003 A 
ATOM      5  C3  PXY d   1       4.628  -0.050   0.745  0.00  0.00     0.003 A 
ATOM      6  C4  PXY d   1       3.508  -0.381   0.031  0.00  0.00    -0.082 A 
ATOM      7  C5  PXY d   1       3.167   0.352  -1.050  0.00  0.00     0.003 A 
ATOM      8  C6  PXY d   1       3.965   1.433  -1.415  0.00  0.00     0.003 A 
ENDROOT
TORSDOF 0
ENDMDL
