MODEL 1
REMARK minimizedAffinity 7.20352125
REMARK minimizedRMSD -1
REMARK  1 active torsions:
REMARK  status: ('A' for Active; 'I' for Inactive)
REMARK    1  A    between atoms: C1_2  and  C2_3 
ROOT
ATOM      1  C2  UNL d   1      -1.449  -0.672   0.731  0.00  0.00    -0.077 A 
ATOM      2  C3  UNL d   1      -1.030  -0.696   2.068  0.00  0.00     0.002 A 
ATOM      3  C4  UNL d   1      -1.358   0.353   2.930  0.00  0.00     0.002 A 
ATOM      4  C5  UNL d   1      -2.109   1.430   2.465  0.00  0.00    -0.004 A 
ATOM      5  C6  UNL d   1      -2.529   1.464   1.136  0.00  0.00     0.002 A 
ATOM      6  C7  UNL d   1      -2.201   0.417   0.273  0.00  0.00     0.002 A 
ENDROOT
BRANCH   1   7
ATOM      7  C1  UNL d   1      -1.139  -1.825  -0.187  0.00  0.00     0.055 C 
ATOM      8  C   UNL d   1       0.362  -1.996  -0.374  0.00  0.00     0.019 C 
ENDBRANCH   1   7
TORSDOF 1
ENDMDL
