MODEL 1
REMARK minimizedAffinity 1.5229758
REMARK minimizedRMSD -1
REMARK  1 active torsions:
REMARK  status: ('A' for Active; 'I' for Inactive)
REMARK    1  A    between atoms: C1_2  and  C2_3 
ROOT
ATOM      1  C2  UNL d   1      -5.760   3.537  -0.800  0.00  0.00    -0.077 A 
ATOM      2  C3  UNL d   1      -5.886   3.587   0.596  0.00  0.00     0.002 A 
ATOM      3  C4  UNL d   1      -5.999   4.814   1.251  0.00  0.00     0.002 A 
ATOM      4  C5  UNL d   1      -5.993   6.000   0.520  0.00  0.00    -0.004 A 
ATOM      5  C6  UNL d   1      -5.867   5.961  -0.868  0.00  0.00     0.002 A 
ATOM      6  C7  UNL d   1      -5.752   4.735  -1.525  0.00  0.00     0.002 A 
ENDROOT
BRANCH   1   7
ATOM      7  C1  UNL d   1      -5.687   2.212  -1.513  0.00  0.00     0.055 C 
ATOM      8  C   UNL d   1      -4.418   1.456  -1.147  0.00  0.00     0.019 C 
ENDBRANCH   1   7
TORSDOF 1
ENDMDL
