MODEL 1
REMARK minimizedAffinity 3.70881867
REMARK minimizedRMSD -1
REMARK  1 active torsions:
REMARK  status: ('A' for Active; 'I' for Inactive)
REMARK    1  A    between atoms: C1_2  and  C2_3 
ROOT
ATOM      1  C2  UNL d   1      -1.265   0.134   2.266  0.00  0.00    -0.077 A 
ATOM      2  C3  UNL d   1       0.124   0.152   2.457  0.00  0.00     0.002 A 
ATOM      3  C4  UNL d   1       0.746   1.274   3.009  0.00  0.00     0.002 A 
ATOM      4  C5  UNL d   1      -0.013   2.382   3.378  0.00  0.00    -0.004 A 
ATOM      5  C6  UNL d   1      -1.394   2.374   3.190  0.00  0.00     0.002 A 
ATOM      6  C7  UNL d   1      -2.018   1.255   2.638  0.00  0.00     0.002 A 
ENDROOT
BRANCH   1   7
ATOM      7  C1  UNL d   1      -1.943  -1.094   1.717  0.00  0.00     0.055 C 
ATOM      8  C   UNL d   1      -2.827  -1.754   2.765  0.00  0.00     0.019 C 
ENDBRANCH   1   7
TORSDOF 1
ENDMDL
