MODEL 1
REMARK minimizedAffinity 10.6326952
REMARK minimizedRMSD -1
REMARK  1 active torsions:
REMARK  status: ('A' for Active; 'I' for Inactive)
REMARK    1  A    between atoms: C1_2  and  C2_3 
ROOT
ATOM      1  C2  UNL d   1      -2.931   0.979   1.027  0.00  0.00    -0.077 A 
ATOM      2  C3  UNL d   1      -1.919   1.554   1.810  0.00  0.00     0.002 A 
ATOM      3  C4  UNL d   1      -0.937   0.751   2.394  0.00  0.00     0.002 A 
ATOM      4  C5  UNL d   1      -0.956  -0.628   2.200  0.00  0.00    -0.004 A 
ATOM      5  C6  UNL d   1      -1.959  -1.209   1.425  0.00  0.00     0.002 A 
ATOM      6  C7  UNL d   1      -2.942  -0.409   0.841  0.00  0.00     0.002 A 
ENDROOT
BRANCH   1   7
ATOM      7  C1  UNL d   1      -3.962   1.848   0.355  0.00  0.00     0.055 C 
ATOM      8  C   UNL d   1      -4.586   1.143  -0.840  0.00  0.00     0.019 C 
ENDBRANCH   1   7
TORSDOF 1
ENDMDL
