MODEL 1
REMARK minimizedAffinity 4.67620039
REMARK minimizedRMSD -1
REMARK  1 active torsions:
REMARK  status: ('A' for Active; 'I' for Inactive)
REMARK    1  A    between atoms: C1_2  and  C2_3 
ROOT
ATOM      1  C2  UNL d   1       1.096  -0.191   1.908  0.00  0.00    -0.077 A 
ATOM      2  C3  UNL d   1       0.168   0.238   2.868  0.00  0.00     0.002 A 
ATOM      3  C4  UNL d   1      -1.203   0.142   2.617  0.00  0.00     0.002 A 
ATOM      4  C5  UNL d   1      -1.657  -0.386   1.410  0.00  0.00    -0.004 A 
ATOM      5  C6  UNL d   1      -0.741  -0.813   0.449  0.00  0.00     0.002 A 
ATOM      6  C7  UNL d   1       0.628  -0.717   0.697  0.00  0.00     0.002 A 
ENDROOT
BRANCH   1   7
ATOM      7  C1  UNL d   1       2.573  -0.134   2.196  0.00  0.00     0.055 C 
ATOM      8  C   UNL d   1       3.325  -1.228   1.453  0.00  0.00     0.019 C 
ENDBRANCH   1   7
TORSDOF 1
ENDMDL
