MODEL 1
REMARK minimizedAffinity 8.63265419
REMARK minimizedRMSD -1
REMARK  1 active torsions:
REMARK  status: ('A' for Active; 'I' for Inactive)
REMARK    1  A    between atoms: C1_2  and  C2_3 
ROOT
ATOM      1  C2  UNL d   1      -0.890   0.273   2.420  0.00  0.00    -0.077 A 
ATOM      2  C3  UNL d   1      -1.311  -0.766   1.579  0.00  0.00     0.002 A 
ATOM      3  C4  UNL d   1      -2.409  -0.589   0.733  0.00  0.00     0.002 A 
ATOM      4  C5  UNL d   1      -3.090   0.626   0.718  0.00  0.00    -0.004 A 
ATOM      5  C6  UNL d   1      -2.679   1.665   1.552  0.00  0.00     0.002 A 
ATOM      6  C7  UNL d   1      -1.583   1.490   2.399  0.00  0.00     0.002 A 
ENDROOT
BRANCH   1   7
ATOM      7  C1  UNL d   1       0.324   0.101   3.296  0.00  0.00     0.055 C 
ATOM      8  C   UNL d   1       1.609   0.304   2.508  0.00  0.00     0.019 C 
ENDBRANCH   1   7
TORSDOF 1
ENDMDL
