MODEL 1
REMARK minimizedAffinity 10.2760944
REMARK minimizedRMSD -1
REMARK  3 active torsions:
REMARK  status: ('A' for Active; 'I' for Inactive)
REMARK    1  A    between atoms: C3'_2  and  C2'_3 
REMARK    2  A    between atoms: C2'_3  and  C1'_4 
REMARK    3  A    between atoms: C1'_4  and  C1_5 
ROOT
ATOM      1  C1  N4B d   1      -3.332  -3.240   4.795  0.00  0.00    -0.075 A 
ATOM      2  C2  N4B d   1      -4.176  -2.862   5.863  0.00  0.00     0.002 A 
ATOM      3  C3  N4B d   1      -5.496  -3.241   5.861  0.00  0.00     0.002 A 
ATOM      4  C4  N4B d   1      -5.997  -3.979   4.799  0.00  0.00    -0.004 A 
ATOM      5  C5  N4B d   1      -5.169  -4.361   3.785  0.00  0.00     0.002 A 
ATOM      6  C6  N4B d   1      -3.839  -3.991   3.775  0.00  0.00     0.002 A 
ENDROOT
BRANCH   1   7
ATOM      7  C1' N4B d   1      -1.903  -2.777   4.710  0.00  0.00     0.057 C 
BRANCH   7   8
ATOM      8  C2' N4B d   1      -0.987  -3.994   4.620  0.00  0.00     0.009 C 
BRANCH   8   9
ATOM      9  C3' N4B d   1      -0.414  -4.375   5.974  0.00  0.00     0.004 C 
ATOM     10  C4' N4B d   1       0.313  -5.686   5.949  0.00  0.00     0.003 C 
ENDBRANCH   8   9
ENDBRANCH   7   8
ENDBRANCH   1   7
TORSDOF 3
ENDMDL
