MODEL 1
REMARK minimizedAffinity 17.3538589
REMARK minimizedRMSD -1
REMARK  3 active torsions:
REMARK  status: ('A' for Active; 'I' for Inactive)
REMARK    1  A    between atoms: C3'_2  and  C2'_3 
REMARK    2  A    between atoms: C2'_3  and  C1'_4 
REMARK    3  A    between atoms: C1'_4  and  C1_5 
ROOT
ATOM      1  C1  N4B d   1      -4.969   5.376  -0.559  0.00  0.00    -0.075 A 
ATOM      2  C2  N4B d   1      -3.656   5.312  -0.041  0.00  0.00     0.002 A 
ATOM      3  C3  N4B d   1      -3.426   5.598   1.283  0.00  0.00     0.002 A 
ATOM      4  C4  N4B d   1      -4.485   5.965   2.099  0.00  0.00    -0.004 A 
ATOM      5  C5  N4B d   1      -5.753   6.000   1.598  0.00  0.00     0.002 A 
ATOM      6  C6  N4B d   1      -6.000   5.712   0.270  0.00  0.00     0.002 A 
ENDROOT
BRANCH   1   7
ATOM      7  C1' N4B d   1      -5.258   5.157  -2.019  0.00  0.00     0.057 C 
BRANCH   7   8
ATOM      8  C2' N4B d   1      -4.172   4.267  -2.616  0.00  0.00     0.009 C 
BRANCH   8   9
ATOM      9  C3' N4B d   1      -4.753   3.178  -3.502  0.00  0.00     0.004 C 
ATOM     10  C4' N4B d   1      -3.807   2.033  -3.711  0.00  0.00     0.003 C 
ENDBRANCH   8   9
ENDBRANCH   7   8
ENDBRANCH   1   7
TORSDOF 3
ENDMDL
