MODEL 1
REMARK minimizedAffinity 14.2768555
REMARK minimizedRMSD -1
REMARK  3 active torsions:
REMARK  status: ('A' for Active; 'I' for Inactive)
REMARK    1  A    between atoms: C3'_2  and  C2'_3 
REMARK    2  A    between atoms: C2'_3  and  C1'_4 
REMARK    3  A    between atoms: C1'_4  and  C1_5 
ROOT
ATOM      1  C1  N4B d   1       2.207  -4.099  -2.275  0.00  0.00    -0.075 A 
ATOM      2  C2  N4B d   1       1.776  -5.441  -2.357  0.00  0.00     0.002 A 
ATOM      3  C3  N4B d   1       1.492  -5.997  -3.580  0.00  0.00     0.002 A 
ATOM      4  C4  N4B d   1       1.614  -5.229  -4.728  0.00  0.00    -0.004 A 
ATOM      5  C5  N4B d   1       2.056  -3.941  -4.643  0.00  0.00     0.002 A 
ATOM      6  C6  N4B d   1       2.348  -3.370  -3.421  0.00  0.00     0.002 A 
ENDROOT
BRANCH   1   7
ATOM      7  C1' N4B d   1       2.447  -3.421  -0.954  0.00  0.00     0.057 C 
BRANCH   7   8
ATOM      8  C2' N4B d   1       1.105  -3.033  -0.339  0.00  0.00     0.009 C 
BRANCH   8   9
ATOM      9  C3' N4B d   1       1.266  -2.026   0.786  0.00  0.00     0.004 C 
ATOM     10  C4' N4B d   1       2.382  -2.376   1.724  0.00  0.00     0.003 C 
ENDBRANCH   8   9
ENDBRANCH   7   8
ENDBRANCH   1   7
TORSDOF 3
ENDMDL
