MODEL 1
REMARK minimizedAffinity 7.20384789
REMARK minimizedRMSD -1
REMARK  3 active torsions:
REMARK  status: ('A' for Active; 'I' for Inactive)
REMARK    1  A    between atoms: C3'_2  and  C2'_3 
REMARK    2  A    between atoms: C2'_3  and  C1'_4 
REMARK    3  A    between atoms: C1'_4  and  C1_5 
ROOT
ATOM      1  C1  N4B d   1      -0.784   2.645   0.685  0.00  0.00    -0.075 A 
ATOM      2  C2  N4B d   1      -0.213   1.632   1.486  0.00  0.00     0.002 A 
ATOM      3  C3  N4B d   1      -0.980   0.986   2.424  0.00  0.00     0.002 A 
ATOM      4  C4  N4B d   1      -2.308   1.347   2.591  0.00  0.00    -0.004 A 
ATOM      5  C5  N4B d   1      -2.859   2.308   1.796  0.00  0.00     0.002 A 
ATOM      6  C6  N4B d   1      -2.101   2.964   0.846  0.00  0.00     0.002 A 
ENDROOT
BRANCH   1   7
ATOM      7  C1' N4B d   1       0.037   3.439  -0.295  0.00  0.00     0.057 C 
BRANCH   7   8
ATOM      8  C2' N4B d   1      -0.639   3.400  -1.662  0.00  0.00     0.009 C 
BRANCH   8   9
ATOM      9  C3' N4B d   1      -0.591   4.749  -2.359  0.00  0.00     0.004 C 
ATOM     10  C4' N4B d   1      -1.884   5.101  -3.032  0.00  0.00     0.003 C 
ENDBRANCH   8   9
ENDBRANCH   7   8
ENDBRANCH   1   7
TORSDOF 3
ENDMDL
