MODEL 1
REMARK minimizedAffinity 3.80285358
REMARK minimizedRMSD -1
REMARK  3 active torsions:
REMARK  status: ('A' for Active; 'I' for Inactive)
REMARK    1  A    between atoms: C3'_2  and  C2'_3 
REMARK    2  A    between atoms: C2'_3  and  C1'_4 
REMARK    3  A    between atoms: C1'_4  and  C1_5 
ROOT
ATOM      1  C1  N4B d   1      -0.506   3.399  -1.724  0.00  0.00    -0.075 A 
ATOM      2  C2  N4B d   1      -0.195   4.684  -1.228  0.00  0.00     0.002 A 
ATOM      3  C3  N4B d   1       0.009   4.870   0.117  0.00  0.00     0.002 A 
ATOM      4  C4  N4B d   1      -0.111   3.794   0.984  0.00  0.00    -0.004 A 
ATOM      5  C5  N4B d   1      -0.386   2.551   0.494  0.00  0.00     0.002 A 
ATOM      6  C6  N4B d   1      -0.589   2.349  -0.856  0.00  0.00     0.002 A 
ENDROOT
BRANCH   1   7
ATOM      7  C1' N4B d   1      -0.821   3.163  -3.176  0.00  0.00     0.057 C 
BRANCH   7   8
ATOM      8  C2' N4B d   1      -2.335   3.179  -3.369  0.00  0.00     0.009 C 
BRANCH   8   9
ATOM      9  C3' N4B d   1      -2.840   1.899  -4.011  0.00  0.00     0.004 C 
ATOM     10  C4' N4B d   1      -3.778   1.136  -3.124  0.00  0.00     0.003 C 
ENDBRANCH   8   9
ENDBRANCH   7   8
ENDBRANCH   1   7
TORSDOF 3
ENDMDL
