MODEL 1
REMARK minimizedAffinity 16.9742775
REMARK minimizedRMSD -1
REMARK  3 active torsions:
REMARK  status: ('A' for Active; 'I' for Inactive)
REMARK    1  A    between atoms: C3'_2  and  C2'_3 
REMARK    2  A    between atoms: C2'_3  and  C1'_4 
REMARK    3  A    between atoms: C1'_4  and  C1_5 
ROOT
ATOM      1  C1  N4B d   1      -0.818   3.540  -1.840  0.00  0.00    -0.075 A 
ATOM      2  C2  N4B d   1       0.055   4.523  -1.325  0.00  0.00     0.002 A 
ATOM      3  C3  N4B d   1       0.569   4.389  -0.058  0.00  0.00     0.002 A 
ATOM      4  C4  N4B d   1       0.210   3.295   0.715  0.00  0.00    -0.004 A 
ATOM      5  C5  N4B d   1      -0.613   2.337   0.201  0.00  0.00     0.002 A 
ATOM      6  C6  N4B d   1      -1.134   2.456  -1.072  0.00  0.00     0.002 A 
ENDROOT
BRANCH   1   7
ATOM      7  C1' N4B d   1      -1.473   3.686  -3.186  0.00  0.00     0.057 C 
BRANCH   7   8
ATOM      8  C2' N4B d   1      -1.854   5.147  -3.402  0.00  0.00     0.009 C 
BRANCH   8   9
ATOM      9  C3' N4B d   1      -3.147   5.508  -2.691  0.00  0.00     0.004 C 
ATOM     10  C4' N4B d   1      -4.313   5.618  -3.627  0.00  0.00     0.003 C 
ENDBRANCH   8   9
ENDBRANCH   7   8
ENDBRANCH   1   7
TORSDOF 3
ENDMDL
