MODEL 1
REMARK minimizedAffinity 9.56344986
REMARK minimizedRMSD -1
REMARK  3 active torsions:
REMARK  status: ('A' for Active; 'I' for Inactive)
REMARK    1  A    between atoms: C3'_2  and  C2'_3 
REMARK    2  A    between atoms: C2'_3  and  C1'_4 
REMARK    3  A    between atoms: C1'_4  and  C1_5 
ROOT
ATOM      1  C1  N4B d   1      -0.965   3.285  -1.956  0.00  0.00    -0.075 A 
ATOM      2  C2  N4B d   1      -0.439   2.616  -0.829  0.00  0.00     0.002 A 
ATOM      3  C3  N4B d   1       0.340   3.299   0.073  0.00  0.00     0.002 A 
ATOM      4  C4  N4B d   1       0.620   4.640  -0.140  0.00  0.00    -0.004 A 
ATOM      5  C5  N4B d   1       0.087   5.285  -1.217  0.00  0.00     0.002 A 
ATOM      6  C6  N4B d   1      -0.700   4.613  -2.130  0.00  0.00     0.002 A 
ENDROOT
BRANCH   1   7
ATOM      7  C1' N4B d   1      -1.750   2.560  -3.014  0.00  0.00     0.057 C 
BRANCH   7   8
ATOM      8  C2' N4B d   1      -3.103   2.149  -2.441  0.00  0.00     0.009 C 
BRANCH   8   9
ATOM      9  C3' N4B d   1      -3.234   0.640  -2.321  0.00  0.00     0.004 C 
ATOM     10  C4' N4B d   1      -3.241   0.169  -0.897  0.00  0.00     0.003 C 
ENDBRANCH   8   9
ENDBRANCH   7   8
ENDBRANCH   1   7
TORSDOF 3
ENDMDL
