MODEL 1
REMARK minimizedAffinity 10.0858755
REMARK minimizedRMSD -1
REMARK  3 active torsions:
REMARK  status: ('A' for Active; 'I' for Inactive)
REMARK    1  A    between atoms: C3'_2  and  C2'_3 
REMARK    2  A    between atoms: C2'_3  and  C1'_4 
REMARK    3  A    between atoms: C1'_4  and  C1_5 
ROOT
ATOM      1  C1  N4B d   1      -0.418   2.729  -0.342  0.00  0.00    -0.075 A 
ATOM      2  C2  N4B d   1       0.041   3.980   0.126  0.00  0.00     0.002 A 
ATOM      3  C3  N4B d   1      -0.022   5.083  -0.690  0.00  0.00     0.002 A 
ATOM      4  C4  N4B d   1      -0.520   4.956  -1.978  0.00  0.00    -0.004 A 
ATOM      5  C5  N4B d   1      -0.984   3.750  -2.413  0.00  0.00     0.002 A 
ATOM      6  C6  N4B d   1      -0.931   2.634  -1.603  0.00  0.00     0.002 A 
ENDROOT
BRANCH   1   7
ATOM      7  C1' N4B d   1      -0.290   1.477   0.482  0.00  0.00     0.057 C 
BRANCH   7   8
ATOM      8  C2' N4B d   1      -1.486   1.374   1.424  0.00  0.00     0.009 C 
BRANCH   8   9
ATOM      9  C3' N4B d   1      -1.112   0.731   2.749  0.00  0.00     0.004 C 
ATOM     10  C4' N4B d   1      -2.211  -0.120   3.312  0.00  0.00     0.003 C 
ENDBRANCH   8   9
ENDBRANCH   7   8
ENDBRANCH   1   7
TORSDOF 3
ENDMDL
