MODEL 1
REMARK minimizedAffinity 5.04607964
REMARK minimizedRMSD -1
REMARK  3 active torsions:
REMARK  status: ('A' for Active; 'I' for Inactive)
REMARK    1  A    between atoms: C3'_2  and  C2'_3 
REMARK    2  A    between atoms: C2'_3  and  C1'_4 
REMARK    3  A    between atoms: C1'_4  and  C1_5 
ROOT
ATOM      1  C1  N4B d   1      -0.801   3.635  -2.033  0.00  0.00    -0.075 A 
ATOM      2  C2  N4B d   1      -0.412   2.897  -0.894  0.00  0.00     0.002 A 
ATOM      3  C3  N4B d   1       0.312   3.504   0.103  0.00  0.00     0.002 A 
ATOM      4  C4  N4B d   1       0.672   4.837  -0.025  0.00  0.00    -0.004 A 
ATOM      5  C5  N4B d   1       0.269   5.550  -1.117  0.00  0.00     0.002 A 
ATOM      6  C6  N4B d   1      -0.461   4.954  -2.125  0.00  0.00     0.002 A 
ENDROOT
BRANCH   1   7
ATOM      7  C1' N4B d   1      -1.519   2.992  -3.188  0.00  0.00     0.057 C 
BRANCH   7   8
ATOM      8  C2' N4B d   1      -2.980   2.770  -2.809  0.00  0.00     0.009 C 
BRANCH   8   9
ATOM      9  C3' N4B d   1      -3.389   1.314  -2.949  0.00  0.00     0.004 C 
ATOM     10  C4' N4B d   1      -3.434   0.595  -1.633  0.00  0.00     0.003 C 
ENDBRANCH   8   9
ENDBRANCH   7   8
ENDBRANCH   1   7
TORSDOF 3
ENDMDL
