MODEL 1
REMARK minimizedAffinity 6.14937687
REMARK minimizedRMSD -1
REMARK  3 active torsions:
REMARK  status: ('A' for Active; 'I' for Inactive)
REMARK    1  A    between atoms: C3'_2  and  C2'_3 
REMARK    2  A    between atoms: C2'_3  and  C1'_4 
REMARK    3  A    between atoms: C1'_4  and  C1_5 
ROOT
ATOM      1  C1  N4B d   1      -0.088   3.287   0.609  0.00  0.00    -0.075 A 
ATOM      2  C2  N4B d   1      -0.414   2.311  -0.359  0.00  0.00     0.002 A 
ATOM      3  C3  N4B d   1      -0.321   2.612  -1.696  0.00  0.00     0.002 A 
ATOM      4  C4  N4B d   1       0.075   3.883  -2.087  0.00  0.00    -0.004 A 
ATOM      5  C5  N4B d   1       0.412   4.811  -1.146  0.00  0.00     0.002 A 
ATOM      6  C6  N4B d   1       0.328   4.521   0.201  0.00  0.00     0.002 A 
ENDROOT
BRANCH   1   7
ATOM      7  C1' N4B d   1      -0.257   3.032   2.082  0.00  0.00     0.057 C 
BRANCH   7   8
ATOM      8  C2' N4B d   1      -0.652   1.573   2.295  0.00  0.00     0.009 C 
BRANCH   8   9
ATOM      9  C3' N4B d   1      -1.798   1.434   3.282  0.00  0.00     0.004 C 
ATOM     10  C4' N4B d   1      -3.108   1.142   2.613  0.00  0.00     0.003 C 
ENDBRANCH   8   9
ENDBRANCH   7   8
ENDBRANCH   1   7
TORSDOF 3
ENDMDL
