MODEL 1
REMARK minimizedAffinity -3.12290645
REMARK minimizedRMSD -1
REMARK  1 active torsions:
REMARK  status: ('A' for Active; 'I' for Inactive)
REMARK    1  A    between atoms: C1_2  and  C2_3 
ROOT
ATOM      1  C2  UNL d   1      -1.011   0.300   1.944  0.00  0.00    -0.077 A 
ATOM      2  C3  UNL d   1       0.211   0.608   2.560  0.00  0.00     0.002 A 
ATOM      3  C4  UNL d   1       1.380   0.699   1.802  0.00  0.00     0.002 A 
ATOM      4  C5  UNL d   1       1.339   0.488   0.426  0.00  0.00    -0.004 A 
ATOM      5  C6  UNL d   1       0.129   0.180  -0.196  0.00  0.00     0.002 A 
ATOM      6  C7  UNL d   1      -1.040   0.087   0.560  0.00  0.00     0.002 A 
ENDROOT
BRANCH   1   7
ATOM      7  C1  UNL d   1      -2.281   0.250   2.752  0.00  0.00     0.055 C 
ATOM      8  C   UNL d   1      -3.471   0.746   1.943  0.00  0.00     0.019 C 
ENDBRANCH   1   7
TORSDOF 1
ENDMDL
