MODEL 1
REMARK minimizedAffinity -4.18628454
REMARK minimizedRMSD -1
REMARK  1 active torsions:
REMARK  status: ('A' for Active; 'I' for Inactive)
REMARK    1  A    between atoms: C1_2  and  C2_3 
ROOT
ATOM      1  C2  UNL d   1      -0.127   0.243   0.970  0.00  0.00    -0.077 A 
ATOM      2  C3  UNL d   1      -1.387  -0.004   0.408  0.00  0.00     0.002 A 
ATOM      3  C4  UNL d   1      -2.486  -0.270   1.227  0.00  0.00     0.002 A 
ATOM      4  C5  UNL d   1      -2.337  -0.287   2.612  0.00  0.00    -0.004 A 
ATOM      5  C6  UNL d   1      -1.087  -0.044   3.181  0.00  0.00     0.002 A 
ATOM      6  C7  UNL d   1       0.013   0.220   2.364  0.00  0.00     0.002 A 
ENDROOT
BRANCH   1   7
ATOM      7  C1  UNL d   1       1.049   0.578   0.090  0.00  0.00     0.055 C 
ATOM      8  C   UNL d   1       2.180   1.203   0.893  0.00  0.00     0.019 C 
ENDBRANCH   1   7
TORSDOF 1
ENDMDL
