MODEL 1
REMARK minimizedAffinity -3.60824466
REMARK minimizedRMSD -1
REMARK  1 active torsions:
REMARK  status: ('A' for Active; 'I' for Inactive)
REMARK    1  A    between atoms: C1_2  and  C2_3 
ROOT
ATOM      1  C2  UNL d   1       0.204   0.360  -0.480  0.00  0.00    -0.077 A 
ATOM      2  C3  UNL d   1      -1.067   0.017   0.001  0.00  0.00     0.002 A 
ATOM      3  C4  UNL d   1      -1.305  -0.060   1.375  0.00  0.00     0.002 A 
ATOM      4  C5  UNL d   1      -0.279   0.208   2.278  0.00  0.00    -0.004 A 
ATOM      5  C6  UNL d   1       0.990   0.548   1.809  0.00  0.00     0.002 A 
ATOM      6  C7  UNL d   1       1.230   0.624   0.437  0.00  0.00     0.002 A 
ENDROOT
BRANCH   1   7
ATOM      7  C1  UNL d   1       0.451   0.492  -1.960  0.00  0.00     0.055 C 
ATOM      8  C   UNL d   1       0.565  -0.872  -2.626  0.00  0.00     0.019 C 
ENDBRANCH   1   7
TORSDOF 1
ENDMDL
