MODEL 1
REMARK minimizedAffinity -3.81580901
REMARK minimizedRMSD -1
REMARK  1 active torsions:
REMARK  status: ('A' for Active; 'I' for Inactive)
REMARK    1  A    between atoms: C1_2  and  C2_3 
ROOT
ATOM      1  C2  UNL d   1      -0.351   0.230  -0.116  0.00  0.00    -0.077 A 
ATOM      2  C3  UNL d   1      -1.371   0.105   0.837  0.00  0.00     0.002 A 
ATOM      3  C4  UNL d   1      -1.062   0.048   2.198  0.00  0.00     0.002 A 
ATOM      4  C5  UNL d   1       0.264   0.120   2.617  0.00  0.00    -0.004 A 
ATOM      5  C6  UNL d   1       1.286   0.243   1.676  0.00  0.00     0.002 A 
ATOM      6  C7  UNL d   1       0.980   0.299   0.315  0.00  0.00     0.002 A 
ENDROOT
BRANCH   1   7
ATOM      7  C1  UNL d   1      -0.685   0.341  -1.581  0.00  0.00     0.055 C 
ATOM      8  C   UNL d   1       0.328  -0.405  -2.438  0.00  0.00     0.019 C 
ENDBRANCH   1   7
TORSDOF 1
ENDMDL
