MODEL 1
REMARK minimizedAffinity -3.82119584
REMARK minimizedRMSD -1
REMARK  1 active torsions:
REMARK  status: ('A' for Active; 'I' for Inactive)
REMARK    1  A    between atoms: C1_2  and  C2_3 
ROOT
ATOM      1  C2  UNL d   1       0.522  -0.000  -1.051  0.00  0.00    -0.077 A 
ATOM      2  C3  UNL d   1       1.574   0.441  -1.867  0.00  0.00     0.002 A 
ATOM      3  C4  UNL d   1       1.682  -0.009  -3.185  0.00  0.00     0.002 A 
ATOM      4  C5  UNL d   1       0.741  -0.898  -3.699  0.00  0.00    -0.004 A 
ATOM      5  C6  UNL d   1      -0.307  -1.345  -2.894  0.00  0.00     0.002 A 
ATOM      6  C7  UNL d   1      -0.416  -0.897  -1.577  0.00  0.00     0.002 A 
ENDROOT
BRANCH   1   7
ATOM      7  C1  UNL d   1       0.376   0.522   0.354  0.00  0.00     0.055 C 
ATOM      8  C   UNL d   1       1.503   0.027   1.249  0.00  0.00     0.019 C 
ENDBRANCH   1   7
TORSDOF 1
ENDMDL
