MODEL 1
REMARK minimizedAffinity -4.5391984
REMARK minimizedRMSD -1
REMARK  1 active torsions:
REMARK  status: ('A' for Active; 'I' for Inactive)
REMARK    1  A    between atoms: C1_2  and  C2_3 
ROOT
ATOM      1  C2  UNL d   1      -0.183   0.789  -0.264  0.00  0.00    -0.077 A 
ATOM      2  C3  UNL d   1      -1.576   0.948  -0.266  0.00  0.00     0.002 A 
ATOM      3  C4  UNL d   1      -2.290   0.945   0.934  0.00  0.00     0.002 A 
ATOM      4  C5  UNL d   1      -1.619   0.786   2.145  0.00  0.00    -0.004 A 
ATOM      5  C6  UNL d   1      -0.234   0.625   2.158  0.00  0.00     0.002 A 
ATOM      6  C7  UNL d   1       0.481   0.627   0.959  0.00  0.00     0.002 A 
ENDROOT
BRANCH   1   7
ATOM      7  C1  UNL d   1       0.594   0.841  -1.553  0.00  0.00     0.055 C 
ATOM      8  C   UNL d   1       0.798  -0.551  -2.134  0.00  0.00     0.019 C 
ENDBRANCH   1   7
TORSDOF 1
ENDMDL
