MODEL 1
REMARK minimizedAffinity -0.94433111
REMARK minimizedRMSD -1
REMARK  1 active torsions:
REMARK  status: ('A' for Active; 'I' for Inactive)
REMARK    1  A    between atoms: C1_2  and  C2_3 
ROOT
ATOM      1  C2  UNL d   1       0.572  -0.352  -1.618  0.00  0.00    -0.077 A 
ATOM      2  C3  UNL d   1      -0.238  -1.144  -2.444  0.00  0.00     0.002 A 
ATOM      3  C4  UNL d   1       0.239  -1.598  -3.675  0.00  0.00     0.002 A 
ATOM      4  C5  UNL d   1       1.528  -1.269  -4.090  0.00  0.00    -0.004 A 
ATOM      5  C6  UNL d   1       2.340  -0.480  -3.276  0.00  0.00     0.002 A 
ATOM      6  C7  UNL d   1       1.865  -0.024  -2.046  0.00  0.00     0.002 A 
ENDROOT
BRANCH   1   7
ATOM      7  C1  UNL d   1       0.077   0.098  -0.269  0.00  0.00     0.055 C 
ATOM      8  C   UNL d   1       1.212   0.652   0.581  0.00  0.00     0.019 C 
ENDBRANCH   1   7
TORSDOF 1
ENDMDL
