MODEL 1
REMARK minimizedAffinity 0.932322383
REMARK minimizedRMSD -1
REMARK  0 active torsions:
REMARK  status: ('A' for Active; 'I' for Inactive)
ROOT
ATOM      1  C   UNL d   1       1.931  -0.816   3.487  0.00  0.00     0.078 C 
ATOM      2  C1  UNL d   1       1.525   0.006   2.301  0.00  0.00    -0.077 A 
ATOM      3  C2  UNL d   1       0.402  -0.335   1.536  0.00  0.00    -0.001 A 
ATOM      4  C3  UNL d   1       0.041   0.434   0.429  0.00  0.00     0.003 A 
ATOM      5  C4  UNL d   1       0.798   1.549   0.075  0.00  0.00    -0.005 A 
ATOM      6  C5  UNL d   1       1.919   1.896   0.828  0.00  0.00     0.003 A 
ATOM      7  C6  UNL d   1       2.281   1.127   1.936  0.00  0.00    -0.001 A 
ENDROOT
TORSDOF 0
ENDMDL
