MODEL 1
REMARK minimizedAffinity 3.00236392
REMARK minimizedRMSD -1
REMARK  0 active torsions:
REMARK  status: ('A' for Active; 'I' for Inactive)
ROOT
ATOM      1  C   UNL d   1      -0.069  -2.060   1.042  0.00  0.00     0.078 C 
ATOM      2  C1  UNL d   1      -0.314  -2.050  -0.437  0.00  0.00    -0.077 A 
ATOM      3  C2  UNL d   1       0.710  -2.361  -1.340  0.00  0.00    -0.001 A 
ATOM      4  C3  UNL d   1       0.470  -2.338  -2.715  0.00  0.00     0.003 A 
ATOM      5  C4  UNL d   1      -0.793  -2.004  -3.199  0.00  0.00    -0.005 A 
ATOM      6  C5  UNL d   1      -1.818  -1.691  -2.308  0.00  0.00     0.003 A 
ATOM      7  C6  UNL d   1      -1.580  -1.713  -0.933  0.00  0.00    -0.001 A 
ENDROOT
TORSDOF 0
ENDMDL
