MODEL 1
REMARK minimizedAffinity 2.14762163
REMARK minimizedRMSD -1
REMARK  0 active torsions:
REMARK  status: ('A' for Active; 'I' for Inactive)
ROOT
ATOM      1  C   UNL d   1       1.728  -1.745   3.740  0.00  0.00     0.078 C 
ATOM      2  C1  UNL d   1       1.824  -3.086   4.404  0.00  0.00    -0.077 A 
ATOM      3  C2  UNL d   1       0.831  -3.524   5.289  0.00  0.00    -0.001 A 
ATOM      4  C3  UNL d   1       0.938  -4.771   5.908  0.00  0.00     0.003 A 
ATOM      5  C4  UNL d   1       2.036  -5.589   5.649  0.00  0.00    -0.005 A 
ATOM      6  C5  UNL d   1       3.030  -5.160   4.772  0.00  0.00     0.003 A 
ATOM      7  C6  UNL d   1       2.925  -3.914   4.152  0.00  0.00    -0.001 A 
ENDROOT
TORSDOF 0
ENDMDL
