MODEL 1
REMARK minimizedAffinity 1.41658211
REMARK minimizedRMSD -1
REMARK  0 active torsions:
REMARK  status: ('A' for Active; 'I' for Inactive)
ROOT
ATOM      1  C   UNL d   1      -0.037   4.816   0.619  0.00  0.00     0.078 C 
ATOM      2  C1  UNL d   1       0.423   3.390   0.579  0.00  0.00    -0.077 A 
ATOM      3  C2  UNL d   1       1.507   2.959   1.353  0.00  0.00    -0.001 A 
ATOM      4  C3  UNL d   1       1.930   1.630   1.299  0.00  0.00     0.003 A 
ATOM      5  C4  UNL d   1       1.276   0.721   0.470  0.00  0.00    -0.005 A 
ATOM      6  C5  UNL d   1       0.198   1.141  -0.306  0.00  0.00     0.003 A 
ATOM      7  C6  UNL d   1      -0.227   2.469  -0.253  0.00  0.00    -0.001 A 
ENDROOT
TORSDOF 0
ENDMDL
