MODEL 1
REMARK minimizedAffinity -4.46988487
REMARK minimizedRMSD -1
REMARK  0 active torsions:
REMARK  status: ('A' for Active; 'I' for Inactive)
ROOT
ATOM      1  C4' PXY d   1      -0.576   1.294   2.952  0.00  0.00     0.077 C 
ATOM      2  C1' PXY d   1       0.452  -0.918  -2.289  0.00  0.00     0.077 C 
ATOM      3  C1  PXY d   1       0.194  -0.342  -0.910  0.00  0.00    -0.082 A 
ATOM      4  C2  PXY d   1      -1.050  -0.144  -0.507  0.00  0.00     0.003 A 
ATOM      5  C3  PXY d   1      -1.301   0.405   0.724  0.00  0.00     0.003 A 
ATOM      6  C4  PXY d   1      -0.268   0.706   1.572  0.00  0.00    -0.082 A 
ATOM      7  C5  PXY d   1       1.004   0.497   1.172  0.00  0.00     0.003 A 
ATOM      8  C6  PXY d   1       1.238  -0.024  -0.098  0.00  0.00     0.003 A 
ENDROOT
TORSDOF 0
ENDMDL
