MODEL 1
REMARK minimizedAffinity -5.35631466
REMARK minimizedRMSD -1
REMARK  0 active torsions:
REMARK  status: ('A' for Active; 'I' for Inactive)
ROOT
ATOM      1  C4' PXY d   1       0.444  -0.708  -1.728  0.00  0.00     0.077 C 
ATOM      2  C1' PXY d   1      -0.529   1.503   3.523  0.00  0.00     0.077 C 
ATOM      3  C1  PXY d   1      -0.286   0.918   2.146  0.00  0.00    -0.082 A 
ATOM      4  C2  PXY d   1       0.949   0.637   1.763  0.00  0.00     0.003 A 
ATOM      5  C3  PXY d   1       1.189   0.138   0.509  0.00  0.00     0.003 A 
ATOM      6  C4  PXY d   1       0.151  -0.126  -0.343  0.00  0.00    -0.082 A 
ATOM      7  C5  PXY d   1      -1.113   0.148   0.044  0.00  0.00     0.003 A 
ATOM      8  C6  PXY d   1      -1.333   0.693   1.306  0.00  0.00     0.003 A 
ENDROOT
TORSDOF 0
ENDMDL
