MODEL 1
REMARK minimizedAffinity -5.73916197
REMARK minimizedRMSD -1
REMARK  0 active torsions:
REMARK  status: ('A' for Active; 'I' for Inactive)
ROOT
ATOM      1  C4' PXY d   1       0.801  -0.874  -1.566  0.00  0.00     0.077 C 
ATOM      2  C1' PXY d   1      -0.589   1.814   3.359  0.00  0.00     0.077 C 
ATOM      3  C1  PXY d   1      -0.237   1.106   2.066  0.00  0.00    -0.082 A 
ATOM      4  C2  PXY d   1       1.007   0.705   1.857  0.00  0.00     0.003 A 
ATOM      5  C3  PXY d   1       1.349   0.091   0.680  0.00  0.00     0.003 A 
ATOM      6  C4  PXY d   1       0.398  -0.163  -0.272  0.00  0.00    -0.082 A 
ATOM      7  C5  PXY d   1      -0.875   0.233  -0.061  0.00  0.00     0.003 A 
ATOM      8  C6  PXY d   1      -1.194   0.892   1.123  0.00  0.00     0.003 A 
ENDROOT
TORSDOF 0
ENDMDL
