MODEL 1
REMARK minimizedAffinity -1.46212602
REMARK minimizedRMSD -1
REMARK  0 active torsions:
REMARK  status: ('A' for Active; 'I' for Inactive)
ROOT
ATOM      1  C4' PXY d   1      -2.844  -0.099   0.253  0.00  0.00     0.077 C 
ATOM      2  C1' PXY d   1       2.865  -0.586   1.023  0.00  0.00     0.077 C 
ATOM      3  C1  PXY d   1       1.366  -0.457   0.834  0.00  0.00    -0.082 A 
ATOM      4  C2  PXY d   1       0.795  -0.975  -0.241  0.00  0.00     0.003 A 
ATOM      5  C3  PXY d   1      -0.554  -0.840  -0.443  0.00  0.00     0.003 A 
ATOM      6  C4  PXY d   1      -1.335  -0.213   0.490  0.00  0.00    -0.082 A 
ATOM      7  C5  PXY d   1      -0.762   0.309   1.595  0.00  0.00     0.003 A 
ATOM      8  C6  PXY d   1       0.615   0.197   1.762  0.00  0.00     0.003 A 
ENDROOT
TORSDOF 0
ENDMDL
