MODEL 1
REMARK minimizedAffinity -5.80866241
REMARK minimizedRMSD -1
REMARK  0 active torsions:
REMARK  status: ('A' for Active; 'I' for Inactive)
ROOT
ATOM      1  C4' PXY d   1       0.734  -0.565  -1.793  0.00  0.00     0.077 C 
ATOM      2  C1' PXY d   1      -0.727   0.785   3.634  0.00  0.00     0.077 C 
ATOM      3  C1  PXY d   1      -0.356   0.428   2.208  0.00  0.00    -0.082 A 
ATOM      4  C2  PXY d   1       0.895   0.112   1.918  0.00  0.00     0.003 A 
ATOM      5  C3  PXY d   1       1.254  -0.183   0.627  0.00  0.00     0.003 A 
ATOM      6  C4  PXY d   1       0.312  -0.206  -0.366  0.00  0.00    -0.082 A 
ATOM      7  C5  PXY d   1      -0.969   0.105  -0.075  0.00  0.00     0.003 A 
ATOM      8  C6  PXY d   1      -1.305   0.441   1.233  0.00  0.00     0.003 A 
ENDROOT
TORSDOF 0
ENDMDL
