MODEL 1
REMARK minimizedAffinity -5.67035961
REMARK minimizedRMSD -1
REMARK  0 active torsions:
REMARK  status: ('A' for Active; 'I' for Inactive)
ROOT
ATOM      1  C4' PXY d   1       0.753  -0.142  -2.336  0.00  0.00     0.077 C 
ATOM      2  C1' PXY d   1      -1.262   1.418   2.853  0.00  0.00     0.077 C 
ATOM      3  C1  PXY d   1      -0.721   1.011   1.496  0.00  0.00    -0.082 A 
ATOM      4  C2  PXY d   1      -1.490   1.124   0.425  0.00  0.00     0.003 A 
ATOM      5  C3  PXY d   1      -1.028   0.731  -0.805  0.00  0.00     0.003 A 
ATOM      6  C4  PXY d   1       0.252   0.266  -0.948  0.00  0.00    -0.082 A 
ATOM      7  C5  PXY d   1       1.046   0.158   0.139  0.00  0.00     0.003 A 
ATOM      8  C6  PXY d   1       0.544   0.524   1.384  0.00  0.00     0.003 A 
ENDROOT
TORSDOF 0
ENDMDL
