MODEL 1
REMARK minimizedAffinity -3.32619309
REMARK minimizedRMSD -1
REMARK  0 active torsions:
REMARK  status: ('A' for Active; 'I' for Inactive)
ROOT
ATOM      1  C4' PXY d   1       0.400  -0.774  -2.669  0.00  0.00     0.077 C 
ATOM      2  C1' PXY d   1      -0.969   1.058   2.640  0.00  0.00     0.077 C 
ATOM      3  C1  PXY d   1      -0.598   0.582   1.249  0.00  0.00    -0.082 A 
ATOM      4  C2  PXY d   1      -1.545   0.412   0.342  0.00  0.00     0.003 A 
ATOM      5  C3  PXY d   1      -1.231  -0.049  -0.911  0.00  0.00     0.003 A 
ATOM      6  C4  PXY d   1       0.073  -0.286  -1.255  0.00  0.00    -0.082 A 
ATOM      7  C5  PXY d   1       1.047  -0.104  -0.338  0.00  0.00     0.003 A 
ATOM      8  C6  PXY d   1       0.702   0.324   0.941  0.00  0.00     0.003 A 
ENDROOT
TORSDOF 0
ENDMDL
