MODEL 1
REMARK minimizedAffinity -1.69525409
REMARK minimizedRMSD -1
REMARK  0 active torsions:
REMARK  status: ('A' for Active; 'I' for Inactive)
ROOT
ATOM      1  C4' PXY d   1      -1.754  -0.912   0.019  0.00  0.00     0.077 C 
ATOM      2  C1' PXY d   1       2.649   0.684  -3.370  0.00  0.00     0.077 C 
ATOM      3  C1  PXY d   1       1.501   0.268  -2.471  0.00  0.00    -0.082 A 
ATOM      4  C2  PXY d   1       0.609  -0.604  -2.910  0.00  0.00     0.003 A 
ATOM      5  C3  PXY d   1      -0.453  -0.966  -2.122  0.00  0.00     0.003 A 
ATOM      6  C4  PXY d   1      -0.574  -0.471  -0.851  0.00  0.00    -0.082 A 
ATOM      7  C5  PXY d   1       0.339   0.411  -0.392  0.00  0.00     0.003 A 
ATOM      8  C6  PXY d   1       1.387   0.797  -1.222  0.00  0.00     0.003 A 
ENDROOT
TORSDOF 0
ENDMDL
