MODEL 1
REMARK minimizedAffinity -5.00566387
REMARK minimizedRMSD -1
REMARK  0 active torsions:
REMARK  status: ('A' for Active; 'I' for Inactive)
ROOT
ATOM      1  C4' PXY d   1      -0.729   1.638   3.826  0.00  0.00     0.077 C 
ATOM      2  C1' PXY d   1       0.434  -0.688  -1.336  0.00  0.00     0.077 C 
ATOM      3  C1  PXY d   1       0.117  -0.074   0.013  0.00  0.00    -0.082 A 
ATOM      4  C2  PXY d   1       1.105   0.270   0.823  0.00  0.00     0.003 A 
ATOM      5  C3  PXY d   1       0.836   0.797   2.060  0.00  0.00     0.003 A 
ATOM      6  C4  PXY d   1      -0.457   1.024   2.451  0.00  0.00    -0.082 A 
ATOM      7  C5  PXY d   1      -1.470   0.685   1.626  0.00  0.00     0.003 A 
ATOM      8  C6  PXY d   1      -1.177   0.113   0.391  0.00  0.00     0.003 A 
ENDROOT
TORSDOF 0
ENDMDL
