MODEL 1
REMARK minimizedAffinity -3.80655456
REMARK minimizedRMSD -1
REMARK  0 active torsions:
REMARK  status: ('A' for Active; 'I' for Inactive)
ROOT
ATOM      1  C4' PXY d   1       0.047  -0.833  -2.041  0.00  0.00     0.077 C 
ATOM      2  C1' PXY d   1      -0.778   1.506   3.181  0.00  0.00     0.077 C 
ATOM      3  C1  PXY d   1      -0.550   0.898   1.811  0.00  0.00    -0.082 A 
ATOM      4  C2  PXY d   1      -1.584   0.653   1.024  0.00  0.00     0.003 A 
ATOM      5  C3  PXY d   1      -1.398   0.073  -0.205  0.00  0.00     0.003 A 
ATOM      6  C4  PXY d   1      -0.136  -0.210  -0.654  0.00  0.00    -0.082 A 
ATOM      7  C5  PXY d   1       0.925   0.047   0.140  0.00  0.00     0.003 A 
ATOM      8  C6  PXY d   1       0.712   0.598   1.400  0.00  0.00     0.003 A 
ENDROOT
TORSDOF 0
ENDMDL
