MODEL 1
REMARK minimizedAffinity -4.46683884
REMARK minimizedRMSD -1
REMARK  0 active torsions:
REMARK  status: ('A' for Active; 'I' for Inactive)
ROOT
ATOM      1  C4' PXY d   1      -1.534   1.216   2.962  0.00  0.00     0.077 C 
ATOM      2  C1' PXY d   1       1.177  -1.228  -1.520  0.00  0.00     0.077 C 
ATOM      3  C1  PXY d   1       0.456  -0.583  -0.353  0.00  0.00    -0.082 A 
ATOM      4  C2  PXY d   1       1.141  -0.226   0.722  0.00  0.00     0.003 A 
ATOM      5  C3  PXY d   1       0.500   0.329   1.800  0.00  0.00     0.003 A 
ATOM      6  C4  PXY d   1      -0.847   0.570   1.756  0.00  0.00    -0.082 A 
ATOM      7  C5  PXY d   1      -1.551   0.219   0.659  0.00  0.00     0.003 A 
ATOM      8  C6  PXY d   1      -0.888  -0.381  -0.408  0.00  0.00     0.003 A 
ENDROOT
TORSDOF 0
ENDMDL
