MODEL 1
REMARK minimizedAffinity -5.92257881
REMARK minimizedRMSD -1
REMARK  1 active torsions:
REMARK  status: ('A' for Active; 'I' for Inactive)
REMARK    1  A    between atoms: C1_2  and  C2_3 
ROOT
ATOM      1  C2  UNL d   1      -0.186  -0.019   0.040  0.00  0.00    -0.077 A 
ATOM      2  C3  UNL d   1       0.577  -0.915  -0.722  0.00  0.00     0.002 A 
ATOM      3  C4  UNL d   1       0.386  -2.292  -0.593  0.00  0.00     0.002 A 
ATOM      4  C5  UNL d   1      -0.569  -2.785   0.293  0.00  0.00    -0.004 A 
ATOM      5  C6  UNL d   1      -1.332  -1.902   1.057  0.00  0.00     0.002 A 
ATOM      6  C7  UNL d   1      -1.142  -0.526   0.931  0.00  0.00     0.002 A 
ENDROOT
BRANCH   1   7
ATOM      7  C1  UNL d   1      -0.017   1.468  -0.133  0.00  0.00     0.055 C 
ATOM      8  C   UNL d   1       1.446   1.839  -0.326  0.00  0.00     0.019 C 
ENDBRANCH   1   7
TORSDOF 1
ENDMDL
