MODEL 1
REMARK minimizedAffinity -3.9911015
REMARK minimizedRMSD -1
REMARK  1 active torsions:
REMARK  status: ('A' for Active; 'I' for Inactive)
REMARK    1  A    between atoms: C1_2  and  C2_3 
ROOT
ATOM      1  C2  UNL d   1      -0.090  -0.967  -1.113  0.00  0.00    -0.077 A 
ATOM      2  C3  UNL d   1      -0.688  -2.140  -0.633  0.00  0.00     0.002 A 
ATOM      3  C4  UNL d   1      -1.123  -2.220   0.692  0.00  0.00     0.002 A 
ATOM      4  C5  UNL d   1      -0.968  -1.129   1.545  0.00  0.00    -0.004 A 
ATOM      5  C6  UNL d   1      -0.372   0.041   1.077  0.00  0.00     0.002 A 
ATOM      6  C7  UNL d   1       0.064   0.122  -0.246  0.00  0.00     0.002 A 
ENDROOT
BRANCH   1   7
ATOM      7  C1  UNL d   1       0.335  -0.862  -2.555  0.00  0.00     0.055 C 
ATOM      8  C   UNL d   1       0.242  -2.208  -3.259  0.00  0.00     0.019 C 
ENDBRANCH   1   7
TORSDOF 1
ENDMDL
