MODEL 1
REMARK minimizedAffinity -5.61534691
REMARK minimizedRMSD -1
REMARK  1 active torsions:
REMARK  status: ('A' for Active; 'I' for Inactive)
REMARK    1  A    between atoms: C1_2  and  C2_3 
ROOT
ATOM      1  C2  UNL d   1       0.029  -0.801  -0.170  0.00  0.00    -0.077 A 
ATOM      2  C3  UNL d   1       0.338  -0.567  -1.517  0.00  0.00     0.002 A 
ATOM      3  C4  UNL d   1       0.386  -1.626  -2.425  0.00  0.00     0.002 A 
ATOM      4  C5  UNL d   1       0.122  -2.925  -1.997  0.00  0.00    -0.004 A 
ATOM      5  C6  UNL d   1      -0.184  -3.169  -0.658  0.00  0.00     0.002 A 
ATOM      6  C7  UNL d   1      -0.231  -2.111   0.251  0.00  0.00     0.002 A 
ENDROOT
BRANCH   1   7
ATOM      7  C1  UNL d   1      -0.071   0.347   0.801  0.00  0.00     0.055 C 
ATOM      8  C   UNL d   1       0.399   1.649   0.169  0.00  0.00     0.019 C 
ENDBRANCH   1   7
TORSDOF 1
ENDMDL
