MODEL 1
REMARK minimizedAffinity -4.36335373
REMARK minimizedRMSD -1
REMARK  1 active torsions:
REMARK  status: ('A' for Active; 'I' for Inactive)
REMARK    1  A    between atoms: C1_2  and  C2_3 
ROOT
ATOM      1  C2  UNL d   1      -0.343  -0.237  -0.326  0.00  0.00    -0.077 A 
ATOM      2  C3  UNL d   1      -1.303  -0.497   0.662  0.00  0.00     0.002 A 
ATOM      3  C4  UNL d   1      -1.501  -1.798   1.129  0.00  0.00     0.002 A 
ATOM      4  C5  UNL d   1      -0.741  -2.847   0.618  0.00  0.00    -0.004 A 
ATOM      5  C6  UNL d   1       0.215  -2.600  -0.367  0.00  0.00     0.002 A 
ATOM      6  C7  UNL d   1       0.414  -1.300  -0.836  0.00  0.00     0.002 A 
ENDROOT
BRANCH   1   7
ATOM      7  C1  UNL d   1      -0.093   1.172  -0.797  0.00  0.00     0.055 C 
ATOM      8  C   UNL d   1       0.391   2.058   0.342  0.00  0.00     0.019 C 
ENDBRANCH   1   7
TORSDOF 1
ENDMDL
