MODEL 1
REMARK minimizedAffinity -2.63434744
REMARK minimizedRMSD -1
REMARK  1 active torsions:
REMARK  status: ('A' for Active; 'I' for Inactive)
REMARK    1  A    between atoms: C1_2  and  C2_3 
ROOT
ATOM      1  C2  UNL d   1      -0.518  -0.429  -0.377  0.00  0.00    -0.077 A 
ATOM      2  C3  UNL d   1      -0.198  -1.097  -1.567  0.00  0.00     0.002 A 
ATOM      3  C4  UNL d   1      -0.499  -2.452  -1.719  0.00  0.00     0.002 A 
ATOM      4  C5  UNL d   1      -1.124  -3.149  -0.687  0.00  0.00    -0.004 A 
ATOM      5  C6  UNL d   1      -1.444  -2.494   0.501  0.00  0.00     0.002 A 
ATOM      6  C7  UNL d   1      -1.143  -1.140   0.656  0.00  0.00     0.002 A 
ENDROOT
BRANCH   1   7
ATOM      7  C1  UNL d   1      -0.239   1.044  -0.229  0.00  0.00     0.055 C 
ATOM      8  C   UNL d   1       1.141   1.289   0.365  0.00  0.00     0.019 C 
ENDBRANCH   1   7
TORSDOF 1
ENDMDL
