MODEL 1
REMARK minimizedAffinity -3.55649543
REMARK minimizedRMSD -1
REMARK  1 active torsions:
REMARK  status: ('A' for Active; 'I' for Inactive)
REMARK    1  A    between atoms: C1_2  and  C2_3 
ROOT
ATOM      1  C2  UNL d   1      -0.612  -0.115  -0.255  0.00  0.00    -0.077 A 
ATOM      2  C3  UNL d   1      -1.285  -0.505   0.911  0.00  0.00     0.002 A 
ATOM      3  C4  UNL d   1      -1.471  -1.859   1.199  0.00  0.00     0.002 A 
ATOM      4  C5  UNL d   1      -0.986  -2.832   0.329  0.00  0.00    -0.004 A 
ATOM      5  C6  UNL d   1      -0.317  -2.454  -0.835  0.00  0.00     0.002 A 
ATOM      6  C7  UNL d   1      -0.131  -1.102  -1.126  0.00  0.00     0.002 A 
ENDROOT
BRANCH   1   7
ATOM      7  C1  UNL d   1      -0.366   1.343  -0.544  0.00  0.00     0.055 C 
ATOM      8  C   UNL d   1       0.856   1.856   0.204  0.00  0.00     0.019 C 
ENDBRANCH   1   7
TORSDOF 1
ENDMDL
