MODEL 1
REMARK minimizedAffinity -5.26021814
REMARK minimizedRMSD -1
REMARK  1 active torsions:
REMARK  status: ('A' for Active; 'I' for Inactive)
REMARK    1  A    between atoms: C1_2  and  C2_3 
ROOT
ATOM      1  C2  UNL d   1      -0.467  -1.836  -0.470  0.00  0.00    -0.077 A 
ATOM      2  C3  UNL d   1      -1.335  -1.860   0.630  0.00  0.00     0.002 A 
ATOM      3  C4  UNL d   1      -1.587  -0.694   1.356  0.00  0.00     0.002 A 
ATOM      4  C5  UNL d   1      -0.977   0.504   0.988  0.00  0.00    -0.004 A 
ATOM      5  C6  UNL d   1      -0.111   0.537  -0.104  0.00  0.00     0.002 A 
ATOM      6  C7  UNL d   1       0.143  -0.628  -0.830  0.00  0.00     0.002 A 
ENDROOT
BRANCH   1   7
ATOM      7  C1  UNL d   1      -0.233  -3.082  -1.284  0.00  0.00     0.055 C 
ATOM      8  C   UNL d   1      -0.124  -2.761  -2.768  0.00  0.00     0.019 C 
ENDBRANCH   1   7
TORSDOF 1
ENDMDL
