MODEL 1
REMARK minimizedAffinity -2.37601018
REMARK minimizedRMSD -1
REMARK  1 active torsions:
REMARK  status: ('A' for Active; 'I' for Inactive)
REMARK    1  A    between atoms: C1_2  and  C2_3 
ROOT
ATOM      1  C2  UNL d   1      -0.979  -2.404  -0.590  0.00  0.00    -0.077 A 
ATOM      2  C3  UNL d   1      -0.362  -1.171  -0.843  0.00  0.00     0.002 A 
ATOM      3  C4  UNL d   1      -0.248  -0.217   0.171  0.00  0.00     0.002 A 
ATOM      4  C5  UNL d   1      -0.746  -0.488   1.444  0.00  0.00    -0.004 A 
ATOM      5  C6  UNL d   1      -1.364  -1.710   1.704  0.00  0.00     0.002 A 
ATOM      6  C7  UNL d   1      -1.480  -2.664   0.692  0.00  0.00     0.002 A 
ENDROOT
BRANCH   1   7
ATOM      7  C1  UNL d   1      -1.059  -3.452  -1.669  0.00  0.00     0.055 C 
ATOM      8  C   UNL d   1      -0.599  -2.902  -3.011  0.00  0.00     0.019 C 
ENDBRANCH   1   7
TORSDOF 1
ENDMDL
