MODEL 1
REMARK minimizedAffinity -5.13803768
REMARK minimizedRMSD -1
REMARK  1 active torsions:
REMARK  status: ('A' for Active; 'I' for Inactive)
REMARK    1  A    between atoms: C1_2  and  C2_3 
ROOT
ATOM      1  C2  UNL d   1       0.078  -1.721  -0.184  0.00  0.00    -0.077 A 
ATOM      2  C3  UNL d   1      -0.804  -2.568   0.500  0.00  0.00     0.002 A 
ATOM      3  C4  UNL d   1      -1.687  -2.050   1.450  0.00  0.00     0.002 A 
ATOM      4  C5  UNL d   1      -1.699  -0.684   1.720  0.00  0.00    -0.004 A 
ATOM      5  C6  UNL d   1      -0.824   0.167   1.046  0.00  0.00     0.002 A 
ATOM      6  C7  UNL d   1       0.060  -0.349   0.098  0.00  0.00     0.002 A 
ENDROOT
BRANCH   1   7
ATOM      7  C1  UNL d   1       0.997  -2.270  -1.244  0.00  0.00     0.055 C 
ATOM      8  C   UNL d   1       0.624  -1.749  -2.624  0.00  0.00     0.019 C 
ENDBRANCH   1   7
TORSDOF 1
ENDMDL
