MODEL 1
REMARK minimizedAffinity -5.45440054
REMARK minimizedRMSD -1
REMARK  1 active torsions:
REMARK  status: ('A' for Active; 'I' for Inactive)
REMARK    1  A    between atoms: C1_2  and  C2_3 
ROOT
ATOM      1  C2  UNL d   1      -0.037  -2.024  -0.677  0.00  0.00    -0.077 A 
ATOM      2  C3  UNL d   1      -0.580  -3.056   0.101  0.00  0.00     0.002 A 
ATOM      3  C4  UNL d   1      -1.300  -2.763   1.261  0.00  0.00     0.002 A 
ATOM      4  C5  UNL d   1      -1.486  -1.438   1.651  0.00  0.00    -0.004 A 
ATOM      5  C6  UNL d   1      -0.948  -0.405   0.886  0.00  0.00     0.002 A 
ATOM      6  C7  UNL d   1      -0.227  -0.696  -0.274  0.00  0.00     0.002 A 
ENDROOT
BRANCH   1   7
ATOM      7  C1  UNL d   1       0.697  -2.336  -1.955  0.00  0.00     0.055 C 
ATOM      8  C   UNL d   1       0.437  -1.276  -3.016  0.00  0.00     0.019 C 
ENDBRANCH   1   7
TORSDOF 1
ENDMDL
