MODEL 1
REMARK minimizedAffinity -5.47652674
REMARK minimizedRMSD -1
REMARK  1 active torsions:
REMARK  status: ('A' for Active; 'I' for Inactive)
REMARK    1  A    between atoms: C1_2  and  C2_3 
ROOT
ATOM      1  C2  UNL d   1      -0.523  -1.910  -0.712  0.00  0.00    -0.077 A 
ATOM      2  C3  UNL d   1      -0.979  -2.547   0.451  0.00  0.00     0.002 A 
ATOM      3  C4  UNL d   1      -1.218  -1.811   1.612  0.00  0.00     0.002 A 
ATOM      4  C5  UNL d   1      -1.008  -0.433   1.622  0.00  0.00    -0.004 A 
ATOM      5  C6  UNL d   1      -0.553   0.210   0.472  0.00  0.00     0.002 A 
ATOM      6  C7  UNL d   1      -0.312  -0.525  -0.690  0.00  0.00     0.002 A 
ENDROOT
BRANCH   1   7
ATOM      7  C1  UNL d   1      -0.311  -2.695  -1.980  0.00  0.00     0.055 C 
ATOM      8  C   UNL d   1       0.116  -1.790  -3.126  0.00  0.00     0.019 C 
ENDBRANCH   1   7
TORSDOF 1
ENDMDL
