MODEL 1
REMARK minimizedAffinity -4.43531084
REMARK minimizedRMSD -1
REMARK  1 active torsions:
REMARK  status: ('A' for Active; 'I' for Inactive)
REMARK    1  A    between atoms: C1_2  and  C2_3 
ROOT
ATOM      1  C2  UNL d   1      -0.400  -0.436  -0.272  0.00  0.00    -0.077 A 
ATOM      2  C3  UNL d   1      -0.411  -1.644  -0.984  0.00  0.00     0.002 A 
ATOM      3  C4  UNL d   1      -0.872  -2.815  -0.380  0.00  0.00     0.002 A 
ATOM      4  C5  UNL d   1      -1.331  -2.789   0.935  0.00  0.00    -0.004 A 
ATOM      5  C6  UNL d   1      -1.323  -1.593   1.652  0.00  0.00     0.002 A 
ATOM      6  C7  UNL d   1      -0.860  -0.422   1.051  0.00  0.00     0.002 A 
ENDROOT
BRANCH   1   7
ATOM      7  C1  UNL d   1       0.051   0.838  -0.937  0.00  0.00     0.055 C 
ATOM      8  C   UNL d   1       0.334   1.927   0.088  0.00  0.00     0.019 C 
ENDBRANCH   1   7
TORSDOF 1
ENDMDL
