MODEL 1
REMARK minimizedAffinity -3.8885498
REMARK minimizedRMSD -1
REMARK  1 active torsions:
REMARK  status: ('A' for Active; 'I' for Inactive)
REMARK    1  A    between atoms: C1_2  and  C2_3 
ROOT
ATOM      1  C2  UNL d   1      -0.614  -1.466   0.151  0.00  0.00    -0.077 A 
ATOM      2  C3  UNL d   1      -0.941  -0.380   0.975  0.00  0.00     0.002 A 
ATOM      3  C4  UNL d   1      -0.727   0.929   0.536  0.00  0.00     0.002 A 
ATOM      4  C5  UNL d   1      -0.190   1.162  -0.728  0.00  0.00    -0.004 A 
ATOM      5  C6  UNL d   1       0.141   0.088  -1.554  0.00  0.00     0.002 A 
ATOM      6  C7  UNL d   1      -0.071  -1.220  -1.116  0.00  0.00     0.002 A 
ENDROOT
BRANCH   1   7
ATOM      7  C1  UNL d   1      -0.889  -2.877   0.603  0.00  0.00     0.055 C 
ATOM      8  C   UNL d   1       0.184  -3.836   0.109  0.00  0.00     0.019 C 
ENDBRANCH   1   7
TORSDOF 1
ENDMDL
