MODEL 1
REMARK minimizedAffinity -2.01150441
REMARK minimizedRMSD -1
REMARK  1 active torsions:
REMARK  status: ('A' for Active; 'I' for Inactive)
REMARK    1  A    between atoms: C1_2  and  C2_3 
ROOT
ATOM      1  C2  UNL d   1       0.772   1.511   0.196  0.00  0.00    -0.077 A 
ATOM      2  C3  UNL d   1       1.921   1.916  -0.498  0.00  0.00     0.002 A 
ATOM      3  C4  UNL d   1       2.717   2.950  -0.003  0.00  0.00     0.002 A 
ATOM      4  C5  UNL d   1       2.375   3.586   1.189  0.00  0.00    -0.004 A 
ATOM      5  C6  UNL d   1       1.233   3.192   1.885  0.00  0.00     0.002 A 
ATOM      6  C7  UNL d   1       0.435   2.159   1.391  0.00  0.00     0.002 A 
ENDROOT
BRANCH   1   7
ATOM      7  C1  UNL d   1      -0.061   0.363  -0.310  0.00  0.00     0.055 C 
ATOM      8  C   UNL d   1      -0.671  -0.427   0.838  0.00  0.00     0.019 C 
ENDBRANCH   1   7
TORSDOF 1
ENDMDL
