MODEL 1
REMARK minimizedAffinity 6.26712036
REMARK minimizedRMSD -1
REMARK  0 active torsions:
REMARK  status: ('A' for Active; 'I' for Inactive)
ROOT
ATOM      1  C   UNL d   1       5.943  -3.347  -5.890  0.00  0.00     0.172 C 
ATOM      2  N   UNL d   1       4.768  -2.508  -5.874  0.00  0.00    -0.070 N 
ATOM      3  C1  UNL d   1       3.475  -2.942  -5.997  0.00  0.00    -0.004 A 
ATOM      4  C2  UNL d   1       2.652  -1.839  -5.931  0.00  0.00    -0.047 A 
ATOM      5  C3  UNL d   1       3.478  -0.703  -5.763  0.00  0.00    -0.047 A 
ATOM      6  C4  UNL d   1       4.783  -1.145  -5.731  0.00  0.00    -0.004 A 
ENDROOT
TORSDOF 0
ENDMDL
