MODEL 1
REMARK minimizedAffinity 12.6465254
REMARK minimizedRMSD -1
REMARK  0 active torsions:
REMARK  status: ('A' for Active; 'I' for Inactive)
ROOT
ATOM      1  C   UNL d   1       3.238  -3.152  -0.835  0.00  0.00     0.172 C 
ATOM      2  N   UNL d   1       2.256  -2.144  -1.156  0.00  0.00    -0.070 N 
ATOM      3  C1  UNL d   1       0.897  -2.305  -1.096  0.00  0.00    -0.004 A 
ATOM      4  C2  UNL d   1       0.314  -1.116  -1.478  0.00  0.00    -0.047 A 
ATOM      5  C3  UNL d   1       1.358  -0.210  -1.779  0.00  0.00    -0.047 A 
ATOM      6  C4  UNL d   1       2.550  -0.872  -1.572  0.00  0.00    -0.004 A 
ENDROOT
TORSDOF 0
ENDMDL
