MODEL 1
REMARK minimizedAffinity 7.71169233
REMARK minimizedRMSD -1
REMARK  0 active torsions:
REMARK  status: ('A' for Active; 'I' for Inactive)
ROOT
ATOM      1  C   UNL d   1       1.168  -3.453  -2.260  0.00  0.00     0.172 C 
ATOM      2  N   UNL d   1       1.459  -2.136  -1.745  0.00  0.00    -0.070 N 
ATOM      3  C1  UNL d   1       2.002  -1.102  -2.459  0.00  0.00    -0.004 A 
ATOM      4  C2  UNL d   1       2.120  -0.020  -1.613  0.00  0.00    -0.047 A 
ATOM      5  C3  UNL d   1       1.632  -0.419  -0.346  0.00  0.00    -0.047 A 
ATOM      6  C4  UNL d   1       1.228  -1.733  -0.456  0.00  0.00    -0.004 A 
ENDROOT
TORSDOF 0
ENDMDL
