MODEL 1
REMARK minimizedAffinity 5.58248377
REMARK minimizedRMSD -1
REMARK  0 active torsions:
REMARK  status: ('A' for Active; 'I' for Inactive)
ROOT
ATOM      1  C   UNL d   1      -4.499   6.000  -5.863  0.00  0.00     0.172 C 
ATOM      2  N   UNL d   1      -3.488   5.430  -5.004  0.00  0.00    -0.070 N 
ATOM      3  C1  UNL d   1      -3.008   5.994  -3.852  0.00  0.00    -0.004 A 
ATOM      4  C2  UNL d   1      -2.060   5.142  -3.328  0.00  0.00    -0.047 A 
ATOM      5  C3  UNL d   1      -1.966   4.028  -4.195  0.00  0.00    -0.047 A 
ATOM      6  C4  UNL d   1      -2.861   4.232  -5.224  0.00  0.00    -0.004 A 
ENDROOT
TORSDOF 0
ENDMDL
