MODEL 1
REMARK minimizedAffinity 2.86398387
REMARK minimizedRMSD -1
REMARK  0 active torsions:
REMARK  status: ('A' for Active; 'I' for Inactive)
ROOT
ATOM      1  C   UNL d   1      -4.928  -2.824  -5.981  0.00  0.00     0.172 C 
ATOM      2  N   UNL d   1      -4.006  -3.934  -5.985  0.00  0.00    -0.070 N 
ATOM      3  C1  UNL d   1      -4.351  -5.259  -5.999  0.00  0.00    -0.004 A 
ATOM      4  C2  UNL d   1      -3.189  -5.999  -5.999  0.00  0.00    -0.047 A 
ATOM      5  C3  UNL d   1      -2.107  -5.087  -5.984  0.00  0.00    -0.047 A 
ATOM      6  C4  UNL d   1      -2.641  -3.816  -5.975  0.00  0.00    -0.004 A 
ENDROOT
TORSDOF 0
ENDMDL
