MODEL 1
REMARK minimizedAffinity -3.43202448
REMARK minimizedRMSD -1
REMARK  0 active torsions:
REMARK  status: ('A' for Active; 'I' for Inactive)
ROOT
ATOM      1  C   UNL d   1      -3.978  -3.776  -5.997  0.00  0.00     0.172 C 
ATOM      2  N   UNL d   1      -2.821  -3.978  -5.156  0.00  0.00    -0.070 N 
ATOM      3  C1  UNL d   1      -2.117  -5.145  -5.034  0.00  0.00    -0.004 A 
ATOM      4  C2  UNL d   1      -1.091  -4.928  -4.140  0.00  0.00    -0.047 A 
ATOM      5  C3  UNL d   1      -1.182  -3.583  -3.709  0.00  0.00    -0.047 A 
ATOM      6  C4  UNL d   1      -2.262  -3.018  -4.354  0.00  0.00    -0.004 A 
ENDROOT
TORSDOF 0
ENDMDL
