MODEL 1
REMARK minimizedAffinity -2.53391051
REMARK minimizedRMSD -1
REMARK  0 active torsions:
REMARK  status: ('A' for Active; 'I' for Inactive)
ROOT
ATOM      1  C   UNL d   1      -3.084  -2.711  -4.941  0.00  0.00     0.172 C 
ATOM      2  N   UNL d   1      -2.341  -3.933  -4.739  0.00  0.00    -0.070 N 
ATOM      3  C1  UNL d   1      -1.446  -4.165  -3.729  0.00  0.00    -0.004 A 
ATOM      4  C2  UNL d   1      -0.955  -5.443  -3.886  0.00  0.00    -0.047 A 
ATOM      5  C3  UNL d   1      -1.575  -5.997  -5.031  0.00  0.00    -0.047 A 
ATOM      6  C4  UNL d   1      -2.428  -5.041  -5.540  0.00  0.00    -0.004 A 
ENDROOT
TORSDOF 0
ENDMDL
