MODEL 1
REMARK minimizedAffinity 6.39046192
REMARK minimizedRMSD -1
REMARK  0 active torsions:
REMARK  status: ('A' for Active; 'I' for Inactive)
ROOT
ATOM      1  C   UNL d   1      -5.757  -3.427  -5.999  0.00  0.00     0.172 C 
ATOM      2  N   UNL d   1      -4.451  -3.362  -5.386  0.00  0.00    -0.070 N 
ATOM      3  C1  UNL d   1      -4.145  -3.766  -4.114  0.00  0.00    -0.004 A 
ATOM      4  C2  UNL d   1      -2.800  -3.540  -3.912  0.00  0.00    -0.047 A 
ATOM      5  C3  UNL d   1      -2.281  -2.981  -5.103  0.00  0.00    -0.047 A 
ATOM      6  C4  UNL d   1      -3.324  -2.881  -5.999  0.00  0.00    -0.004 A 
ENDROOT
TORSDOF 0
ENDMDL
