MODEL 1
REMARK minimizedAffinity -2.21894121
REMARK minimizedRMSD -1
REMARK  0 active torsions:
REMARK  status: ('A' for Active; 'I' for Inactive)
ROOT
ATOM      1  C   UNL d   1      -0.408  -4.475  -4.092  0.00  0.00     0.172 C 
ATOM      2  N   UNL d   1      -1.645  -4.219  -4.793  0.00  0.00    -0.070 N 
ATOM      3  C1  UNL d   1      -2.382  -5.149  -5.476  0.00  0.00    -0.004 A 
ATOM      4  C2  UNL d   1      -3.485  -4.510  -6.000  0.00  0.00    -0.047 A 
ATOM      5  C3  UNL d   1      -3.408  -3.149  -5.619  0.00  0.00    -0.047 A 
ATOM      6  C4  UNL d   1      -2.258  -2.997  -4.873  0.00  0.00    -0.004 A 
ENDROOT
TORSDOF 0
ENDMDL
