MODEL 1
REMARK minimizedAffinity 2.84632611
REMARK minimizedRMSD -1
REMARK  0 active torsions:
REMARK  status: ('A' for Active; 'I' for Inactive)
ROOT
ATOM      1  C   UNL d   1      -4.125  -2.513  -5.551  0.00  0.00     0.172 C 
ATOM      2  N   UNL d   1      -3.519  -3.821  -5.637  0.00  0.00    -0.070 N 
ATOM      3  C1  UNL d   1      -4.160  -4.976  -5.999  0.00  0.00    -0.004 A 
ATOM      4  C2  UNL d   1      -3.239  -6.000  -5.959  0.00  0.00    -0.047 A 
ATOM      5  C3  UNL d   1      -2.002  -5.442  -5.559  0.00  0.00    -0.047 A 
ATOM      6  C4  UNL d   1      -2.204  -4.091  -5.366  0.00  0.00    -0.004 A 
ENDROOT
TORSDOF 0
ENDMDL
