MODEL 1
REMARK minimizedAffinity 0.896038353
REMARK minimizedRMSD -1
REMARK  0 active torsions:
REMARK  status: ('A' for Active; 'I' for Inactive)
ROOT
ATOM      1  C   UNL d   1      -1.146  -5.222  -3.239  0.00  0.00     0.172 C 
ATOM      2  N   UNL d   1      -2.033  -4.559  -4.165  0.00  0.00    -0.070 N 
ATOM      3  C1  UNL d   1      -2.299  -4.966  -5.446  0.00  0.00    -0.004 A 
ATOM      4  C2  UNL d   1      -3.191  -4.071  -5.996  0.00  0.00    -0.047 A 
ATOM      5  C3  UNL d   1      -3.470  -3.092  -5.013  0.00  0.00    -0.047 A 
ATOM      6  C4  UNL d   1      -2.740  -3.419  -3.889  0.00  0.00    -0.004 A 
ENDROOT
TORSDOF 0
ENDMDL
