MODEL 1
REMARK minimizedAffinity 1.24874616
REMARK minimizedRMSD -1
REMARK  0 active torsions:
REMARK  status: ('A' for Active; 'I' for Inactive)
ROOT
ATOM      1  C   UNL d   1      -3.371   4.358  -6.000  0.00  0.00     0.172 C 
ATOM      2  N   UNL d   1      -2.638   3.304  -5.339  0.00  0.00    -0.070 N 
ATOM      3  C1  UNL d   1      -2.607   3.078  -3.989  0.00  0.00    -0.004 A 
ATOM      4  C2  UNL d   1      -1.800   1.985  -3.762  0.00  0.00    -0.047 A 
ATOM      5  C3  UNL d   1      -1.329   1.538  -5.019  0.00  0.00    -0.047 A 
ATOM      6  C4  UNL d   1      -1.863   2.373  -5.978  0.00  0.00    -0.004 A 
ENDROOT
TORSDOF 0
ENDMDL
