MODEL 1
REMARK minimizedAffinity 0.727254272
REMARK minimizedRMSD -1
REMARK  0 active torsions:
REMARK  status: ('A' for Active; 'I' for Inactive)
ROOT
ATOM      1  C   UNL d   1      -4.667  -2.887  -6.000  0.00  0.00     0.172 C 
ATOM      2  N   UNL d   1      -3.804  -3.938  -5.517  0.00  0.00    -0.070 N 
ATOM      3  C1  UNL d   1      -3.758  -5.219  -6.000  0.00  0.00    -0.004 A 
ATOM      4  C2  UNL d   1      -2.809  -5.909  -5.277  0.00  0.00    -0.047 A 
ATOM      5  C3  UNL d   1      -2.267  -5.012  -4.325  0.00  0.00    -0.047 A 
ATOM      6  C4  UNL d   1      -2.901  -3.800  -4.496  0.00  0.00    -0.004 A 
ENDROOT
TORSDOF 0
ENDMDL
