MODEL 1
REMARK minimizedAffinity 0.0974387899
REMARK minimizedRMSD -1
REMARK  0 active torsions:
REMARK  status: ('A' for Active; 'I' for Inactive)
ROOT
ATOM      1  C   UNL d   1      -4.068  -3.135  -6.000  0.00  0.00     0.172 C 
ATOM      2  N   UNL d   1      -3.157  -3.741  -5.057  0.00  0.00    -0.070 N 
ATOM      3  C1  UNL d   1      -2.756  -3.191  -3.869  0.00  0.00    -0.004 A 
ATOM      4  C2  UNL d   1      -1.890  -4.077  -3.265  0.00  0.00    -0.047 A 
ATOM      5  C3  UNL d   1      -1.766  -5.197  -4.120  0.00  0.00    -0.047 A 
ATOM      6  C4  UNL d   1      -2.561  -4.963  -5.222  0.00  0.00    -0.004 A 
ENDROOT
TORSDOF 0
ENDMDL
