MODEL 1
REMARK minimizedAffinity 0.235230505
REMARK minimizedRMSD -1
REMARK  0 active torsions:
REMARK  status: ('A' for Active; 'I' for Inactive)
ROOT
ATOM      1  C   UNL d   1      -1.112  -5.249  -3.001  0.00  0.00     0.172 C 
ATOM      2  N   UNL d   1      -1.985  -4.759  -4.042  0.00  0.00    -0.070 N 
ATOM      3  C1  UNL d   1      -2.052  -5.243  -5.321  0.00  0.00    -0.004 A 
ATOM      4  C2  UNL d   1      -3.003  -4.512  -6.000  0.00  0.00    -0.047 A 
ATOM      5  C3  UNL d   1      -3.524  -3.554  -5.098  0.00  0.00    -0.047 A 
ATOM      6  C4  UNL d   1      -2.876  -3.729  -3.893  0.00  0.00    -0.004 A 
ENDROOT
TORSDOF 0
ENDMDL
