MODEL 1
REMARK minimizedAffinity 5.35923481
REMARK minimizedRMSD -1
REMARK  0 active torsions:
REMARK  status: ('A' for Active; 'I' for Inactive)
ROOT
ATOM      1  C   UNL d   1      -3.636  -5.916  -5.998  0.00  0.00     0.172 C 
ATOM      2  N   UNL d   1      -3.599  -4.534  -5.579  0.00  0.00    -0.070 N 
ATOM      3  C1  UNL d   1      -4.453  -3.550  -6.000  0.00  0.00    -0.004 A 
ATOM      4  C2  UNL d   1      -4.089  -2.379  -5.371  0.00  0.00    -0.047 A 
ATOM      5  C3  UNL d   1      -2.977  -2.669  -4.546  0.00  0.00    -0.047 A 
ATOM      6  C4  UNL d   1      -2.695  -4.011  -4.693  0.00  0.00    -0.004 A 
ENDROOT
TORSDOF 0
ENDMDL
