MODEL 1
REMARK minimizedAffinity -0.518327177
REMARK minimizedRMSD -1
REMARK  0 active torsions:
REMARK  status: ('A' for Active; 'I' for Inactive)
ROOT
ATOM      1  C   UNL d   1      -1.296  -5.845  -4.445  0.00  0.00     0.172 C 
ATOM      2  N   UNL d   1      -2.264  -4.842  -4.824  0.00  0.00    -0.070 N 
ATOM      3  C1  UNL d   1      -2.622  -3.755  -4.073  0.00  0.00    -0.004 A 
ATOM      4  C2  UNL d   1      -3.568  -3.046  -4.781  0.00  0.00    -0.047 A 
ATOM      5  C3  UNL d   1      -3.787  -3.731  -6.000  0.00  0.00    -0.047 A 
ATOM      6  C4  UNL d   1      -2.967  -4.840  -6.000  0.00  0.00    -0.004 A 
ENDROOT
TORSDOF 0
ENDMDL
