MODEL 1
REMARK minimizedAffinity -5.8580761
REMARK minimizedRMSD -1
REMARK  2 active torsions:
REMARK  status: ('A' for Active; 'I' for Inactive)
REMARK    1  A    between atoms: C1_2  and  C2_3 
REMARK    2  A    between atoms: C2_3  and  C3_4 
ROOT
ATOM      1  C3  UNL d   1       0.049   0.399  -0.137  0.00  0.00    -0.075 A 
ATOM      2  C4  UNL d   1      -0.843   1.019   0.750  0.00  0.00     0.002 A 
ATOM      3  C5  UNL d   1      -0.824   2.403   0.922  0.00  0.00     0.002 A 
ATOM      4  C6  UNL d   1       0.092   3.183   0.218  0.00  0.00    -0.004 A 
ATOM      5  C7  UNL d   1       0.994   2.576  -0.653  0.00  0.00     0.002 A 
ATOM      6  C8  UNL d   1       0.974   1.191  -0.830  0.00  0.00     0.002 A 
ENDROOT
BRANCH   1   7
ATOM      7  C2  UNL d   1       0.014  -1.096  -0.349  0.00  0.00     0.056 C 
BRANCH   7   8
ATOM      8  C1  UNL d   1      -0.047  -1.515  -1.821  0.00  0.00     0.007 C 
ATOM      9  C   UNL d   1      -0.860  -2.783  -2.051  0.00  0.00     0.009 C 
ENDBRANCH   7   8
ENDBRANCH   1   7
TORSDOF 2
ENDMDL
