MODEL 1
REMARK minimizedAffinity -0.537700832
REMARK minimizedRMSD -1
REMARK  2 active torsions:
REMARK  status: ('A' for Active; 'I' for Inactive)
REMARK    1  A    between atoms: C1_2  and  C2_3 
REMARK    2  A    between atoms: C2_3  and  C3_4 
ROOT
ATOM      1  C3  UNL d   1       0.466   1.394   0.780  0.00  0.00    -0.075 A 
ATOM      2  C4  UNL d   1       1.838   1.110   0.853  0.00  0.00     0.002 A 
ATOM      3  C5  UNL d   1       2.738   2.077   1.301  0.00  0.00     0.002 A 
ATOM      4  C6  UNL d   1       2.281   3.341   1.670  0.00  0.00    -0.004 A 
ATOM      5  C7  UNL d   1       0.923   3.639   1.586  0.00  0.00     0.002 A 
ATOM      6  C8  UNL d   1       0.019   2.671   1.142  0.00  0.00     0.002 A 
ENDROOT
BRANCH   1   7
ATOM      7  C2  UNL d   1      -0.517   0.342   0.325  0.00  0.00     0.056 C 
BRANCH   7   8
ATOM      8  C1  UNL d   1      -0.093  -1.093   0.655  0.00  0.00     0.007 C 
ATOM      9  C   UNL d   1      -0.468  -2.095  -0.430  0.00  0.00     0.009 C 
ENDBRANCH   7   8
ENDBRANCH   1   7
TORSDOF 2
ENDMDL
