MODEL 1
REMARK minimizedAffinity -5.07906866
REMARK minimizedRMSD -1
REMARK  2 active torsions:
REMARK  status: ('A' for Active; 'I' for Inactive)
REMARK    1  A    between atoms: C1_2  and  C2_3 
REMARK    2  A    between atoms: C2_3  and  C3_4 
ROOT
ATOM      1  C3  UNL d   1       0.066  -0.828   0.093  0.00  0.00    -0.075 A 
ATOM      2  C4  UNL d   1      -0.996   0.079   0.223  0.00  0.00     0.002 A 
ATOM      3  C5  UNL d   1      -0.763   1.454   0.188  0.00  0.00     0.002 A 
ATOM      4  C6  UNL d   1       0.534   1.939   0.033  0.00  0.00    -0.004 A 
ATOM      5  C7  UNL d   1       1.599   1.049  -0.080  0.00  0.00     0.002 A 
ATOM      6  C8  UNL d   1       1.368  -0.328  -0.049  0.00  0.00     0.002 A 
ENDROOT
BRANCH   1   7
ATOM      7  C2  UNL d   1      -0.183  -2.317   0.100  0.00  0.00     0.056 C 
BRANCH   7   8
ATOM      8  C1  UNL d   1      -0.748  -2.861  -1.216  0.00  0.00     0.007 C 
ATOM      9  C   UNL d   1      -2.233  -3.193  -1.140  0.00  0.00     0.009 C 
ENDBRANCH   7   8
ENDBRANCH   1   7
TORSDOF 2
ENDMDL
