MODEL 1
REMARK minimizedAffinity -1.55939555
REMARK minimizedRMSD -1
REMARK  2 active torsions:
REMARK  status: ('A' for Active; 'I' for Inactive)
REMARK    1  A    between atoms: C1_2  and  C2_3 
REMARK    2  A    between atoms: C2_3  and  C3_4 
ROOT
ATOM      1  C3  UNL d   1      -0.120  -1.688  -0.363  0.00  0.00    -0.075 A 
ATOM      2  C4  UNL d   1       1.166  -1.375   0.102  0.00  0.00     0.002 A 
ATOM      3  C5  UNL d   1       1.494  -0.064   0.447  0.00  0.00     0.002 A 
ATOM      4  C6  UNL d   1       0.547   0.950   0.324  0.00  0.00    -0.004 A 
ATOM      5  C7  UNL d   1      -0.728   0.653  -0.152  0.00  0.00     0.002 A 
ATOM      6  C8  UNL d   1      -1.060  -0.658  -0.495  0.00  0.00     0.002 A 
ENDROOT
BRANCH   1   7
ATOM      7  C2  UNL d   1      -0.490  -3.110  -0.711  0.00  0.00     0.056 C 
BRANCH   7   8
ATOM      8  C1  UNL d   1      -0.274  -3.468  -2.185  0.00  0.00     0.007 C 
ATOM      9  C   UNL d   1      -1.562  -3.468  -2.998  0.00  0.00     0.009 C 
ENDBRANCH   7   8
ENDBRANCH   1   7
TORSDOF 2
ENDMDL
