MODEL 1
REMARK minimizedAffinity -3.18633199
REMARK minimizedRMSD -1
REMARK  2 active torsions:
REMARK  status: ('A' for Active; 'I' for Inactive)
REMARK    1  A    between atoms: C1_2  and  C2_3 
REMARK    2  A    between atoms: C2_3  and  C3_4 
ROOT
ATOM      1  C3  UNL d   1      -0.332   0.562   0.165  0.00  0.00    -0.075 A 
ATOM      2  C4  UNL d   1       0.570   1.634   0.086  0.00  0.00     0.002 A 
ATOM      3  C5  UNL d   1       0.329   2.814   0.789  0.00  0.00     0.002 A 
ATOM      4  C6  UNL d   1      -0.817   2.943   1.570  0.00  0.00    -0.004 A 
ATOM      5  C7  UNL d   1      -1.728   1.891   1.642  0.00  0.00     0.002 A 
ATOM      6  C8  UNL d   1      -1.488   0.706   0.943  0.00  0.00     0.002 A 
ENDROOT
BRANCH   1   7
ATOM      7  C2  UNL d   1      -0.063  -0.729  -0.571  0.00  0.00     0.056 C 
BRANCH   7   8
ATOM      8  C1  UNL d   1      -0.033  -1.967   0.333  0.00  0.00     0.007 C 
ATOM      9  C   UNL d   1      -0.414  -3.250  -0.394  0.00  0.00     0.009 C 
ENDBRANCH   7   8
ENDBRANCH   1   7
TORSDOF 2
ENDMDL
