MODEL 1
REMARK minimizedAffinity -5.62456036
REMARK minimizedRMSD -1
REMARK  2 active torsions:
REMARK  status: ('A' for Active; 'I' for Inactive)
REMARK    1  A    between atoms: C1_2  and  C2_3 
REMARK    2  A    between atoms: C2_3  and  C3_4 
ROOT
ATOM      1  C3  UNL d   1      -0.679   0.613   0.145  0.00  0.00    -0.075 A 
ATOM      2  C4  UNL d   1      -1.437   1.569   0.837  0.00  0.00     0.002 A 
ATOM      3  C5  UNL d   1      -1.030   2.902   0.877  0.00  0.00     0.002 A 
ATOM      4  C6  UNL d   1       0.143   3.295   0.237  0.00  0.00    -0.004 A 
ATOM      5  C7  UNL d   1       0.913   2.352  -0.440  0.00  0.00     0.002 A 
ATOM      6  C8  UNL d   1       0.506   1.017  -0.486  0.00  0.00     0.002 A 
ENDROOT
BRANCH   1   7
ATOM      7  C2  UNL d   1      -1.130  -0.826   0.072  0.00  0.00     0.056 C 
BRANCH   7   8
ATOM      8  C1  UNL d   1      -0.017  -1.810  -0.307  0.00  0.00     0.007 C 
ATOM      9  C   UNL d   1      -0.477  -2.892  -1.275  0.00  0.00     0.009 C 
ENDBRANCH   7   8
ENDBRANCH   1   7
TORSDOF 2
ENDMDL
