MODEL 1
REMARK minimizedAffinity -2.37435889
REMARK minimizedRMSD -1
REMARK  2 active torsions:
REMARK  status: ('A' for Active; 'I' for Inactive)
REMARK    1  A    between atoms: C1_2  and  C2_3 
REMARK    2  A    between atoms: C2_3  and  C3_4 
ROOT
ATOM      1  C3  UNL d   1      -0.612   0.183   0.449  0.00  0.00    -0.075 A 
ATOM      2  C4  UNL d   1       0.241   0.946  -0.362  0.00  0.00     0.002 A 
ATOM      3  C5  UNL d   1       0.419   2.308  -0.118  0.00  0.00     0.002 A 
ATOM      4  C6  UNL d   1      -0.259   2.925   0.931  0.00  0.00    -0.004 A 
ATOM      5  C7  UNL d   1      -1.122   2.180   1.733  0.00  0.00     0.002 A 
ATOM      6  C8  UNL d   1      -1.298   0.816   1.493  0.00  0.00     0.002 A 
ENDROOT
BRANCH   1   7
ATOM      7  C2  UNL d   1      -0.787  -1.298   0.208  0.00  0.00     0.056 C 
BRANCH   7   8
ATOM      8  C1  UNL d   1       0.053  -1.845  -0.951  0.00  0.00     0.007 C 
ATOM      9  C   UNL d   1      -0.531  -3.105  -1.574  0.00  0.00     0.009 C 
ENDBRANCH   7   8
ENDBRANCH   1   7
TORSDOF 2
ENDMDL
