MODEL 1
REMARK minimizedAffinity -4.43461227
REMARK minimizedRMSD -1
REMARK  2 active torsions:
REMARK  status: ('A' for Active; 'I' for Inactive)
REMARK    1  A    between atoms: C1_2  and  C2_3 
REMARK    2  A    between atoms: C2_3  and  C3_4 
ROOT
ATOM      1  C3  UNL d   1      -0.445  -2.226  -0.480  0.00  0.00    -0.075 A 
ATOM      2  C4  UNL d   1       0.408  -2.959  -1.318  0.00  0.00     0.002 A 
ATOM      3  C5  UNL d   1      -0.061  -4.082  -2.000  0.00  0.00     0.002 A 
ATOM      4  C6  UNL d   1      -1.383  -4.492  -1.844  0.00  0.00    -0.004 A 
ATOM      5  C7  UNL d   1      -2.235  -3.782  -1.001  0.00  0.00     0.002 A 
ATOM      6  C8  UNL d   1      -1.769  -2.655  -0.321  0.00  0.00     0.002 A 
ENDROOT
BRANCH   1   7
ATOM      7  C2  UNL d   1       0.049  -0.993   0.238  0.00  0.00     0.056 C 
BRANCH   7   8
ATOM      8  C1  UNL d   1      -0.540   0.317  -0.297  0.00  0.00     0.007 C 
ATOM      9  C   UNL d   1      -1.030   1.248   0.805  0.00  0.00     0.009 C 
ENDBRANCH   7   8
ENDBRANCH   1   7
TORSDOF 2
ENDMDL
