MODEL 1
REMARK minimizedAffinity -4.39520073
REMARK minimizedRMSD -1
REMARK  2 active torsions:
REMARK  status: ('A' for Active; 'I' for Inactive)
REMARK    1  A    between atoms: C1_2  and  C2_3 
REMARK    2  A    between atoms: C2_3  and  C3_4 
ROOT
ATOM      1  C3  UNL d   1       0.337  -0.043   0.563  0.00  0.00    -0.075 A 
ATOM      2  C4  UNL d   1       1.652   0.351   0.850  0.00  0.00     0.002 A 
ATOM      3  C5  UNL d   1       1.934   1.670   1.209  0.00  0.00     0.002 A 
ATOM      4  C6  UNL d   1       0.909   2.611   1.275  0.00  0.00    -0.004 A 
ATOM      5  C7  UNL d   1      -0.398   2.234   0.977  0.00  0.00     0.002 A 
ATOM      6  C8  UNL d   1      -0.684   0.915   0.622  0.00  0.00     0.002 A 
ENDROOT
BRANCH   1   7
ATOM      7  C2  UNL d   1       0.021  -1.475   0.203  0.00  0.00     0.056 C 
BRANCH   7   8
ATOM      8  C1  UNL d   1      -0.569  -1.649  -1.200  0.00  0.00     0.007 C 
ATOM      9  C   UNL d   1      -0.645  -3.104  -1.643  0.00  0.00     0.009 C 
ENDBRANCH   7   8
ENDBRANCH   1   7
TORSDOF 2
ENDMDL
