MODEL 1
REMARK minimizedAffinity -6.52844763
REMARK minimizedRMSD -1
REMARK  2 active torsions:
REMARK  status: ('A' for Active; 'I' for Inactive)
REMARK    1  A    between atoms: C1_2  and  C2_3 
REMARK    2  A    between atoms: C2_3  and  C3_4 
ROOT
ATOM      1  C3  UNL d   1      -0.014  -0.317  -0.526  0.00  0.00    -0.075 A 
ATOM      2  C4  UNL d   1       1.271   0.012  -0.070  0.00  0.00     0.002 A 
ATOM      3  C5  UNL d   1       1.583   1.326   0.280  0.00  0.00     0.002 A 
ATOM      4  C6  UNL d   1       0.622   2.327   0.168  0.00  0.00    -0.004 A 
ATOM      5  C7  UNL d   1      -0.653   2.015  -0.300  0.00  0.00     0.002 A 
ATOM      6  C8  UNL d   1      -0.970   0.700  -0.646  0.00  0.00     0.002 A 
ENDROOT
BRANCH   1   7
ATOM      7  C2  UNL d   1      -0.367  -1.742  -0.878  0.00  0.00     0.056 C 
BRANCH   7   8
ATOM      8  C1  UNL d   1      -0.049  -2.125  -2.327  0.00  0.00     0.007 C 
ATOM      9  C   UNL d   1      -1.163  -2.916  -2.998  0.00  0.00     0.009 C 
ENDBRANCH   7   8
ENDBRANCH   1   7
TORSDOF 2
ENDMDL
