MODEL 1
REMARK minimizedAffinity 11.2023458
REMARK minimizedRMSD -1
REMARK  1 active torsions:
REMARK  status: ('A' for Active; 'I' for Inactive)
REMARK    1  A    between atoms: C1_2  and  C2_3 
ROOT
ATOM      1  C2  UNL d   1       3.710   0.448  -4.786  0.00  0.00    -0.073 A 
ATOM      2  C3  UNL d   1       4.291  -0.788  -4.479  0.00  0.00    -0.002 A 
ATOM      3  C4  UNL d   1       3.493  -1.868  -4.103  0.00  0.00     0.004 A 
ATOM      4  C5  UNL d   1       2.107  -1.728  -4.036  0.00  0.00    -0.004 A 
ATOM      5  C6  UNL d   1       1.506  -0.504  -4.351  0.00  0.00    -0.075 A 
ATOM      6  C7  UNL d   1       0.017  -0.336  -4.282  0.00  0.00     0.076 C 
ATOM      7  C8  UNL d   1       2.315   0.577  -4.725  0.00  0.00     0.001 A 
ENDROOT
BRANCH   1   8
ATOM      8  C1  UNL d   1       4.567   1.616  -5.199  0.00  0.00     0.053 C 
ATOM      9  C   UNL d   1       5.786   1.175  -5.995  0.00  0.00     0.018 C 
ENDBRANCH   1   8
TORSDOF 1
ENDMDL
