MODEL 1
REMARK minimizedAffinity 11.1365433
REMARK minimizedRMSD -1
REMARK  1 active torsions:
REMARK  status: ('A' for Active; 'I' for Inactive)
REMARK    1  A    between atoms: C1_2  and  C2_3 
ROOT
ATOM      1  C2  UNL d   1       0.313  -3.606  -5.425  0.00  0.00    -0.073 A 
ATOM      2  C3  UNL d   1      -0.647  -4.449  -5.998  0.00  0.00    -0.002 A 
ATOM      3  C4  UNL d   1      -1.974  -4.398  -5.571  0.00  0.00     0.004 A 
ATOM      4  C5  UNL d   1      -2.358  -3.500  -4.575  0.00  0.00    -0.004 A 
ATOM      5  C6  UNL d   1      -1.416  -2.641  -3.999  0.00  0.00    -0.075 A 
ATOM      6  C7  UNL d   1      -1.812  -1.671  -2.925  0.00  0.00     0.076 C 
ATOM      7  C8  UNL d   1      -0.084  -2.700  -4.431  0.00  0.00     0.001 A 
ENDROOT
BRANCH   1   8
ATOM      8  C1  UNL d   1       1.746  -3.653  -5.887  0.00  0.00     0.053 C 
ATOM      9  C   UNL d   1       2.702  -3.113  -4.835  0.00  0.00     0.018 C 
ENDBRANCH   1   8
TORSDOF 1
ENDMDL
