MODEL 1
REMARK minimizedAffinity 1.04488218
REMARK minimizedRMSD -1
REMARK  1 active torsions:
REMARK  status: ('A' for Active; 'I' for Inactive)
REMARK    1  A    between atoms: C1_2  and  C2_3 
ROOT
ATOM      1  C2  UNL d   1      -0.775  -2.752  -4.978  0.00  0.00    -0.073 A 
ATOM      2  C3  UNL d   1      -0.051  -1.645  -5.435  0.00  0.00    -0.002 A 
ATOM      3  C4  UNL d   1       0.282  -0.611  -4.560  0.00  0.00     0.004 A 
ATOM      4  C5  UNL d   1      -0.098  -0.675  -3.219  0.00  0.00    -0.004 A 
ATOM      5  C6  UNL d   1      -0.812  -1.779  -2.741  0.00  0.00    -0.075 A 
ATOM      6  C7  UNL d   1      -1.231  -1.862  -1.302  0.00  0.00     0.076 C 
ATOM      7  C8  UNL d   1      -1.145  -2.812  -3.627  0.00  0.00     0.001 A 
ENDROOT
BRANCH   1   8
ATOM      8  C1  UNL d   1      -1.131  -3.875  -5.918  0.00  0.00     0.053 C 
ATOM      9  C   UNL d   1      -2.210  -4.779  -5.343  0.00  0.00     0.018 C 
ENDBRANCH   1   8
TORSDOF 1
ENDMDL
