MODEL 1
REMARK minimizedAffinity 9.50068283
REMARK minimizedRMSD -1
REMARK  1 active torsions:
REMARK  status: ('A' for Active; 'I' for Inactive)
REMARK    1  A    between atoms: C1_2  and  C2_3 
ROOT
ATOM      1  C2  UNL d   1       1.513  -2.136   4.408  0.00  0.00    -0.073 A 
ATOM      2  C3  UNL d   1       2.350  -1.045   4.670  0.00  0.00    -0.002 A 
ATOM      3  C4  UNL d   1       2.219   0.135   3.936  0.00  0.00     0.004 A 
ATOM      4  C5  UNL d   1       1.249   0.239   2.940  0.00  0.00    -0.004 A 
ATOM      5  C6  UNL d   1       0.395  -0.836   2.672  0.00  0.00    -0.075 A 
ATOM      6  C7  UNL d   1      -0.653  -0.741   1.602  0.00  0.00     0.076 C 
ATOM      7  C8  UNL d   1       0.534  -2.019   3.411  0.00  0.00     0.001 A 
ENDROOT
BRANCH   1   8
ATOM      8  C1  UNL d   1       1.646  -3.410   5.202  0.00  0.00     0.053 C 
ATOM      9  C   UNL d   1       3.057  -3.607   5.732  0.00  0.00     0.018 C 
ENDBRANCH   1   8
TORSDOF 1
ENDMDL
