MODEL 1
REMARK minimizedAffinity 15.2552385
REMARK minimizedRMSD -1
REMARK  1 active torsions:
REMARK  status: ('A' for Active; 'I' for Inactive)
REMARK    1  A    between atoms: C1_2  and  C2_3 
ROOT
ATOM      1  C2  UNL d   1      -1.527  -1.170   2.184  0.00  0.00    -0.073 A 
ATOM      2  C3  UNL d   1      -1.382   0.221   2.209  0.00  0.00    -0.002 A 
ATOM      3  C4  UNL d   1      -0.207   0.799   2.691  0.00  0.00     0.004 A 
ATOM      4  C5  UNL d   1       0.836  -0.007   3.147  0.00  0.00    -0.004 A 
ATOM      5  C6  UNL d   1       0.714  -1.400   3.120  0.00  0.00    -0.075 A 
ATOM      6  C7  UNL d   1       1.826  -2.281   3.609  0.00  0.00     0.076 C 
ATOM      7  C8  UNL d   1      -0.469  -1.973   2.637  0.00  0.00     0.001 A 
ENDROOT
BRANCH   1   8
ATOM      8  C1  UNL d   1      -2.791  -1.799   1.658  0.00  0.00     0.053 C 
ATOM      9  C   UNL d   1      -3.644  -2.384   2.773  0.00  0.00     0.018 C 
ENDBRANCH   1   8
TORSDOF 1
ENDMDL
