MODEL 1
REMARK minimizedAffinity 16.2433262
REMARK minimizedRMSD -1
REMARK  1 active torsions:
REMARK  status: ('A' for Active; 'I' for Inactive)
REMARK    1  A    between atoms: C1_2  and  C2_3 
ROOT
ATOM      1  C2  UNL d   1      -1.075  -2.993  -5.062  0.00  0.00    -0.073 A 
ATOM      2  C3  UNL d   1      -1.733  -2.880  -3.832  0.00  0.00    -0.002 A 
ATOM      3  C4  UNL d   1      -1.444  -1.818  -2.974  0.00  0.00     0.004 A 
ATOM      4  C5  UNL d   1      -0.502  -0.857  -3.338  0.00  0.00    -0.004 A 
ATOM      5  C6  UNL d   1       0.158  -0.947  -4.568  0.00  0.00    -0.075 A 
ATOM      6  C7  UNL d   1       1.176   0.078  -4.974  0.00  0.00     0.076 C 
ATOM      7  C8  UNL d   1      -0.136  -2.017  -5.424  0.00  0.00     0.001 A 
ENDROOT
BRANCH   1   8
ATOM      8  C1  UNL d   1      -1.389  -4.134  -5.996  0.00  0.00     0.053 C 
ATOM      9  C   UNL d   1      -2.067  -5.289  -5.277  0.00  0.00     0.018 C 
ENDBRANCH   1   8
TORSDOF 1
ENDMDL
