MODEL 1
REMARK minimizedAffinity 6.69294691
REMARK minimizedRMSD -1
REMARK  0 active torsions:
REMARK  status: ('A' for Active; 'I' for Inactive)
ROOT
ATOM      1  C   UNL d   1       2.653  -0.470  -0.108  0.00  0.00     0.023 A 
ATOM      2  C1  UNL d   1       2.786  -0.536  -1.495  0.00  0.00     0.003 A 
ATOM      3  C2  UNL d   1       3.746   0.243  -2.143  0.00  0.00     0.048 A 
ATOM      4  C3  UNL d   1       4.570   1.086  -1.399  0.00  0.00     0.023 A 
ATOM      5  C4  UNL d   1       4.441   1.155  -0.010  0.00  0.00     0.048 A 
ATOM      6  C5  UNL d   1       3.479   0.374   0.633  0.00  0.00     0.003 A 
ATOM      7  I   UNL d   1       6.000   2.247  -2.362  0.00  0.00    -0.146 I 
ENDROOT
TORSDOF 0
ENDMDL
