MODEL 1
REMARK minimizedAffinity 0.49827826
REMARK minimizedRMSD -1
REMARK  0 active torsions:
REMARK  status: ('A' for Active; 'I' for Inactive)
ROOT
ATOM      1  C   UNL d   1       0.760   5.510   2.199  0.00  0.00     0.023 A 
ATOM      2  C1  UNL d   1       0.074   4.876   1.163  0.00  0.00     0.003 A 
ATOM      3  C2  UNL d   1       0.601   3.724   0.578  0.00  0.00     0.048 A 
ATOM      4  C3  UNL d   1       1.814   3.209   1.034  0.00  0.00     0.023 A 
ATOM      5  C4  UNL d   1       2.503   3.840   2.071  0.00  0.00     0.048 A 
ATOM      6  C5  UNL d   1       1.973   4.993   2.653  0.00  0.00     0.003 A 
ATOM      7  I   UNL d   1       2.601   1.493   0.165  0.00  0.00    -0.146 I 
ENDROOT
TORSDOF 0
ENDMDL
