MODEL 1
REMARK minimizedAffinity 8.27801704
REMARK minimizedRMSD -1
REMARK  0 active torsions:
REMARK  status: ('A' for Active; 'I' for Inactive)
ROOT
ATOM      1  C   UNL d   1      -3.372  -2.074  -5.915  0.00  0.00     0.023 A 
ATOM      2  C1  UNL d   1      -2.240  -2.026  -5.101  0.00  0.00     0.003 A 
ATOM      3  C2  UNL d   1      -1.856  -3.152  -4.370  0.00  0.00     0.048 A 
ATOM      4  C3  UNL d   1      -2.608  -4.323  -4.457  0.00  0.00     0.023 A 
ATOM      5  C4  UNL d   1      -3.741  -4.376  -5.271  0.00  0.00     0.048 A 
ATOM      6  C5  UNL d   1      -4.122  -3.247  -6.000  0.00  0.00     0.003 A 
ATOM      7  I   UNL d   1      -2.039  -6.000  -3.370  0.00  0.00    -0.146 I 
ENDROOT
TORSDOF 0
ENDMDL
