MODEL 1
REMARK minimizedAffinity 8.74572182
REMARK minimizedRMSD -1
REMARK  0 active torsions:
REMARK  status: ('A' for Active; 'I' for Inactive)
ROOT
ATOM      1  C   UNL d   1       3.004   0.243   0.370  0.00  0.00     0.023 A 
ATOM      2  C1  UNL d   1       4.011   1.069   0.869  0.00  0.00     0.003 A 
ATOM      3  C2  UNL d   1       4.869   1.735  -0.009  0.00  0.00     0.048 A 
ATOM      4  C3  UNL d   1       4.715   1.570  -1.385  0.00  0.00     0.023 A 
ATOM      5  C4  UNL d   1       3.708   0.745  -1.889  0.00  0.00     0.048 A 
ATOM      6  C5  UNL d   1       2.853   0.081  -1.008  0.00  0.00     0.003 A 
ATOM      7  I   UNL d   1       5.991   2.560  -2.693  0.00  0.00    -0.146 I 
ENDROOT
TORSDOF 0
ENDMDL
