MODEL 1
REMARK minimizedAffinity 9.29481506
REMARK minimizedRMSD -1
REMARK  0 active torsions:
REMARK  status: ('A' for Active; 'I' for Inactive)
ROOT
ATOM      1  C   UNL d   1       3.626   0.808  -2.178  0.00  0.00     0.023 A 
ATOM      2  C1  UNL d   1       2.642  -0.058  -1.700  0.00  0.00     0.003 A 
ATOM      3  C2  UNL d   1       2.674  -0.488  -0.372  0.00  0.00     0.048 A 
ATOM      4  C3  UNL d   1       3.691  -0.048   0.473  0.00  0.00     0.023 A 
ATOM      5  C4  UNL d   1       4.678   0.819   0.000  0.00  0.00     0.048 A 
ATOM      6  C5  UNL d   1       4.643   1.246  -1.329  0.00  0.00     0.003 A 
ATOM      7  I   UNL d   1       3.740  -0.686   2.450  0.00  0.00    -0.146 I 
ENDROOT
TORSDOF 0
ENDMDL
