MODEL 1
REMARK minimizedAffinity 5.33534145
REMARK minimizedRMSD -1
REMARK  0 active torsions:
REMARK  status: ('A' for Active; 'I' for Inactive)
ROOT
ATOM      1  C   UNL d   1       4.881   4.974   3.960  0.00  0.00     0.023 A 
ATOM      2  C1  UNL d   1       4.767   4.270   2.761  0.00  0.00     0.003 A 
ATOM      3  C2  UNL d   1       3.546   4.238   2.083  0.00  0.00     0.048 A 
ATOM      4  C3  UNL d   1       2.445   4.912   2.609  0.00  0.00     0.023 A 
ATOM      5  C4  UNL d   1       2.555   5.619   3.808  0.00  0.00     0.048 A 
ATOM      6  C5  UNL d   1       3.777   5.647   4.483  0.00  0.00     0.003 A 
ATOM      7  I   UNL d   1       0.628   4.866   1.602  0.00  0.00    -0.146 I 
ENDROOT
TORSDOF 0
ENDMDL
