MODEL 1
REMARK minimizedAffinity 10.5788584
REMARK minimizedRMSD -1
REMARK  0 active torsions:
REMARK  status: ('A' for Active; 'I' for Inactive)
ROOT
ATOM      1  C   UNL d   1       2.813   0.349   0.317  0.00  0.00     0.023 A 
ATOM      2  C1  UNL d   1       2.828   0.232  -1.073  0.00  0.00     0.003 A 
ATOM      3  C2  UNL d   1       3.742   0.971  -1.827  0.00  0.00     0.048 A 
ATOM      4  C3  UNL d   1       4.639   1.824  -1.185  0.00  0.00     0.023 A 
ATOM      5  C4  UNL d   1       4.628   1.944   0.206  0.00  0.00     0.048 A 
ATOM      6  C5  UNL d   1       3.712   1.204   0.956  0.00  0.00     0.003 A 
ATOM      7  I   UNL d   1       6.000   2.925  -2.305  0.00  0.00    -0.146 I 
ENDROOT
TORSDOF 0
ENDMDL
