MODEL 1
REMARK minimizedAffinity 7.78765249
REMARK minimizedRMSD -1
REMARK  0 active torsions:
REMARK  status: ('A' for Active; 'I' for Inactive)
ROOT
ATOM      1  C   UNL d   1       3.364   0.372   0.717  0.00  0.00     0.023 A 
ATOM      2  C1  UNL d   1       4.487   1.082   1.140  0.00  0.00     0.003 A 
ATOM      3  C2  UNL d   1       5.245   1.807   0.218  0.00  0.00     0.048 A 
ATOM      4  C3  UNL d   1       4.873   1.818  -1.126  0.00  0.00     0.023 A 
ATOM      5  C4  UNL d   1       3.749   1.110  -1.554  0.00  0.00     0.048 A 
ATOM      6  C5  UNL d   1       2.995   0.386  -0.629  0.00  0.00     0.003 A 
ATOM      7  I   UNL d   1       5.999   2.896  -2.500  0.00  0.00    -0.146 I 
ENDROOT
TORSDOF 0
ENDMDL
