MODEL 1
REMARK minimizedAffinity 7.16336441
REMARK minimizedRMSD -1
REMARK  0 active torsions:
REMARK  status: ('A' for Active; 'I' for Inactive)
ROOT
ATOM      1  C2' OXE d   1       4.379   1.865   2.395  0.00  0.00     0.078 C 
ATOM      2  C1' OXE d   1       1.747   0.929   2.120  0.00  0.00     0.078 C 
ATOM      3  C1  OXE d   1       2.676   0.773   0.942  0.00  0.00    -0.078 A 
ATOM      4  C2  OXE d   1       3.948   1.276   1.069  0.00  0.00    -0.078 A 
ATOM      5  C3  OXE d   1       4.862   1.110   0.033  0.00  0.00     0.003 A 
ATOM      6  C4  OXE d   1       4.452   0.572  -1.194  0.00  0.00    -0.002 A 
ATOM      7  C5  OXE d   1       3.150   0.090  -1.358  0.00  0.00    -0.002 A 
ATOM      8  C6  OXE d   1       2.263   0.144  -0.288  0.00  0.00     0.003 A 
ENDROOT
TORSDOF 0
ENDMDL
