MODEL 1
REMARK minimizedAffinity 15.1546421
REMARK minimizedRMSD -1
REMARK  0 active torsions:
REMARK  status: ('A' for Active; 'I' for Inactive)
ROOT
ATOM      1  C2' OXE d   1       2.360  -0.556  -0.034  0.00  0.00     0.078 C 
ATOM      2  C1' OXE d   1       1.222  -0.392   2.527  0.00  0.00     0.078 C 
ATOM      3  C1  OXE d   1       0.538   0.347   1.405  0.00  0.00    -0.078 A 
ATOM      4  C2  OXE d   1       1.127   0.300   0.165  0.00  0.00    -0.078 A 
ATOM      5  C3  OXE d   1       0.508   0.919  -0.917  0.00  0.00     0.003 A 
ATOM      6  C4  OXE d   1      -0.626   1.717  -0.723  0.00  0.00    -0.002 A 
ATOM      7  C5  OXE d   1      -1.220   1.811   0.540  0.00  0.00    -0.002 A 
ATOM      8  C6  OXE d   1      -0.676   1.100   1.604  0.00  0.00     0.003 A 
ENDROOT
TORSDOF 0
ENDMDL
