MODEL 1
REMARK minimizedAffinity 14.7450438
REMARK minimizedRMSD -1
REMARK  0 active torsions:
REMARK  status: ('A' for Active; 'I' for Inactive)
ROOT
ATOM      1  C2' OXE d   1       2.253  -0.842   0.469  0.00  0.00     0.078 C 
ATOM      2  C1' OXE d   1       0.899  -0.901   2.928  0.00  0.00     0.078 C 
ATOM      3  C1  OXE d   1       0.338  -0.024   1.836  0.00  0.00    -0.078 A 
ATOM      4  C2  OXE d   1       1.033   0.035   0.652  0.00  0.00    -0.078 A 
ATOM      5  C3  OXE d   1       0.529   0.785  -0.406  0.00  0.00     0.003 A 
ATOM      6  C4  OXE d   1      -0.595   1.601  -0.225  0.00  0.00    -0.002 A 
ATOM      7  C5  OXE d   1      -1.295   1.586   0.986  0.00  0.00    -0.002 A 
ATOM      8  C6  OXE d   1      -0.867   0.749   2.010  0.00  0.00     0.003 A 
ENDROOT
TORSDOF 0
ENDMDL
