MODEL 1
REMARK minimizedAffinity 7.9522171
REMARK minimizedRMSD -1
REMARK  0 active torsions:
REMARK  status: ('A' for Active; 'I' for Inactive)
ROOT
ATOM      1  C2' OXE d   1       5.996   4.199   0.016  0.00  0.00     0.078 C 
ATOM      2  C1' OXE d   1       5.976   2.433   2.197  0.00  0.00     0.078 C 
ATOM      3  C1  OXE d   1       5.334   1.972   0.913  0.00  0.00    -0.078 A 
ATOM      4  C2  OXE d   1       5.307   2.860  -0.135  0.00  0.00    -0.078 A 
ATOM      5  C3  OXE d   1       4.776   2.466  -1.360  0.00  0.00     0.003 A 
ATOM      6  C4  OXE d   1       4.132   1.229  -1.488  0.00  0.00    -0.002 A 
ATOM      7  C5  OXE d   1       4.113   0.325  -0.421  0.00  0.00    -0.002 A 
ATOM      8  C6  OXE d   1       4.746   0.663   0.770  0.00  0.00     0.003 A 
ENDROOT
TORSDOF 0
ENDMDL
