MODEL 1
REMARK minimizedAffinity 5.45071316
REMARK minimizedRMSD -1
REMARK  0 active torsions:
REMARK  status: ('A' for Active; 'I' for Inactive)
ROOT
ATOM      1  C2' OXE d   1       3.655  -1.687  -0.743  0.00  0.00     0.078 C 
ATOM      2  C1' OXE d   1       1.912   0.394  -0.027  0.00  0.00     0.078 C 
ATOM      3  C1  OXE d   1       3.334   0.756  -0.375  0.00  0.00    -0.078 A 
ATOM      4  C2  OXE d   1       4.192  -0.273  -0.679  0.00  0.00    -0.078 A 
ATOM      5  C3  OXE d   1       5.500   0.010  -1.062  0.00  0.00     0.003 A 
ATOM      6  C4  OXE d   1       5.992   1.319  -0.991  0.00  0.00    -0.002 A 
ATOM      7  C5  OXE d   1       5.145   2.377  -0.645  0.00  0.00    -0.002 A 
ATOM      8  C6  OXE d   1       3.805   2.119  -0.376  0.00  0.00     0.003 A 
ENDROOT
TORSDOF 0
ENDMDL
