MODEL 1
REMARK minimizedAffinity 15.2860661
REMARK minimizedRMSD -1
REMARK  0 active torsions:
REMARK  status: ('A' for Active; 'I' for Inactive)
ROOT
ATOM      1  C2' OXE d   1       5.900   1.025  -2.905  0.00  0.00     0.078 C 
ATOM      2  C1' OXE d   1       4.759   2.871  -1.125  0.00  0.00     0.078 C 
ATOM      3  C1  OXE d   1       4.204   1.469  -1.135  0.00  0.00    -0.078 A 
ATOM      4  C2  OXE d   1       4.737   0.585  -2.043  0.00  0.00    -0.078 A 
ATOM      5  C3  OXE d   1       4.299  -0.737  -2.057  0.00  0.00     0.003 A 
ATOM      6  C4  OXE d   1       3.216  -1.133  -1.263  0.00  0.00    -0.002 A 
ATOM      7  C5  OXE d   1       2.632  -0.237  -0.360  0.00  0.00    -0.002 A 
ATOM      8  C6  OXE d   1       3.141   1.052  -0.254  0.00  0.00     0.003 A 
ENDROOT
TORSDOF 0
ENDMDL
