MODEL 1
REMARK minimizedAffinity 13.9771051
REMARK minimizedRMSD -1
REMARK  0 active torsions:
REMARK  status: ('A' for Active; 'I' for Inactive)
ROOT
ATOM      1  C2' OXE d   1      -2.720  -2.272  -2.601  0.00  0.00     0.078 C 
ATOM      2  C1' OXE d   1      -1.034  -0.102  -2.028  0.00  0.00     0.078 C 
ATOM      3  C1  OXE d   1      -2.045   0.066  -3.134  0.00  0.00    -0.078 A 
ATOM      4  C2  OXE d   1      -2.835  -1.016  -3.439  0.00  0.00    -0.078 A 
ATOM      5  C3  OXE d   1      -3.821  -0.898  -4.414  0.00  0.00     0.003 A 
ATOM      6  C4  OXE d   1      -3.914   0.263  -5.191  0.00  0.00    -0.002 A 
ATOM      7  C5  OXE d   1      -3.093   1.364  -4.923  0.00  0.00    -0.002 A 
ATOM      8  C6  OXE d   1      -2.185   1.297  -3.873  0.00  0.00     0.003 A 
ENDROOT
TORSDOF 0
ENDMDL
