MODEL 1
REMARK minimizedAffinity 12.170928
REMARK minimizedRMSD -1
REMARK  0 active torsions:
REMARK  status: ('A' for Active; 'I' for Inactive)
ROOT
ATOM      1  C2' OXE d   1      -0.640   3.948   1.741  0.00  0.00     0.078 C 
ATOM      2  C1' OXE d   1      -3.345   3.233   1.970  0.00  0.00     0.078 C 
ATOM      3  C1  OXE d   1      -2.484   2.436   1.022  0.00  0.00    -0.078 A 
ATOM      4  C2  OXE d   1      -1.173   2.823   0.881  0.00  0.00    -0.078 A 
ATOM      5  C3  OXE d   1      -0.322   2.088   0.060  0.00  0.00     0.003 A 
ATOM      6  C4  OXE d   1      -0.826   1.055  -0.739  0.00  0.00    -0.002 A 
ATOM      7  C5  OXE d   1      -2.168   0.671  -0.641  0.00  0.00    -0.002 A 
ATOM      8  C6  OXE d   1      -2.998   1.322   0.264  0.00  0.00     0.003 A 
ENDROOT
TORSDOF 0
ENDMDL
