MODEL 1
REMARK minimizedAffinity 4.46807098
REMARK minimizedRMSD -1
REMARK  0 active torsions:
REMARK  status: ('A' for Active; 'I' for Inactive)
ROOT
ATOM      1  C2' OXE d   1      -4.211   0.461  -0.824  0.00  0.00     0.078 C 
ATOM      2  C1' OXE d   1      -5.998   2.030  -2.317  0.00  0.00     0.078 C 
ATOM      3  C1  OXE d   1      -4.707   1.612  -2.976  0.00  0.00    -0.078 A 
ATOM      4  C2  OXE d   1      -3.818   0.884  -2.223  0.00  0.00    -0.078 A 
ATOM      5  C3  OXE d   1      -2.637   0.427  -2.800  0.00  0.00     0.003 A 
ATOM      6  C4  OXE d   1      -2.277   0.831  -4.091  0.00  0.00    -0.002 A 
ATOM      7  C5  OXE d   1      -3.150   1.606  -4.862  0.00  0.00    -0.002 A 
ATOM      8  C6  OXE d   1      -4.385   1.968  -4.336  0.00  0.00     0.003 A 
ENDROOT
TORSDOF 0
ENDMDL
