MODEL 1
REMARK minimizedAffinity 2.94143581
REMARK minimizedRMSD -1
REMARK  0 active torsions:
REMARK  status: ('A' for Active; 'I' for Inactive)
ROOT
ATOM      1  C2' OXE d   1       1.869  -2.565   3.789  0.00  0.00     0.078 C 
ATOM      2  C1' OXE d   1      -0.872  -3.167   3.738  0.00  0.00     0.078 C 
ATOM      3  C1  OXE d   1       0.029  -4.059   4.556  0.00  0.00    -0.078 A 
ATOM      4  C2  OXE d   1       1.375  -3.784   4.537  0.00  0.00    -0.078 A 
ATOM      5  C3  OXE d   1       2.243  -4.542   5.318  0.00  0.00     0.003 A 
ATOM      6  C4  OXE d   1       1.780  -5.674   5.999  0.00  0.00    -0.002 A 
ATOM      7  C5  OXE d   1       0.418  -5.994   5.999  0.00  0.00    -0.002 A 
ATOM      8  C6  OXE d   1      -0.475  -5.174   5.318  0.00  0.00     0.003 A 
ENDROOT
TORSDOF 0
ENDMDL
