MODEL 1
REMARK minimizedAffinity 5.91414928
REMARK minimizedRMSD -1
REMARK  2 active torsions:
REMARK  status: ('A' for Active; 'I' for Inactive)
REMARK    1  A    between atoms: C2'_3  and  C1'_4 
REMARK    2  A    between atoms: C1'_4  and  C1_5 
ROOT
ATOM      1  C1  I4B d   1      -0.953   1.260  -1.082  0.00  0.00    -0.075 A 
ATOM      2  C2  I4B d   1      -1.079   1.007  -2.425  0.00  0.00     0.003 A 
ATOM      3  C3  I4B d   1      -0.950   2.059  -3.364  0.00  0.00     0.002 A 
ATOM      4  C4  I4B d   1      -0.748   3.349  -2.916  0.00  0.00    -0.004 A 
ATOM      5  C5  I4B d   1      -0.597   3.600  -1.555  0.00  0.00     0.002 A 
ATOM      6  C6  I4B d   1      -0.688   2.547  -0.632  0.00  0.00     0.003 A 
ENDROOT
BRANCH   1   7
ATOM      7  C1' I4B d   1      -1.127   0.131  -0.116  0.00  0.00     0.060 C 
BRANCH   7   8
ATOM      8  C2' I4B d   1      -0.041   0.243   0.934  0.00  0.00    -0.013 C 
ATOM      9  C4' I4B d   1      -0.578  -0.058   2.308  0.00  0.00     0.013 C 
ATOM     10  C3' I4B d   1       1.060  -0.706   0.564  0.00  0.00     0.013 C 
ENDBRANCH   7   8
ENDBRANCH   1   7
TORSDOF 2
ENDMDL
