MODEL 1
REMARK minimizedAffinity -4.38074541
REMARK minimizedRMSD -1
REMARK  2 active torsions:
REMARK  status: ('A' for Active; 'I' for Inactive)
REMARK    1  A    between atoms: C2'_3  and  C1'_4 
REMARK    2  A    between atoms: C1'_4  and  C1_5 
ROOT
ATOM      1  C1  I4B d   1      -0.490   0.444  -0.973  0.00  0.00    -0.075 A 
ATOM      2  C2  I4B d   1       0.741  -0.109  -1.224  0.00  0.00     0.003 A 
ATOM      3  C3  I4B d   1       1.469  -0.730  -0.181  0.00  0.00     0.002 A 
ATOM      4  C4  I4B d   1       0.955  -0.731   1.100  0.00  0.00    -0.004 A 
ATOM      5  C5  I4B d   1      -0.304  -0.191   1.348  0.00  0.00     0.002 A 
ATOM      6  C6  I4B d   1      -1.037   0.389   0.302  0.00  0.00     0.003 A 
ENDROOT
BRANCH   1   7
ATOM      7  C1' I4B d   1      -1.218   1.121  -2.091  0.00  0.00     0.060 C 
BRANCH   7   8
ATOM      8  C2' I4B d   1      -0.774   2.569  -2.128  0.00  0.00    -0.013 C 
ATOM      9  C4' I4B d   1       0.178   2.819  -3.267  0.00  0.00     0.013 C 
ATOM     10  C3' I4B d   1      -1.999   3.426  -2.248  0.00  0.00     0.013 C 
ENDBRANCH   7   8
ENDBRANCH   1   7
TORSDOF 2
ENDMDL
