MODEL 1
REMARK minimizedAffinity -4.30879641
REMARK minimizedRMSD -1
REMARK  2 active torsions:
REMARK  status: ('A' for Active; 'I' for Inactive)
REMARK    1  A    between atoms: C2'_3  and  C1'_4 
REMARK    2  A    between atoms: C1'_4  and  C1_5 
ROOT
ATOM      1  C1  I4B d   1      -0.245  -0.212   1.014  0.00  0.00    -0.075 A 
ATOM      2  C2  I4B d   1      -0.752  -1.213   1.806  0.00  0.00     0.003 A 
ATOM      3  C3  I4B d   1       0.008  -1.720   2.887  0.00  0.00     0.002 A 
ATOM      4  C4  I4B d   1       1.282  -1.238   3.108  0.00  0.00    -0.004 A 
ATOM      5  C5  I4B d   1       1.785  -0.208   2.319  0.00  0.00     0.002 A 
ATOM      6  C6  I4B d   1       1.013   0.317   1.273  0.00  0.00     0.003 A 
ENDROOT
BRANCH   1   7
ATOM      7  C1' I4B d   1      -1.061   0.277  -0.139  0.00  0.00     0.060 C 
BRANCH   7   8
ATOM      8  C2' I4B d   1      -0.135   0.456  -1.325  0.00  0.00    -0.013 C 
ATOM      9  C4' I4B d   1       0.110  -0.854  -2.027  0.00  0.00     0.013 C 
ATOM     10  C3' I4B d   1      -0.755   1.459  -2.251  0.00  0.00     0.013 C 
ENDBRANCH   7   8
ENDBRANCH   1   7
TORSDOF 2
ENDMDL
