MODEL 1
REMARK minimizedAffinity -5.2125802
REMARK minimizedRMSD -1
REMARK  2 active torsions:
REMARK  status: ('A' for Active; 'I' for Inactive)
REMARK    1  A    between atoms: C2'_3  and  C1'_4 
REMARK    2  A    between atoms: C1'_4  and  C1_5 
ROOT
ATOM      1  C1  I4B d   1       0.738  -0.573  -0.288  0.00  0.00    -0.075 A 
ATOM      2  C2  I4B d   1      -0.093  -0.156   0.722  0.00  0.00     0.003 A 
ATOM      3  C3  I4B d   1       0.123  -0.596   2.050  0.00  0.00     0.002 A 
ATOM      4  C4  I4B d   1       1.143  -1.487   2.314  0.00  0.00    -0.004 A 
ATOM      5  C5  I4B d   1       1.998  -1.891   1.293  0.00  0.00     0.002 A 
ATOM      6  C6  I4B d   1       1.803  -1.422  -0.014  0.00  0.00     0.003 A 
ENDROOT
BRANCH   1   7
ATOM      7  C1' I4B d   1       0.461  -0.114  -1.685  0.00  0.00     0.060 C 
BRANCH   7   8
ATOM      8  C2' I4B d   1      -0.365   1.153  -1.605  0.00  0.00    -0.013 C 
ATOM      9  C4' I4B d   1       0.406   2.339  -2.122  0.00  0.00     0.013 C 
ATOM     10  C3' I4B d   1      -1.621   0.938  -2.395  0.00  0.00     0.013 C 
ENDBRANCH   7   8
ENDBRANCH   1   7
TORSDOF 2
ENDMDL
