MODEL 1
REMARK minimizedAffinity -6.22511292
REMARK minimizedRMSD -1
REMARK  2 active torsions:
REMARK  status: ('A' for Active; 'I' for Inactive)
REMARK    1  A    between atoms: C2'_3  and  C1'_4 
REMARK    2  A    between atoms: C1'_4  and  C1_5 
ROOT
ATOM      1  C1  I4B d   1      -0.020   0.335  -0.034  0.00  0.00    -0.075 A 
ATOM      2  C2  I4B d   1      -1.093   0.001   0.754  0.00  0.00     0.003 A 
ATOM      3  C3  I4B d   1      -0.892  -0.411   2.094  0.00  0.00     0.002 A 
ATOM      4  C4  I4B d   1       0.392  -0.523   2.586  0.00  0.00    -0.004 A 
ATOM      5  C5  I4B d   1       1.477  -0.161   1.792  0.00  0.00     0.002 A 
ATOM      6  C6  I4B d   1       1.270   0.282   0.478  0.00  0.00     0.003 A 
ENDROOT
BRANCH   1   7
ATOM      7  C1' I4B d   1      -0.266   0.735  -1.454  0.00  0.00     0.060 C 
BRANCH   7   8
ATOM      8  C2' I4B d   1      -0.606   2.211  -1.471  0.00  0.00    -0.013 C 
ATOM      9  C4' I4B d   1       0.600   3.045  -1.813  0.00  0.00     0.013 C 
ATOM     10  C3' I4B d   1      -1.709   2.420  -2.466  0.00  0.00     0.013 C 
ENDBRANCH   7   8
ENDBRANCH   1   7
TORSDOF 2
ENDMDL
