MODEL 1
REMARK minimizedAffinity 0.292502016
REMARK minimizedRMSD -1
REMARK  2 active torsions:
REMARK  status: ('A' for Active; 'I' for Inactive)
REMARK    1  A    between atoms: C2'_3  and  C1'_4 
REMARK    2  A    between atoms: C1'_4  and  C1_5 
ROOT
ATOM      1  C1  I4B d   1      -0.088   0.052  -0.513  0.00  0.00    -0.075 A 
ATOM      2  C2  I4B d   1      -1.072  -0.385   0.337  0.00  0.00     0.003 A 
ATOM      3  C3  I4B d   1      -0.741  -0.841   1.636  0.00  0.00     0.002 A 
ATOM      4  C4  I4B d   1       0.583  -0.890   2.022  0.00  0.00    -0.004 A 
ATOM      5  C5  I4B d   1       1.577  -0.425   1.167  0.00  0.00     0.002 A 
ATOM      6  C6  I4B d   1       1.239   0.061  -0.105  0.00  0.00     0.003 A 
ENDROOT
BRANCH   1   7
ATOM      7  C1' I4B d   1      -0.470   0.496  -1.890  0.00  0.00     0.060 C 
BRANCH   7   8
ATOM      8  C2' I4B d   1      -0.923   1.940  -1.806  0.00  0.00    -0.013 C 
ATOM      9  C4' I4B d   1      -0.091   2.824  -2.697  0.00  0.00     0.013 C 
ATOM     10  C3' I4B d   1      -2.371   1.994  -2.190  0.00  0.00     0.013 C 
ENDBRANCH   7   8
ENDBRANCH   1   7
TORSDOF 2
ENDMDL
