MODEL 1
REMARK minimizedAffinity -2.69848657
REMARK minimizedRMSD -1
REMARK  1 active torsions:
REMARK  status: ('A' for Active; 'I' for Inactive)
REMARK    1  A    between atoms: C3_4  and  O_7 
ROOT
ATOM      1  C   UNL d   1       1.709   1.068  -0.410  0.00  0.00    -0.033 A 
ATOM      2  C1  UNL d   1       1.980  -0.299  -0.492  0.00  0.00     0.039 A 
ATOM      3  C2  UNL d   1       0.991  -1.183  -0.928  0.00  0.00    -0.080 A 
ATOM      4  C3  UNL d   1      -0.262  -0.688  -1.280  0.00  0.00     0.150 A 
ATOM      5  C4  UNL d   1      -0.537   0.674  -1.204  0.00  0.00    -0.007 A 
ATOM      6  C5  UNL d   1       0.452   1.555  -0.767  0.00  0.00     0.039 A 
ENDROOT
BRANCH   4   7
ATOM      7  O   UNL d   1      -1.260  -1.512  -1.706  0.00  0.00    -0.526 OA
ATOM      8  H5  UNL d   1      -0.936  -2.428  -1.680  0.00  0.00     0.418 HD
ENDBRANCH   4   7
TORSDOF 1
ENDMDL
