MODEL 1
REMARK minimizedAffinity 4.88757563
REMARK minimizedRMSD -1
REMARK  1 active torsions:
REMARK  status: ('A' for Active; 'I' for Inactive)
REMARK    1  A    between atoms: C3_4  and  O_7 
ROOT
ATOM      1  C   UNL d   1      -0.368   5.965  -4.738  0.00  0.00    -0.033 A 
ATOM      2  C1  UNL d   1       0.304   5.917  -5.961  0.00  0.00     0.039 A 
ATOM      3  C2  UNL d   1       1.677   5.666  -5.996  0.00  0.00    -0.080 A 
ATOM      4  C3  UNL d   1       2.365   5.464  -4.802  0.00  0.00     0.150 A 
ATOM      5  C4  UNL d   1       1.701   5.507  -3.581  0.00  0.00    -0.007 A 
ATOM      6  C5  UNL d   1       0.330   5.759  -3.548  0.00  0.00     0.039 A 
ENDROOT
BRANCH   4   7
ATOM      7  O   UNL d   1       3.706   5.220  -4.786  0.00  0.00    -0.526 OA
ATOM      8  H5  UNL d   1       4.036   5.248  -5.699  0.00  0.00     0.418 HD
ENDBRANCH   4   7
TORSDOF 1
ENDMDL
