MODEL 1
REMARK minimizedAffinity -1.60782635
REMARK minimizedRMSD -1
REMARK  1 active torsions:
REMARK  status: ('A' for Active; 'I' for Inactive)
REMARK    1  A    between atoms: C3_4  and  O_7 
ROOT
ATOM      1  C   UNL d   1       0.310   5.993  -4.228  0.00  0.00    -0.033 A 
ATOM      2  C1  UNL d   1      -0.405   5.997  -5.427  0.00  0.00     0.039 A 
ATOM      3  C2  UNL d   1      -1.801   6.000  -5.409  0.00  0.00    -0.080 A 
ATOM      4  C3  UNL d   1      -2.469   6.000  -4.188  0.00  0.00     0.150 A 
ATOM      5  C4  UNL d   1      -1.763   6.000  -2.989  0.00  0.00    -0.007 A 
ATOM      6  C5  UNL d   1      -0.369   5.996  -3.009  0.00  0.00     0.039 A 
ENDROOT
BRANCH   4   7
ATOM      7  O   UNL d   1      -3.831   5.998  -4.120  0.00  0.00    -0.526 OA
ATOM      8  H5  UNL d   1      -4.184   5.969  -5.025  0.00  0.00     0.418 HD
ENDBRANCH   4   7
TORSDOF 1
ENDMDL
