MODEL 1
REMARK minimizedAffinity -2.94893336
REMARK minimizedRMSD -1
REMARK  1 active torsions:
REMARK  status: ('A' for Active; 'I' for Inactive)
REMARK    1  A    between atoms: C3_4  and  O_7 
ROOT
ATOM      1  C   UNL d   1      -0.542   5.993  -3.335  0.00  0.00    -0.033 A 
ATOM      2  C1  UNL d   1      -0.785   5.999  -1.960  0.00  0.00     0.039 A 
ATOM      3  C2  UNL d   1      -2.096   5.998  -1.481  0.00  0.00    -0.080 A 
ATOM      4  C3  UNL d   1      -3.154   5.989  -2.385  0.00  0.00     0.150 A 
ATOM      5  C4  UNL d   1      -2.920   5.979  -3.756  0.00  0.00    -0.007 A 
ATOM      6  C5  UNL d   1      -1.610   5.982  -4.233  0.00  0.00     0.039 A 
ENDROOT
BRANCH   4   7
ATOM      7  O   UNL d   1      -4.451   5.992  -1.965  0.00  0.00    -0.526 OA
ATOM      8  H5  UNL d   1      -4.460   6.029  -0.993  0.00  0.00     0.418 HD
ENDBRANCH   4   7
TORSDOF 1
ENDMDL
