MODEL 1
REMARK minimizedAffinity 1.80337167
REMARK minimizedRMSD -1
REMARK  1 active torsions:
REMARK  status: ('A' for Active; 'I' for Inactive)
REMARK    1  A    between atoms: C3_4  and  O_7 
ROOT
ATOM      1  C   UNL d   1       1.460   1.170  -0.679  0.00  0.00    -0.033 A 
ATOM      2  C1  UNL d   1       2.052   1.502   0.541  0.00  0.00     0.039 A 
ATOM      3  C2  UNL d   1       1.434   1.142   1.740  0.00  0.00    -0.080 A 
ATOM      4  C3  UNL d   1       0.226   0.450   1.706  0.00  0.00     0.150 A 
ATOM      5  C4  UNL d   1      -0.367   0.112   0.494  0.00  0.00    -0.007 A 
ATOM      6  C5  UNL d   1       0.251   0.473  -0.703  0.00  0.00     0.039 A 
ENDROOT
BRANCH   4   7
ATOM      7  O   UNL d   1      -0.417   0.081   2.850  0.00  0.00    -0.526 OA
ATOM      8  H5  UNL d   1       0.095   0.407   3.609  0.00  0.00     0.418 HD
ENDBRANCH   4   7
TORSDOF 1
ENDMDL
