MODEL 1
REMARK minimizedAffinity -3.11540341
REMARK minimizedRMSD -1
REMARK  1 active torsions:
REMARK  status: ('A' for Active; 'I' for Inactive)
REMARK    1  A    between atoms: C3_4  and  O_7 
ROOT
ATOM      1  C   UNL d   1       3.593   1.825   1.194  0.00  0.00    -0.033 A 
ATOM      2  C1  UNL d   1       2.535   2.525   0.612  0.00  0.00     0.039 A 
ATOM      3  C2  UNL d   1       1.256   2.448   1.167  0.00  0.00    -0.080 A 
ATOM      4  C3  UNL d   1       1.049   1.669   2.302  0.00  0.00     0.150 A 
ATOM      5  C4  UNL d   1       2.100   0.972   2.889  0.00  0.00    -0.007 A 
ATOM      6  C5  UNL d   1       3.377   1.050   2.333  0.00  0.00     0.039 A 
ENDROOT
BRANCH   4   7
ATOM      7  O   UNL d   1      -0.182   1.559   2.877  0.00  0.00    -0.526 OA
ATOM      8  H5  UNL d   1      -0.816   2.071   2.347  0.00  0.00     0.418 HD
ENDBRANCH   4   7
TORSDOF 1
ENDMDL
