MODEL 1
REMARK minimizedAffinity -3.64750481
REMARK minimizedRMSD -1
REMARK  1 active torsions:
REMARK  status: ('A' for Active; 'I' for Inactive)
REMARK    1  A    between atoms: C3_4  and  O_7 
ROOT
ATOM      1  C   UNL d   1      -3.013   6.000  -2.891  0.00  0.00    -0.033 A 
ATOM      2  C1  UNL d   1      -3.493   5.965  -4.201  0.00  0.00     0.039 A 
ATOM      3  C2  UNL d   1      -2.619   5.714  -5.261  0.00  0.00    -0.080 A 
ATOM      4  C3  UNL d   1      -1.269   5.499  -4.996  0.00  0.00     0.150 A 
ATOM      5  C4  UNL d   1      -0.785   5.529  -3.693  0.00  0.00    -0.007 A 
ATOM      6  C5  UNL d   1      -1.659   5.780  -2.636  0.00  0.00     0.039 A 
ENDROOT
BRANCH   4   7
ATOM      7  O   UNL d   1      -0.377   5.256  -5.998  0.00  0.00    -0.526 OA
ATOM      8  H5  UNL d   1      -0.849   5.294  -6.846  0.00  0.00     0.418 HD
ENDBRANCH   4   7
TORSDOF 1
ENDMDL
