MODEL 1
REMARK minimizedAffinity -3.47172904
REMARK minimizedRMSD -1
REMARK  1 active torsions:
REMARK  status: ('A' for Active; 'I' for Inactive)
REMARK    1  A    between atoms: C3_4  and  O_7 
ROOT
ATOM      1  C   UNL d   1       0.297   5.993  -3.193  0.00  0.00    -0.033 A 
ATOM      2  C1  UNL d   1      -0.134   5.997  -4.521  0.00  0.00     0.039 A 
ATOM      3  C2  UNL d   1      -1.500   6.000  -4.814  0.00  0.00    -0.080 A 
ATOM      4  C3  UNL d   1      -2.422   6.000  -3.771  0.00  0.00     0.150 A 
ATOM      5  C4  UNL d   1      -2.000   6.000  -2.446  0.00  0.00    -0.007 A 
ATOM      6  C5  UNL d   1      -0.636   5.996  -2.156  0.00  0.00     0.039 A 
ENDROOT
BRANCH   4   7
ATOM      7  O   UNL d   1      -3.765   5.998  -4.008  0.00  0.00    -0.526 OA
ATOM      8  H5  UNL d   1      -3.908   5.969  -4.968  0.00  0.00     0.418 HD
ENDBRANCH   4   7
TORSDOF 1
ENDMDL
