MODEL 1
REMARK minimizedAffinity -0.0987767354
REMARK minimizedRMSD -1
REMARK  1 active torsions:
REMARK  status: ('A' for Active; 'I' for Inactive)
REMARK    1  A    between atoms: C3_4  and  O_7 
ROOT
ATOM      1  C   UNL d   1       0.092  -0.140  -0.422  0.00  0.00    -0.033 A 
ATOM      2  C1  UNL d   1       0.203  -0.261   0.964  0.00  0.00     0.039 A 
ATOM      3  C2  UNL d   1       0.891   0.708   1.698  0.00  0.00    -0.080 A 
ATOM      4  C3  UNL d   1       1.460   1.792   1.035  0.00  0.00     0.150 A 
ATOM      5  C4  UNL d   1       1.349   1.920  -0.346  0.00  0.00    -0.007 A 
ATOM      6  C5  UNL d   1       0.663   0.951  -1.077  0.00  0.00     0.039 A 
ENDROOT
BRANCH   4   7
ATOM      7  O   UNL d   1       2.144   2.760   1.708  0.00  0.00    -0.526 OA
ATOM      8  H5  UNL d   1       2.164   2.524   2.650  0.00  0.00     0.418 HD
ENDBRANCH   4   7
TORSDOF 1
ENDMDL
