MODEL 1
REMARK minimizedAffinity -1.36006856
REMARK minimizedRMSD -1
REMARK  1 active torsions:
REMARK  status: ('A' for Active; 'I' for Inactive)
REMARK    1  A    between atoms: C3_4  and  O_7 
ROOT
ATOM      1  C   UNL d   1       3.571   5.652  -4.767  0.00  0.00    -0.033 A 
ATOM      2  C1  UNL d   1       2.910   5.885  -5.974  0.00  0.00     0.039 A 
ATOM      3  C2  UNL d   1       1.518   5.999  -6.000  0.00  0.00    -0.080 A 
ATOM      4  C3  UNL d   1       0.801   5.880  -4.812  0.00  0.00     0.150 A 
ATOM      5  C4  UNL d   1       1.454   5.652  -3.605  0.00  0.00    -0.007 A 
ATOM      6  C5  UNL d   1       2.843   5.537  -3.582  0.00  0.00     0.039 A 
ENDROOT
BRANCH   4   7
ATOM      7  O   UNL d   1      -0.558   5.980  -4.788  0.00  0.00    -0.526 OA
ATOM      8  H5  UNL d   1      -0.874   6.109  -5.698  0.00  0.00     0.418 HD
ENDBRANCH   4   7
TORSDOF 1
ENDMDL
