MODEL 1
REMARK minimizedAffinity -3.33462572
REMARK minimizedRMSD -1
REMARK  1 active torsions:
REMARK  status: ('A' for Active; 'I' for Inactive)
REMARK    1  A    between atoms: C3_4  and  O_7 
ROOT
ATOM      1  C   UNL d   1       2.011   5.980  -4.736  0.00  0.00    -0.033 A 
ATOM      2  C1  UNL d   1       1.292   5.984  -3.540  0.00  0.00     0.039 A 
ATOM      3  C2  UNL d   1      -0.104   5.990  -3.562  0.00  0.00    -0.080 A 
ATOM      4  C3  UNL d   1      -0.767   5.990  -4.785  0.00  0.00     0.150 A 
ATOM      5  C4  UNL d   1      -0.058   5.981  -5.982  0.00  0.00    -0.007 A 
ATOM      6  C5  UNL d   1       1.336   5.977  -5.957  0.00  0.00     0.039 A 
ENDROOT
BRANCH   4   7
ATOM      7  O   UNL d   1      -2.129   6.000  -4.857  0.00  0.00    -0.526 OA
ATOM      8  H5  UNL d   1      -2.485   6.034  -3.954  0.00  0.00     0.418 HD
ENDBRANCH   4   7
TORSDOF 1
ENDMDL
