MODEL 1
REMARK minimizedAffinity -0.175351799
REMARK minimizedRMSD -1
REMARK  1 active torsions:
REMARK  status: ('A' for Active; 'I' for Inactive)
REMARK    1  A    between atoms: C3_4  and  O_7 
ROOT
ATOM      1  C   UNL d   1      -5.271  -5.050   0.176  0.00  0.00    -0.033 A 
ATOM      2  C1  UNL d   1      -5.363  -3.802   0.794  0.00  0.00     0.039 A 
ATOM      3  C2  UNL d   1      -4.835  -2.671   0.168  0.00  0.00    -0.080 A 
ATOM      4  C3  UNL d   1      -4.220  -2.801  -1.074  0.00  0.00     0.150 A 
ATOM      5  C4  UNL d   1      -4.129  -4.041  -1.697  0.00  0.00    -0.007 A 
ATOM      6  C5  UNL d   1      -4.655  -5.170  -1.070  0.00  0.00     0.039 A 
ENDROOT
BRANCH   4   7
ATOM      7  O   UNL d   1      -3.687  -1.726  -1.721  0.00  0.00    -0.526 OA
ATOM      8  H5  UNL d   1      -3.798  -0.942  -1.158  0.00  0.00     0.418 HD
ENDBRANCH   4   7
TORSDOF 1
ENDMDL
