MODEL 1
REMARK minimizedAffinity -0.716901064
REMARK minimizedRMSD -1
REMARK  1 active torsions:
REMARK  status: ('A' for Active; 'I' for Inactive)
REMARK    1  A    between atoms: C3_4  and  O_7 
ROOT
ATOM      1  C   UNL d   1       0.744   1.064   0.833  0.00  0.00    -0.033 A 
ATOM      2  C1  UNL d   1      -0.122   0.184   0.183  0.00  0.00     0.039 A 
ATOM      3  C2  UNL d   1      -1.167  -0.418   0.887  0.00  0.00    -0.080 A 
ATOM      4  C3  UNL d   1      -1.335  -0.131   2.239  0.00  0.00     0.150 A 
ATOM      5  C4  UNL d   1      -0.478   0.749   2.892  0.00  0.00    -0.007 A 
ATOM      6  C5  UNL d   1       0.566   1.348   2.188  0.00  0.00     0.039 A 
ENDROOT
BRANCH   4   7
ATOM      7  O   UNL d   1      -2.337  -0.697   2.968  0.00  0.00    -0.526 OA
ATOM      8  H5  UNL d   1      -2.832  -1.304   2.393  0.00  0.00     0.418 HD
ENDBRANCH   4   7
TORSDOF 1
ENDMDL
