MODEL 1
REMARK minimizedAffinity -0.456201613
REMARK minimizedRMSD -1
REMARK  1 active torsions:
REMARK  status: ('A' for Active; 'I' for Inactive)
REMARK    1  A    between atoms: C3_4  and  O_7 
ROOT
ATOM      1  C   UNL d   1      -5.433   5.998  -2.156  0.00  0.00    -0.033 A 
ATOM      2  C1  UNL d   1      -4.409   6.000  -1.208  0.00  0.00     0.039 A 
ATOM      3  C2  UNL d   1      -3.075   5.998  -1.618  0.00  0.00    -0.080 A 
ATOM      4  C3  UNL d   1      -2.778   5.996  -2.978  0.00  0.00     0.150 A 
ATOM      5  C4  UNL d   1      -3.794   5.998  -3.929  0.00  0.00    -0.007 A 
ATOM      6  C5  UNL d   1      -5.126   5.999  -3.517  0.00  0.00     0.039 A 
ENDROOT
BRANCH   4   7
ATOM      7  O   UNL d   1      -1.491   5.989  -3.427  0.00  0.00    -0.526 OA
ATOM      8  H5  UNL d   1      -0.897   5.959  -2.659  0.00  0.00     0.418 HD
ENDBRANCH   4   7
TORSDOF 1
ENDMDL
