MODEL 1
REMARK minimizedAffinity 0.500838578
REMARK minimizedRMSD -1
REMARK  2 active torsions:
REMARK  status: ('A' for Active; 'I' for Inactive)
REMARK    1  A    between atoms: C1_2  and  C2_3 
REMARK    2  A    between atoms: C2_3  and  C3_4 
ROOT
ATOM      1  C3  UNL d   1       1.030  -2.179  -0.686  0.00  0.00    -0.075 A 
ATOM      2  C4  UNL d   1      -0.319  -2.520  -0.860  0.00  0.00     0.002 A 
ATOM      3  C5  UNL d   1      -0.921  -3.471  -0.036  0.00  0.00     0.002 A 
ATOM      4  C6  UNL d   1      -0.182  -4.099   0.964  0.00  0.00    -0.004 A 
ATOM      5  C7  UNL d   1       1.164  -3.780   1.135  0.00  0.00     0.002 A 
ATOM      6  C8  UNL d   1       1.767  -2.825   0.315  0.00  0.00     0.002 A 
ENDROOT
BRANCH   1   7
ATOM      7  C2  UNL d   1       1.680  -1.129  -1.555  0.00  0.00     0.056 C 
BRANCH   7   8
ATOM      8  C1  UNL d   1       0.755   0.037  -1.921  0.00  0.00     0.007 C 
ATOM      9  C   UNL d   1       1.353   0.973  -2.963  0.00  0.00     0.009 C 
ENDBRANCH   7   8
ENDBRANCH   1   7
TORSDOF 2
ENDMDL
