MODEL 1
REMARK minimizedAffinity 1.0697062
REMARK minimizedRMSD -1
REMARK  2 active torsions:
REMARK  status: ('A' for Active; 'I' for Inactive)
REMARK    1  A    between atoms: C1_2  and  C2_3 
REMARK    2  A    between atoms: C2_3  and  C3_4 
ROOT
ATOM      1  C3  UNL d   1       3.334   0.405  -4.266  0.00  0.00    -0.075 A 
ATOM      2  C4  UNL d   1       4.384   0.338  -3.339  0.00  0.00     0.002 A 
ATOM      3  C5  UNL d   1       5.694   0.619  -3.732  0.00  0.00     0.002 A 
ATOM      4  C6  UNL d   1       5.970   0.959  -5.054  0.00  0.00    -0.004 A 
ATOM      5  C7  UNL d   1       4.936   1.012  -5.986  0.00  0.00     0.002 A 
ATOM      6  C8  UNL d   1       3.624   0.736  -5.596  0.00  0.00     0.002 A 
ENDROOT
BRANCH   1   7
ATOM      7  C2  UNL d   1       1.911   0.131  -3.841  0.00  0.00     0.056 C 
BRANCH   7   8
ATOM      8  C1  UNL d   1       1.787  -0.522  -2.460  0.00  0.00     0.007 C 
ATOM      9  C   UNL d   1       0.853   0.232  -1.521  0.00  0.00     0.009 C 
ENDBRANCH   7   8
ENDBRANCH   1   7
TORSDOF 2
ENDMDL
