MODEL 1
REMARK minimizedAffinity 0.533369422
REMARK minimizedRMSD -1
REMARK  2 active torsions:
REMARK  status: ('A' for Active; 'I' for Inactive)
REMARK    1  A    between atoms: C1_2  and  C2_3 
REMARK    2  A    between atoms: C2_3  and  C3_4 
ROOT
ATOM      1  C3  UNL d   1       1.855   0.441  -3.284  0.00  0.00    -0.075 A 
ATOM      2  C4  UNL d   1       1.055   1.490  -2.808  0.00  0.00     0.002 A 
ATOM      3  C5  UNL d   1       0.443   1.402  -1.557  0.00  0.00     0.002 A 
ATOM      4  C6  UNL d   1       0.614   0.264  -0.773  0.00  0.00    -0.004 A 
ATOM      5  C7  UNL d   1       1.393  -0.791  -1.242  0.00  0.00     0.002 A 
ATOM      6  C8  UNL d   1       2.010  -0.705  -2.491  0.00  0.00     0.002 A 
ENDROOT
BRANCH   1   7
ATOM      7  C2  UNL d   1       2.545   0.541  -4.623  0.00  0.00     0.056 C 
BRANCH   7   8
ATOM      8  C1  UNL d   1       4.075   0.499  -4.542  0.00  0.00     0.007 C 
ATOM      9  C   UNL d   1       4.747   0.469  -5.908  0.00  0.00     0.009 C 
ENDBRANCH   7   8
ENDBRANCH   1   7
TORSDOF 2
ENDMDL
