MODEL 1
REMARK minimizedAffinity -1.43588126
REMARK minimizedRMSD -1
REMARK  2 active torsions:
REMARK  status: ('A' for Active; 'I' for Inactive)
REMARK    1  A    between atoms: C1_2  and  C2_3 
REMARK    2  A    between atoms: C2_3  and  C3_4 
ROOT
ATOM      1  C3  UNL d   1      -3.418   3.383   4.964  0.00  0.00    -0.075 A 
ATOM      2  C4  UNL d   1      -2.973   4.377   4.079  0.00  0.00     0.002 A 
ATOM      3  C5  UNL d   1      -3.473   5.677   4.165  0.00  0.00     0.002 A 
ATOM      4  C6  UNL d   1      -4.429   5.997   5.126  0.00  0.00    -0.004 A 
ATOM      5  C7  UNL d   1      -4.890   5.014   5.999  0.00  0.00     0.002 A 
ATOM      6  C8  UNL d   1      -4.389   3.714   5.919  0.00  0.00     0.002 A 
ENDROOT
BRANCH   1   7
ATOM      7  C2  UNL d   1      -2.860   1.982   4.896  0.00  0.00     0.056 C 
BRANCH   7   8
ATOM      8  C1  UNL d   1      -3.897   0.884   5.155  0.00  0.00     0.007 C 
ATOM      9  C   UNL d   1      -3.644  -0.383   4.349  0.00  0.00     0.009 C 
ENDBRANCH   7   8
ENDBRANCH   1   7
TORSDOF 2
ENDMDL
