MODEL 1
REMARK minimizedAffinity 1.3158468
REMARK minimizedRMSD -1
REMARK  2 active torsions:
REMARK  status: ('A' for Active; 'I' for Inactive)
REMARK    1  A    between atoms: C1_2  and  C2_3 
REMARK    2  A    between atoms: C2_3  and  C3_4 
ROOT
ATOM      1  C3  UNL d   1       3.894   2.995  -5.217  0.00  0.00    -0.075 A 
ATOM      2  C4  UNL d   1       3.371   1.696  -5.142  0.00  0.00     0.002 A 
ATOM      3  C5  UNL d   1       4.160   0.595  -5.476  0.00  0.00     0.002 A 
ATOM      4  C6  UNL d   1       5.475   0.779  -5.897  0.00  0.00    -0.004 A 
ATOM      5  C7  UNL d   1       6.000   2.066  -5.990  0.00  0.00     0.002 A 
ATOM      6  C8  UNL d   1       5.214   3.169  -5.653  0.00  0.00     0.002 A 
ENDROOT
BRANCH   1   7
ATOM      7  C2  UNL d   1       3.054   4.189  -4.829  0.00  0.00     0.056 C 
BRANCH   7   8
ATOM      8  C1  UNL d   1       3.723   5.117  -3.808  0.00  0.00     0.007 C 
ATOM      9  C   UNL d   1       3.126   5.002  -2.412  0.00  0.00     0.009 C 
ENDBRANCH   7   8
ENDBRANCH   1   7
TORSDOF 2
ENDMDL
