MODEL 1
REMARK minimizedAffinity 2.40026736
REMARK minimizedRMSD -1
REMARK  2 active torsions:
REMARK  status: ('A' for Active; 'I' for Inactive)
REMARK    1  A    between atoms: C1_2  and  C2_3 
REMARK    2  A    between atoms: C2_3  and  C3_4 
ROOT
ATOM      1  C3  UNL d   1       1.808  -0.773  -3.628  0.00  0.00    -0.075 A 
ATOM      2  C4  UNL d   1       1.606  -0.181  -2.372  0.00  0.00     0.002 A 
ATOM      3  C5  UNL d   1       1.164  -0.946  -1.292  0.00  0.00     0.002 A 
ATOM      4  C6  UNL d   1       0.910  -2.306  -1.455  0.00  0.00    -0.004 A 
ATOM      5  C7  UNL d   1       1.091  -2.900  -2.701  0.00  0.00     0.002 A 
ATOM      6  C8  UNL d   1       1.537  -2.139  -3.783  0.00  0.00     0.002 A 
ENDROOT
BRANCH   1   7
ATOM      7  C2  UNL d   1       2.314   0.043  -4.793  0.00  0.00     0.056 C 
BRANCH   7   8
ATOM      8  C1  UNL d   1       3.785   0.457  -4.673  0.00  0.00     0.007 C 
ATOM      9  C   UNL d   1       4.399   0.882  -6.000  0.00  0.00     0.009 C 
ENDBRANCH   7   8
ENDBRANCH   1   7
TORSDOF 2
ENDMDL
