MODEL 1
REMARK minimizedAffinity 3.58400679
REMARK minimizedRMSD -1
REMARK  2 active torsions:
REMARK  status: ('A' for Active; 'I' for Inactive)
REMARK    1  A    between atoms: C1_2  and  C2_3 
REMARK    2  A    between atoms: C2_3  and  C3_4 
ROOT
ATOM      1  C3  UNL d   1       0.840  -0.095  -2.115  0.00  0.00    -0.075 A 
ATOM      2  C4  UNL d   1       1.121  -0.038  -3.488  0.00  0.00     0.002 A 
ATOM      3  C5  UNL d   1       1.361  -1.207  -4.210  0.00  0.00     0.002 A 
ATOM      4  C6  UNL d   1       1.333  -2.444  -3.570  0.00  0.00    -0.004 A 
ATOM      5  C7  UNL d   1       1.071  -2.511  -2.203  0.00  0.00     0.002 A 
ATOM      6  C8  UNL d   1       0.826  -1.343  -1.478  0.00  0.00     0.002 A 
ENDROOT
BRANCH   1   7
ATOM      7  C2  UNL d   1       0.550   1.164  -1.333  0.00  0.00     0.056 C 
BRANCH   7   8
ATOM      8  C1  UNL d   1       1.492   1.392  -0.146  0.00  0.00     0.007 C 
ATOM      9  C   UNL d   1       1.926   2.844   0.006  0.00  0.00     0.009 C 
ENDBRANCH   7   8
ENDBRANCH   1   7
TORSDOF 2
ENDMDL
