MODEL 1
REMARK minimizedAffinity -2.48207378
REMARK minimizedRMSD -1
REMARK  2 active torsions:
REMARK  status: ('A' for Active; 'I' for Inactive)
REMARK    1  A    between atoms: C1_2  and  C2_3 
REMARK    2  A    between atoms: C2_3  and  C3_4 
ROOT
ATOM      1  C3  UNL d   1       1.695  -0.002  -3.235  0.00  0.00    -0.075 A 
ATOM      2  C4  UNL d   1       1.133   1.162  -2.691  0.00  0.00     0.002 A 
ATOM      3  C5  UNL d   1       0.578   1.149  -1.411  0.00  0.00     0.002 A 
ATOM      4  C6  UNL d   1       0.568  -0.027  -0.665  0.00  0.00    -0.004 A 
ATOM      5  C7  UNL d   1       1.108  -1.194  -1.202  0.00  0.00     0.002 A 
ATOM      6  C8  UNL d   1       1.669  -1.182  -2.480  0.00  0.00     0.002 A 
ENDROOT
BRANCH   1   7
ATOM      7  C2  UNL d   1       2.324   0.013  -4.608  0.00  0.00     0.056 C 
BRANCH   7   8
ATOM      8  C1  UNL d   1       3.814   0.370  -4.607  0.00  0.00     0.007 C 
ATOM      9  C   UNL d   1       4.432   0.372  -5.999  0.00  0.00     0.009 C 
ENDBRANCH   7   8
ENDBRANCH   1   7
TORSDOF 2
ENDMDL
