MODEL 1
REMARK minimizedAffinity 2.56140423
REMARK minimizedRMSD -1
REMARK  2 active torsions:
REMARK  status: ('A' for Active; 'I' for Inactive)
REMARK    1  A    between atoms: C1_2  and  C2_3 
REMARK    2  A    between atoms: C2_3  and  C3_4 
ROOT
ATOM      1  C3  UNL d   1       1.884   0.536  -0.103  0.00  0.00    -0.075 A 
ATOM      2  C4  UNL d   1       1.658  -0.760  -0.590  0.00  0.00     0.002 A 
ATOM      3  C5  UNL d   1       0.930  -0.959  -1.763  0.00  0.00     0.002 A 
ATOM      4  C6  UNL d   1       0.411   0.131  -2.458  0.00  0.00    -0.004 A 
ATOM      5  C7  UNL d   1       0.615   1.422  -1.975  0.00  0.00     0.002 A 
ATOM      6  C8  UNL d   1       1.347   1.624  -0.803  0.00  0.00     0.002 A 
ENDROOT
BRANCH   1   7
ATOM      7  C2  UNL d   1       2.696   0.760   1.150  0.00  0.00     0.056 C 
BRANCH   7   8
ATOM      8  C1  UNL d   1       3.221   2.191   1.305  0.00  0.00     0.007 C 
ATOM      9  C   UNL d   1       4.348   2.310   2.322  0.00  0.00     0.009 C 
ENDBRANCH   7   8
ENDBRANCH   1   7
TORSDOF 2
ENDMDL
