MODEL 1
REMARK minimizedAffinity 4.1730423
REMARK minimizedRMSD -1
REMARK  2 active torsions:
REMARK  status: ('A' for Active; 'I' for Inactive)
REMARK    1  A    between atoms: C1_2  and  C2_3 
REMARK    2  A    between atoms: C2_3  and  C3_4 
ROOT
ATOM      1  C3  UNL d   1      -3.699   5.337   3.587  0.00  0.00    -0.075 A 
ATOM      2  C4  UNL d   1      -3.022   5.327   4.815  0.00  0.00     0.002 A 
ATOM      3  C5  UNL d   1      -3.701   5.612   6.000  0.00  0.00     0.002 A 
ATOM      4  C6  UNL d   1      -5.059   5.921   5.971  0.00  0.00    -0.004 A 
ATOM      5  C7  UNL d   1      -5.737   5.951   4.754  0.00  0.00     0.002 A 
ATOM      6  C8  UNL d   1      -5.062   5.662   3.568  0.00  0.00     0.002 A 
ENDROOT
BRANCH   1   7
ATOM      7  C2  UNL d   1      -2.976   5.000   2.304  0.00  0.00     0.056 C 
BRANCH   7   8
ATOM      8  C1  UNL d   1      -3.598   5.631   1.054  0.00  0.00     0.007 C 
ATOM      9  C   UNL d   1      -2.623   5.741  -0.111  0.00  0.00     0.009 C 
ENDBRANCH   7   8
ENDBRANCH   1   7
TORSDOF 2
ENDMDL
