MODEL 1
REMARK minimizedAffinity 0.0160411429
REMARK minimizedRMSD -1
REMARK  2 active torsions:
REMARK  status: ('A' for Active; 'I' for Inactive)
REMARK    1  A    between atoms: C1_2  and  C2_3 
REMARK    2  A    between atoms: C2_3  and  C3_4 
ROOT
ATOM      1  C3  UNL d   1       0.831   0.964  -1.616  0.00  0.00    -0.075 A 
ATOM      2  C4  UNL d   1       0.720  -0.357  -1.161  0.00  0.00     0.002 A 
ATOM      3  C5  UNL d   1       1.116  -1.422  -1.971  0.00  0.00     0.002 A 
ATOM      4  C6  UNL d   1       1.616  -1.180  -3.249  0.00  0.00    -0.004 A 
ATOM      5  C7  UNL d   1       1.715   0.128  -3.718  0.00  0.00     0.002 A 
ATOM      6  C8  UNL d   1       1.324   1.196  -2.907  0.00  0.00     0.002 A 
ENDROOT
BRANCH   1   7
ATOM      7  C2  UNL d   1       0.433   2.122  -0.733  0.00  0.00     0.056 C 
BRANCH   7   8
ATOM      8  C1  UNL d   1       1.616   2.947  -0.214  0.00  0.00     0.007 C 
ATOM      9  C   UNL d   1       2.423   2.230   0.860  0.00  0.00     0.009 C 
ENDBRANCH   7   8
ENDBRANCH   1   7
TORSDOF 2
ENDMDL
