MODEL 1
REMARK minimizedAffinity 4.41149139
REMARK minimizedRMSD -1
REMARK  2 active torsions:
REMARK  status: ('A' for Active; 'I' for Inactive)
REMARK    1  A    between atoms: C1_2  and  C2_3 
REMARK    2  A    between atoms: C2_3  and  C3_4 
ROOT
ATOM      1  C3  UNL d   1       0.679   0.746  -1.940  0.00  0.00    -0.075 A 
ATOM      2  C4  UNL d   1       1.082   0.827  -3.281  0.00  0.00     0.002 A 
ATOM      3  C5  UNL d   1       1.426  -0.325  -3.988  0.00  0.00     0.002 A 
ATOM      4  C6  UNL d   1       1.382  -1.569  -3.363  0.00  0.00    -0.004 A 
ATOM      5  C7  UNL d   1       0.999  -1.660  -2.027  0.00  0.00     0.002 A 
ATOM      6  C8  UNL d   1       0.650  -0.509  -1.318  0.00  0.00     0.002 A 
ENDROOT
BRANCH   1   7
ATOM      7  C2  UNL d   1       0.278   1.986  -1.178  0.00  0.00     0.056 C 
BRANCH   7   8
ATOM      8  C1  UNL d   1       1.455   2.748  -0.560  0.00  0.00     0.007 C 
ATOM      9  C   UNL d   1       1.732   2.357   0.885  0.00  0.00     0.009 C 
ENDBRANCH   7   8
ENDBRANCH   1   7
TORSDOF 2
ENDMDL
