MODEL 1
REMARK minimizedAffinity 3.99100423
REMARK minimizedRMSD -1
REMARK  0 active torsions:
REMARK  status: ('A' for Active; 'I' for Inactive)
ROOT
ATOM      1  C   UNL d   1       1.103  -1.464   4.858  0.00  0.00    -0.002 A 
ATOM      2  C1  UNL d   1       0.915  -2.620   5.602  0.00  0.00     0.010 A 
ATOM      3  C2  UNL d   1      -0.365  -3.010   5.998  0.00  0.00     0.041 A 
ATOM      4  C3  UNL d   1      -1.466  -2.212   5.628  0.00  0.00    -0.075 A 
ATOM      5  S   UNL d   1      -3.126  -2.493   5.999  0.00  0.00     0.015 SA
ATOM      6  C4  UNL d   1      -3.625  -1.086   5.178  0.00  0.00     0.022 A 
ATOM      7  C5  UNL d   1      -2.564  -0.406   4.628  0.00  0.00     0.026 A 
ATOM      8  C6  UNL d   1      -1.302  -1.044   4.878  0.00  0.00    -0.082 A 
ATOM      9  C7  UNL d   1       0.009  -0.675   4.493  0.00  0.00     0.045 A 
ENDROOT
TORSDOF 0
ENDMDL
