MODEL 1
REMARK minimizedAffinity -4.57992363
REMARK minimizedRMSD -1
REMARK  0 active torsions:
REMARK  status: ('A' for Active; 'I' for Inactive)
ROOT
ATOM      1  C   UNL d   1       1.907   3.473   0.334  0.00  0.00    -0.002 A 
ATOM      2  C1  UNL d   1       2.755   2.845   1.235  0.00  0.00     0.010 A 
ATOM      3  C2  UNL d   1       2.477   1.555   1.691  0.00  0.00     0.041 A 
ATOM      4  C3  UNL d   1       1.322   0.900   1.220  0.00  0.00    -0.075 A 
ATOM      5  S   UNL d   1       0.781  -0.683   1.639  0.00  0.00     0.015 SA
ATOM      6  C4  UNL d   1      -0.588  -0.562   0.631  0.00  0.00     0.022 A 
ATOM      7  C5  UNL d   1      -0.647   0.649  -0.016  0.00  0.00     0.026 A 
ATOM      8  C6  UNL d   1       0.453   1.511   0.312  0.00  0.00    -0.082 A 
ATOM      9  C7  UNL d   1       0.762   2.820  -0.131  0.00  0.00     0.045 A 
ENDROOT
TORSDOF 0
ENDMDL
