MODEL 1
REMARK minimizedAffinity -2.38795328
REMARK minimizedRMSD -1
REMARK  0 active torsions:
REMARK  status: ('A' for Active; 'I' for Inactive)
ROOT
ATOM      1  C   UNL d   1      -0.057  -1.236  -0.316  0.00  0.00    -0.002 A 
ATOM      2  C1  UNL d   1       0.190  -1.271   1.050  0.00  0.00     0.010 A 
ATOM      3  C2  UNL d   1       0.726  -0.160   1.704  0.00  0.00     0.041 A 
ATOM      4  C3  UNL d   1       1.011   0.999   0.956  0.00  0.00    -0.075 A 
ATOM      5  S   UNL d   1       1.670   2.480   1.544  0.00  0.00     0.015 SA
ATOM      6  C4  UNL d   1       1.638   3.195  -0.003  0.00  0.00     0.022 A 
ATOM      7  C5  UNL d   1       1.140   2.339  -0.956  0.00  0.00     0.026 A 
ATOM      8  C6  UNL d   1       0.770   1.059  -0.420  0.00  0.00    -0.082 A 
ATOM      9  C7  UNL d   1       0.227  -0.084  -1.054  0.00  0.00     0.045 A 
ENDROOT
TORSDOF 0
ENDMDL
