MODEL 1
REMARK minimizedAffinity -4.45637274
REMARK minimizedRMSD -1
REMARK  0 active torsions:
REMARK  status: ('A' for Active; 'I' for Inactive)
ROOT
ATOM      1  C   UNL d   1       0.983  -3.022  -1.455  0.00  0.00    -0.002 A 
ATOM      2  C1  UNL d   1       0.434  -3.543  -0.292  0.00  0.00     0.010 A 
ATOM      3  C2  UNL d   1      -0.273  -2.722   0.589  0.00  0.00     0.041 A 
ATOM      4  C3  UNL d   1      -0.424  -1.357   0.276  0.00  0.00    -0.075 A 
ATOM      5  S   UNL d   1      -1.252  -0.163   1.205  0.00  0.00     0.015 SA
ATOM      6  C4  UNL d   1      -0.898   1.066   0.078  0.00  0.00     0.022 A 
ATOM      7  C5  UNL d   1      -0.166   0.595  -0.987  0.00  0.00     0.026 A 
ATOM      8  C6  UNL d   1       0.118  -0.810  -0.890  0.00  0.00    -0.082 A 
ATOM      9  C7  UNL d   1       0.831  -1.667  -1.762  0.00  0.00     0.045 A 
ENDROOT
TORSDOF 0
ENDMDL
