MODEL 1
REMARK minimizedAffinity 2.58127904
REMARK minimizedRMSD -1
REMARK  0 active torsions:
REMARK  status: ('A' for Active; 'I' for Inactive)
ROOT
ATOM      1  C   UNL d   1      -0.522   1.193   0.582  0.00  0.00    -0.002 A 
ATOM      2  C1  UNL d   1       0.405   0.473  -0.158  0.00  0.00     0.010 A 
ATOM      3  C2  UNL d   1       0.287  -0.912  -0.289  0.00  0.00     0.041 A 
ATOM      4  C3  UNL d   1      -0.789  -1.567   0.341  0.00  0.00    -0.075 A 
ATOM      5  S   UNL d   1      -1.136  -3.256   0.318  0.00  0.00     0.015 SA
ATOM      6  C4  UNL d   1      -2.523  -3.061   1.288  0.00  0.00     0.022 A 
ATOM      7  C5  UNL d   1      -2.732  -1.746   1.631  0.00  0.00     0.026 A 
ATOM      8  C6  UNL d   1      -1.736  -0.863   1.090  0.00  0.00    -0.082 A 
ATOM      9  C7  UNL d   1      -1.588   0.540   1.205  0.00  0.00     0.045 A 
ENDROOT
TORSDOF 0
ENDMDL
