MODEL 1
REMARK minimizedAffinity -5.29099083
REMARK minimizedRMSD -1
REMARK  0 active torsions:
REMARK  status: ('A' for Active; 'I' for Inactive)
ROOT
ATOM      1  C   UNL d   1      -0.617  -1.867   0.835  0.00  0.00    -0.002 A 
ATOM      2  C1  UNL d   1      -0.346  -1.397  -0.442  0.00  0.00     0.010 A 
ATOM      3  C2  UNL d   1       0.200  -0.126  -0.631  0.00  0.00     0.041 A 
ATOM      4  C3  UNL d   1       0.473   0.672   0.497  0.00  0.00    -0.075 A 
ATOM      5  S   UNL d   1       1.143   2.261   0.508  0.00  0.00     0.015 SA
ATOM      6  C4  UNL d   1       1.086   2.354   2.209  0.00  0.00     0.022 A 
ATOM      7  C5  UNL d   1       0.571   1.210   2.771  0.00  0.00     0.026 A 
ATOM      8  C6  UNL d   1       0.210   0.221   1.794  0.00  0.00    -0.082 A 
ATOM      9  C7  UNL d   1      -0.344  -1.072   1.952  0.00  0.00     0.045 A 
ENDROOT
TORSDOF 0
ENDMDL
