MODEL 1
REMARK minimizedAffinity -2.82792878
REMARK minimizedRMSD -1
REMARK  0 active torsions:
REMARK  status: ('A' for Active; 'I' for Inactive)
ROOT
ATOM      1  C   UNL d   1      -1.018  -3.398  -0.049  0.00  0.00    -0.002 A 
ATOM      2  C1  UNL d   1      -0.630  -3.069  -1.341  0.00  0.00     0.010 A 
ATOM      3  C2  UNL d   1      -0.158  -1.789  -1.636  0.00  0.00     0.041 A 
ATOM      4  C3  UNL d   1      -0.079  -0.836  -0.602  0.00  0.00    -0.075 A 
ATOM      5  S   UNL d   1       0.469   0.794  -0.729  0.00  0.00     0.015 SA
ATOM      6  C4  UNL d   1       0.201   1.092   0.927  0.00  0.00     0.022 A 
ATOM      7  C5  UNL d   1      -0.294  -0.014   1.577  0.00  0.00     0.026 A 
ATOM      8  C6  UNL d   1      -0.463  -1.143   0.707  0.00  0.00    -0.082 A 
ATOM      9  C7  UNL d   1      -0.939  -2.450   0.974  0.00  0.00     0.045 A 
ENDROOT
TORSDOF 0
ENDMDL
