MODEL 1
REMARK minimizedAffinity -1.99317706
REMARK minimizedRMSD -1
REMARK  0 active torsions:
REMARK  status: ('A' for Active; 'I' for Inactive)
ROOT
ATOM      1  C   UNL d   1      -0.403  -2.807  -2.643  0.00  0.00    -0.002 A 
ATOM      2  C1  UNL d   1       0.094  -1.538  -2.905  0.00  0.00     0.010 A 
ATOM      3  C2  UNL d   1       0.119  -0.565  -1.905  0.00  0.00     0.041 A 
ATOM      4  C3  UNL d   1      -0.366  -0.891  -0.623  0.00  0.00    -0.075 A 
ATOM      5  S   UNL d   1      -0.433   0.140   0.757  0.00  0.00     0.015 SA
ATOM      6  C4  UNL d   1      -1.121  -1.080   1.727  0.00  0.00     0.022 A 
ATOM      7  C5  UNL d   1      -1.303  -2.252   1.031  0.00  0.00     0.026 A 
ATOM      8  C6  UNL d   1      -0.870  -2.163  -0.335  0.00  0.00    -0.082 A 
ATOM      9  C7  UNL d   1      -0.884  -3.127  -1.371  0.00  0.00     0.045 A 
ENDROOT
TORSDOF 0
ENDMDL
