MODEL 1
REMARK minimizedAffinity -3.35324812
REMARK minimizedRMSD -1
REMARK  1 active torsions:
REMARK  status: ('A' for Active; 'I' for Inactive)
REMARK    1  A    between atoms: C1_2  and  C2_3 
ROOT
ATOM      1  C2  UNL d   1       0.197  -0.526  -0.110  0.00  0.00    -0.076 A 
ATOM      2  C3  UNL d   1       0.541   0.828  -0.272  0.00  0.00     0.004 A 
ATOM      3  C4  UNL d   1       1.630   1.203  -1.057  0.00  0.00    -0.003 A 
ATOM      4  C5  UNL d   1       2.393   0.230  -1.694  0.00  0.00     0.000 A 
ATOM      5  C6  UNL d   1       2.056  -1.116  -1.558  0.00  0.00     0.000 A 
ATOM      6  C7  UNL d   1       0.952  -1.510  -0.784  0.00  0.00    -0.073 A 
ATOM      7  C8  UNL d   1       0.638  -2.977  -0.667  0.00  0.00     0.078 C 
ENDROOT
BRANCH   1   8
ATOM      8  C1  UNL d   1      -0.978  -0.874   0.776  0.00  0.00     0.053 C 
ATOM      9  C   UNL d   1      -1.489   0.323   1.562  0.00  0.00     0.018 C 
ENDBRANCH   1   8
TORSDOF 1
ENDMDL
