MODEL 1
REMARK minimizedAffinity 0.73879081
REMARK minimizedRMSD -1
REMARK  1 active torsions:
REMARK  status: ('A' for Active; 'I' for Inactive)
REMARK    1  A    between atoms: C1_2  and  C2_3 
ROOT
ATOM      1  C2  UNL d   1       0.841  -0.373  -0.061  0.00  0.00    -0.076 A 
ATOM      2  C3  UNL d   1       1.969  -0.321  -0.899  0.00  0.00     0.004 A 
ATOM      3  C4  UNL d   1       2.380   0.880  -1.476  0.00  0.00    -0.003 A 
ATOM      4  C5  UNL d   1       1.670   2.049  -1.223  0.00  0.00     0.000 A 
ATOM      5  C6  UNL d   1       0.560   2.019  -0.379  0.00  0.00     0.000 A 
ATOM      6  C7  UNL d   1       0.142   0.820   0.223  0.00  0.00    -0.073 A 
ATOM      7  C8  UNL d   1      -1.066   0.845   1.119  0.00  0.00     0.078 C 
ENDROOT
BRANCH   1   8
ATOM      8  C1  UNL d   1       0.427  -1.708   0.514  0.00  0.00     0.053 C 
ATOM      9  C   UNL d   1       0.042  -2.712  -0.562  0.00  0.00     0.018 C 
ENDBRANCH   1   8
TORSDOF 1
ENDMDL
