MODEL 1
REMARK minimizedAffinity -0.0944808498
REMARK minimizedRMSD -1
REMARK  1 active torsions:
REMARK  status: ('A' for Active; 'I' for Inactive)
REMARK    1  A    between atoms: C1_2  and  C2_3 
ROOT
ATOM      1  C2  UNL d   1      -3.307   3.704  -5.694  0.00  0.00    -0.076 A 
ATOM      2  C3  UNL d   1      -4.030   2.535  -5.987  0.00  0.00     0.004 A 
ATOM      3  C4  UNL d   1      -3.470   1.275  -5.786  0.00  0.00    -0.003 A 
ATOM      4  C5  UNL d   1      -2.177   1.163  -5.287  0.00  0.00     0.000 A 
ATOM      5  C6  UNL d   1      -1.451   2.312  -4.974  0.00  0.00     0.000 A 
ATOM      6  C7  UNL d   1      -2.007   3.589  -5.156  0.00  0.00    -0.073 A 
ATOM      7  C8  UNL d   1      -1.177   4.794  -4.808  0.00  0.00     0.078 C 
ENDROOT
BRANCH   1   8
ATOM      8  C1  UNL d   1      -3.956   5.043  -5.959  0.00  0.00     0.053 C 
ATOM      9  C   UNL d   1      -5.474   4.957  -6.000  0.00  0.00     0.018 C 
ENDBRANCH   1   8
TORSDOF 1
ENDMDL
