MODEL 1
REMARK minimizedAffinity 5.45372534
REMARK minimizedRMSD -1
REMARK  1 active torsions:
REMARK  status: ('A' for Active; 'I' for Inactive)
REMARK    1  A    between atoms: C1_2  and  C2_3 
ROOT
ATOM      1  C2  UNL d   1       0.913   1.715  -2.689  0.00  0.00    -0.076 A 
ATOM      2  C3  UNL d   1       1.147   0.329  -2.664  0.00  0.00     0.004 A 
ATOM      3  C4  UNL d   1       1.860  -0.259  -1.621  0.00  0.00    -0.003 A 
ATOM      4  C5  UNL d   1       2.349   0.529  -0.585  0.00  0.00     0.000 A 
ATOM      5  C6  UNL d   1       2.111   1.903  -0.584  0.00  0.00     0.000 A 
ATOM      6  C7  UNL d   1       1.381   2.509  -1.620  0.00  0.00    -0.073 A 
ATOM      7  C8  UNL d   1       1.159   3.996  -1.573  0.00  0.00     0.078 C 
ENDROOT
BRANCH   1   8
ATOM      8  C1  UNL d   1       0.158   2.301  -3.861  0.00  0.00     0.053 C 
ATOM      9  C   UNL d   1      -1.334   2.013  -3.794  0.00  0.00     0.018 C 
ENDBRANCH   1   8
TORSDOF 1
ENDMDL
