MODEL 1
REMARK minimizedAffinity 2.48683572
REMARK minimizedRMSD -1
REMARK  1 active torsions:
REMARK  status: ('A' for Active; 'I' for Inactive)
REMARK    1  A    between atoms: C1_2  and  C2_3 
ROOT
ATOM      1  C2  UNL d   1       1.532   1.953  -1.807  0.00  0.00    -0.076 A 
ATOM      2  C3  UNL d   1       0.958   1.528  -3.017  0.00  0.00     0.004 A 
ATOM      3  C4  UNL d   1       0.968   0.184  -3.383  0.00  0.00    -0.003 A 
ATOM      4  C5  UNL d   1       1.553  -0.759  -2.544  0.00  0.00     0.000 A 
ATOM      5  C6  UNL d   1       2.112  -0.357  -1.331  0.00  0.00     0.000 A 
ATOM      6  C7  UNL d   1       2.095   0.992  -0.940  0.00  0.00    -0.073 A 
ATOM      7  C8  UNL d   1       2.718   1.370   0.376  0.00  0.00     0.078 C 
ENDROOT
BRANCH   1   8
ATOM      8  C1  UNL d   1       1.516   3.428  -1.475  0.00  0.00     0.053 C 
ATOM      9  C   UNL d   1       1.148   3.696  -0.024  0.00  0.00     0.018 C 
ENDBRANCH   1   8
TORSDOF 1
ENDMDL
