MODEL 1
REMARK minimizedAffinity 6.87595749
REMARK minimizedRMSD -1
REMARK  1 active torsions:
REMARK  status: ('A' for Active; 'I' for Inactive)
REMARK    1  A    between atoms: C1_2  and  C2_3 
ROOT
ATOM      1  C2  UNL d   1       1.459   2.552  -1.776  0.00  0.00    -0.076 A 
ATOM      2  C3  UNL d   1       2.515   2.086  -0.973  0.00  0.00     0.004 A 
ATOM      3  C4  UNL d   1       2.835   0.730  -0.925  0.00  0.00    -0.003 A 
ATOM      4  C5  UNL d   1       2.105  -0.181  -1.681  0.00  0.00     0.000 A 
ATOM      5  C6  UNL d   1       1.066   0.266  -2.496  0.00  0.00     0.000 A 
ATOM      6  C7  UNL d   1       0.741   1.631  -2.568  0.00  0.00    -0.073 A 
ATOM      7  C8  UNL d   1      -0.393   2.057  -3.460  0.00  0.00     0.078 C 
ENDROOT
BRANCH   1   8
ATOM      8  C1  UNL d   1       1.140   4.030  -1.767  0.00  0.00     0.053 C 
ATOM      9  C   UNL d   1       1.248   4.641  -0.378  0.00  0.00     0.018 C 
ENDBRANCH   1   8
TORSDOF 1
ENDMDL
