MODEL 1
REMARK minimizedAffinity 4.60997534
REMARK minimizedRMSD -1
REMARK  1 active torsions:
REMARK  status: ('A' for Active; 'I' for Inactive)
REMARK    1  A    between atoms: C1_2  and  C2_3 
ROOT
ATOM      1  C2  UNL d   1       1.402   0.752  -0.656  0.00  0.00    -0.076 A 
ATOM      2  C3  UNL d   1       0.925   1.939  -0.074  0.00  0.00     0.004 A 
ATOM      3  C4  UNL d   1       1.094   3.168  -0.709  0.00  0.00    -0.003 A 
ATOM      4  C5  UNL d   1       1.742   3.229  -1.938  0.00  0.00     0.000 A 
ATOM      5  C6  UNL d   1       2.206   2.059  -2.538  0.00  0.00     0.000 A 
ATOM      6  C7  UNL d   1       2.030   0.810  -1.919  0.00  0.00    -0.073 A 
ATOM      7  C8  UNL d   1       2.555  -0.419  -2.608  0.00  0.00     0.078 C 
ENDROOT
BRANCH   1   8
ATOM      8  C1  UNL d   1       1.214  -0.549   0.093  0.00  0.00     0.053 C 
ATOM      9  C   UNL d   1       0.136  -1.426  -0.524  0.00  0.00     0.018 C 
ENDBRANCH   1   8
TORSDOF 1
ENDMDL
