MODEL 1
REMARK minimizedAffinity 1.74424434
REMARK minimizedRMSD -1
REMARK  1 active torsions:
REMARK  status: ('A' for Active; 'I' for Inactive)
REMARK    1  A    between atoms: C1_2  and  C2_3 
ROOT
ATOM      1  C2  UNL d   1      -3.799   3.354  -5.766  0.00  0.00    -0.076 A 
ATOM      2  C3  UNL d   1      -2.419   3.225  -5.532  0.00  0.00     0.004 A 
ATOM      3  C4  UNL d   1      -1.617   4.347  -5.336  0.00  0.00    -0.003 A 
ATOM      4  C5  UNL d   1      -2.181   5.617  -5.370  0.00  0.00     0.000 A 
ATOM      5  C6  UNL d   1      -3.551   5.764  -5.584  0.00  0.00     0.000 A 
ATOM      6  C7  UNL d   1      -4.377   4.642  -5.767  0.00  0.00    -0.073 A 
ATOM      7  C8  UNL d   1      -5.848   4.858  -6.000  0.00  0.00     0.078 C 
ENDROOT
BRANCH   1   8
ATOM      8  C1  UNL d   1      -4.615   2.103  -5.999  0.00  0.00     0.053 C 
ATOM      9  C   UNL d   1      -4.145   0.934  -5.148  0.00  0.00     0.018 C 
ENDBRANCH   1   8
TORSDOF 1
ENDMDL
