MODEL 1
REMARK minimizedAffinity 5.7069006
REMARK minimizedRMSD -1
REMARK  1 active torsions:
REMARK  status: ('A' for Active; 'I' for Inactive)
REMARK    1  A    between atoms: C1_2  and  C2_3 
ROOT
ATOM      1  C2  UNL d   1       1.250   0.930  -0.583  0.00  0.00    -0.076 A 
ATOM      2  C3  UNL d   1       0.749  -0.379  -0.685  0.00  0.00     0.004 A 
ATOM      3  C4  UNL d   1      -0.000  -0.943   0.346  0.00  0.00    -0.003 A 
ATOM      4  C5  UNL d   1      -0.261  -0.206   1.496  0.00  0.00     0.000 A 
ATOM      5  C6  UNL d   1       0.214   1.100   1.607  0.00  0.00     0.000 A 
ATOM      6  C7  UNL d   1       0.957   1.689   0.570  0.00  0.00    -0.073 A 
ATOM      7  C8  UNL d   1       1.449   3.100   0.746  0.00  0.00     0.078 C 
ENDROOT
BRANCH   1   8
ATOM      8  C1  UNL d   1       2.079   1.479  -1.722  0.00  0.00     0.053 C 
ATOM      9  C   UNL d   1       3.322   0.645  -1.994  0.00  0.00     0.018 C 
ENDBRANCH   1   8
TORSDOF 1
ENDMDL
