MODEL 1
REMARK minimizedAffinity -1.09986591
REMARK minimizedRMSD -1
REMARK  1 active torsions:
REMARK  status: ('A' for Active; 'I' for Inactive)
REMARK    1  A    between atoms: C1_2  and  C2_3 
ROOT
ATOM      1  C2  UNL d   1      -3.372   1.408  -5.926  0.00  0.00    -0.076 A 
ATOM      2  C3  UNL d   1      -4.481   2.270  -5.868  0.00  0.00     0.004 A 
ATOM      3  C4  UNL d   1      -4.313   3.651  -5.779  0.00  0.00    -0.003 A 
ATOM      4  C5  UNL d   1      -3.033   4.193  -5.746  0.00  0.00     0.000 A 
ATOM      5  C6  UNL d   1      -1.921   3.354  -5.820  0.00  0.00     0.000 A 
ATOM      6  C7  UNL d   1      -2.074   1.961  -5.927  0.00  0.00    -0.073 A 
ATOM      7  C8  UNL d   1      -0.840   1.103  -5.997  0.00  0.00     0.078 C 
ENDROOT
BRANCH   1   8
ATOM      8  C1  UNL d   1      -3.616  -0.082  -5.994  0.00  0.00     0.053 C 
ATOM      9  C   UNL d   1      -4.571  -0.566  -4.914  0.00  0.00     0.018 C 
ENDBRANCH   1   8
TORSDOF 1
ENDMDL
