MODEL 1
REMARK minimizedAffinity 0.701593995
REMARK minimizedRMSD -1
REMARK  1 active torsions:
REMARK  status: ('A' for Active; 'I' for Inactive)
REMARK    1  A    between atoms: C1_2  and  C2_3 
ROOT
ATOM      1  C2  UNL d   1       1.262  -0.728  -0.206  0.00  0.00    -0.076 A 
ATOM      2  C3  UNL d   1       2.200  -1.571  -0.826  0.00  0.00     0.004 A 
ATOM      3  C4  UNL d   1       3.210  -1.050  -1.634  0.00  0.00    -0.003 A 
ATOM      4  C5  UNL d   1       3.297   0.323  -1.834  0.00  0.00     0.000 A 
ATOM      5  C6  UNL d   1       2.385   1.176  -1.213  0.00  0.00     0.000 A 
ATOM      6  C7  UNL d   1       1.372   0.668  -0.382  0.00  0.00    -0.073 A 
ATOM      7  C8  UNL d   1       0.412   1.633   0.258  0.00  0.00     0.078 C 
ENDROOT
BRANCH   1   8
ATOM      8  C1  UNL d   1       0.173  -1.353   0.637  0.00  0.00     0.053 C 
ATOM      9  C   UNL d   1      -0.254  -2.718   0.119  0.00  0.00     0.018 C 
ENDBRANCH   1   8
TORSDOF 1
ENDMDL
