MODEL 1
REMARK minimizedAffinity -4.26478481
REMARK minimizedRMSD -1
REMARK  1 active torsions:
REMARK  status: ('A' for Active; 'I' for Inactive)
REMARK    1  A    between atoms: C1_2  and  C2_3 
ROOT
ATOM      1  C2  UNL d   1      -0.801   0.142   1.286  0.00  0.00    -0.076 A 
ATOM      2  C3  UNL d   1      -1.770   0.977   1.870  0.00  0.00     0.004 A 
ATOM      3  C4  UNL d   1      -3.105   0.583   1.944  0.00  0.00    -0.003 A 
ATOM      4  C5  UNL d   1      -3.493  -0.652   1.436  0.00  0.00     0.000 A 
ATOM      5  C6  UNL d   1      -2.542  -1.500   0.870  0.00  0.00     0.000 A 
ATOM      6  C7  UNL d   1      -1.189  -1.125   0.802  0.00  0.00    -0.073 A 
ATOM      7  C8  UNL d   1      -0.207  -2.077   0.175  0.00  0.00     0.078 C 
ENDROOT
BRANCH   1   8
ATOM      8  C1  UNL d   1       0.627   0.634   1.209  0.00  0.00     0.053 C 
ATOM      9  C   UNL d   1       0.951   1.276  -0.131  0.00  0.00     0.018 C 
ENDBRANCH   1   8
TORSDOF 1
ENDMDL
