MODEL 1
REMARK minimizedAffinity -4.36894655
REMARK minimizedRMSD -1
REMARK  0 active torsions:
REMARK  status: ('A' for Active; 'I' for Inactive)
ROOT
ATOM      1  C4' PXY d   1      -0.475  -0.285  -1.383  0.00  0.00     0.077 C 
ATOM      2  C1' PXY d   1       2.551  -1.367   3.422  0.00  0.00     0.077 C 
ATOM      3  C1  PXY d   1       1.747  -1.087   2.168  0.00  0.00    -0.082 A 
ATOM      4  C2  PXY d   1       2.342  -1.122   0.987  0.00  0.00     0.003 A 
ATOM      5  C3  PXY d   1       1.637  -0.839  -0.154  0.00  0.00     0.003 A 
ATOM      6  C4  PXY d   1       0.296  -0.570  -0.091  0.00  0.00    -0.082 A 
ATOM      7  C5  PXY d   1      -0.322  -0.543   1.109  0.00  0.00     0.003 A 
ATOM      8  C6  PXY d   1       0.421  -0.792   2.259  0.00  0.00     0.003 A 
ENDROOT
TORSDOF 0
ENDMDL
