MODEL 1
REMARK minimizedAffinity 8.55300045
REMARK minimizedRMSD -1
REMARK  0 active torsions:
REMARK  status: ('A' for Active; 'I' for Inactive)
ROOT
ATOM      1  C4' PXY d   1       2.302   2.069   4.081  0.00  0.00     0.077 C 
ATOM      2  C1' PXY d   1      -0.455  -2.655   2.212  0.00  0.00     0.077 C 
ATOM      3  C1  PXY d   1       0.279  -1.423   2.704  0.00  0.00    -0.082 A 
ATOM      4  C2  PXY d   1      -0.409  -0.406   3.198  0.00  0.00     0.003 A 
ATOM      5  C3  PXY d   1       0.237   0.728   3.618  0.00  0.00     0.003 A 
ATOM      6  C4  PXY d   1       1.604   0.801   3.581  0.00  0.00    -0.082 A 
ATOM      7  C5  PXY d   1       2.313  -0.236   3.089  0.00  0.00     0.003 A 
ATOM      8  C6  PXY d   1       1.636  -1.363   2.629  0.00  0.00     0.003 A 
ENDROOT
TORSDOF 0
ENDMDL
