MODEL 1
REMARK minimizedAffinity -1.70119905
REMARK minimizedRMSD -1
REMARK  0 active torsions:
REMARK  status: ('A' for Active; 'I' for Inactive)
ROOT
ATOM      1  C4' PXY d   1      -2.032  -0.601   0.014  0.00  0.00     0.077 C 
ATOM      2  C1' PXY d   1       2.736  -1.092   3.244  0.00  0.00     0.077 C 
ATOM      3  C1  PXY d   1       1.490  -0.952   2.392  0.00  0.00    -0.082 A 
ATOM      4  C2  PXY d   1       0.365  -1.530   2.779  0.00  0.00     0.003 A 
ATOM      5  C3  PXY d   1      -0.763  -1.440   2.004  0.00  0.00     0.003 A 
ATOM      6  C4  PXY d   1      -0.752  -0.708   0.847  0.00  0.00    -0.082 A 
ATOM      7  C5  PXY d   1       0.389  -0.107   0.451  0.00  0.00     0.003 A 
ATOM      8  C6  PXY d   1       1.534  -0.244   1.231  0.00  0.00     0.003 A 
ENDROOT
TORSDOF 0
ENDMDL
