MODEL 1
REMARK minimizedAffinity -1.36173546
REMARK minimizedRMSD -1
REMARK  0 active torsions:
REMARK  status: ('A' for Active; 'I' for Inactive)
ROOT
ATOM      1  C4' PXY d   1       1.785  -1.083  -1.262  0.00  0.00     0.077 C 
ATOM      2  C1' PXY d   1      -3.232   0.055   1.373  0.00  0.00     0.077 C 
ATOM      3  C1  PXY d   1      -1.923  -0.247   0.672  0.00  0.00    -0.082 A 
ATOM      4  C2  PXY d   1      -0.834  -0.473   1.388  0.00  0.00     0.003 A 
ATOM      5  C3  PXY d   1       0.365  -0.717   0.770  0.00  0.00     0.003 A 
ATOM      6  C4  PXY d   1       0.440  -0.783  -0.596  0.00  0.00    -0.082 A 
ATOM      7  C5  PXY d   1      -0.669  -0.564  -1.334  0.00  0.00     0.003 A 
ATOM      8  C6  PXY d   1      -1.868  -0.277  -0.688  0.00  0.00     0.003 A 
ENDROOT
TORSDOF 0
ENDMDL
