MODEL 1
REMARK minimizedAffinity 4.67942762
REMARK minimizedRMSD -1
REMARK  0 active torsions:
REMARK  status: ('A' for Active; 'I' for Inactive)
ROOT
ATOM      1  C4' PXY d   1       4.866  -1.090  -0.376  0.00  0.00     0.077 C 
ATOM      2  C1' PXY d   1       4.923   4.032   2.303  0.00  0.00     0.077 C 
ATOM      3  C1  PXY d   1       4.895   2.688   1.602  0.00  0.00    -0.082 A 
ATOM      4  C2  PXY d   1       5.999   1.961   1.537  0.00  0.00     0.003 A 
ATOM      5  C3  PXY d   1       6.000   0.758   0.880  0.00  0.00     0.003 A 
ATOM      6  C4  PXY d   1       4.845   0.269   0.330  0.00  0.00    -0.082 A 
ATOM      7  C5  PXY d   1       3.712   0.999   0.401  0.00  0.00     0.003 A 
ATOM      8  C6  PXY d   1       3.743   2.237   1.037  0.00  0.00     0.003 A 
ENDROOT
TORSDOF 0
ENDMDL
