MODEL 1
REMARK minimizedAffinity 0.754115701
REMARK minimizedRMSD -1
REMARK  0 active torsions:
REMARK  status: ('A' for Active; 'I' for Inactive)
ROOT
ATOM      1  C4' PXY d   1      -1.724  -3.113   2.916  0.00  0.00     0.077 C 
ATOM      2  C1' PXY d   1       3.594  -4.353   1.021  0.00  0.00     0.077 C 
ATOM      3  C1  PXY d   1       2.204  -4.017   1.524  0.00  0.00    -0.082 A 
ATOM      4  C2  PXY d   1       1.321  -4.986   1.701  0.00  0.00     0.003 A 
ATOM      5  C3  PXY d   1       0.049  -4.696   2.125  0.00  0.00     0.003 A 
ATOM      6  C4  PXY d   1      -0.306  -3.407   2.420  0.00  0.00    -0.082 A 
ATOM      7  C5  PXY d   1       0.593  -2.414   2.251  0.00  0.00     0.003 A 
ATOM      8  C6  PXY d   1       1.866  -2.724   1.781  0.00  0.00     0.003 A 
ENDROOT
TORSDOF 0
ENDMDL
