MODEL 1
REMARK minimizedAffinity 9.41217518
REMARK minimizedRMSD -1
REMARK  0 active torsions:
REMARK  status: ('A' for Active; 'I' for Inactive)
ROOT
ATOM      1  C4' PXY d   1       4.815   5.705   5.842  0.00  0.00     0.077 C 
ATOM      2  C1' PXY d   1      -0.475   5.965   3.525  0.00  0.00     0.077 C 
ATOM      3  C1  PXY d   1       0.917   5.892   4.121  0.00  0.00    -0.082 A 
ATOM      4  C2  PXY d   1       1.063   5.801   5.433  0.00  0.00     0.003 A 
ATOM      5  C3  PXY d   1       2.315   5.766   5.991  0.00  0.00     0.003 A 
ATOM      6  C4  PXY d   1       3.428   5.771   5.195  0.00  0.00    -0.082 A 
ATOM      7  C5  PXY d   1       3.288   5.853   3.855  0.00  0.00     0.003 A 
ATOM      8  C6  PXY d   1       2.009   5.929   3.311  0.00  0.00     0.003 A 
ENDROOT
TORSDOF 0
ENDMDL
