MODEL 1
REMARK minimizedAffinity 2.20913219
REMARK minimizedRMSD -1
REMARK  0 active torsions:
REMARK  status: ('A' for Active; 'I' for Inactive)
ROOT
ATOM      1  C4' PXY d   1       2.013  -3.001   0.824  0.00  0.00     0.077 C 
ATOM      2  C1' PXY d   1      -2.038   0.963   1.964  0.00  0.00     0.077 C 
ATOM      3  C1  PXY d   1      -0.975  -0.079   1.678  0.00  0.00    -0.082 A 
ATOM      4  C2  PXY d   1      -0.258   0.005   0.569  0.00  0.00     0.003 A 
ATOM      5  C3  PXY d   1       0.685  -0.947   0.279  0.00  0.00     0.003 A 
ATOM      6  C4  PXY d   1       0.935  -1.966   1.159  0.00  0.00    -0.082 A 
ATOM      7  C5  PXY d   1       0.215  -2.053   2.297  0.00  0.00     0.003 A 
ATOM      8  C6  PXY d   1      -0.766  -1.100   2.553  0.00  0.00     0.003 A 
ENDROOT
TORSDOF 0
ENDMDL
