MODEL 1
REMARK minimizedAffinity -0.506460428
REMARK minimizedRMSD -1
REMARK  0 active torsions:
REMARK  status: ('A' for Active; 'I' for Inactive)
ROOT
ATOM      1  C4' PXY d   1      -2.151  -3.427   3.717  0.00  0.00     0.077 C 
ATOM      2  C1' PXY d   1       2.540  -4.319   0.459  0.00  0.00     0.077 C 
ATOM      3  C1  PXY d   1       1.314  -4.073   1.317  0.00  0.00    -0.082 A 
ATOM      4  C2  PXY d   1       0.616  -5.102   1.770  0.00  0.00     0.003 A 
ATOM      5  C3  PXY d   1      -0.513  -4.897   2.521  0.00  0.00     0.003 A 
ATOM      6  C4  PXY d   1      -0.902  -3.627   2.856  0.00  0.00    -0.082 A 
ATOM      7  C5  PXY d   1      -0.188  -2.573   2.406  0.00  0.00     0.003 A 
ATOM      8  C6  PXY d   1       0.931  -2.801   1.611  0.00  0.00     0.003 A 
ENDROOT
TORSDOF 0
ENDMDL
