MODEL 1
REMARK minimizedAffinity 5.18724775
REMARK minimizedRMSD -1
REMARK  0 active torsions:
REMARK  status: ('A' for Active; 'I' for Inactive)
ROOT
ATOM      1  C4' PXY d   1       1.175  -1.526  -0.010  0.00  0.00     0.077 C 
ATOM      2  C1' PXY d   1      -3.347   0.626   2.878  0.00  0.00     0.077 C 
ATOM      3  C1  PXY d   1      -2.169   0.059   2.110  0.00  0.00    -0.082 A 
ATOM      4  C2  PXY d   1      -1.125  -0.416   2.771  0.00  0.00     0.003 A 
ATOM      5  C3  PXY d   1      -0.038  -0.902   2.092  0.00  0.00     0.003 A 
ATOM      6  C4  PXY d   1      -0.041  -0.953   0.724  0.00  0.00    -0.082 A 
ATOM      7  C5  PXY d   1      -1.107  -0.480   0.043  0.00  0.00     0.003 A 
ATOM      8  C6  PXY d   1      -2.183   0.048   0.750  0.00  0.00     0.003 A 
ENDROOT
TORSDOF 0
ENDMDL
