MODEL 1
REMARK minimizedAffinity -2.38904333
REMARK minimizedRMSD -1
REMARK  0 active torsions:
REMARK  status: ('A' for Active; 'I' for Inactive)
ROOT
ATOM      1  C4' PXY d   1       2.460  -0.768  -1.836  0.00  0.00     0.077 C 
ATOM      2  C1' PXY d   1      -1.455  -0.012   2.350  0.00  0.00     0.077 C 
ATOM      3  C1  PXY d   1      -0.421  -0.201   1.257  0.00  0.00    -0.082 A 
ATOM      4  C2  PXY d   1      -0.783  -0.724   0.097  0.00  0.00     0.003 A 
ATOM      5  C3  PXY d   1       0.145  -0.931  -0.890  0.00  0.00     0.003 A 
ATOM      6  C4  PXY d   1       1.448  -0.550  -0.708  0.00  0.00    -0.082 A 
ATOM      7  C5  PXY d   1       1.823  -0.006   0.469  0.00  0.00     0.003 A 
ATOM      8  C6  PXY d   1       0.874   0.158   1.474  0.00  0.00     0.003 A 
ENDROOT
TORSDOF 0
ENDMDL
