MODEL 1
REMARK minimizedAffinity -0.272170097
REMARK minimizedRMSD -1
REMARK  0 active torsions:
REMARK  status: ('A' for Active; 'I' for Inactive)
ROOT
ATOM      1  C1  BNZ d   1       3.942  -1.938   3.935  0.00  0.00     0.000 A 
ATOM      2  C2  BNZ d   1       3.456  -1.083   2.982  0.00  0.00     0.000 A 
ATOM      3  C3  BNZ d   1       2.122  -1.056   2.682  0.00  0.00     0.000 A 
ATOM      4  C4  BNZ d   1       1.285  -1.909   3.305  0.00  0.00     0.000 A 
ATOM      5  C5  BNZ d   1       1.761  -2.783   4.262  0.00  0.00     0.000 A 
ATOM      6  C6  BNZ d   1       3.098  -2.781   4.590  0.00  0.00     0.000 A 
ENDROOT
TORSDOF 0
ENDMDL
