MODEL 1
REMARK minimizedAffinity 6.51676559
REMARK minimizedRMSD -1
REMARK  0 active torsions:
REMARK  status: ('A' for Active; 'I' for Inactive)
ROOT
ATOM      1  C1  BNZ d   1       4.525   2.309   3.234  0.00  0.00     0.000 A 
ATOM      2  C2  BNZ d   1       4.933   1.827   4.449  0.00  0.00     0.000 A 
ATOM      3  C3  BNZ d   1       4.086   1.093   5.231  0.00  0.00     0.000 A 
ATOM      4  C4  BNZ d   1       2.821   0.877   4.816  0.00  0.00     0.000 A 
ATOM      5  C5  BNZ d   1       2.392   1.365   3.598  0.00  0.00     0.000 A 
ATOM      6  C6  BNZ d   1       3.260   2.070   2.796  0.00  0.00     0.000 A 
ENDROOT
TORSDOF 0
ENDMDL
