MODEL 1
REMARK minimizedAffinity 2.13604617
REMARK minimizedRMSD -1
REMARK  0 active torsions:
REMARK  status: ('A' for Active; 'I' for Inactive)
ROOT
ATOM      1  C1  BNZ d   1       5.216  -1.709  -5.059  0.00  0.00     0.000 A 
ATOM      2  C2  BNZ d   1       5.921  -1.006  -6.000  0.00  0.00     0.000 A 
ATOM      3  C3  BNZ d   1       5.918   0.361  -6.000  0.00  0.00     0.000 A 
ATOM      4  C4  BNZ d   1       5.179   1.022  -5.086  0.00  0.00     0.000 A 
ATOM      5  C5  BNZ d   1       4.456   0.328  -4.137  0.00  0.00     0.000 A 
ATOM      6  C6  BNZ d   1       4.493  -1.047  -4.115  0.00  0.00     0.000 A 
ENDROOT
TORSDOF 0
ENDMDL
