MODEL 1
REMARK minimizedAffinity 1.07150233
REMARK minimizedRMSD -1
REMARK  0 active torsions:
REMARK  status: ('A' for Active; 'I' for Inactive)
ROOT
ATOM      1  C1  BNZ d   1      -1.611   1.495   0.834  0.00  0.00     0.000 A 
ATOM      2  C2  BNZ d   1      -1.123   0.269   0.467  0.00  0.00     0.000 A 
ATOM      3  C3  BNZ d   1       0.121   0.148  -0.086  0.00  0.00     0.000 A 
ATOM      4  C4  BNZ d   1       0.858   1.256  -0.308  0.00  0.00     0.000 A 
ATOM      5  C5  BNZ d   1       0.376   2.499   0.048  0.00  0.00     0.000 A 
ATOM      6  C6  BNZ d   1      -0.861   2.613   0.640  0.00  0.00     0.000 A 
ENDROOT
TORSDOF 0
ENDMDL
