MODEL 1
REMARK minimizedAffinity 4.07556295
REMARK minimizedRMSD -1
REMARK  0 active torsions:
REMARK  status: ('A' for Active; 'I' for Inactive)
ROOT
ATOM      1  C1  BNZ d   1       1.135  -1.517   4.336  0.00  0.00     0.000 A 
ATOM      2  C2  BNZ d   1       1.000  -0.677   3.262  0.00  0.00     0.000 A 
ATOM      3  C3  BNZ d   1       1.777  -0.836   2.149  0.00  0.00     0.000 A 
ATOM      4  C4  BNZ d   1       2.714  -1.806   2.126  0.00  0.00     0.000 A 
ATOM      5  C5  BNZ d   1       2.868  -2.654   3.204  0.00  0.00     0.000 A 
ATOM      6  C6  BNZ d   1       2.057  -2.517   4.308  0.00  0.00     0.000 A 
ENDROOT
TORSDOF 0
ENDMDL
