MODEL 1
REMARK minimizedAffinity 0.365202755
REMARK minimizedRMSD -1
REMARK  0 active torsions:
REMARK  status: ('A' for Active; 'I' for Inactive)
ROOT
ATOM      1  C1  BNZ d   1       4.876  -2.455   6.000  0.00  0.00     0.000 A 
ATOM      2  C2  BNZ d   1       3.523  -2.241   6.000  0.00  0.00     0.000 A 
ATOM      3  C3  BNZ d   1       2.880  -1.825   4.868  0.00  0.00     0.000 A 
ATOM      4  C4  BNZ d   1       3.595  -1.584   3.750  0.00  0.00     0.000 A 
ATOM      5  C5  BNZ d   1       4.961  -1.785   3.736  0.00  0.00     0.000 A 
ATOM      6  C6  BNZ d   1       5.599  -2.242   4.867  0.00  0.00     0.000 A 
ENDROOT
TORSDOF 0
ENDMDL
