MODEL 1
REMARK minimizedAffinity 6.79359674
REMARK minimizedRMSD -1
REMARK  0 active torsions:
REMARK  status: ('A' for Active; 'I' for Inactive)
ROOT
ATOM      1  C1  BNZ d   1      -0.253  -1.905  -1.034  0.00  0.00     0.000 A 
ATOM      2  C2  BNZ d   1      -1.204  -1.264  -0.286  0.00  0.00     0.000 A 
ATOM      3  C3  BNZ d   1      -0.859  -0.569   0.839  0.00  0.00     0.000 A 
ATOM      4  C4  BNZ d   1       0.430  -0.549   1.237  0.00  0.00     0.000 A 
ATOM      5  C5  BNZ d   1       1.399  -1.198   0.499  0.00  0.00     0.000 A 
ATOM      6  C6  BNZ d   1       1.054  -1.864  -0.655  0.00  0.00     0.000 A 
ENDROOT
TORSDOF 0
ENDMDL
