MODEL 1
REMARK minimizedAffinity 1.90300596
REMARK minimizedRMSD -1
REMARK  0 active torsions:
REMARK  status: ('A' for Active; 'I' for Inactive)
ROOT
ATOM      1  C   UNL d   1      -1.166   1.862   0.351  0.00  0.00     0.078 C 
ATOM      2  C1  UNL d   1      -2.604   1.935  -0.069  0.00  0.00    -0.077 A 
ATOM      3  C2  UNL d   1      -3.389   0.779  -0.159  0.00  0.00    -0.001 A 
ATOM      4  C3  UNL d   1      -4.723   0.861  -0.561  0.00  0.00     0.003 A 
ATOM      5  C4  UNL d   1      -5.284   2.096  -0.877  0.00  0.00    -0.005 A 
ATOM      6  C5  UNL d   1      -4.510   3.252  -0.793  0.00  0.00     0.003 A 
ATOM      7  C6  UNL d   1      -3.176   3.172  -0.391  0.00  0.00    -0.001 A 
ENDROOT
TORSDOF 0
ENDMDL
