MODEL 1
REMARK minimizedAffinity 10.4728394
REMARK minimizedRMSD -1
REMARK  0 active torsions:
REMARK  status: ('A' for Active; 'I' for Inactive)
ROOT
ATOM      1  C   UNL d   1       3.431  -0.351   0.311  0.00  0.00     0.078 C 
ATOM      2  C1  UNL d   1       2.048   0.188   0.523  0.00  0.00    -0.077 A 
ATOM      3  C2  UNL d   1       1.453   0.169   1.791  0.00  0.00    -0.001 A 
ATOM      4  C3  UNL d   1       0.161   0.665   1.972  0.00  0.00     0.003 A 
ATOM      5  C4  UNL d   1      -0.547   1.182   0.889  0.00  0.00    -0.005 A 
ATOM      6  C5  UNL d   1       0.035   1.204  -0.376  0.00  0.00     0.003 A 
ATOM      7  C6  UNL d   1       1.327   0.708  -0.559  0.00  0.00    -0.001 A 
ENDROOT
TORSDOF 0
ENDMDL
