MODEL 1
REMARK minimizedAffinity 8.62337017
REMARK minimizedRMSD -1
REMARK  0 active torsions:
REMARK  status: ('A' for Active; 'I' for Inactive)
ROOT
ATOM      1  C   UNL d   1       2.077  -1.913  -1.816  0.00  0.00     0.078 C 
ATOM      2  C1  UNL d   1       0.932  -2.881  -1.826  0.00  0.00    -0.077 A 
ATOM      3  C2  UNL d   1      -0.297  -2.539  -2.405  0.00  0.00    -0.001 A 
ATOM      4  C3  UNL d   1      -1.357  -3.447  -2.398  0.00  0.00     0.003 A 
ATOM      5  C4  UNL d   1      -1.200  -4.702  -1.813  0.00  0.00    -0.005 A 
ATOM      6  C5  UNL d   1       0.017  -5.050  -1.233  0.00  0.00     0.003 A 
ATOM      7  C6  UNL d   1       1.079  -4.144  -1.238  0.00  0.00    -0.001 A 
ENDROOT
TORSDOF 0
ENDMDL
