MODEL 1
REMARK minimizedAffinity 7.38597965
REMARK minimizedRMSD -1
REMARK  0 active torsions:
REMARK  status: ('A' for Active; 'I' for Inactive)
ROOT
ATOM      1  C   UNL d   1      -0.192  -5.028  -1.328  0.00  0.00     0.078 C 
ATOM      2  C1  UNL d   1       0.845  -4.330  -2.158  0.00  0.00    -0.077 A 
ATOM      3  C2  UNL d   1       1.635  -3.310  -1.616  0.00  0.00    -0.001 A 
ATOM      4  C3  UNL d   1       2.589  -2.662  -2.403  0.00  0.00     0.003 A 
ATOM      5  C4  UNL d   1       2.761  -3.028  -3.737  0.00  0.00    -0.005 A 
ATOM      6  C5  UNL d   1       1.977  -4.041  -4.285  0.00  0.00     0.003 A 
ATOM      7  C6  UNL d   1       1.023  -4.689  -3.500  0.00  0.00    -0.001 A 
ENDROOT
TORSDOF 0
ENDMDL
