MODEL 1
REMARK minimizedAffinity 3.46799135
REMARK minimizedRMSD -1
REMARK  0 active torsions:
REMARK  status: ('A' for Active; 'I' for Inactive)
ROOT
ATOM      1  C   UNL d   1       5.999   2.394   4.096  0.00  0.00     0.078 C 
ATOM      2  C1  UNL d   1       5.261   3.630   4.514  0.00  0.00    -0.077 A 
ATOM      3  C2  UNL d   1       4.084   4.022   3.864  0.00  0.00    -0.001 A 
ATOM      4  C3  UNL d   1       3.412   5.181   4.257  0.00  0.00     0.003 A 
ATOM      5  C4  UNL d   1       3.911   5.958   5.301  0.00  0.00    -0.005 A 
ATOM      6  C5  UNL d   1       5.083   5.578   5.951  0.00  0.00     0.003 A 
ATOM      7  C6  UNL d   1       5.756   4.420   5.559  0.00  0.00    -0.001 A 
ENDROOT
TORSDOF 0
ENDMDL
