MODEL 1
REMARK minimizedAffinity 10.1325035
REMARK minimizedRMSD -1
REMARK  0 active torsions:
REMARK  status: ('A' for Active; 'I' for Inactive)
ROOT
ATOM      1  C   UNL d   1       1.067  -3.965  -1.668  0.00  0.00     0.078 C 
ATOM      2  C1  UNL d   1       1.875  -2.824  -1.128  0.00  0.00    -0.077 A 
ATOM      3  C2  UNL d   1       2.135  -2.710   0.244  0.00  0.00    -0.001 A 
ATOM      4  C3  UNL d   1       2.881  -1.637   0.734  0.00  0.00     0.003 A 
ATOM      5  C4  UNL d   1       3.372  -0.669  -0.140  0.00  0.00    -0.005 A 
ATOM      6  C5  UNL d   1       3.117  -0.773  -1.506  0.00  0.00     0.003 A 
ATOM      7  C6  UNL d   1       2.371  -1.845  -1.998  0.00  0.00    -0.001 A 
ENDROOT
TORSDOF 0
ENDMDL
