MODEL 1
REMARK minimizedAffinity 0.471732736
REMARK minimizedRMSD -1
REMARK  1 active torsions:
REMARK  status: ('A' for Active; 'I' for Inactive)
REMARK    1  A    between atoms: C1_2  and  C2_3 
ROOT
ATOM      1  C2  UNL d   1       0.674  -1.273   3.418  0.00  0.00    -0.076 A 
ATOM      2  C3  UNL d   1      -0.651  -0.942   3.751  0.00  0.00     0.004 A 
ATOM      3  C4  UNL d   1      -1.433  -0.168   2.896  0.00  0.00    -0.003 A 
ATOM      4  C5  UNL d   1      -0.904   0.288   1.693  0.00  0.00     0.000 A 
ATOM      5  C6  UNL d   1       0.403  -0.046   1.339  0.00  0.00     0.000 A 
ATOM      6  C7  UNL d   1       1.200  -0.839   2.182  0.00  0.00    -0.073 A 
ATOM      7  C8  UNL d   1       2.605  -1.163   1.752  0.00  0.00     0.078 C 
ENDROOT
BRANCH   1   8
ATOM      8  C1  UNL d   1       1.484  -2.092   4.397  0.00  0.00     0.053 C 
ATOM      9  C   UNL d   1       2.157  -1.235   5.457  0.00  0.00     0.018 C 
ENDBRANCH   1   8
TORSDOF 1
ENDMDL
