MODEL 1
REMARK minimizedAffinity 3.04384899
REMARK minimizedRMSD -1
REMARK  1 active torsions:
REMARK  status: ('A' for Active; 'I' for Inactive)
REMARK    1  A    between atoms: C1_2  and  C2_3 
ROOT
ATOM      1  C2  UNL d   1      -0.114  -0.147   2.405  0.00  0.00    -0.076 A 
ATOM      2  C3  UNL d   1      -1.021  -1.214   2.525  0.00  0.00     0.004 A 
ATOM      3  C4  UNL d   1      -2.259  -1.178   1.886  0.00  0.00    -0.003 A 
ATOM      4  C5  UNL d   1      -2.610  -0.075   1.115  0.00  0.00     0.000 A 
ATOM      5  C6  UNL d   1      -1.714   0.984   0.970  0.00  0.00     0.000 A 
ATOM      6  C7  UNL d   1      -0.456   0.957   1.595  0.00  0.00    -0.073 A 
ATOM      7  C8  UNL d   1       0.468   2.129   1.409  0.00  0.00     0.078 C 
ENDROOT
BRANCH   1   8
ATOM      8  C1  UNL d   1       1.203  -0.230   3.143  0.00  0.00     0.053 C 
ATOM      9  C   UNL d   1       1.163  -1.219   4.297  0.00  0.00     0.018 C 
ENDBRANCH   1   8
TORSDOF 1
ENDMDL
