MODEL 1
REMARK minimizedAffinity 11.8259869
REMARK minimizedRMSD -1
REMARK  1 active torsions:
REMARK  status: ('A' for Active; 'I' for Inactive)
REMARK    1  A    between atoms: C1_2  and  C2_3 
ROOT
ATOM      1  C2  UNL d   1       0.154  -0.847   2.768  0.00  0.00    -0.076 A 
ATOM      2  C3  UNL d   1       0.831   0.348   2.471  0.00  0.00     0.004 A 
ATOM      3  C4  UNL d   1       0.267   1.300   1.623  0.00  0.00    -0.003 A 
ATOM      4  C5  UNL d   1      -0.983   1.073   1.060  0.00  0.00     0.000 A 
ATOM      5  C6  UNL d   1      -1.677  -0.100   1.358  0.00  0.00     0.000 A 
ATOM      6  C7  UNL d   1      -1.130  -1.062   2.223  0.00  0.00    -0.073 A 
ATOM      7  C8  UNL d   1      -1.919  -2.311   2.506  0.00  0.00     0.078 C 
ENDROOT
BRANCH   1   8
ATOM      8  C1  UNL d   1       0.827  -1.855   3.673  0.00  0.00     0.053 C 
ATOM      9  C   UNL d   1       1.269  -1.247   4.995  0.00  0.00     0.018 C 
ENDBRANCH   1   8
TORSDOF 1
ENDMDL
