MODEL 1
REMARK minimizedAffinity -2.84662938
REMARK minimizedRMSD -1
REMARK  0 active torsions:
REMARK  status: ('A' for Active; 'I' for Inactive)
ROOT
ATOM      1  C   UNL d   1       5.117  -5.434  -4.683  0.00  0.00     0.023 A 
ATOM      2  C1  UNL d   1       6.000  -4.502  -4.138  0.00  0.00     0.003 A 
ATOM      3  C2  UNL d   1       5.920  -3.159  -4.514  0.00  0.00     0.048 A 
ATOM      4  C3  UNL d   1       4.954  -2.756  -5.436  0.00  0.00     0.023 A 
ATOM      5  C4  UNL d   1       4.068  -3.685  -5.984  0.00  0.00     0.048 A 
ATOM      6  C5  UNL d   1       4.152  -5.026  -5.605  0.00  0.00     0.003 A 
ATOM      7  I   UNL d   1       4.833  -0.759  -5.997  0.00  0.00    -0.146 I 
ENDROOT
TORSDOF 0
ENDMDL
