MODEL 1
REMARK minimizedAffinity -2.91541743
REMARK minimizedRMSD -1
REMARK  0 active torsions:
REMARK  status: ('A' for Active; 'I' for Inactive)
ROOT
ATOM      1  C   UNL d   1       5.245  -5.998  -4.510  0.00  0.00     0.023 A 
ATOM      2  C1  UNL d   1       4.500  -5.064  -3.788  0.00  0.00     0.003 A 
ATOM      3  C2  UNL d   1       4.504  -3.721  -4.169  0.00  0.00     0.048 A 
ATOM      4  C3  UNL d   1       5.254  -3.318  -5.274  0.00  0.00     0.023 A 
ATOM      5  C4  UNL d   1       6.000  -4.248  -5.999  0.00  0.00     0.048 A 
ATOM      6  C5  UNL d   1       5.993  -5.590  -5.614  0.00  0.00     0.003 A 
ATOM      7  I   UNL d   1       5.261  -1.319  -5.843  0.00  0.00    -0.146 I 
ENDROOT
TORSDOF 0
ENDMDL
