MODEL 1
REMARK minimizedAffinity -1.45405376
REMARK minimizedRMSD -1
REMARK  0 active torsions:
REMARK  status: ('A' for Active; 'I' for Inactive)
ROOT
ATOM      1  C   UNL d   1       3.622  -6.000  -5.089  0.00  0.00     0.023 A 
ATOM      2  C1  UNL d   1       4.328  -5.873  -3.892  0.00  0.00     0.003 A 
ATOM      3  C2  UNL d   1       5.011  -4.689  -3.606  0.00  0.00     0.048 A 
ATOM      4  C3  UNL d   1       4.983  -3.636  -4.519  0.00  0.00     0.023 A 
ATOM      5  C4  UNL d   1       4.278  -3.759  -5.717  0.00  0.00     0.048 A 
ATOM      6  C5  UNL d   1       3.597  -4.944  -6.000  0.00  0.00     0.003 A 
ATOM      7  I   UNL d   1       5.999  -1.874  -4.095  0.00  0.00    -0.146 I 
ENDROOT
TORSDOF 0
ENDMDL
