MODEL 1
REMARK minimizedAffinity -1.08813202
REMARK minimizedRMSD -1
REMARK  0 active torsions:
REMARK  status: ('A' for Active; 'I' for Inactive)
ROOT
ATOM      1  C   UNL d   1       4.868  -6.000  -5.648  0.00  0.00     0.023 A 
ATOM      2  C1  UNL d   1       5.993  -5.248  -5.988  0.00  0.00     0.003 A 
ATOM      3  C2  UNL d   1       6.000  -3.867  -5.780  0.00  0.00     0.048 A 
ATOM      4  C3  UNL d   1       4.879  -3.245  -5.231  0.00  0.00     0.023 A 
ATOM      5  C4  UNL d   1       3.752  -3.993  -4.888  0.00  0.00     0.048 A 
ATOM      6  C5  UNL d   1       3.749  -5.374  -5.099  0.00  0.00     0.003 A 
ATOM      7  I   UNL d   1       4.887  -1.190  -4.920  0.00  0.00    -0.146 I 
ENDROOT
TORSDOF 0
ENDMDL
