MODEL 1
REMARK minimizedAffinity -0.870171666
REMARK minimizedRMSD -1
REMARK  0 active torsions:
REMARK  status: ('A' for Active; 'I' for Inactive)
ROOT
ATOM      1  C   UNL d   1       4.134  -6.000  -4.930  0.00  0.00     0.023 A 
ATOM      2  C1  UNL d   1       3.385  -4.902  -4.508  0.00  0.00     0.003 A 
ATOM      3  C2  UNL d   1       3.918  -3.615  -4.597  0.00  0.00     0.048 A 
ATOM      4  C3  UNL d   1       5.202  -3.432  -5.111  0.00  0.00     0.023 A 
ATOM      5  C4  UNL d   1       5.955  -4.528  -5.536  0.00  0.00     0.048 A 
ATOM      6  C5  UNL d   1       5.417  -5.813  -5.444  0.00  0.00     0.003 A 
ATOM      7  I   UNL d   1       5.998  -1.517  -5.245  0.00  0.00    -0.146 I 
ENDROOT
TORSDOF 0
ENDMDL
