MODEL 1
REMARK minimizedAffinity -1.10208058
REMARK minimizedRMSD -1
REMARK  0 active torsions:
REMARK  status: ('A' for Active; 'I' for Inactive)
ROOT
ATOM      1  C   UNL d   1       3.775  -6.000  -5.914  0.00  0.00     0.023 A 
ATOM      2  C1  UNL d   1       5.164  -5.886  -5.972  0.00  0.00     0.003 A 
ATOM      3  C2  UNL d   1       5.804  -4.812  -5.350  0.00  0.00     0.048 A 
ATOM      4  C3  UNL d   1       5.049  -3.856  -4.672  0.00  0.00     0.023 A 
ATOM      5  C4  UNL d   1       3.659  -3.966  -4.611  0.00  0.00     0.048 A 
ATOM      6  C5  UNL d   1       3.023  -5.041  -5.235  0.00  0.00     0.003 A 
ATOM      7  I   UNL d   1       6.000  -2.256  -3.746  0.00  0.00    -0.146 I 
ENDROOT
TORSDOF 0
ENDMDL
