MODEL 1
REMARK minimizedAffinity -3.61452484
REMARK minimizedRMSD -1
REMARK  0 active torsions:
REMARK  status: ('A' for Active; 'I' for Inactive)
ROOT
ATOM      1  C   UNL d   1       4.846  -5.688  -4.309  0.00  0.00     0.023 A 
ATOM      2  C1  UNL d   1       3.703  -5.119  -4.873  0.00  0.00     0.003 A 
ATOM      3  C2  UNL d   1       3.706  -3.775  -5.252  0.00  0.00     0.048 A 
ATOM      4  C3  UNL d   1       4.854  -3.007  -5.067  0.00  0.00     0.023 A 
ATOM      5  C4  UNL d   1       6.000  -3.572  -4.504  0.00  0.00     0.048 A 
ATOM      6  C5  UNL d   1       5.992  -4.916  -4.125  0.00  0.00     0.003 A 
ATOM      7  I   UNL d   1       4.861  -1.007  -5.631  0.00  0.00    -0.146 I 
ENDROOT
TORSDOF 0
ENDMDL
