MODEL 1
REMARK minimizedAffinity -3.08834505
REMARK minimizedRMSD -1
REMARK  0 active torsions:
REMARK  status: ('A' for Active; 'I' for Inactive)
ROOT
ATOM      1  C   UNL d   1       4.129  -4.876  -5.474  0.00  0.00     0.023 A 
ATOM      2  C1  UNL d   1       5.465  -4.716  -5.841  0.00  0.00     0.003 A 
ATOM      3  C2  UNL d   1       6.000  -3.435  -5.993  0.00  0.00     0.048 A 
ATOM      4  C3  UNL d   1       5.193  -2.318  -5.775  0.00  0.00     0.023 A 
ATOM      5  C4  UNL d   1       3.856  -2.474  -5.407  0.00  0.00     0.048 A 
ATOM      6  C5  UNL d   1       3.325  -3.756  -5.257  0.00  0.00     0.003 A 
ATOM      7  I   UNL d   1       5.987  -0.411  -6.000  0.00  0.00    -0.146 I 
ENDROOT
TORSDOF 0
ENDMDL
