MODEL 1
REMARK minimizedAffinity -3.61561012
REMARK minimizedRMSD -1
REMARK  0 active torsions:
REMARK  status: ('A' for Active; 'I' for Inactive)
ROOT
ATOM      1  C   UNL d   1       4.479  -3.489  -5.082  0.00  0.00     0.023 A 
ATOM      2  C1  UNL d   1       3.757  -2.609  -5.889  0.00  0.00     0.003 A 
ATOM      3  C2  UNL d   1       4.155  -1.275  -5.999  0.00  0.00     0.048 A 
ATOM      4  C3  UNL d   1       5.275  -0.827  -5.300  0.00  0.00     0.023 A 
ATOM      5  C4  UNL d   1       6.000  -1.704  -4.491  0.00  0.00     0.048 A 
ATOM      6  C5  UNL d   1       5.598  -3.037  -4.384  0.00  0.00     0.003 A 
ATOM      7  I   UNL d   1       5.868   1.158  -5.462  0.00  0.00    -0.146 I 
ENDROOT
TORSDOF 0
ENDMDL
