MODEL 1
REMARK minimizedAffinity -3.02444434
REMARK minimizedRMSD -1
REMARK  0 active torsions:
REMARK  status: ('A' for Active; 'I' for Inactive)
ROOT
ATOM      1  C   UNL d   1       4.841  -0.955  -5.628  0.00  0.00     0.023 A 
ATOM      2  C1  UNL d   1       5.959  -1.731  -5.934  0.00  0.00     0.003 A 
ATOM      3  C2  UNL d   1       6.000  -3.076  -5.560  0.00  0.00     0.048 A 
ATOM      4  C3  UNL d   1       4.919  -3.639  -4.883  0.00  0.00     0.023 A 
ATOM      5  C4  UNL d   1       3.798  -2.866  -4.575  0.00  0.00     0.048 A 
ATOM      6  C5  UNL d   1       3.762  -1.522  -4.950  0.00  0.00     0.003 A 
ATOM      7  I   UNL d   1       4.978  -5.640  -4.326  0.00  0.00    -0.146 I 
ENDROOT
TORSDOF 0
ENDMDL
