MODEL 1
REMARK minimizedAffinity 8.54563808
REMARK minimizedRMSD -1
REMARK  0 active torsions:
REMARK  status: ('A' for Active; 'I' for Inactive)
ROOT
ATOM      1  C   UNL d   1      -0.928   2.744  -0.004  0.00  0.00     0.020 A 
ATOM      2  C1  UNL d   1      -0.168   3.912   0.041  0.00  0.00     0.020 A 
ATOM      3  C2  UNL d   1       0.676   4.154   1.127  0.00  0.00     0.034 A 
ATOM      4  C3  UNL d   1       0.761   3.228   2.173  0.00  0.00     0.017 A 
ATOM      5  C4  UNL d   1      -0.002   2.056   2.127  0.00  0.00     0.017 A 
ATOM      6  C5  UNL d   1      -0.845   1.818   1.037  0.00  0.00     0.034 A 
ATOM      7 Cl   UNL d   1       0.050   0.865   3.379  0.00  0.00    -0.070 Cl
ATOM      8 Cl1  UNL d   1       1.826   3.592   3.484  0.00  0.00    -0.070 Cl
ENDROOT
TORSDOF 0
ENDMDL
