MODEL 1
REMARK minimizedAffinity 15.8240385
REMARK minimizedRMSD -1
REMARK  0 active torsions:
REMARK  status: ('A' for Active; 'I' for Inactive)
ROOT
ATOM      1  C   UNL d   1      -0.592   4.662  -2.115  0.00  0.00     0.020 A 
ATOM      2  C1  UNL d   1      -0.392   5.373  -0.932  0.00  0.00     0.020 A 
ATOM      3  C2  UNL d   1      -0.323   4.695   0.287  0.00  0.00     0.034 A 
ATOM      4  C3  UNL d   1      -0.454   3.302   0.326  0.00  0.00     0.017 A 
ATOM      5  C4  UNL d   1      -0.654   2.590  -0.862  0.00  0.00     0.017 A 
ATOM      6  C5  UNL d   1      -0.723   3.274  -2.080  0.00  0.00     0.034 A 
ATOM      7 Cl   UNL d   1      -0.824   0.870  -0.894  0.00  0.00    -0.070 Cl
ATOM      8 Cl1  UNL d   1      -0.358   2.529   1.868  0.00  0.00    -0.070 Cl
ENDROOT
TORSDOF 0
ENDMDL
