MODEL 1
REMARK minimizedAffinity 6.77884626
REMARK minimizedRMSD -1
REMARK  0 active torsions:
REMARK  status: ('A' for Active; 'I' for Inactive)
ROOT
ATOM      1  C   UNL d   1      -0.614   2.968   0.021  0.00  0.00     0.020 A 
ATOM      2  C1  UNL d   1       0.187   4.100   0.170  0.00  0.00     0.020 A 
ATOM      3  C2  UNL d   1       0.957   4.264   1.323  0.00  0.00     0.034 A 
ATOM      4  C3  UNL d   1       0.927   3.295   2.333  0.00  0.00     0.017 A 
ATOM      5  C4  UNL d   1       0.123   2.160   2.183  0.00  0.00     0.017 A 
ATOM      6  C5  UNL d   1      -0.646   2.001   1.026  0.00  0.00     0.034 A 
ATOM      7 Cl   UNL d   1       0.034   0.922   3.386  0.00  0.00    -0.070 Cl
ATOM      8 Cl1  UNL d   1       1.905   3.563   3.732  0.00  0.00    -0.070 Cl
ENDROOT
TORSDOF 0
ENDMDL
