MODEL 1
REMARK minimizedAffinity 5.28825855
REMARK minimizedRMSD -1
REMARK  0 active torsions:
REMARK  status: ('A' for Active; 'I' for Inactive)
ROOT
ATOM      1  C   UNL d   1      -2.811  -1.648  -1.982  0.00  0.00     0.020 A 
ATOM      2  C1  UNL d   1      -3.183  -0.885  -3.089  0.00  0.00     0.020 A 
ATOM      3  C2  UNL d   1      -3.820   0.344  -2.907  0.00  0.00     0.034 A 
ATOM      4  C3  UNL d   1      -4.088   0.814  -1.616  0.00  0.00     0.017 A 
ATOM      5  C4  UNL d   1      -3.714   0.048  -0.506  0.00  0.00     0.017 A 
ATOM      6  C5  UNL d   1      -3.076  -1.182  -0.694  0.00  0.00     0.034 A 
ATOM      7 Cl   UNL d   1      -4.011   0.562   1.117  0.00  0.00    -0.070 Cl
ATOM      8 Cl1  UNL d   1      -4.879   2.343  -1.466  0.00  0.00    -0.070 Cl
ENDROOT
TORSDOF 0
ENDMDL
