MODEL 1
REMARK minimizedAffinity 6.94554949
REMARK minimizedRMSD -1
REMARK  0 active torsions:
REMARK  status: ('A' for Active; 'I' for Inactive)
ROOT
ATOM      1  C   UNL d   1       0.260   4.203   0.611  0.00  0.00     0.020 A 
ATOM      2  C1  UNL d   1      -0.430   3.009   0.407  0.00  0.00     0.020 A 
ATOM      3  C2  UNL d   1      -0.406   2.012   1.385  0.00  0.00     0.034 A 
ATOM      4  C3  UNL d   1       0.310   2.208   2.572  0.00  0.00     0.017 A 
ATOM      5  C4  UNL d   1       1.002   3.407   2.776  0.00  0.00     0.017 A 
ATOM      6  C5  UNL d   1       0.975   4.402   1.793  0.00  0.00     0.034 A 
ATOM      7 Cl   UNL d   1       1.907   3.722   4.214  0.00  0.00    -0.070 Cl
ATOM      8 Cl1  UNL d   1       0.296   0.933   3.738  0.00  0.00    -0.070 Cl
ENDROOT
TORSDOF 0
ENDMDL
