MODEL 1
REMARK minimizedAffinity 6.21582842
REMARK minimizedRMSD -1
REMARK  0 active torsions:
REMARK  status: ('A' for Active; 'I' for Inactive)
ROOT
ATOM      1  C   UNL d   1      -1.130  -1.976  -1.891  0.00  0.00     0.020 A 
ATOM      2  C1  UNL d   1       0.158  -1.472  -1.716  0.00  0.00     0.020 A 
ATOM      3  C2  UNL d   1       0.339  -0.170  -1.244  0.00  0.00     0.034 A 
ATOM      4  C3  UNL d   1      -0.768   0.631  -0.945  0.00  0.00     0.017 A 
ATOM      5  C4  UNL d   1      -2.061   0.124  -1.121  0.00  0.00     0.017 A 
ATOM      6  C5  UNL d   1      -2.237  -1.180  -1.594  0.00  0.00     0.034 A 
ATOM      7 Cl   UNL d   1      -3.476   1.053  -0.774  0.00  0.00    -0.070 Cl
ATOM      8 Cl1  UNL d   1      -0.469   2.231  -0.365  0.00  0.00    -0.070 Cl
ENDROOT
TORSDOF 0
ENDMDL
