MODEL 1
REMARK minimizedAffinity 8.31785965
REMARK minimizedRMSD -1
REMARK  0 active torsions:
REMARK  status: ('A' for Active; 'I' for Inactive)
ROOT
ATOM      1  C   UNL d   1      -1.022   4.867  -0.031  0.00  0.00     0.020 A 
ATOM      2  C1  UNL d   1      -0.824   4.380  -1.323  0.00  0.00     0.020 A 
ATOM      3  C2  UNL d   1      -0.573   3.022  -1.527  0.00  0.00     0.034 A 
ATOM      4  C3  UNL d   1      -0.519   2.145  -0.437  0.00  0.00     0.017 A 
ATOM      5  C4  UNL d   1      -0.717   2.635   0.859  0.00  0.00     0.017 A 
ATOM      6  C5  UNL d   1      -0.968   3.996   1.057  0.00  0.00     0.034 A 
ATOM      7 Cl   UNL d   1      -0.665   1.614   2.253  0.00  0.00    -0.070 Cl
ATOM      8 Cl1  UNL d   1      -0.204   0.478  -0.762  0.00  0.00    -0.070 Cl
ENDROOT
TORSDOF 0
ENDMDL
