MODEL 1
REMARK minimizedAffinity 12.0492582
REMARK minimizedRMSD -1
REMARK  0 active torsions:
REMARK  status: ('A' for Active; 'I' for Inactive)
ROOT
ATOM      1  C   UNL d   1      -4.247   0.990  -0.607  0.00  0.00     0.020 A 
ATOM      2  C1  UNL d   1      -4.483   0.701   0.736  0.00  0.00     0.020 A 
ATOM      3  C2  UNL d   1      -3.468   0.881   1.678  0.00  0.00     0.034 A 
ATOM      4  C3  UNL d   1      -2.212   1.351   1.278  0.00  0.00     0.017 A 
ATOM      5  C4  UNL d   1      -1.976   1.642  -0.071  0.00  0.00     0.017 A 
ATOM      6  C5  UNL d   1      -2.996   1.460  -1.010  0.00  0.00     0.034 A 
ATOM      7 Cl   UNL d   1      -0.452   2.226  -0.640  0.00  0.00    -0.070 Cl
ATOM      8 Cl1  UNL d   1      -1.003   1.551   2.496  0.00  0.00    -0.070 Cl
ENDROOT
TORSDOF 0
ENDMDL
