MODEL 1
REMARK minimizedAffinity 5.61628151
REMARK minimizedRMSD -1
REMARK  0 active torsions:
REMARK  status: ('A' for Active; 'I' for Inactive)
ROOT
ATOM      1  C   UNL d   1      -3.735  -0.383   0.274  0.00  0.00     0.020 A 
ATOM      2  C1  UNL d   1      -3.077  -0.495  -0.950  0.00  0.00     0.020 A 
ATOM      3  C2  UNL d   1      -1.945   0.281  -1.208  0.00  0.00     0.034 A 
ATOM      4  C3  UNL d   1      -1.469   1.173  -0.240  0.00  0.00     0.017 A 
ATOM      5  C4  UNL d   1      -2.130   1.285   0.988  0.00  0.00     0.017 A 
ATOM      6  C5  UNL d   1      -3.263   0.505   1.241  0.00  0.00     0.034 A 
ATOM      7 Cl   UNL d   1      -1.602   2.364   2.231  0.00  0.00    -0.070 Cl
ATOM      8 Cl1  UNL d   1      -0.064   2.102  -0.627  0.00  0.00    -0.070 Cl
ENDROOT
TORSDOF 0
ENDMDL
