MODEL 1
REMARK minimizedAffinity 8.98519135
REMARK minimizedRMSD -1
REMARK  0 active torsions:
REMARK  status: ('A' for Active; 'I' for Inactive)
ROOT
ATOM      1  C   UNL d   1      -2.831  -1.321  -1.391  0.00  0.00     0.020 A 
ATOM      2  C1  UNL d   1      -3.387  -0.079  -1.090  0.00  0.00     0.020 A 
ATOM      3  C2  UNL d   1      -2.559   1.028  -0.893  0.00  0.00     0.034 A 
ATOM      4  C3  UNL d   1      -1.169   0.894  -0.997  0.00  0.00     0.017 A 
ATOM      5  C4  UNL d   1      -0.612  -0.353  -1.299  0.00  0.00     0.017 A 
ATOM      6  C5  UNL d   1      -1.446  -1.458  -1.496  0.00  0.00     0.034 A 
ATOM      7 Cl   UNL d   1       1.093  -0.596  -1.445  0.00  0.00    -0.070 Cl
ATOM      8 Cl1  UNL d   1      -0.205   2.305  -0.741  0.00  0.00    -0.070 Cl
ENDROOT
TORSDOF 0
ENDMDL
