MODEL 1
REMARK minimizedAffinity 5.83960199
REMARK minimizedRMSD -1
REMARK  1 active torsions:
REMARK  status: ('A' for Active; 'I' for Inactive)
REMARK    1  A    between atoms: C1_2  and  C2_3 
ROOT
ATOM      1  C2  UNL d   1       3.849  -1.186  -1.626  0.00  0.00    -0.073 A 
ATOM      2  C3  UNL d   1       5.024  -1.425  -2.348  0.00  0.00    -0.002 A 
ATOM      3  C4  UNL d   1       5.800  -0.358  -2.803  0.00  0.00     0.004 A 
ATOM      4  C5  UNL d   1       5.414   0.956  -2.536  0.00  0.00    -0.004 A 
ATOM      5  C6  UNL d   1       4.249   1.214  -1.806  0.00  0.00    -0.075 A 
ATOM      6  C7  UNL d   1       3.819   2.621  -1.512  0.00  0.00     0.076 C 
ATOM      7  C8  UNL d   1       3.474   0.137  -1.355  0.00  0.00     0.001 A 
ENDROOT
BRANCH   1   8
ATOM      8  C1  UNL d   1       3.011  -2.335  -1.127  0.00  0.00     0.053 C 
ATOM      9  C   UNL d   1       2.196  -2.972  -2.241  0.00  0.00     0.018 C 
ENDBRANCH   1   8
TORSDOF 1
ENDMDL
