MODEL 1
REMARK minimizedAffinity 8.28724098
REMARK minimizedRMSD -1
REMARK  1 active torsions:
REMARK  status: ('A' for Active; 'I' for Inactive)
REMARK    1  A    between atoms: C1_2  and  C2_3 
ROOT
ATOM      1  C2  UNL d   1      -4.948   2.821   0.947  0.00  0.00    -0.073 A 
ATOM      2  C3  UNL d   1      -5.993   2.647   1.861  0.00  0.00    -0.002 A 
ATOM      3  C4  UNL d   1      -5.811   1.859   2.999  0.00  0.00     0.004 A 
ATOM      4  C5  UNL d   1      -4.582   1.243   3.236  0.00  0.00    -0.004 A 
ATOM      5  C6  UNL d   1      -3.522   1.414   2.340  0.00  0.00    -0.075 A 
ATOM      6  C7  UNL d   1      -2.195   0.756   2.580  0.00  0.00     0.076 C 
ATOM      7  C8  UNL d   1      -3.714   2.205   1.199  0.00  0.00     0.001 A 
ENDROOT
BRANCH   1   8
ATOM      8  C1  UNL d   1      -5.138   3.676  -0.279  0.00  0.00     0.053 C 
ATOM      9  C   UNL d   1      -5.999   2.988  -1.327  0.00  0.00     0.018 C 
ENDBRANCH   1   8
TORSDOF 1
ENDMDL
