MODEL 1
REMARK minimizedAffinity -2.94671369
REMARK minimizedRMSD -1
REMARK  1 active torsions:
REMARK  status: ('A' for Active; 'I' for Inactive)
REMARK    1  A    between atoms: C1_2  and  C2_3 
ROOT
ATOM      1  C2  UNL d   1      -3.234   3.634   0.525  0.00  0.00    -0.073 A 
ATOM      2  C3  UNL d   1      -3.900   4.825   0.214  0.00  0.00    -0.002 A 
ATOM      3  C4  UNL d   1      -3.180   6.000  -0.005  0.00  0.00     0.004 A 
ATOM      4  C5  UNL d   1      -1.787   5.995   0.079  0.00  0.00    -0.004 A 
ATOM      5  C6  UNL d   1      -1.102   4.813   0.377  0.00  0.00    -0.075 A 
ATOM      6  C7  UNL d   1       0.395   4.791   0.472  0.00  0.00     0.076 C 
ATOM      7  C8  UNL d   1      -1.833   3.638   0.598  0.00  0.00     0.001 A 
ENDROOT
BRANCH   1   8
ATOM      8  C1  UNL d   1      -4.007   2.362   0.756  0.00  0.00     0.053 C 
ATOM      9  C   UNL d   1      -3.387   1.508   1.851  0.00  0.00     0.018 C 
ENDBRANCH   1   8
TORSDOF 1
ENDMDL
