MODEL 1
REMARK minimizedAffinity 7.0086174
REMARK minimizedRMSD -1
REMARK  1 active torsions:
REMARK  status: ('A' for Active; 'I' for Inactive)
REMARK    1  A    between atoms: C1_2  and  C2_3 
ROOT
ATOM      1  C2  UNL d   1      -0.724   4.699  -2.842  0.00  0.00    -0.073 A 
ATOM      2  C3  UNL d   1       0.467   4.023  -3.130  0.00  0.00    -0.002 A 
ATOM      3  C4  UNL d   1       0.442   2.822  -3.840  0.00  0.00     0.004 A 
ATOM      4  C5  UNL d   1      -0.772   2.289  -4.275  0.00  0.00    -0.004 A 
ATOM      5  C6  UNL d   1      -1.971   2.956  -4.008  0.00  0.00    -0.075 A 
ATOM      6  C7  UNL d   1      -3.285   2.395  -4.467  0.00  0.00     0.076 C 
ATOM      7  C8  UNL d   1      -1.938   4.160  -3.292  0.00  0.00     0.001 A 
ENDROOT
BRANCH   1   8
ATOM      8  C1  UNL d   1      -0.701   6.000  -2.082  0.00  0.00     0.053 C 
ATOM      9  C   UNL d   1      -1.022   5.804  -0.608  0.00  0.00     0.018 C 
ENDBRANCH   1   8
TORSDOF 1
ENDMDL
