MODEL 1
REMARK minimizedAffinity 6.07776594
REMARK minimizedRMSD -1
REMARK  1 active torsions:
REMARK  status: ('A' for Active; 'I' for Inactive)
REMARK    1  A    between atoms: C1_2  and  C2_3 
ROOT
ATOM      1  C2  UNL d   1      -0.797   4.776  -2.008  0.00  0.00    -0.073 A 
ATOM      2  C3  UNL d   1      -2.103   5.102  -2.389  0.00  0.00    -0.002 A 
ATOM      3  C4  UNL d   1      -2.972   5.708  -1.480  0.00  0.00     0.004 A 
ATOM      4  C5  UNL d   1      -2.542   6.000  -0.186  0.00  0.00    -0.004 A 
ATOM      5  C6  UNL d   1      -1.237   5.692   0.210  0.00  0.00    -0.075 A 
ATOM      6  C7  UNL d   1      -0.760   5.997   1.600  0.00  0.00     0.076 C 
ATOM      7  C8  UNL d   1      -0.371   5.081  -0.707  0.00  0.00     0.001 A 
ENDROOT
BRANCH   1   8
ATOM      8  C1  UNL d   1       0.146   4.127  -2.988  0.00  0.00     0.053 C 
ATOM      9  C   UNL d   1      -0.489   2.938  -3.689  0.00  0.00     0.018 C 
ENDBRANCH   1   8
TORSDOF 1
ENDMDL
