MODEL 1
REMARK minimizedAffinity 5.31255198
REMARK minimizedRMSD -1
REMARK  1 active torsions:
REMARK  status: ('A' for Active; 'I' for Inactive)
REMARK    1  A    between atoms: C1_2  and  C2_3 
ROOT
ATOM      1  C2  UNL d   1      -1.021   5.406  -1.001  0.00  0.00    -0.073 A 
ATOM      2  C3  UNL d   1      -0.297   4.294  -0.555  0.00  0.00    -0.002 A 
ATOM      3  C4  UNL d   1      -0.553   3.743   0.701  0.00  0.00     0.004 A 
ATOM      4  C5  UNL d   1      -1.539   4.293   1.520  0.00  0.00    -0.004 A 
ATOM      5  C6  UNL d   1      -2.282   5.396   1.088  0.00  0.00    -0.075 A 
ATOM      6  C7  UNL d   1      -3.345   6.000   1.958  0.00  0.00     0.076 C 
ATOM      7  C8  UNL d   1      -2.017   5.945  -0.174  0.00  0.00     0.001 A 
ENDROOT
BRANCH   1   8
ATOM      8  C1  UNL d   1      -0.752   6.000  -2.360  0.00  0.00     0.053 C 
ATOM      9  C   UNL d   1      -0.790   4.950  -3.459  0.00  0.00     0.018 C 
ENDBRANCH   1   8
TORSDOF 1
ENDMDL
