MODEL 1
REMARK minimizedAffinity 12.1341095
REMARK minimizedRMSD -1
REMARK  1 active torsions:
REMARK  status: ('A' for Active; 'I' for Inactive)
REMARK    1  A    between atoms: C1_2  and  C2_3 
ROOT
ATOM      1  C2  UNL d   1      -3.902  -0.137   2.042  0.00  0.00    -0.073 A 
ATOM      2  C3  UNL d   1      -2.611   0.403   2.054  0.00  0.00    -0.002 A 
ATOM      3  C4  UNL d   1      -2.418   1.774   1.876  0.00  0.00     0.004 A 
ATOM      4  C5  UNL d   1      -3.513   2.618   1.692  0.00  0.00    -0.004 A 
ATOM      5  C6  UNL d   1      -4.812   2.099   1.689  0.00  0.00    -0.075 A 
ATOM      6  C7  UNL d   1      -6.000   2.994   1.489  0.00  0.00     0.076 C 
ATOM      7  C8  UNL d   1      -4.997   0.721   1.865  0.00  0.00     0.001 A 
ENDROOT
BRANCH   1   8
ATOM      8  C1  UNL d   1      -4.114  -1.615   2.240  0.00  0.00     0.053 C 
ATOM      9  C   UNL d   1      -4.070  -2.379   0.926  0.00  0.00     0.018 C 
ENDBRANCH   1   8
TORSDOF 1
ENDMDL
