MODEL 1
REMARK minimizedAffinity 13.0291119
REMARK minimizedRMSD -1
REMARK  1 active torsions:
REMARK  status: ('A' for Active; 'I' for Inactive)
REMARK    1  A    between atoms: C1_2  and  C2_3 
ROOT
ATOM      1  C2  UNL d   1      -0.759   3.158  -2.409  0.00  0.00    -0.073 A 
ATOM      2  C3  UNL d   1      -1.480   2.152  -3.062  0.00  0.00    -0.002 A 
ATOM      3  C4  UNL d   1      -0.966   1.550  -4.212  0.00  0.00     0.004 A 
ATOM      4  C5  UNL d   1       0.274   1.942  -4.715  0.00  0.00    -0.004 A 
ATOM      5  C6  UNL d   1       1.014   2.937  -4.070  0.00  0.00    -0.075 A 
ATOM      6  C7  UNL d   1       2.349   3.372  -4.600  0.00  0.00     0.076 C 
ATOM      7  C8  UNL d   1       0.491   3.539  -2.918  0.00  0.00     0.001 A 
ENDROOT
BRANCH   1   8
ATOM      8  C1  UNL d   1      -1.306   3.807  -1.164  0.00  0.00     0.053 C 
ATOM      9  C   UNL d   1      -1.055   2.964   0.076  0.00  0.00     0.018 C 
ENDBRANCH   1   8
TORSDOF 1
ENDMDL
