MODEL 1
REMARK minimizedAffinity 4.48392677
REMARK minimizedRMSD -1
REMARK  1 active torsions:
REMARK  status: ('A' for Active; 'I' for Inactive)
REMARK    1  A    between atoms: C1_2  and  C2_3 
ROOT
ATOM      1  C2  UNL d   1       3.163  -1.092  -1.049  0.00  0.00    -0.073 A 
ATOM      2  C3  UNL d   1       2.525   0.141  -0.869  0.00  0.00    -0.002 A 
ATOM      3  C4  UNL d   1       3.016   1.287  -1.497  0.00  0.00     0.004 A 
ATOM      4  C5  UNL d   1       4.142   1.211  -2.316  0.00  0.00    -0.004 A 
ATOM      5  C6  UNL d   1       4.786  -0.014  -2.518  0.00  0.00    -0.075 A 
ATOM      6  C7  UNL d   1       6.000  -0.113  -3.395  0.00  0.00     0.076 C 
ATOM      7  C8  UNL d   1       4.289  -1.160  -1.882  0.00  0.00     0.001 A 
ENDROOT
BRANCH   1   8
ATOM      8  C1  UNL d   1       2.633  -2.332  -0.378  0.00  0.00     0.053 C 
ATOM      9  C   UNL d   1       1.638  -2.004   0.724  0.00  0.00     0.018 C 
ENDBRANCH   1   8
TORSDOF 1
ENDMDL
