MODEL 1
REMARK minimizedAffinity 3.27588248
REMARK minimizedRMSD -1
REMARK  0 active torsions:
REMARK  status: ('A' for Active; 'I' for Inactive)
ROOT
ATOM      1  C   UNL d   1       4.691   2.512  -5.642  0.00  0.00     0.124 A 
ATOM      2  C1  UNL d   1       4.791   3.890  -5.772  0.00  0.00     0.062 A 
ATOM      3  C2  UNL d   1       3.642   4.669  -5.874  0.00  0.00     0.162 A 
ATOM      4  C3  UNL d   1       2.382   4.071  -5.845  0.00  0.00    -0.034 A 
ATOM      5  C4  UNL d   1       2.289   2.684  -5.714  0.00  0.00     0.162 A 
ATOM      6  C5  UNL d   1       3.441   1.910  -5.613  0.00  0.00     0.062 A 
ATOM      7  F   UNL d   1       3.342   0.579  -5.487  0.00  0.00    -0.097 F 
ATOM      8  F1  UNL d   1       1.094   2.077  -5.682  0.00  0.00    -0.096 F 
ATOM      9  I   UNL d   1       0.662   5.232  -5.997  0.00  0.00    -0.060 I 
ATOM     10  F2  UNL d   1       3.769   5.998  -6.000  0.00  0.00    -0.096 F 
ATOM     11  F3  UNL d   1       5.998   4.473  -5.801  0.00  0.00    -0.097 F 
ATOM     12  F4  UNL d   1       5.798   1.765  -5.545  0.00  0.00    -0.092 F 
ENDROOT
TORSDOF 0
ENDMDL
