MODEL 1
REMARK minimizedAffinity 3.72836208
REMARK minimizedRMSD -1
REMARK  0 active torsions:
REMARK  status: ('A' for Active; 'I' for Inactive)
ROOT
ATOM      1  C   UNL d   1       4.306   2.475  -5.170  0.00  0.00     0.124 A 
ATOM      2  C1  UNL d   1       2.960   2.197  -4.971  0.00  0.00     0.062 A 
ATOM      3  C2  UNL d   1       2.009   3.202  -5.117  0.00  0.00     0.162 A 
ATOM      4  C3  UNL d   1       2.398   4.495  -5.466  0.00  0.00    -0.034 A 
ATOM      5  C4  UNL d   1       3.753   4.767  -5.664  0.00  0.00     0.162 A 
ATOM      6  C5  UNL d   1       4.701   3.760  -5.516  0.00  0.00     0.062 A 
ATOM      7  F   UNL d   1       6.000   4.030  -5.708  0.00  0.00    -0.097 F 
ATOM      8  F1  UNL d   1       4.162   6.000  -6.000  0.00  0.00    -0.096 F 
ATOM      9  I   UNL d   1       0.978   6.000  -5.687  0.00  0.00    -0.060 I 
ATOM     10  F2  UNL d   1       0.716   2.904  -4.919  0.00  0.00    -0.096 F 
ATOM     11  F3  UNL d   1       2.576   0.957  -4.635  0.00  0.00    -0.097 F 
ATOM     12  F4  UNL d   1       5.220   1.507  -5.027  0.00  0.00    -0.092 F 
ENDROOT
TORSDOF 0
ENDMDL
