MODEL 1
REMARK minimizedAffinity 3.44770885
REMARK minimizedRMSD -1
REMARK  0 active torsions:
REMARK  status: ('A' for Active; 'I' for Inactive)
ROOT
ATOM      1  C   UNL d   1       4.427   1.003   1.530  0.00  0.00     0.124 A 
ATOM      2  C1  UNL d   1       3.315   1.815   1.351  0.00  0.00     0.062 A 
ATOM      3  C2  UNL d   1       2.214   1.689   2.193  0.00  0.00     0.162 A 
ATOM      4  C3  UNL d   1       2.219   0.747   3.222  0.00  0.00    -0.034 A 
ATOM      5  C4  UNL d   1       3.340  -0.066   3.395  0.00  0.00     0.162 A 
ATOM      6  C5  UNL d   1       4.438   0.064   2.551  0.00  0.00     0.062 A 
ATOM      7  F   UNL d   1       5.512  -0.722   2.724  0.00  0.00    -0.097 F 
ATOM      8  F1  UNL d   1       3.379  -0.982   4.374  0.00  0.00    -0.096 F 
ATOM      9  I   UNL d   1       0.575   0.555   4.483  0.00  0.00    -0.060 I 
ATOM     10  F2  UNL d   1       1.153   2.487   1.998  0.00  0.00    -0.096 F 
ATOM     11  F3  UNL d   1       3.301   2.723   0.365  0.00  0.00    -0.097 F 
ATOM     12  F4  UNL d   1       5.484   1.126   0.717  0.00  0.00    -0.092 F 
ENDROOT
TORSDOF 0
ENDMDL
