MODEL 1
REMARK minimizedAffinity 5.28615618
REMARK minimizedRMSD -1
REMARK  0 active torsions:
REMARK  status: ('A' for Active; 'I' for Inactive)
ROOT
ATOM      1  C   UNL d   1       4.128   2.348  -5.676  0.00  0.00     0.124 A 
ATOM      2  C1  UNL d   1       4.562   3.665  -5.615  0.00  0.00     0.062 A 
ATOM      3  C2  UNL d   1       3.642   4.708  -5.675  0.00  0.00     0.162 A 
ATOM      4  C3  UNL d   1       2.279   4.439  -5.796  0.00  0.00    -0.034 A 
ATOM      5  C4  UNL d   1       1.850   3.111  -5.858  0.00  0.00     0.162 A 
ATOM      6  C5  UNL d   1       2.773   2.072  -5.797  0.00  0.00     0.062 A 
ATOM      7  F   UNL d   1       2.352   0.801  -5.856  0.00  0.00    -0.097 F 
ATOM      8  F1  UNL d   1       0.547   2.817  -5.974  0.00  0.00    -0.096 F 
ATOM      9  I   UNL d   1       0.901   5.996  -5.886  0.00  0.00    -0.060 I 
ATOM     10  F2  UNL d   1       4.090   5.971  -5.614  0.00  0.00    -0.096 F 
ATOM     11  F3  UNL d   1       5.870   3.934  -5.499  0.00  0.00    -0.097 F 
ATOM     12  F4  UNL d   1       5.015   1.346  -5.619  0.00  0.00    -0.092 F 
ENDROOT
TORSDOF 0
ENDMDL
