MODEL 1
REMARK minimizedAffinity 5.4411521
REMARK minimizedRMSD -1
REMARK  0 active torsions:
REMARK  status: ('A' for Active; 'I' for Inactive)
ROOT
ATOM      1  C   UNL d   1       2.241   2.381  -5.791  0.00  0.00     0.124 A 
ATOM      2  C1  UNL d   1       3.599   2.096  -5.776  0.00  0.00     0.062 A 
ATOM      3  C2  UNL d   1       4.532   3.127  -5.835  0.00  0.00     0.162 A 
ATOM      4  C3  UNL d   1       4.110   4.454  -5.910  0.00  0.00    -0.034 A 
ATOM      5  C4  UNL d   1       2.742   4.733  -5.927  0.00  0.00     0.162 A 
ATOM      6  C5  UNL d   1       1.814   3.699  -5.867  0.00  0.00     0.062 A 
ATOM      7  F   UNL d   1       0.502   3.977  -5.883  0.00  0.00    -0.097 F 
ATOM      8  F1  UNL d   1       2.302   5.998  -5.999  0.00  0.00    -0.096 F 
ATOM      9  I   UNL d   1       5.502   5.999  -6.000  0.00  0.00    -0.060 I 
ATOM     10  F2  UNL d   1       5.838   2.822  -5.818  0.00  0.00    -0.096 F 
ATOM     11  F3  UNL d   1       4.014   0.823  -5.703  0.00  0.00    -0.097 F 
ATOM     12  F4  UNL d   1       1.346   1.387  -5.735  0.00  0.00    -0.092 F 
ENDROOT
TORSDOF 0
ENDMDL
