MODEL 1
REMARK minimizedAffinity 7.28196955
REMARK minimizedRMSD -1
REMARK  0 active torsions:
REMARK  status: ('A' for Active; 'I' for Inactive)
ROOT
ATOM      1  C   UNL d   1       2.334   2.358  -5.787  0.00  0.00     0.124 A 
ATOM      2  C1  UNL d   1       1.901   3.676  -5.848  0.00  0.00     0.062 A 
ATOM      3  C2  UNL d   1       2.826   4.714  -5.907  0.00  0.00     0.162 A 
ATOM      4  C3  UNL d   1       4.193   4.439  -5.907  0.00  0.00    -0.034 A 
ATOM      5  C4  UNL d   1       4.621   3.112  -5.845  0.00  0.00     0.162 A 
ATOM      6  C5  UNL d   1       3.693   2.078  -5.786  0.00  0.00     0.062 A 
ATOM      7  F   UNL d   1       4.112   0.805  -5.727  0.00  0.00    -0.097 F 
ATOM      8  F1  UNL d   1       5.928   2.812  -5.843  0.00  0.00    -0.096 F 
ATOM      9  I   UNL d   1       5.580   5.989  -5.996  0.00  0.00    -0.060 I 
ATOM     10  F2  UNL d   1       2.379   5.978  -5.966  0.00  0.00    -0.096 F 
ATOM     11  F3  UNL d   1       0.588   3.950  -5.849  0.00  0.00    -0.097 F 
ATOM     12  F4  UNL d   1       1.441   1.361  -5.729  0.00  0.00    -0.092 F 
ENDROOT
TORSDOF 0
ENDMDL
