MODEL 1
REMARK minimizedAffinity 5.56560755
REMARK minimizedRMSD -1
REMARK  0 active torsions:
REMARK  status: ('A' for Active; 'I' for Inactive)
ROOT
ATOM      1  C   UNL d   1       4.633   2.662  -5.070  0.00  0.00     0.124 A 
ATOM      2  C1  UNL d   1       4.623   4.008  -5.405  0.00  0.00     0.062 A 
ATOM      3  C2  UNL d   1       3.420   4.655  -5.671  0.00  0.00     0.162 A 
ATOM      4  C3  UNL d   1       2.215   3.956  -5.602  0.00  0.00    -0.034 A 
ATOM      5  C4  UNL d   1       2.232   2.602  -5.265  0.00  0.00     0.162 A 
ATOM      6  C5  UNL d   1       3.437   1.960  -5.000  0.00  0.00     0.062 A 
ATOM      7  F   UNL d   1       3.444   0.658  -4.676  0.00  0.00    -0.097 F 
ATOM      8  F1  UNL d   1       1.092   1.900  -5.189  0.00  0.00    -0.096 F 
ATOM      9  I   UNL d   1       0.414   4.920  -5.999  0.00  0.00    -0.060 I 
ATOM     10  F2  UNL d   1       3.441   5.957  -5.993  0.00  0.00    -0.096 F 
ATOM     11  F3  UNL d   1       5.777   4.689  -5.475  0.00  0.00    -0.097 F 
ATOM     12  F4  UNL d   1       5.792   2.041  -4.816  0.00  0.00    -0.092 F 
ENDROOT
TORSDOF 0
ENDMDL
