MODEL 1
REMARK minimizedAffinity 9.74200916
REMARK minimizedRMSD -1
REMARK  0 active torsions:
REMARK  status: ('A' for Active; 'I' for Inactive)
ROOT
ATOM      1  C   UNL d   1       4.835   2.603  -5.509  0.00  0.00     0.124 A 
ATOM      2  C1  UNL d   1       3.632   1.938  -5.316  0.00  0.00     0.062 A 
ATOM      3  C2  UNL d   1       2.431   2.640  -5.351  0.00  0.00     0.162 A 
ATOM      4  C3  UNL d   1       2.426   4.016  -5.582  0.00  0.00    -0.034 A 
ATOM      5  C4  UNL d   1       3.640   4.678  -5.775  0.00  0.00     0.162 A 
ATOM      6  C5  UNL d   1       4.838   3.972  -5.738  0.00  0.00     0.062 A 
ATOM      7  F   UNL d   1       6.000   4.615  -5.925  0.00  0.00    -0.097 F 
ATOM      8  F1  UNL d   1       3.672   6.000  -5.999  0.00  0.00    -0.096 F 
ATOM      9  I   UNL d   1       0.632   5.070  -5.636  0.00  0.00    -0.060 I 
ATOM     10  F2  UNL d   1       1.283   1.972  -5.161  0.00  0.00    -0.096 F 
ATOM     11  F3  UNL d   1       3.627   0.616  -5.093  0.00  0.00    -0.097 F 
ATOM     12  F4  UNL d   1       5.990   1.925  -5.474  0.00  0.00    -0.092 F 
ENDROOT
TORSDOF 0
ENDMDL
