MODEL 1
REMARK minimizedAffinity 12.29076
REMARK minimizedRMSD -1
REMARK  0 active torsions:
REMARK  status: ('A' for Active; 'I' for Inactive)
ROOT
ATOM      1  C   UNL d   1       4.768   1.172   1.629  0.00  0.00     0.124 A 
ATOM      2  C1  UNL d   1       3.540   0.556   1.832  0.00  0.00     0.062 A 
ATOM      3  C2  UNL d   1       2.359   1.255   1.599  0.00  0.00     0.162 A 
ATOM      4  C3  UNL d   1       2.399   2.578   1.159  0.00  0.00    -0.034 A 
ATOM      5  C4  UNL d   1       3.637   3.191   0.958  0.00  0.00     0.162 A 
ATOM      6  C5  UNL d   1       4.815   2.488   1.192  0.00  0.00     0.062 A 
ATOM      7  F   UNL d   1       5.999   3.085   0.995  0.00  0.00    -0.097 F 
ATOM      8  F1  UNL d   1       3.712   4.462   0.535  0.00  0.00    -0.096 F 
ATOM      9  I   UNL d   1       0.636   3.626   0.809  0.00  0.00    -0.060 I 
ATOM     10  F2  UNL d   1       1.188   0.634   1.803  0.00  0.00    -0.096 F 
ATOM     11  F3  UNL d   1       3.492  -0.715   2.254  0.00  0.00    -0.097 F 
ATOM     12  F4  UNL d   1       5.902   0.498   1.854  0.00  0.00    -0.092 F 
ENDROOT
TORSDOF 0
ENDMDL
