MODEL 1
REMARK minimizedAffinity 6.22022009
REMARK minimizedRMSD -1
REMARK  0 active torsions:
REMARK  status: ('A' for Active; 'I' for Inactive)
ROOT
ATOM      1  C   UNL d   1       4.343   2.382  -5.875  0.00  0.00     0.124 A 
ATOM      2  C1  UNL d   1       4.705   3.722  -5.864  0.00  0.00     0.062 A 
ATOM      3  C2  UNL d   1       3.726   4.711  -5.899  0.00  0.00     0.162 A 
ATOM      4  C3  UNL d   1       2.376   4.364  -5.944  0.00  0.00    -0.034 A 
ATOM      5  C4  UNL d   1       2.020   3.014  -5.955  0.00  0.00     0.162 A 
ATOM      6  C5  UNL d   1       3.002   2.029  -5.920  0.00  0.00     0.062 A 
ATOM      7  F   UNL d   1       2.651   0.735  -5.931  0.00  0.00    -0.097 F 
ATOM      8  F1  UNL d   1       0.731   2.645  -5.998  0.00  0.00    -0.096 F 
ATOM      9  I   UNL d   1       0.909   5.839  -5.996  0.00  0.00    -0.060 I 
ATOM     10  F2  UNL d   1       4.104   5.998  -5.887  0.00  0.00    -0.096 F 
ATOM     11  F3  UNL d   1       6.000   4.065  -5.821  0.00  0.00    -0.097 F 
ATOM     12  F4  UNL d   1       5.287   1.432  -5.842  0.00  0.00    -0.092 F 
ENDROOT
TORSDOF 0
ENDMDL
