MODEL 1
REMARK minimizedAffinity 5.89975691
REMARK minimizedRMSD -1
REMARK  0 active torsions:
REMARK  status: ('A' for Active; 'I' for Inactive)
ROOT
ATOM      1  C   UNL d   1       4.279   2.365  -5.515  0.00  0.00     0.124 A 
ATOM      2  C1  UNL d   1       2.933   2.080  -5.704  0.00  0.00     0.062 A 
ATOM      3  C2  UNL d   1       2.008   3.114  -5.817  0.00  0.00     0.162 A 
ATOM      4  C3  UNL d   1       2.425   4.443  -5.742  0.00  0.00    -0.034 A 
ATOM      5  C4  UNL d   1       3.780   4.721  -5.550  0.00  0.00     0.162 A 
ATOM      6  C5  UNL d   1       4.701   3.684  -5.439  0.00  0.00     0.062 A 
ATOM      7  F   UNL d   1       6.000   3.961  -5.256  0.00  0.00    -0.097 F 
ATOM      8  F1  UNL d   1       4.215   5.988  -5.474  0.00  0.00    -0.096 F 
ATOM      9  I   UNL d   1       1.045   5.992  -5.910  0.00  0.00    -0.060 I 
ATOM     10  F2  UNL d   1       0.715   2.810  -5.999  0.00  0.00    -0.096 F 
ATOM     11  F3  UNL d   1       2.523   0.806  -5.778  0.00  0.00    -0.097 F 
ATOM     12  F4  UNL d   1       5.166   1.368  -5.406  0.00  0.00    -0.092 F 
ENDROOT
TORSDOF 0
ENDMDL
