MODEL 1
REMARK minimizedAffinity 18.9231949
REMARK minimizedRMSD -1
REMARK  0 active torsions:
REMARK  status: ('A' for Active; 'I' for Inactive)
ROOT
ATOM      1  C   UNL d   1      -3.009  -2.976  -4.689  0.00  0.00     0.124 A 
ATOM      2  C1  UNL d   1      -1.892  -2.443  -4.060  0.00  0.00     0.062 A 
ATOM      3  C2  UNL d   1      -1.926  -2.157  -2.698  0.00  0.00     0.162 A 
ATOM      4  C3  UNL d   1      -3.080  -2.405  -1.955  0.00  0.00    -0.034 A 
ATOM      5  C4  UNL d   1      -4.199  -2.941  -2.595  0.00  0.00     0.162 A 
ATOM      6  C5  UNL d   1      -4.161  -3.225  -3.956  0.00  0.00     0.062 A 
ATOM      7  F   UNL d   1      -5.240  -3.740  -4.562  0.00  0.00    -0.097 F 
ATOM      8  F1  UNL d   1      -5.325  -3.192  -1.910  0.00  0.00    -0.096 F 
ATOM      9  I   UNL d   1      -3.134  -1.979   0.081  0.00  0.00    -0.060 I 
ATOM     10  F2  UNL d   1      -0.832  -1.642  -2.117  0.00  0.00    -0.096 F 
ATOM     11  F3  UNL d   1      -0.778  -2.201  -4.766  0.00  0.00    -0.097 F 
ATOM     12  F4  UNL d   1      -2.974  -3.250  -5.999  0.00  0.00    -0.092 F 
ENDROOT
TORSDOF 0
ENDMDL
