MODEL 1
REMARK minimizedAffinity 8.47627449
REMARK minimizedRMSD -1
REMARK  0 active torsions:
REMARK  status: ('A' for Active; 'I' for Inactive)
ROOT
ATOM      1  C   UNL d   1      -1.090  -1.332   1.020  0.00  0.00     0.124 A 
ATOM      2  C1  UNL d   1      -0.024  -1.836   0.288  0.00  0.00     0.062 A 
ATOM      3  C2  UNL d   1       1.270  -1.385   0.536  0.00  0.00     0.162 A 
ATOM      4  C3  UNL d   1       1.504  -0.426   1.521  0.00  0.00    -0.034 A 
ATOM      5  C4  UNL d   1       0.426   0.076   2.252  0.00  0.00     0.162 A 
ATOM      6  C5  UNL d   1      -0.864  -0.377   2.001  0.00  0.00     0.062 A 
ATOM      7  F   UNL d   1      -1.894   0.110   2.709  0.00  0.00    -0.097 F 
ATOM      8  F1  UNL d   1       0.616   0.999   3.207  0.00  0.00    -0.096 F 
ATOM      9  I   UNL d   1       3.437   0.250   1.894  0.00  0.00    -0.060 I 
ATOM     10  F2  UNL d   1       2.281  -1.889  -0.187  0.00  0.00    -0.096 F 
ATOM     11  F3  UNL d   1      -0.239  -2.758  -0.661  0.00  0.00    -0.097 F 
ATOM     12  F4  UNL d   1      -2.334  -1.767   0.779  0.00  0.00    -0.092 F 
ENDROOT
TORSDOF 0
ENDMDL
