MODEL 1
REMARK minimizedAffinity 12.9116716
REMARK minimizedRMSD -1
REMARK  0 active torsions:
REMARK  status: ('A' for Active; 'I' for Inactive)
ROOT
ATOM      1  C   UNL d   1      -2.271   3.567   2.494  0.00  0.00     0.124 A 
ATOM      2  C1  UNL d   1      -3.043   4.126   1.485  0.00  0.00     0.062 A 
ATOM      3  C2  UNL d   1      -2.511   4.300   0.211  0.00  0.00     0.162 A 
ATOM      4  C3  UNL d   1      -1.199   3.913  -0.062  0.00  0.00    -0.034 A 
ATOM      5  C4  UNL d   1      -0.428   3.353   0.958  0.00  0.00     0.162 A 
ATOM      6  C5  UNL d   1      -0.965   3.181   2.230  0.00  0.00     0.062 A 
ATOM      7  F   UNL d   1      -0.217   2.641   3.204  0.00  0.00    -0.097 F 
ATOM      8  F1  UNL d   1       0.837   2.970   0.730  0.00  0.00    -0.096 F 
ATOM      9  I   UNL d   1      -0.398   4.172  -1.966  0.00  0.00    -0.060 I 
ATOM     10  F2  UNL d   1      -3.280   4.843  -0.745  0.00  0.00    -0.096 F 
ATOM     11  F3  UNL d   1      -4.306   4.501   1.738  0.00  0.00    -0.097 F 
ATOM     12  F4  UNL d   1      -2.786   3.402   3.720  0.00  0.00    -0.092 F 
ENDROOT
TORSDOF 0
ENDMDL
