MODEL 1
REMARK minimizedAffinity 8.36436844
REMARK minimizedRMSD -1
REMARK  0 active torsions:
REMARK  status: ('A' for Active; 'I' for Inactive)
ROOT
ATOM      1  C   UNL d   1       3.849  -0.408   4.001  0.00  0.00     0.124 A 
ATOM      2  C1  UNL d   1       2.588   0.156   3.863  0.00  0.00     0.062 A 
ATOM      3  C2  UNL d   1       2.243   0.822   2.691  0.00  0.00     0.162 A 
ATOM      4  C3  UNL d   1       3.161   0.927   1.646  0.00  0.00    -0.034 A 
ATOM      5  C4  UNL d   1       4.427   0.358   1.792  0.00  0.00     0.162 A 
ATOM      6  C5  UNL d   1       4.767  -0.307   2.965  0.00  0.00     0.062 A 
ATOM      7  F   UNL d   1       5.985  -0.851   3.096  0.00  0.00    -0.097 F 
ATOM      8  F1  UNL d   1       5.334   0.441   0.806  0.00  0.00    -0.096 F 
ATOM      9  I   UNL d   1       2.650   1.923  -0.109  0.00  0.00    -0.060 I 
ATOM     10  F2  UNL d   1       1.018   1.358   2.586  0.00  0.00    -0.096 F 
ATOM     11  F3  UNL d   1       1.699   0.060   4.863  0.00  0.00    -0.097 F 
ATOM     12  F4  UNL d   1       4.178  -1.048   5.131  0.00  0.00    -0.092 F 
ENDROOT
TORSDOF 0
ENDMDL
