MODEL 1
REMARK minimizedAffinity 14.7042046
REMARK minimizedRMSD -1
REMARK  0 active torsions:
REMARK  status: ('A' for Active; 'I' for Inactive)
ROOT
ATOM      1  C   UNL d   1       1.967   1.729   0.206  0.00  0.00     0.124 A 
ATOM      2  C1  UNL d   1       2.037   0.349   0.332  0.00  0.00     0.062 A 
ATOM      3  C2  UNL d   1       3.098  -0.239   1.014  0.00  0.00     0.162 A 
ATOM      4  C3  UNL d   1       4.098   0.554   1.577  0.00  0.00    -0.034 A 
ATOM      5  C4  UNL d   1       4.022   1.941   1.446  0.00  0.00     0.162 A 
ATOM      6  C5  UNL d   1       2.959   2.524   0.763  0.00  0.00     0.062 A 
ATOM      7  F   UNL d   1       2.893   3.858   0.643  0.00  0.00    -0.097 F 
ATOM      8  F1  UNL d   1       4.966   2.733   1.975  0.00  0.00    -0.096 F 
ATOM      9  I   UNL d   1       5.687  -0.322   2.597  0.00  0.00    -0.060 I 
ATOM     10  F2  UNL d   1       3.140  -1.575   1.120  0.00  0.00    -0.096 F 
ATOM     11  F3  UNL d   1       1.080  -0.421  -0.206  0.00  0.00    -0.097 F 
ATOM     12  F4  UNL d   1       0.945   2.292  -0.451  0.00  0.00    -0.092 F 
ENDROOT
TORSDOF 0
ENDMDL
