MODEL 1
REMARK minimizedAffinity 28.7557735
REMARK minimizedRMSD -1
REMARK  0 active torsions:
REMARK  status: ('A' for Active; 'I' for Inactive)
ROOT
ATOM      1  C   UNL d   1      -1.864  -2.754  -2.933  0.00  0.00     0.124 A 
ATOM      2  C1  UNL d   1      -1.144  -3.691  -2.204  0.00  0.00     0.062 A 
ATOM      3  C2  UNL d   1      -0.425  -3.300  -1.078  0.00  0.00     0.162 A 
ATOM      4  C3  UNL d   1      -0.421  -1.965  -0.675  0.00  0.00    -0.034 A 
ATOM      5  C4  UNL d   1      -1.146  -1.028  -1.414  0.00  0.00     0.162 A 
ATOM      6  C5  UNL d   1      -1.864  -1.424  -2.537  0.00  0.00     0.062 A 
ATOM      7  F   UNL d   1      -2.558  -0.518  -3.241  0.00  0.00    -0.097 F 
ATOM      8  F1  UNL d   1      -1.164   0.264  -1.053  0.00  0.00    -0.096 F 
ATOM      9  I   UNL d   1       0.654  -1.375   1.007  0.00  0.00    -0.060 I 
ATOM     10  F2  UNL d   1       0.261  -4.226  -0.393  0.00  0.00    -0.096 F 
ATOM     11  F3  UNL d   1      -1.142  -4.977  -2.584  0.00  0.00    -0.097 F 
ATOM     12  F4  UNL d   1      -2.555  -3.133  -4.015  0.00  0.00    -0.092 F 
ENDROOT
TORSDOF 0
ENDMDL
