MODEL 1
REMARK minimizedAffinity 13.1530142
REMARK minimizedRMSD -1
REMARK  0 active torsions:
REMARK  status: ('A' for Active; 'I' for Inactive)
ROOT
ATOM      1  C   UNL d   1       2.278   4.735  -5.930  0.00  0.00     0.124 A 
ATOM      2  C1  UNL d   1       3.643   4.480  -5.945  0.00  0.00     0.062 A 
ATOM      3  C2  UNL d   1       4.110   3.169  -5.958  0.00  0.00     0.162 A 
ATOM      4  C3  UNL d   1       3.211   2.102  -5.958  0.00  0.00    -0.034 A 
ATOM      5  C4  UNL d   1       1.841   2.366  -5.942  0.00  0.00     0.162 A 
ATOM      6  C5  UNL d   1       1.379   3.678  -5.929  0.00  0.00     0.062 A 
ATOM      7  F   UNL d   1       0.060   3.922  -5.915  0.00  0.00    -0.097 F 
ATOM      8  F1  UNL d   1       0.949   1.364  -5.942  0.00  0.00    -0.096 F 
ATOM      9  I   UNL d   1       3.906   0.140  -5.978  0.00  0.00    -0.060 I 
ATOM     10  F2  UNL d   1       5.433   2.952  -5.972  0.00  0.00    -0.096 F 
ATOM     11  F3  UNL d   1       4.514   5.500  -5.945  0.00  0.00    -0.097 F 
ATOM     12  F4  UNL d   1       1.832   5.998  -5.916  0.00  0.00    -0.092 F 
ENDROOT
TORSDOF 0
ENDMDL
