MODEL 1
REMARK minimizedAffinity 9.17647266
REMARK minimizedRMSD -1
REMARK  0 active torsions:
REMARK  status: ('A' for Active; 'I' for Inactive)
ROOT
ATOM      1  C   UNL d   1       0.212   2.156   2.279  0.00  0.00     0.124 A 
ATOM      2  C1  UNL d   1       0.760   0.911   2.551  0.00  0.00     0.062 A 
ATOM      3  C2  UNL d   1       2.107   0.669   2.300  0.00  0.00     0.162 A 
ATOM      4  C3  UNL d   1       2.917   1.676   1.775  0.00  0.00    -0.034 A 
ATOM      5  C4  UNL d   1       2.359   2.926   1.503  0.00  0.00     0.162 A 
ATOM      6  C5  UNL d   1       1.011   3.163   1.755  0.00  0.00     0.062 A 
ATOM      7  F   UNL d   1       0.483   4.367   1.491  0.00  0.00    -0.097 F 
ATOM      8  F1  UNL d   1       3.109   3.917   0.997  0.00  0.00    -0.096 F 
ATOM      9  I   UNL d   1       4.933   1.318   1.399  0.00  0.00    -0.060 I 
ATOM     10  F2  UNL d   1       2.610  -0.544   2.573  0.00  0.00    -0.096 F 
ATOM     11  F3  UNL d   1      -0.011  -0.064   3.056  0.00  0.00    -0.097 F 
ATOM     12  F4  UNL d   1      -1.085   2.386   2.520  0.00  0.00    -0.092 F 
ENDROOT
TORSDOF 0
ENDMDL
