MODEL 1
REMARK minimizedAffinity 1.39470518
REMARK minimizedRMSD -1
REMARK  0 active torsions:
REMARK  status: ('A' for Active; 'I' for Inactive)
ROOT
ATOM      1  N1  IND d   1       3.907   4.180  -5.998  0.00  0.00    -0.196 N 
ATOM      2  C2  IND d   1       5.028   4.883  -5.656  0.00  0.00     0.054 A 
ATOM      3  C3  IND d   1       5.999   4.044  -5.230  0.00  0.00    -0.031 A 
ATOM      4  C4  IND d   1       6.000   1.472  -5.108  0.00  0.00     0.051 A 
ATOM      5  C5  IND d   1       5.189   0.386  -5.281  0.00  0.00    -0.031 A 
ATOM      6  C6  IND d   1       3.884   0.510  -5.712  0.00  0.00     0.015 A 
ATOM      7  C7  IND d   1       3.343   1.731  -6.000  0.00  0.00    -0.016 A 
ATOM      8  C8  IND d   1       4.161   2.837  -5.819  0.00  0.00    -0.047 A 
ATOM      9  C9  IND d   1       5.472   2.721  -5.341  0.00  0.00    -0.096 A 
ATOM     10  HN1 IND d   1       3.169   4.518  -6.278  0.00  0.00     0.298 HD
ENDROOT
TORSDOF 0
ENDMDL
