MODEL 1
REMARK minimizedAffinity 9.85466671
REMARK minimizedRMSD -1
REMARK  0 active torsions:
REMARK  status: ('A' for Active; 'I' for Inactive)
ROOT
ATOM      1  N1  IND d   1       3.250   1.525   3.617  0.00  0.00    -0.196 N 
ATOM      2  C2  IND d   1       4.180   1.966   4.516  0.00  0.00     0.054 A 
ATOM      3  C3  IND d   1       4.897   2.985   3.990  0.00  0.00    -0.031 A 
ATOM      4  C4  IND d   1       4.646   4.155   1.711  0.00  0.00     0.051 A 
ATOM      5  C5  IND d   1       3.959   4.082   0.532  0.00  0.00    -0.031 A 
ATOM      6  C6  IND d   1       2.978   3.135   0.318  0.00  0.00     0.015 A 
ATOM      7  C7  IND d   1       2.639   2.230   1.283  0.00  0.00    -0.016 A 
ATOM      8  C8  IND d   1       3.340   2.297   2.479  0.00  0.00    -0.047 A 
ATOM      9  C9  IND d   1       4.365   3.228   2.686  0.00  0.00    -0.096 A 
ATOM     10  HN1 IND d   1       2.701   0.875   3.741  0.00  0.00     0.298 HD
ENDROOT
TORSDOF 0
ENDMDL
