MODEL 1
REMARK minimizedAffinity 3.03806877
REMARK minimizedRMSD -1
REMARK  0 active torsions:
REMARK  status: ('A' for Active; 'I' for Inactive)
ROOT
ATOM      1  N1  IND d   1       5.269   0.133  -3.902  0.00  0.00    -0.196 N 
ATOM      2  C2  IND d   1       5.748  -0.518  -5.005  0.00  0.00     0.054 A 
ATOM      3  C3  IND d   1       6.000   0.363  -5.998  0.00  0.00    -0.031 A 
ATOM      4  C4  IND d   1       5.795   2.929  -6.000  0.00  0.00     0.051 A 
ATOM      5  C5  IND d   1       5.364   3.976  -5.233  0.00  0.00    -0.031 A 
ATOM      6  C6  IND d   1       4.873   3.791  -3.957  0.00  0.00     0.015 A 
ATOM      7  C7  IND d   1       4.804   2.549  -3.393  0.00  0.00    -0.016 A 
ATOM      8  C8  IND d   1       5.233   1.483  -4.171  0.00  0.00    -0.047 A 
ATOM      9  C9  IND d   1       5.693   1.659  -5.483  0.00  0.00    -0.096 A 
ATOM     10  HN1 IND d   1       5.029  -0.239  -3.165  0.00  0.00     0.298 HD
ENDROOT
TORSDOF 0
ENDMDL
