MODEL 1
REMARK minimizedAffinity -2.58093381
REMARK minimizedRMSD -1
REMARK  0 active torsions:
REMARK  status: ('A' for Active; 'I' for Inactive)
ROOT
ATOM      1  N1  IND d   1       2.975   1.575   3.025  0.00  0.00    -0.196 N 
ATOM      2  C2  IND d   1       4.153   2.129   3.441  0.00  0.00     0.054 A 
ATOM      3  C3  IND d   1       4.570   3.065   2.558  0.00  0.00    -0.031 A 
ATOM      4  C4  IND d   1       3.423   3.920   0.418  0.00  0.00     0.051 A 
ATOM      5  C5  IND d   1       2.346   3.692  -0.392  0.00  0.00    -0.031 A 
ATOM      6  C6  IND d   1       1.403   2.729  -0.097  0.00  0.00     0.015 A 
ATOM      7  C7  IND d   1       1.496   1.963   1.030  0.00  0.00    -0.016 A 
ATOM      8  C8  IND d   1       2.592   2.187   1.851  0.00  0.00    -0.047 A 
ATOM      9  C9  IND d   1       3.575   3.133   1.535  0.00  0.00    -0.096 A 
ATOM     10  HN1 IND d   1       2.544   0.950   3.429  0.00  0.00     0.298 HD
ENDROOT
TORSDOF 0
ENDMDL
