MODEL 1
REMARK minimizedAffinity 0.0580076873
REMARK minimizedRMSD -1
REMARK  0 active torsions:
REMARK  status: ('A' for Active; 'I' for Inactive)
ROOT
ATOM      1  N1  IND d   1       3.942   1.594   3.394  0.00  0.00    -0.196 N 
ATOM      2  C2  IND d   1       4.882   2.319   4.073  0.00  0.00     0.054 A 
ATOM      3  C3  IND d   1       5.063   3.522   3.484  0.00  0.00    -0.031 A 
ATOM      4  C4  IND d   1       3.853   4.551   1.458  0.00  0.00     0.051 A 
ATOM      5  C5  IND d   1       2.940   4.255   0.485  0.00  0.00    -0.031 A 
ATOM      6  C6  IND d   1       2.300   3.034   0.431  0.00  0.00     0.015 A 
ATOM      7  C7  IND d   1       2.542   2.062   1.361  0.00  0.00    -0.016 A 
ATOM      8  C8  IND d   1       3.473   2.356   2.347  0.00  0.00    -0.047 A 
ATOM      9  C9  IND d   1       4.157   3.578   2.381  0.00  0.00    -0.096 A 
ATOM     10  HN1 IND d   1       3.687   0.796   3.588  0.00  0.00     0.298 HD
ENDROOT
TORSDOF 0
ENDMDL
