MODEL 1
REMARK minimizedAffinity 2.46056509
REMARK minimizedRMSD -1
REMARK  0 active torsions:
REMARK  status: ('A' for Active; 'I' for Inactive)
ROOT
ATOM      1  N1  IND d   1       2.248   2.102   1.135  0.00  0.00    -0.196 N 
ATOM      2  C2  IND d   1       2.446   2.886   0.032  0.00  0.00     0.054 A 
ATOM      3  C3  IND d   1       3.428   3.785   0.265  0.00  0.00    -0.031 A 
ATOM      4  C4  IND d   1       4.915   4.082   2.345  0.00  0.00     0.051 A 
ATOM      5  C5  IND d   1       5.085   3.624   3.622  0.00  0.00    -0.031 A 
ATOM      6  C6  IND d   1       4.305   2.613   4.144  0.00  0.00     0.015 A 
ATOM      7  C7  IND d   1       3.328   2.012   3.402  0.00  0.00    -0.016 A 
ATOM      8  C8  IND d   1       3.147   2.479   2.108  0.00  0.00    -0.047 A 
ATOM      9  C9  IND d   1       3.908   3.534   1.587  0.00  0.00    -0.096 A 
ATOM     10  HN1 IND d   1       1.661   1.479   1.208  0.00  0.00     0.298 HD
ENDROOT
TORSDOF 0
ENDMDL
