MODEL 1
REMARK minimizedAffinity 1.49244308
REMARK minimizedRMSD -1
REMARK  0 active torsions:
REMARK  status: ('A' for Active; 'I' for Inactive)
ROOT
ATOM      1  N1  IND d   1       3.887   1.837   3.351  0.00  0.00    -0.196 N 
ATOM      2  C2  IND d   1       4.969   2.665   3.469  0.00  0.00     0.054 A 
ATOM      3  C3  IND d   1       5.061   3.476   2.392  0.00  0.00    -0.031 A 
ATOM      4  C4  IND d   1       3.487   3.689   0.366  0.00  0.00     0.051 A 
ATOM      5  C5  IND d   1       2.384   3.120  -0.205  0.00  0.00    -0.031 A 
ATOM      6  C6  IND d   1       1.710   2.075   0.393  0.00  0.00     0.015 A 
ATOM      7  C7  IND d   1       2.109   1.566   1.596  0.00  0.00    -0.016 A 
ATOM      8  C8  IND d   1       3.234   2.136   2.175  0.00  0.00    -0.047 A 
ATOM      9  C9  IND d   1       3.947   3.169   1.553  0.00  0.00    -0.096 A 
ATOM     10  HN1 IND d   1       3.654   1.232   3.915  0.00  0.00     0.298 HD
ENDROOT
TORSDOF 0
ENDMDL
