MODEL 1
REMARK minimizedAffinity 0.0267138779
REMARK minimizedRMSD -1
REMARK  0 active torsions:
REMARK  status: ('A' for Active; 'I' for Inactive)
ROOT
ATOM      1  N1  IND d   1      -1.231  -5.345   0.074  0.00  0.00    -0.196 N 
ATOM      2  C2  IND d   1      -1.371  -4.266  -0.755  0.00  0.00     0.054 A 
ATOM      3  C3  IND d   1      -1.594  -3.145  -0.034  0.00  0.00    -0.031 A 
ATOM      4  C4  IND d   1      -1.667  -2.830   2.520  0.00  0.00     0.051 A 
ATOM      5  C5  IND d   1      -1.630  -3.530   3.693  0.00  0.00    -0.031 A 
ATOM      6  C6  IND d   1      -1.451  -4.898   3.721  0.00  0.00     0.015 A 
ATOM      7  C7  IND d   1      -1.291  -5.618   2.571  0.00  0.00    -0.016 A 
ATOM      8  C8  IND d   1      -1.336  -4.912   1.378  0.00  0.00    -0.047 A 
ATOM      9  C9  IND d   1      -1.559  -3.529   1.341  0.00  0.00    -0.096 A 
ATOM     10  HN1 IND d   1      -1.100  -6.156  -0.177  0.00  0.00     0.298 HD
ENDROOT
TORSDOF 0
ENDMDL
