MODEL 1
REMARK minimizedAffinity 0.95544219
REMARK minimizedRMSD -1
REMARK  0 active torsions:
REMARK  status: ('A' for Active; 'I' for Inactive)
ROOT
ATOM      1  N1  IND d   1       1.448   1.356   2.181  0.00  0.00    -0.196 N 
ATOM      2  C2  IND d   1       0.869   1.675   0.985  0.00  0.00     0.054 A 
ATOM      3  C3  IND d   1       1.571   2.652   0.368  0.00  0.00    -0.031 A 
ATOM      4  C4  IND d   1       3.756   3.804   1.094  0.00  0.00     0.051 A 
ATOM      5  C5  IND d   1       4.643   3.874   2.131  0.00  0.00    -0.031 A 
ATOM      6  C6  IND d   1       4.510   3.091   3.259  0.00  0.00     0.015 A 
ATOM      7  C7  IND d   1       3.486   2.196   3.388  0.00  0.00    -0.016 A 
ATOM      8  C8  IND d   1       2.579   2.127   2.340  0.00  0.00    -0.047 A 
ATOM      9  C9  IND d   1       2.685   2.949   1.212  0.00  0.00    -0.096 A 
ATOM     10  HN1 IND d   1       1.155   0.773   2.741  0.00  0.00     0.298 HD
ENDROOT
TORSDOF 0
ENDMDL
