MODEL 1
REMARK minimizedAffinity -1.08642733
REMARK minimizedRMSD -1
REMARK  0 active torsions:
REMARK  status: ('A' for Active; 'I' for Inactive)
ROOT
ATOM      1  N1  IND d   1       3.720   2.310   3.947  0.00  0.00    -0.196 N 
ATOM      2  C2  IND d   1       4.764   3.186   4.057  0.00  0.00     0.054 A 
ATOM      3  C3  IND d   1       4.943   3.853   2.895  0.00  0.00    -0.031 A 
ATOM      4  C4  IND d   1       3.575   3.740   0.717  0.00  0.00     0.051 A 
ATOM      5  C5  IND d   1       2.548   3.061   0.124  0.00  0.00    -0.031 A 
ATOM      6  C6  IND d   1       1.844   2.078   0.789  0.00  0.00     0.015 A 
ATOM      7  C7  IND d   1       2.134   1.745   2.082  0.00  0.00    -0.016 A 
ATOM      8  C8  IND d   1       3.180   2.428   2.685  0.00  0.00    -0.047 A 
ATOM      9  C9  IND d   1       3.927   3.397   2.001  0.00  0.00    -0.096 A 
ATOM     10  HN1 IND d   1       3.447   1.775   4.563  0.00  0.00     0.298 HD
ENDROOT
TORSDOF 0
ENDMDL
