MODEL 1
REMARK minimizedAffinity 7.10175085
REMARK minimizedRMSD -1
REMARK  0 active torsions:
REMARK  status: ('A' for Active; 'I' for Inactive)
ROOT
ATOM      1  N1  IND d   1      -1.589  -4.032  -1.235  0.00  0.00    -0.196 N 
ATOM      2  C2  IND d   1      -0.668  -3.584  -2.140  0.00  0.00     0.054 A 
ATOM      3  C3  IND d   1       0.010  -2.528  -1.637  0.00  0.00    -0.031 A 
ATOM      4  C4  IND d   1      -0.158  -1.433   0.687  0.00  0.00     0.051 A 
ATOM      5  C5  IND d   1      -0.882  -1.471   1.846  0.00  0.00    -0.031 A 
ATOM      6  C6  IND d   1      -1.897  -2.385   2.042  0.00  0.00     0.015 A 
ATOM      7  C7  IND d   1      -2.220  -3.306   1.086  0.00  0.00    -0.016 A 
ATOM      8  C8  IND d   1      -1.492  -3.266  -0.094  0.00  0.00    -0.047 A 
ATOM      9  C9  IND d   1      -0.489  -2.313  -0.315  0.00  0.00    -0.096 A 
ATOM     10  HN1 IND d   1      -2.138  -4.683  -1.358  0.00  0.00     0.298 HD
ENDROOT
TORSDOF 0
ENDMDL
