MODEL 1
REMARK minimizedAffinity 2.23702478
REMARK minimizedRMSD -1
REMARK  0 active torsions:
REMARK  status: ('A' for Active; 'I' for Inactive)
ROOT
ATOM      1  N1  IND d   1       4.555   2.371   3.288  0.00  0.00    -0.196 N 
ATOM      2  C2  IND d   1       5.512   3.315   3.040  0.00  0.00     0.054 A 
ATOM      3  C3  IND d   1       5.247   3.960   1.881  0.00  0.00    -0.031 A 
ATOM      4  C4  IND d   1       3.245   3.700   0.285  0.00  0.00     0.051 A 
ATOM      5  C5  IND d   1       2.130   2.940   0.071  0.00  0.00    -0.031 A 
ATOM      6  C6  IND d   1       1.757   1.932   0.937  0.00  0.00     0.015 A 
ATOM      7  C7  IND d   1       2.482   1.654   2.061  0.00  0.00    -0.016 A 
ATOM      8  C8  IND d   1       3.619   2.420   2.278  0.00  0.00    -0.047 A 
ATOM      9  C9  IND d   1       4.026   3.415   1.380  0.00  0.00    -0.096 A 
ATOM     10  HN1 IND d   1       4.539   1.837   3.961  0.00  0.00     0.298 HD
ENDROOT
TORSDOF 0
ENDMDL
