MODEL 1
REMARK minimizedAffinity 1.09282064
REMARK minimizedRMSD -1
REMARK  0 active torsions:
REMARK  status: ('A' for Active; 'I' for Inactive)
ROOT
ATOM      1  N1  IND d   1       3.902   1.895   3.143  0.00  0.00    -0.196 N 
ATOM      2  C2  IND d   1       5.024   2.649   2.942  0.00  0.00     0.054 A 
ATOM      3  C3  IND d   1       4.858   3.464   1.876  0.00  0.00    -0.031 A 
ATOM      4  C4  IND d   1       2.791   3.798   0.378  0.00  0.00     0.051 A 
ATOM      5  C5  IND d   1       1.536   3.307   0.149  0.00  0.00    -0.031 A 
ATOM      6  C6  IND d   1       0.994   2.301   0.924  0.00  0.00     0.015 A 
ATOM      7  C7  IND d   1       1.685   1.755   1.968  0.00  0.00    -0.016 A 
ATOM      8  C8  IND d   1       2.962   2.247   2.199  0.00  0.00    -0.047 A 
ATOM      9  C9  IND d   1       3.534   3.237   1.390  0.00  0.00    -0.096 A 
ATOM     10  HN1 IND d   1       3.800   1.301   3.756  0.00  0.00     0.298 HD
ENDROOT
TORSDOF 0
ENDMDL
