MODEL 1
REMARK minimizedAffinity 4.91110277
REMARK minimizedRMSD -1
REMARK  0 active torsions:
REMARK  status: ('A' for Active; 'I' for Inactive)
ROOT
ATOM      1  N1  IND d   1       3.442   1.683   3.002  0.00  0.00    -0.196 N 
ATOM      2  C2  IND d   1       4.222   1.940   4.095  0.00  0.00     0.054 A 
ATOM      3  C3  IND d   1       4.982   3.038   3.884  0.00  0.00    -0.031 A 
ATOM      4  C4  IND d   1       5.033   4.627   1.859  0.00  0.00     0.051 A 
ATOM      5  C5  IND d   1       4.524   4.784   0.601  0.00  0.00    -0.031 A 
ATOM      6  C6  IND d   1       3.608   3.900   0.069  0.00  0.00     0.015 A 
ATOM      7  C7  IND d   1       3.156   2.826   0.783  0.00  0.00    -0.016 A 
ATOM      8  C8  IND d   1       3.676   2.659   2.059  0.00  0.00    -0.047 A 
ATOM      9  C9  IND d   1       4.638   3.530   2.588  0.00  0.00    -0.096 A 
ATOM     10  HN1 IND d   1       2.897   1.024   2.918  0.00  0.00     0.298 HD
ENDROOT
TORSDOF 0
ENDMDL
