MODEL 1
REMARK minimizedAffinity -1.59896803
REMARK minimizedRMSD -1
REMARK  0 active torsions:
REMARK  status: ('A' for Active; 'I' for Inactive)
ROOT
ATOM      1  N1  IND d   1      -2.316   3.274   3.646  0.00  0.00    -0.196 N 
ATOM      2  C2  IND d   1      -1.718   4.039   4.608  0.00  0.00     0.054 A 
ATOM      3  C3  IND d   1      -0.381   4.082   4.411  0.00  0.00    -0.031 A 
ATOM      4  C4  IND d   1       1.027   3.056   2.516  0.00  0.00     0.051 A 
ATOM      5  C5  IND d   1       0.932   2.241   1.423  0.00  0.00    -0.031 A 
ATOM      6  C6  IND d   1      -0.276   1.720   1.006  0.00  0.00     0.015 A 
ATOM      7  C7  IND d   1      -1.440   2.005   1.661  0.00  0.00    -0.016 A 
ATOM      8  C8  IND d   1      -1.346   2.827   2.775  0.00  0.00    -0.047 A 
ATOM      9  C9  IND d   1      -0.117   3.325   3.229  0.00  0.00    -0.096 A 
ATOM     10  HN1 IND d   1      -3.156   3.101   3.593  0.00  0.00     0.298 HD
ENDROOT
TORSDOF 0
ENDMDL
