MODEL 1
REMARK minimizedAffinity -3.25807452
REMARK minimizedRMSD -1
REMARK  0 active torsions:
REMARK  status: ('A' for Active; 'I' for Inactive)
ROOT
ATOM      1  N1  IND d   1      -0.176  -1.618  -0.820  0.00  0.00    -0.196 N 
ATOM      2  C2  IND d   1      -1.435  -1.189  -0.502  0.00  0.00     0.054 A 
ATOM      3  C3  IND d   1      -1.395   0.074  -0.022  0.00  0.00    -0.031 A 
ATOM      4  C4  IND d   1       0.614   1.663   0.234  0.00  0.00     0.051 A 
ATOM      5  C5  IND d   1       1.974   1.708   0.110  0.00  0.00    -0.031 A 
ATOM      6  C6  IND d   1       2.702   0.626  -0.342  0.00  0.00     0.015 A 
ATOM      7  C7  IND d   1       2.092  -0.543  -0.699  0.00  0.00    -0.016 A 
ATOM      8  C8  IND d   1       0.711  -0.595  -0.568  0.00  0.00    -0.047 A 
ATOM      9  C9  IND d   1      -0.028   0.486  -0.069  0.00  0.00    -0.096 A 
ATOM     10  HN1 IND d   1       0.027  -2.395  -1.125  0.00  0.00     0.298 HD
ENDROOT
TORSDOF 0
ENDMDL
