MODEL 1
REMARK minimizedAffinity 1.81528652
REMARK minimizedRMSD -1
REMARK  2 active torsions:
REMARK  status: ('A' for Active; 'I' for Inactive)
REMARK    1  A    between atoms: C1_2  and  C2_3 
REMARK    2  A    between atoms: C2_3  and  C3_4 
ROOT
ATOM      1  C3  UNL d   1       3.429  -0.356  -0.005  0.00  0.00    -0.075 A 
ATOM      2  C4  UNL d   1       3.093   0.651  -0.922  0.00  0.00     0.002 A 
ATOM      3  C5  UNL d   1       3.867   1.808  -1.018  0.00  0.00     0.002 A 
ATOM      4  C6  UNL d   1       4.977   1.978  -0.194  0.00  0.00    -0.004 A 
ATOM      5  C7  UNL d   1       5.310   0.992   0.732  0.00  0.00     0.002 A 
ATOM      6  C8  UNL d   1       4.541  -0.169   0.828  0.00  0.00     0.002 A 
ENDROOT
BRANCH   1   7
ATOM      7  C2  UNL d   1       2.614  -1.624   0.084  0.00  0.00     0.056 C 
BRANCH   7   8
ATOM      8  C1  UNL d   1       1.902  -1.999  -1.220  0.00  0.00     0.007 C 
ATOM      9  C   UNL d   1       2.817  -2.676  -2.231  0.00  0.00     0.009 C 
ENDBRANCH   7   8
ENDBRANCH   1   7
TORSDOF 2
ENDMDL
