MODEL 1
REMARK minimizedAffinity -0.668555379
REMARK minimizedRMSD -1
REMARK  2 active torsions:
REMARK  status: ('A' for Active; 'I' for Inactive)
REMARK    1  A    between atoms: C1_2  and  C2_3 
REMARK    2  A    between atoms: C2_3  and  C3_4 
ROOT
ATOM      1  C3  UNL d   1       3.302   3.599   5.879  0.00  0.00    -0.075 A 
ATOM      2  C4  UNL d   1       1.906   3.524   6.000  0.00  0.00     0.002 A 
ATOM      3  C5  UNL d   1       1.123   4.673   5.890  0.00  0.00     0.002 A 
ATOM      4  C6  UNL d   1       1.723   5.910   5.669  0.00  0.00    -0.004 A 
ATOM      5  C7  UNL d   1       3.109   5.999   5.563  0.00  0.00     0.002 A 
ATOM      6  C8  UNL d   1       3.896   4.851   5.669  0.00  0.00     0.002 A 
ENDROOT
BRANCH   1   7
ATOM      7  C2  UNL d   1       4.153   2.355   5.968  0.00  0.00     0.056 C 
BRANCH   7   8
ATOM      8  C1  UNL d   1       5.347   2.347   5.008  0.00  0.00     0.007 C 
ATOM      9  C   UNL d   1       4.951   2.573   3.555  0.00  0.00     0.009 C 
ENDBRANCH   7   8
ENDBRANCH   1   7
TORSDOF 2
ENDMDL
