MODEL 1
REMARK minimizedAffinity 7.34367466
REMARK minimizedRMSD -1
REMARK  2 active torsions:
REMARK  status: ('A' for Active; 'I' for Inactive)
REMARK    1  A    between atoms: C1_2  and  C2_3 
REMARK    2  A    between atoms: C2_3  and  C3_4 
ROOT
ATOM      1  C3  UNL d   1      -5.411   3.020  -0.293  0.00  0.00    -0.075 A 
ATOM      2  C4  UNL d   1      -4.270   3.644   0.233  0.00  0.00     0.002 A 
ATOM      3  C5  UNL d   1      -3.716   3.209   1.437  0.00  0.00     0.002 A 
ATOM      4  C6  UNL d   1      -4.300   2.154   2.135  0.00  0.00    -0.004 A 
ATOM      5  C7  UNL d   1      -5.443   1.538   1.631  0.00  0.00     0.002 A 
ATOM      6  C8  UNL d   1      -5.997   1.968   0.424  0.00  0.00     0.002 A 
ENDROOT
BRANCH   1   7
ATOM      7  C2  UNL d   1      -5.998   3.466  -1.610  0.00  0.00     0.056 C 
BRANCH   7   8
ATOM      8  C1  UNL d   1      -5.297   2.875  -2.838  0.00  0.00     0.007 C 
ATOM      9  C   UNL d   1      -5.141   3.873  -3.978  0.00  0.00     0.009 C 
ENDBRANCH   7   8
ENDBRANCH   1   7
TORSDOF 2
ENDMDL
