MODEL 1
REMARK minimizedAffinity 6.97641993
REMARK minimizedRMSD -1
REMARK  2 active torsions:
REMARK  status: ('A' for Active; 'I' for Inactive)
REMARK    1  A    between atoms: C1_2  and  C2_3 
REMARK    2  A    between atoms: C2_3  and  C3_4 
ROOT
ATOM      1  C3  UNL d   1       4.856   2.754   3.307  0.00  0.00    -0.075 A 
ATOM      2  C4  UNL d   1       4.867   1.635   4.153  0.00  0.00     0.002 A 
ATOM      3  C5  UNL d   1       4.486   1.755   5.490  0.00  0.00     0.002 A 
ATOM      4  C6  UNL d   1       4.100   2.992   6.000  0.00  0.00    -0.004 A 
ATOM      5  C7  UNL d   1       4.101   4.113   5.172  0.00  0.00     0.002 A 
ATOM      6  C8  UNL d   1       4.478   3.996   3.833  0.00  0.00     0.002 A 
ENDROOT
BRANCH   1   7
ATOM      7  C2  UNL d   1       5.239   2.626   1.852  0.00  0.00     0.056 C 
BRANCH   7   8
ATOM      8  C1  UNL d   1       4.050   2.680   0.887  0.00  0.00     0.007 C 
ATOM      9  C   UNL d   1       4.113   1.618  -0.203  0.00  0.00     0.009 C 
ENDBRANCH   7   8
ENDBRANCH   1   7
TORSDOF 2
ENDMDL
