MODEL 1
REMARK minimizedAffinity -2.94440675
REMARK minimizedRMSD -1
REMARK  2 active torsions:
REMARK  status: ('A' for Active; 'I' for Inactive)
REMARK    1  A    between atoms: C1_2  and  C2_3 
REMARK    2  A    between atoms: C2_3  and  C3_4 
ROOT
ATOM      1  C3  UNL d   1       3.394   3.973   5.671  0.00  0.00    -0.075 A 
ATOM      2  C4  UNL d   1       2.695   2.803   6.000  0.00  0.00     0.002 A 
ATOM      3  C5  UNL d   1       3.284   1.551   5.822  0.00  0.00     0.002 A 
ATOM      4  C6  UNL d   1       4.574   1.453   5.304  0.00  0.00    -0.004 A 
ATOM      5  C7  UNL d   1       5.272   2.608   4.958  0.00  0.00     0.002 A 
ATOM      6  C8  UNL d   1       4.686   3.862   5.139  0.00  0.00     0.002 A 
ENDROOT
BRANCH   1   7
ATOM      7  C2  UNL d   1       2.773   5.332   5.888  0.00  0.00     0.056 C 
BRANCH   7   8
ATOM      8  C1  UNL d   1       1.245   5.308   5.999  0.00  0.00     0.007 C 
ATOM      9  C   UNL d   1       0.547   5.978   4.823  0.00  0.00     0.009 C 
ENDBRANCH   7   8
ENDBRANCH   1   7
TORSDOF 2
ENDMDL
