MODEL 1
REMARK minimizedAffinity 1.25501609
REMARK minimizedRMSD -1
REMARK  2 active torsions:
REMARK  status: ('A' for Active; 'I' for Inactive)
REMARK    1  A    between atoms: C1_2  and  C2_3 
REMARK    2  A    between atoms: C2_3  and  C3_4 
ROOT
ATOM      1  C3  UNL d   1       3.510   4.556   4.841  0.00  0.00    -0.075 A 
ATOM      2  C4  UNL d   1       3.763   3.807   6.000  0.00  0.00     0.002 A 
ATOM      3  C5  UNL d   1       4.624   2.711   5.961  0.00  0.00     0.002 A 
ATOM      4  C6  UNL d   1       5.235   2.343   4.764  0.00  0.00    -0.004 A 
ATOM      5  C7  UNL d   1       4.978   3.069   3.603  0.00  0.00     0.002 A 
ATOM      6  C8  UNL d   1       4.120   4.170   3.640  0.00  0.00     0.002 A 
ENDROOT
BRANCH   1   7
ATOM      7  C2  UNL d   1       2.602   5.762   4.883  0.00  0.00     0.056 C 
BRANCH   7   8
ATOM      8  C1  UNL d   1       1.447   5.638   5.883  0.00  0.00     0.007 C 
ATOM      9  C   UNL d   1       0.094   5.999   5.285  0.00  0.00     0.009 C 
ENDBRANCH   7   8
ENDBRANCH   1   7
TORSDOF 2
ENDMDL
