MODEL 1
REMARK minimizedAffinity 13.5973864
REMARK minimizedRMSD -1
REMARK  1 active torsions:
REMARK  status: ('A' for Active; 'I' for Inactive)
REMARK    1  A    between atoms: C1_2  and  C2_3 
ROOT
ATOM      1  C2  UNL d   1      -5.015  -0.437  -0.555  0.00  0.00    -0.077 A 
ATOM      2  C3  UNL d   1      -5.465   0.724   0.089  0.00  0.00     0.002 A 
ATOM      3  C4  UNL d   1      -4.553   1.680   0.539  0.00  0.00     0.002 A 
ATOM      4  C5  UNL d   1      -3.186   1.487   0.348  0.00  0.00    -0.004 A 
ATOM      5  C6  UNL d   1      -2.729   0.334  -0.289  0.00  0.00     0.002 A 
ATOM      6  C7  UNL d   1      -3.639  -0.623  -0.739  0.00  0.00     0.002 A 
ENDROOT
BRANCH   1   7
ATOM      7  C1  UNL d   1      -6.000  -1.446  -1.085  0.00  0.00     0.055 C 
ATOM      8  C   UNL d   1      -6.000  -1.473  -2.607  0.00  0.00     0.019 C 
ENDBRANCH   1   7
TORSDOF 1
ENDMDL
