MODEL 1
REMARK minimizedAffinity 4.86442232
REMARK minimizedRMSD -1
REMARK  1 active torsions:
REMARK  status: ('A' for Active; 'I' for Inactive)
REMARK    1  A    between atoms: C1_2  and  C2_3 
ROOT
ATOM      1  C2  UNL d   1       3.896   0.829  -0.453  0.00  0.00    -0.077 A 
ATOM      2  C3  UNL d   1       3.917   1.107  -1.827  0.00  0.00     0.002 A 
ATOM      3  C4  UNL d   1       4.964   1.846  -2.382  0.00  0.00     0.002 A 
ATOM      4  C5  UNL d   1       5.998   2.309  -1.572  0.00  0.00    -0.004 A 
ATOM      5  C6  UNL d   1       5.986   2.040  -0.204  0.00  0.00     0.002 A 
ATOM      6  C7  UNL d   1       4.940   1.302   0.353  0.00  0.00     0.002 A 
ENDROOT
BRANCH   1   7
ATOM      7  C1  UNL d   1       2.794  -0.009   0.140  0.00  0.00     0.055 C 
ATOM      8  C   UNL d   1       3.141  -0.462   1.551  0.00  0.00     0.019 C 
ENDBRANCH   1   7
TORSDOF 1
ENDMDL
