MODEL 1
REMARK minimizedAffinity 9.47795105
REMARK minimizedRMSD -1
REMARK  1 active torsions:
REMARK  status: ('A' for Active; 'I' for Inactive)
REMARK    1  A    between atoms: C1_2  and  C2_3 
ROOT
ATOM      1  C2  UNL d   1      -1.318   1.630  -0.393  0.00  0.00    -0.077 A 
ATOM      2  C3  UNL d   1      -2.598   1.828   0.143  0.00  0.00     0.002 A 
ATOM      3  C4  UNL d   1      -3.492   0.761   0.249  0.00  0.00     0.002 A 
ATOM      4  C5  UNL d   1      -3.114  -0.511  -0.174  0.00  0.00    -0.004 A 
ATOM      5  C6  UNL d   1      -1.844  -0.718  -0.711  0.00  0.00     0.002 A 
ATOM      6  C7  UNL d   1      -0.950   0.347  -0.819  0.00  0.00     0.002 A 
ENDROOT
BRANCH   1   7
ATOM      7  C1  UNL d   1      -0.335   2.769  -0.464  0.00  0.00     0.055 C 
ATOM      8  C   UNL d   1      -0.307   3.557   0.838  0.00  0.00     0.019 C 
ENDBRANCH   1   7
TORSDOF 1
ENDMDL
