MODEL 1
REMARK minimizedAffinity 6.00854826
REMARK minimizedRMSD -1
REMARK  1 active torsions:
REMARK  status: ('A' for Active; 'I' for Inactive)
REMARK    1  A    between atoms: C1_2  and  C2_3 
ROOT
ATOM      1  C2  UNL d   1       5.107   1.845  -1.692  0.00  0.00    -0.077 A 
ATOM      2  C3  UNL d   1       4.096   1.066  -2.272  0.00  0.00     0.002 A 
ATOM      3  C4  UNL d   1       3.243   0.305  -1.470  0.00  0.00     0.002 A 
ATOM      4  C5  UNL d   1       3.390   0.318  -0.085  0.00  0.00    -0.004 A 
ATOM      5  C6  UNL d   1       4.394   1.088   0.501  0.00  0.00     0.002 A 
ATOM      6  C7  UNL d   1       5.248   1.849  -0.299  0.00  0.00     0.002 A 
ENDROOT
BRANCH   1   7
ATOM      7  C1  UNL d   1       5.996   2.705  -2.552  0.00  0.00     0.055 C 
ATOM      8  C   UNL d   1       5.276   3.967  -3.004  0.00  0.00     0.019 C 
ENDBRANCH   1   7
TORSDOF 1
ENDMDL
