MODEL 1
REMARK minimizedAffinity 11.5874319
REMARK minimizedRMSD -1
REMARK  1 active torsions:
REMARK  status: ('A' for Active; 'I' for Inactive)
REMARK    1  A    between atoms: C1_2  and  C2_3 
ROOT
ATOM      1  C2  UNL d   1       4.960   2.351  -1.000  0.00  0.00    -0.077 A 
ATOM      2  C3  UNL d   1       5.097   2.457   0.391  0.00  0.00     0.002 A 
ATOM      3  C4  UNL d   1       4.179   1.837   1.241  0.00  0.00     0.002 A 
ATOM      4  C5  UNL d   1       3.120   1.104   0.709  0.00  0.00    -0.004 A 
ATOM      5  C6  UNL d   1       2.973   0.995  -0.673  0.00  0.00     0.002 A 
ATOM      6  C7  UNL d   1       3.889   1.615  -1.524  0.00  0.00     0.002 A 
ENDROOT
BRANCH   1   7
ATOM      7  C1  UNL d   1       5.977   2.978  -1.918  0.00  0.00     0.055 C 
ATOM      8  C   UNL d   1       5.403   4.192  -2.634  0.00  0.00     0.019 C 
ENDBRANCH   1   7
TORSDOF 1
ENDMDL
