MODEL 1
REMARK minimizedAffinity 3.98095679
REMARK minimizedRMSD -1
REMARK  1 active torsions:
REMARK  status: ('A' for Active; 'I' for Inactive)
REMARK    1  A    between atoms: C1_2  and  C2_3 
ROOT
ATOM      1  C2  UNL d   1       3.660   0.949  -0.535  0.00  0.00    -0.077 A 
ATOM      2  C3  UNL d   1       4.623   1.566   0.276  0.00  0.00     0.002 A 
ATOM      3  C4  UNL d   1       5.789   2.090  -0.287  0.00  0.00     0.002 A 
ATOM      4  C5  UNL d   1       6.000   2.005  -1.661  0.00  0.00    -0.004 A 
ATOM      5  C6  UNL d   1       5.049   1.391  -2.476  0.00  0.00     0.002 A 
ATOM      6  C7  UNL d   1       3.884   0.866  -1.915  0.00  0.00     0.002 A 
ENDROOT
BRANCH   1   7
ATOM      7  C1  UNL d   1       2.380   0.427   0.063  0.00  0.00     0.055 C 
ATOM      8  C   UNL d   1       2.571   0.028   1.519  0.00  0.00     0.019 C 
ENDBRANCH   1   7
TORSDOF 1
ENDMDL
