MODEL 1
REMARK minimizedAffinity 10.53193
REMARK minimizedRMSD -1
REMARK  1 active torsions:
REMARK  status: ('A' for Active; 'I' for Inactive)
REMARK    1  A    between atoms: C1_2  and  C2_3 
ROOT
ATOM      1  C2  UNL d   1       0.601   3.526   2.646  0.00  0.00    -0.077 A 
ATOM      2  C3  UNL d   1       1.926   3.151   2.386  0.00  0.00     0.002 A 
ATOM      3  C4  UNL d   1       2.612   2.319   3.273  0.00  0.00     0.002 A 
ATOM      4  C5  UNL d   1       1.979   1.852   4.424  0.00  0.00    -0.004 A 
ATOM      5  C6  UNL d   1       0.662   2.222   4.692  0.00  0.00     0.002 A 
ATOM      6  C7  UNL d   1      -0.025   3.054   3.807  0.00  0.00     0.002 A 
ENDROOT
BRANCH   1   7
ATOM      7  C1  UNL d   1      -0.157   4.383   1.665  0.00  0.00     0.055 C 
ATOM      8  C   UNL d   1      -0.298   5.811   2.172  0.00  0.00     0.019 C 
ENDBRANCH   1   7
TORSDOF 1
ENDMDL
