MODEL 1
REMARK minimizedAffinity 6.09703445
REMARK minimizedRMSD -1
REMARK  1 active torsions:
REMARK  status: ('A' for Active; 'I' for Inactive)
REMARK    1  A    between atoms: C1_2  and  C2_3 
ROOT
ATOM      1  C2  UNL d   1       3.744   1.330  -0.323  0.00  0.00    -0.077 A 
ATOM      2  C3  UNL d   1       4.731   1.837   0.534  0.00  0.00     0.002 A 
ATOM      3  C4  UNL d   1       5.854   2.482   0.013  0.00  0.00     0.002 A 
ATOM      4  C5  UNL d   1       5.998   2.631  -1.364  0.00  0.00    -0.004 A 
ATOM      5  C6  UNL d   1       5.022   2.129  -2.225  0.00  0.00     0.002 A 
ATOM      6  C7  UNL d   1       3.900   1.482  -1.706  0.00  0.00     0.002 A 
ENDROOT
BRANCH   1   7
ATOM      7  C1  UNL d   1       2.508   0.677   0.239  0.00  0.00     0.055 C 
ATOM      8  C   UNL d   1       2.824  -0.115   1.499  0.00  0.00     0.019 C 
ENDBRANCH   1   7
TORSDOF 1
ENDMDL
