MODEL 1
REMARK minimizedAffinity -2.12520742
REMARK minimizedRMSD -1
REMARK  1 active torsions:
REMARK  status: ('A' for Active; 'I' for Inactive)
REMARK    1  A    between atoms: C1_2  and  C2_3 
ROOT
ATOM      1  C2  UNL d   1       1.574   0.429  -2.497  0.00  0.00    -0.076 A 
ATOM      2  C3  UNL d   1       2.930   0.132  -2.721  0.00  0.00     0.004 A 
ATOM      3  C4  UNL d   1       3.582   0.578  -3.870  0.00  0.00    -0.003 A 
ATOM      4  C5  UNL d   1       2.889   1.330  -4.812  0.00  0.00     0.000 A 
ATOM      5  C6  UNL d   1       1.548   1.649  -4.597  0.00  0.00     0.000 A 
ATOM      6  C7  UNL d   1       0.881   1.221  -3.437  0.00  0.00    -0.073 A 
ATOM      7  C8  UNL d   1      -0.567   1.589  -3.260  0.00  0.00     0.078 C 
ENDROOT
BRANCH   1   8
ATOM      8  C1  UNL d   1       0.913  -0.104  -1.246  0.00  0.00     0.053 C 
ATOM      9  C   UNL d   1       1.920  -0.473  -0.167  0.00  0.00     0.018 C 
ENDBRANCH   1   8
TORSDOF 1
ENDMDL
