MODEL 1
REMARK minimizedAffinity 1.51279986
REMARK minimizedRMSD -1
REMARK  1 active torsions:
REMARK  status: ('A' for Active; 'I' for Inactive)
REMARK    1  A    between atoms: C1_2  and  C2_3 
ROOT
ATOM      1  C2  UNL d   1       2.277   2.176  -2.158  0.00  0.00    -0.076 A 
ATOM      2  C3  UNL d   1       2.803   3.479  -2.192  0.00  0.00     0.004 A 
ATOM      3  C4  UNL d   1       2.883   4.251  -1.034  0.00  0.00    -0.003 A 
ATOM      4  C5  UNL d   1       2.438   3.732   0.177  0.00  0.00     0.000 A 
ATOM      5  C6  UNL d   1       1.930   2.435   0.233  0.00  0.00     0.000 A 
ATOM      6  C7  UNL d   1       1.857   1.638  -0.923  0.00  0.00    -0.073 A 
ATOM      7  C8  UNL d   1       1.294   0.248  -0.806  0.00  0.00     0.078 C 
ENDROOT
BRANCH   1   8
ATOM      8  C1  UNL d   1       2.190   1.396  -3.450  0.00  0.00     0.053 C 
ATOM      9  C   UNL d   1       3.520   1.336  -4.185  0.00  0.00     0.018 C 
ENDBRANCH   1   8
TORSDOF 1
ENDMDL
