MODEL 1
REMARK minimizedAffinity 1.74202025
REMARK minimizedRMSD -1
REMARK  1 active torsions:
REMARK  status: ('A' for Active; 'I' for Inactive)
REMARK    1  A    between atoms: C1_2  and  C2_3 
ROOT
ATOM      1  C2  UNL d   1       0.761  -0.195   0.356  0.00  0.00    -0.076 A 
ATOM      2  C3  UNL d   1       0.195   0.914   1.008  0.00  0.00     0.004 A 
ATOM      3  C4  UNL d   1       0.992   1.815   1.713  0.00  0.00    -0.003 A 
ATOM      4  C5  UNL d   1       2.367   1.622   1.776  0.00  0.00     0.000 A 
ATOM      5  C6  UNL d   1       2.947   0.537   1.120  0.00  0.00     0.000 A 
ATOM      6  C7  UNL d   1       2.161  -0.371   0.391  0.00  0.00    -0.073 A 
ATOM      7  C8  UNL d   1       2.838  -1.527  -0.292  0.00  0.00     0.078 C 
ENDROOT
BRANCH   1   8
ATOM      8  C1  UNL d   1      -0.156  -1.153  -0.370  0.00  0.00     0.053 C 
ATOM      9  C   UNL d   1      -1.460  -0.499  -0.801  0.00  0.00     0.018 C 
ENDBRANCH   1   8
TORSDOF 1
ENDMDL
