MODEL 1
REMARK minimizedAffinity 3.00759268
REMARK minimizedRMSD -1
REMARK  1 active torsions:
REMARK  status: ('A' for Active; 'I' for Inactive)
REMARK    1  A    between atoms: C1_2  and  C2_3 
ROOT
ATOM      1  C2  UNL d   1      -0.659  -2.229  -1.246  0.00  0.00    -0.076 A 
ATOM      2  C3  UNL d   1       0.090  -3.406  -1.418  0.00  0.00     0.004 A 
ATOM      3  C4  UNL d   1      -0.329  -4.400  -2.301  0.00  0.00    -0.003 A 
ATOM      4  C5  UNL d   1      -1.503  -4.232  -3.027  0.00  0.00     0.000 A 
ATOM      5  C6  UNL d   1      -2.249  -3.063  -2.882  0.00  0.00     0.000 A 
ATOM      6  C7  UNL d   1      -1.832  -2.044  -2.008  0.00  0.00    -0.073 A 
ATOM      7  C8  UNL d   1      -2.678  -0.806  -1.886  0.00  0.00     0.078 C 
ENDROOT
BRANCH   1   8
ATOM      8  C1  UNL d   1      -0.169  -1.198  -0.254  0.00  0.00     0.053 C 
ATOM      9  C   UNL d   1       1.343  -1.219  -0.090  0.00  0.00     0.018 C 
ENDBRANCH   1   8
TORSDOF 1
ENDMDL
