MODEL 1
REMARK minimizedAffinity 0.04478148
REMARK minimizedRMSD -1
REMARK  1 active torsions:
REMARK  status: ('A' for Active; 'I' for Inactive)
REMARK    1  A    between atoms: C1_2  and  C2_3 
ROOT
ATOM      1  C2  UNL d   1       0.606  -0.522   1.105  0.00  0.00    -0.076 A 
ATOM      2  C3  UNL d   1      -0.114  -0.312   2.294  0.00  0.00     0.004 A 
ATOM      3  C4  UNL d   1       0.395   0.500   3.306  0.00  0.00    -0.003 A 
ATOM      4  C5  UNL d   1       1.632   1.115   3.146  0.00  0.00     0.000 A 
ATOM      5  C6  UNL d   1       2.351   0.931   1.965  0.00  0.00     0.000 A 
ATOM      6  C7  UNL d   1       1.845   0.129   0.928  0.00  0.00    -0.073 A 
ATOM      7  C8  UNL d   1       2.666  -0.039  -0.321  0.00  0.00     0.078 C 
ENDROOT
BRANCH   1   8
ATOM      8  C1  UNL d   1       0.016  -1.435   0.053  0.00  0.00     0.053 C 
ATOM      9  C   UNL d   1      -0.860  -0.688  -0.941  0.00  0.00     0.018 C 
ENDBRANCH   1   8
TORSDOF 1
ENDMDL
