MODEL 1
REMARK minimizedAffinity 14.0538311
REMARK minimizedRMSD -1
REMARK  1 active torsions:
REMARK  status: ('A' for Active; 'I' for Inactive)
REMARK    1  A    between atoms: C1_2  and  C2_3 
ROOT
ATOM      1  C2  UNL d   1      -2.405  -1.683   3.228  0.00  0.00    -0.076 A 
ATOM      2  C3  UNL d   1      -3.034  -2.125   4.405  0.00  0.00     0.004 A 
ATOM      3  C4  UNL d   1      -2.364  -2.106   5.627  0.00  0.00    -0.003 A 
ATOM      4  C5  UNL d   1      -1.054  -1.644   5.692  0.00  0.00     0.000 A 
ATOM      5  C6  UNL d   1      -0.421  -1.185   4.537  0.00  0.00     0.000 A 
ATOM      6  C7  UNL d   1      -1.088  -1.182   3.300  0.00  0.00    -0.073 A 
ATOM      7  C8  UNL d   1      -0.355  -0.682   2.086  0.00  0.00     0.078 C 
ENDROOT
BRANCH   1   8
ATOM      8  C1  UNL d   1      -3.173  -1.752   1.927  0.00  0.00     0.053 C 
ATOM      9  C   UNL d   1      -4.616  -2.189   2.124  0.00  0.00     0.018 C 
ENDBRANCH   1   8
TORSDOF 1
ENDMDL
