MODEL 1
REMARK minimizedAffinity 15.7389908
REMARK minimizedRMSD -1
REMARK  1 active torsions:
REMARK  status: ('A' for Active; 'I' for Inactive)
REMARK    1  A    between atoms: C1_2  and  C2_3 
ROOT
ATOM      1  C2  UNL d   1       2.496  -0.091  -3.711  0.00  0.00    -0.076 A 
ATOM      2  C3  UNL d   1       2.855  -0.524  -2.422  0.00  0.00     0.004 A 
ATOM      3  C4  UNL d   1       3.695   0.244  -1.616  0.00  0.00    -0.003 A 
ATOM      4  C5  UNL d   1       4.188   1.456  -2.086  0.00  0.00     0.000 A 
ATOM      5  C6  UNL d   1       3.828   1.909  -3.354  0.00  0.00     0.000 A 
ATOM      6  C7  UNL d   1       2.969   1.155  -4.173  0.00  0.00    -0.073 A 
ATOM      7  C8  UNL d   1       2.618   1.689  -5.535  0.00  0.00     0.078 C 
ENDROOT
BRANCH   1   8
ATOM      8  C1  UNL d   1       1.604  -0.978  -4.550  0.00  0.00     0.053 C 
ATOM      9  C   UNL d   1       0.229  -0.371  -4.780  0.00  0.00     0.018 C 
ENDBRANCH   1   8
TORSDOF 1
ENDMDL
