MODEL 1
REMARK minimizedAffinity 4.92680931
REMARK minimizedRMSD -1
REMARK  1 active torsions:
REMARK  status: ('A' for Active; 'I' for Inactive)
REMARK    1  A    between atoms: C1_2  and  C2_3 
ROOT
ATOM      1  C2  UNL d   1       1.424  -0.395   0.685  0.00  0.00    -0.076 A 
ATOM      2  C3  UNL d   1       0.873  -0.267   1.971  0.00  0.00     0.004 A 
ATOM      3  C4  UNL d   1       1.265   0.766   2.821  0.00  0.00    -0.003 A 
ATOM      4  C5  UNL d   1       2.215   1.689   2.398  0.00  0.00     0.000 A 
ATOM      5  C6  UNL d   1       2.760   1.588   1.118  0.00  0.00     0.000 A 
ATOM      6  C7  UNL d   1       2.363   0.562   0.243  0.00  0.00    -0.073 A 
ATOM      7  C8  UNL d   1       2.988   0.498  -1.124  0.00  0.00     0.078 C 
ENDROOT
BRANCH   1   8
ATOM      8  C1  UNL d   1       0.980  -1.551  -0.182  0.00  0.00     0.053 C 
ATOM      9  C   UNL d   1      -0.339  -1.277  -0.888  0.00  0.00     0.018 C 
ENDBRANCH   1   8
TORSDOF 1
ENDMDL
