MODEL 1
REMARK minimizedAffinity -4.67385387
REMARK minimizedRMSD -1
REMARK  1 active torsions:
REMARK  status: ('A' for Active; 'I' for Inactive)
REMARK    1  A    between atoms: C1_2  and  C2_3 
ROOT
ATOM      1  C2  UNL d   1      -0.705  -1.076   1.363  0.00  0.00    -0.077 A 
ATOM      2  C3  UNL d   1      -1.782  -0.571   2.104  0.00  0.00     0.002 A 
ATOM      3  C4  UNL d   1      -2.221  -1.231   3.253  0.00  0.00     0.002 A 
ATOM      4  C5  UNL d   1      -1.586  -2.398   3.674  0.00  0.00    -0.004 A 
ATOM      5  C6  UNL d   1      -0.515  -2.910   2.943  0.00  0.00     0.002 A 
ATOM      6  C7  UNL d   1      -0.076  -2.252   1.793  0.00  0.00     0.002 A 
ENDROOT
BRANCH   1   7
ATOM      7  C1  UNL d   1      -0.199  -0.339   0.152  0.00  0.00     0.055 C 
ATOM      8  C   UNL d   1      -0.897   1.004  -0.011  0.00  0.00     0.019 C 
ENDBRANCH   1   7
TORSDOF 1
ENDMDL
