MODEL 1
REMARK minimizedAffinity -4.14511251
REMARK minimizedRMSD -1
REMARK  1 active torsions:
REMARK  status: ('A' for Active; 'I' for Inactive)
REMARK    1  A    between atoms: C1_2  and  C2_3 
ROOT
ATOM      1  C2  UNL d   1      -1.414   0.899   0.900  0.00  0.00    -0.077 A 
ATOM      2  C3  UNL d   1      -0.404  -0.013   0.564  0.00  0.00     0.002 A 
ATOM      3  C4  UNL d   1       0.787   0.433  -0.014  0.00  0.00     0.002 A 
ATOM      4  C5  UNL d   1       0.979   1.792  -0.257  0.00  0.00    -0.004 A 
ATOM      5  C6  UNL d   1      -0.021   2.706   0.072  0.00  0.00     0.002 A 
ATOM      6  C7  UNL d   1      -1.211   2.262   0.649  0.00  0.00     0.002 A 
ENDROOT
BRANCH   1   7
ATOM      7  C1  UNL d   1      -2.678   0.426   1.568  0.00  0.00     0.055 C 
ATOM      8  C   UNL d   1      -2.393  -0.686   2.568  0.00  0.00     0.019 C 
ENDBRANCH   1   7
TORSDOF 1
ENDMDL
