MODEL 1
REMARK minimizedAffinity -4.82296896
REMARK minimizedRMSD -1
REMARK  1 active torsions:
REMARK  status: ('A' for Active; 'I' for Inactive)
REMARK    1  A    between atoms: C1_2  and  C2_3 
ROOT
ATOM      1  C2  UNL d   1       0.464   2.164   0.273  0.00  0.00    -0.077 A 
ATOM      2  C3  UNL d   1       1.656   2.859   0.521  0.00  0.00     0.002 A 
ATOM      3  C4  UNL d   1       2.858   2.167   0.677  0.00  0.00     0.002 A 
ATOM      4  C5  UNL d   1       2.882   0.777   0.582  0.00  0.00    -0.004 A 
ATOM      5  C6  UNL d   1       1.701   0.076   0.338  0.00  0.00     0.002 A 
ATOM      6  C7  UNL d   1       0.498   0.766   0.183  0.00  0.00     0.002 A 
ENDROOT
BRANCH   1   7
ATOM      7  C1  UNL d   1      -0.825   2.911   0.056  0.00  0.00     0.055 C 
ATOM      8  C   UNL d   1      -1.962   2.301   0.863  0.00  0.00     0.019 C 
ENDBRANCH   1   7
TORSDOF 1
ENDMDL
