MODEL 1
REMARK minimizedAffinity -3.89894366
REMARK minimizedRMSD -1
REMARK  1 active torsions:
REMARK  status: ('A' for Active; 'I' for Inactive)
REMARK    1  A    between atoms: C1_2  and  C2_3 
ROOT
ATOM      1  C2  UNL d   1      -0.880   1.543   0.347  0.00  0.00    -0.077 A 
ATOM      2  C3  UNL d   1       0.124   0.588   0.133  0.00  0.00     0.002 A 
ATOM      3  C4  UNL d   1       1.463   0.976   0.058  0.00  0.00     0.002 A 
ATOM      4  C5  UNL d   1       1.811   2.318   0.199  0.00  0.00    -0.004 A 
ATOM      5  C6  UNL d   1       0.820   3.275   0.409  0.00  0.00     0.002 A 
ATOM      6  C7  UNL d   1      -0.519   2.890   0.484  0.00  0.00     0.002 A 
ENDROOT
BRANCH   1   7
ATOM      7  C1  UNL d   1      -2.320   1.121   0.478  0.00  0.00     0.055 C 
ATOM      8  C   UNL d   1      -3.182   2.255   1.013  0.00  0.00     0.019 C 
ENDBRANCH   1   7
TORSDOF 1
ENDMDL
