MODEL 1
REMARK minimizedAffinity -1.74366736
REMARK minimizedRMSD -1
REMARK  1 active torsions:
REMARK  status: ('A' for Active; 'I' for Inactive)
REMARK    1  A    between atoms: C1_2  and  C2_3 
ROOT
ATOM      1  C2  UNL d   1      -1.417  -2.782   1.586  0.00  0.00    -0.077 A 
ATOM      2  C3  UNL d   1      -0.685  -1.823   0.872  0.00  0.00     0.002 A 
ATOM      3  C4  UNL d   1      -0.545  -1.930  -0.513  0.00  0.00     0.002 A 
ATOM      4  C5  UNL d   1      -1.138  -2.990  -1.196  0.00  0.00    -0.004 A 
ATOM      5  C6  UNL d   1      -1.867  -3.949  -0.494  0.00  0.00     0.002 A 
ATOM      6  C7  UNL d   1      -2.007  -3.845   0.891  0.00  0.00     0.002 A 
ENDROOT
BRANCH   1   7
ATOM      7  C1  UNL d   1      -1.611  -2.642   3.074  0.00  0.00     0.055 C 
ATOM      8  C   UNL d   1      -2.847  -1.816   3.396  0.00  0.00     0.019 C 
ENDBRANCH   1   7
TORSDOF 1
ENDMDL
