MODEL 1
REMARK minimizedAffinity -5.4715929
REMARK minimizedRMSD -1
REMARK  1 active torsions:
REMARK  status: ('A' for Active; 'I' for Inactive)
REMARK    1  A    between atoms: C1_2  and  C2_3 
ROOT
ATOM      1  C2  UNL d   1      -0.612   0.054   0.780  0.00  0.00    -0.077 A 
ATOM      2  C3  UNL d   1       0.634   0.193   0.154  0.00  0.00     0.002 A 
ATOM      3  C4  UNL d   1       0.924   1.335  -0.597  0.00  0.00     0.002 A 
ATOM      4  C5  UNL d   1      -0.024   2.347  -0.723  0.00  0.00    -0.004 A 
ATOM      5  C6  UNL d   1      -1.268   2.217  -0.106  0.00  0.00     0.002 A 
ATOM      6  C7  UNL d   1      -1.560   1.077   0.643  0.00  0.00     0.002 A 
ENDROOT
BRANCH   1   7
ATOM      7  C1  UNL d   1      -0.909  -1.153   1.630  0.00  0.00     0.055 C 
ATOM      8  C   UNL d   1      -1.866  -0.811   2.763  0.00  0.00     0.019 C 
ENDBRANCH   1   7
TORSDOF 1
ENDMDL
