MODEL 1
REMARK minimizedAffinity -5.06745577
REMARK minimizedRMSD -1
REMARK  1 active torsions:
REMARK  status: ('A' for Active; 'I' for Inactive)
REMARK    1  A    between atoms: C1_2  and  C2_3 
ROOT
ATOM      1  C2  UNL d   1      -1.630  -0.062   1.172  0.00  0.00    -0.077 A 
ATOM      2  C3  UNL d   1      -2.905   0.111   1.729  0.00  0.00     0.002 A 
ATOM      3  C4  UNL d   1      -3.384  -0.784   2.688  0.00  0.00     0.002 A 
ATOM      4  C5  UNL d   1      -2.593  -1.855   3.101  0.00  0.00    -0.004 A 
ATOM      5  C6  UNL d   1      -1.325  -2.036   2.551  0.00  0.00     0.002 A 
ATOM      6  C7  UNL d   1      -0.845  -1.144   1.591  0.00  0.00     0.002 A 
ENDROOT
BRANCH   1   7
ATOM      7  C1  UNL d   1      -1.093   0.930   0.174  0.00  0.00     0.055 C 
ATOM      8  C   UNL d   1      -0.625   2.206   0.858  0.00  0.00     0.019 C 
ENDBRANCH   1   7
TORSDOF 1
ENDMDL
