MODEL 1
REMARK minimizedAffinity -0.373759747
REMARK minimizedRMSD -1
REMARK  1 active torsions:
REMARK  status: ('A' for Active; 'I' for Inactive)
REMARK    1  A    between atoms: C1_2  and  C2_3 
ROOT
ATOM      1  C2  UNL d   1       1.889   4.836   3.276  0.00  0.00    -0.077 A 
ATOM      2  C3  UNL d   1       2.005   3.645   2.545  0.00  0.00     0.002 A 
ATOM      3  C4  UNL d   1       1.127   2.585   2.777  0.00  0.00     0.002 A 
ATOM      4  C5  UNL d   1       0.124   2.706   3.736  0.00  0.00    -0.004 A 
ATOM      5  C6  UNL d   1       0.002   3.885   4.471  0.00  0.00     0.002 A 
ATOM      6  C7  UNL d   1       0.879   4.945   4.241  0.00  0.00     0.002 A 
ENDROOT
BRANCH   1   7
ATOM      7  C1  UNL d   1       2.804   5.998   2.994  0.00  0.00     0.055 C 
ATOM      8  C   UNL d   1       4.009   5.994   3.923  0.00  0.00     0.019 C 
ENDBRANCH   1   7
TORSDOF 1
ENDMDL
