MODEL 1
REMARK minimizedAffinity -4.24505281
REMARK minimizedRMSD -1
REMARK  1 active torsions:
REMARK  status: ('A' for Active; 'I' for Inactive)
REMARK    1  A    between atoms: C1_2  and  C2_3 
ROOT
ATOM      1  C2  UNL d   1      -0.156   1.757   0.241  0.00  0.00    -0.077 A 
ATOM      2  C3  UNL d   1       0.289   2.339  -0.954  0.00  0.00     0.002 A 
ATOM      3  C4  UNL d   1       0.848   3.618  -0.951  0.00  0.00     0.002 A 
ATOM      4  C5  UNL d   1       0.970   4.324   0.243  0.00  0.00    -0.004 A 
ATOM      5  C6  UNL d   1       0.529   3.755   1.437  0.00  0.00     0.002 A 
ATOM      6  C7  UNL d   1      -0.031   2.477   1.436  0.00  0.00     0.002 A 
ENDROOT
BRANCH   1   7
ATOM      7  C1  UNL d   1      -0.714   0.357   0.248  0.00  0.00     0.055 C 
ATOM      8  C   UNL d   1       0.360  -0.665   0.590  0.00  0.00     0.019 C 
ENDBRANCH   1   7
TORSDOF 1
ENDMDL
