MODEL 1
REMARK minimizedAffinity 7.3418169
REMARK minimizedRMSD -1
REMARK  1 active torsions:
REMARK  status: ('A' for Active; 'I' for Inactive)
REMARK    1  A    between atoms: C1_2  and  C2_3 
ROOT
ATOM      1  C2  UNL d   1       3.884   2.288  -3.205  0.00  0.00    -0.077 A 
ATOM      2  C3  UNL d   1       4.142   3.275  -2.244  0.00  0.00     0.002 A 
ATOM      3  C4  UNL d   1       5.197   4.173  -2.420  0.00  0.00     0.002 A 
ATOM      4  C5  UNL d   1       5.998   4.095  -3.557  0.00  0.00    -0.004 A 
ATOM      5  C6  UNL d   1       5.751   3.115  -4.518  0.00  0.00     0.002 A 
ATOM      6  C7  UNL d   1       4.698   2.216  -4.343  0.00  0.00     0.002 A 
ENDROOT
BRANCH   1   7
ATOM      7  C1  UNL d   1       2.716   1.350  -3.042  0.00  0.00     0.055 C 
ATOM      8  C   UNL d   1       1.830   1.767  -1.877  0.00  0.00     0.019 C 
ENDBRANCH   1   7
TORSDOF 1
ENDMDL
