MODEL 1
REMARK minimizedAffinity 6.33114767
REMARK minimizedRMSD -1
REMARK  1 active torsions:
REMARK  status: ('A' for Active; 'I' for Inactive)
REMARK    1  A    between atoms: C1_2  and  C2_3 
ROOT
ATOM      1  C2  UNL d   1      -0.894   3.217  -5.325  0.00  0.00    -0.077 A 
ATOM      2  C3  UNL d   1      -0.973   3.666  -3.999  0.00  0.00     0.002 A 
ATOM      3  C4  UNL d   1      -2.211   3.771  -3.362  0.00  0.00     0.002 A 
ATOM      4  C5  UNL d   1      -3.378   3.425  -4.041  0.00  0.00    -0.004 A 
ATOM      5  C6  UNL d   1      -3.309   2.979  -5.360  0.00  0.00     0.002 A 
ATOM      6  C7  UNL d   1      -2.073   2.875  -5.999  0.00  0.00     0.002 A 
ENDROOT
BRANCH   1   7
ATOM      7  C1  UNL d   1       0.444   3.057  -5.998  0.00  0.00     0.055 C 
ATOM      8  C   UNL d   1       1.581   3.106  -4.988  0.00  0.00     0.019 C 
ENDBRANCH   1   7
TORSDOF 1
ENDMDL
