MODEL 1
REMARK minimizedAffinity -3.52627015
REMARK minimizedRMSD -1
REMARK  1 active torsions:
REMARK  status: ('A' for Active; 'I' for Inactive)
REMARK    1  A    between atoms: C1_2  and  C2_3 
ROOT
ATOM      1  C2  UNL d   1       1.342   2.615  -4.708  0.00  0.00    -0.077 A 
ATOM      2  C3  UNL d   1       2.055   2.273  -3.550  0.00  0.00     0.002 A 
ATOM      3  C4  UNL d   1       3.421   1.992  -3.620  0.00  0.00     0.002 A 
ATOM      4  C5  UNL d   1       4.086   2.054  -4.843  0.00  0.00    -0.004 A 
ATOM      5  C6  UNL d   1       3.385   2.392  -6.000  0.00  0.00     0.002 A 
ATOM      6  C7  UNL d   1       2.019   2.672  -5.932  0.00  0.00     0.002 A 
ENDROOT
BRANCH   1   7
ATOM      7  C1  UNL d   1      -0.121   2.967  -4.627  0.00  0.00     0.055 C 
ATOM      8  C   UNL d   1      -0.777   2.924  -6.000  0.00  0.00     0.019 C 
ENDBRANCH   1   7
TORSDOF 1
ENDMDL
