MODEL 1
REMARK minimizedAffinity -0.937425792
REMARK minimizedRMSD -1
REMARK  1 active torsions:
REMARK  status: ('A' for Active; 'I' for Inactive)
REMARK    1  A    between atoms: C1_2  and  C2_3 
ROOT
ATOM      1  C2  UNL d   1       0.620   2.516  -5.966  0.00  0.00    -0.077 A 
ATOM      2  C3  UNL d   1       1.680   3.434  -5.966  0.00  0.00     0.002 A 
ATOM      3  C4  UNL d   1       3.002   2.986  -5.981  0.00  0.00     0.002 A 
ATOM      4  C5  UNL d   1       3.276   1.620  -6.000  0.00  0.00    -0.004 A 
ATOM      5  C6  UNL d   1       2.229   0.699  -5.998  0.00  0.00     0.002 A 
ATOM      6  C7  UNL d   1       0.907   1.145  -5.982  0.00  0.00     0.002 A 
ENDROOT
BRANCH   1   7
ATOM      7  C1  UNL d   1      -0.807   2.997  -5.999  0.00  0.00     0.055 C 
ATOM      8  C   UNL d   1      -1.365   3.175  -4.595  0.00  0.00     0.019 C 
ENDBRANCH   1   7
TORSDOF 1
ENDMDL
