MODEL 1
REMARK minimizedAffinity -4.34012127
REMARK minimizedRMSD -1
REMARK  1 active torsions:
REMARK  status: ('A' for Active; 'I' for Inactive)
REMARK    1  A    between atoms: C1_2  and  C2_3 
ROOT
ATOM      1  C2  UNL d   1      -0.392   0.614   0.034  0.00  0.00    -0.077 A 
ATOM      2  C3  UNL d   1      -1.499   1.446   0.256  0.00  0.00     0.002 A 
ATOM      3  C4  UNL d   1      -1.325   2.817   0.453  0.00  0.00     0.002 A 
ATOM      4  C5  UNL d   1      -0.046   3.369   0.427  0.00  0.00    -0.004 A 
ATOM      5  C6  UNL d   1       1.062   2.550   0.210  0.00  0.00     0.002 A 
ATOM      6  C7  UNL d   1       0.889   1.179   0.013  0.00  0.00     0.002 A 
ENDROOT
BRANCH   1   7
ATOM      7  C1  UNL d   1      -0.583  -0.857  -0.229  0.00  0.00     0.055 C 
ATOM      8  C   UNL d   1      -0.312  -1.198  -1.687  0.00  0.00     0.019 C 
ENDBRANCH   1   7
TORSDOF 1
ENDMDL
