MODEL 1
REMARK minimizedAffinity -2.91392612
REMARK minimizedRMSD -1
REMARK  0 active torsions:
REMARK  status: ('A' for Active; 'I' for Inactive)
ROOT
ATOM      1  C1  BNZ d   1       0.314  -0.655   0.582  0.00  0.00     0.000 A 
ATOM      2  C2  BNZ d   1      -0.477  -0.519   1.692  0.00  0.00     0.000 A 
ATOM      3  C3  BNZ d   1      -1.103   0.665   1.964  0.00  0.00     0.000 A 
ATOM      4  C4  BNZ d   1      -0.907   1.721   1.149  0.00  0.00     0.000 A 
ATOM      5  C5  BNZ d   1      -0.106   1.603   0.031  0.00  0.00     0.000 A 
ATOM      6  C6  BNZ d   1       0.492   0.398  -0.261  0.00  0.00     0.000 A 
ENDROOT
TORSDOF 0
ENDMDL
