MODEL 1
REMARK minimizedAffinity -4.52986288
REMARK minimizedRMSD -1
REMARK  0 active torsions:
REMARK  status: ('A' for Active; 'I' for Inactive)
ROOT
ATOM      1  C1  BNZ d   1      -2.173   3.184   1.707  0.00  0.00     0.000 A 
ATOM      2  C2  BNZ d   1      -2.615   1.892   1.605  0.00  0.00     0.000 A 
ATOM      3  C3  BNZ d   1      -1.990   1.001   0.778  0.00  0.00     0.000 A 
ATOM      4  C4  BNZ d   1      -0.949   1.413   0.025  0.00  0.00     0.000 A 
ATOM      5  C5  BNZ d   1      -0.498   2.715   0.110  0.00  0.00     0.000 A 
ATOM      6  C6  BNZ d   1      -1.105   3.598   0.972  0.00  0.00     0.000 A 
ENDROOT
TORSDOF 0
ENDMDL
