MODEL 1
REMARK minimizedAffinity -3.47344232
REMARK minimizedRMSD -1
REMARK  0 active torsions:
REMARK  status: ('A' for Active; 'I' for Inactive)
ROOT
ATOM      1  C1  BNZ d   1      -0.780  -2.424  -2.188  0.00  0.00     0.000 A 
ATOM      2  C2  BNZ d   1      -0.941  -1.286  -1.443  0.00  0.00     0.000 A 
ATOM      3  C3  BNZ d   1       0.113  -0.737  -0.768  0.00  0.00     0.000 A 
ATOM      4  C4  BNZ d   1       1.316  -1.346  -0.808  0.00  0.00     0.000 A 
ATOM      5  C5  BNZ d   1       1.492  -2.498  -1.547  0.00  0.00     0.000 A 
ATOM      6  C6  BNZ d   1       0.438  -3.027  -2.256  0.00  0.00     0.000 A 
ENDROOT
TORSDOF 0
ENDMDL
