MODEL 1
REMARK minimizedAffinity -2.28933907
REMARK minimizedRMSD -1
REMARK  0 active torsions:
REMARK  status: ('A' for Active; 'I' for Inactive)
ROOT
ATOM      1  C1  BNZ d   1       0.367  -4.139  -1.475  0.00  0.00     0.000 A 
ATOM      2  C2  BNZ d   1      -0.709  -3.936  -2.298  0.00  0.00     0.000 A 
ATOM      3  C3  BNZ d   1      -1.023  -2.682  -2.743  0.00  0.00     0.000 A 
ATOM      4  C4  BNZ d   1      -0.287  -1.629  -2.333  0.00  0.00     0.000 A 
ATOM      5  C5  BNZ d   1       0.796  -1.816  -1.497  0.00  0.00     0.000 A 
ATOM      6  C6  BNZ d   1       1.132  -3.085  -1.082  0.00  0.00     0.000 A 
ENDROOT
TORSDOF 0
ENDMDL
