MODEL 1
REMARK minimizedAffinity -1.08010113
REMARK minimizedRMSD -1
REMARK  0 active torsions:
REMARK  status: ('A' for Active; 'I' for Inactive)
ROOT
ATOM      1  C1  BNZ d   1      -0.619   1.485   0.422  0.00  0.00     0.000 A 
ATOM      2  C2  BNZ d   1       0.091   1.121  -0.691  0.00  0.00     0.000 A 
ATOM      3  C3  BNZ d   1       0.642  -0.126  -0.794  0.00  0.00     0.000 A 
ATOM      4  C4  BNZ d   1       0.516  -0.992   0.232  0.00  0.00     0.000 A 
ATOM      5  C5  BNZ d   1      -0.189  -0.637   1.365  0.00  0.00     0.000 A 
ATOM      6  C6  BNZ d   1      -0.775   0.605   1.448  0.00  0.00     0.000 A 
ENDROOT
TORSDOF 0
ENDMDL
