MODEL 1
REMARK minimizedAffinity -2.8199091
REMARK minimizedRMSD -1
REMARK  0 active torsions:
REMARK  status: ('A' for Active; 'I' for Inactive)
ROOT
ATOM      1  C1  BNZ d   1       0.460  -0.408   0.066  0.00  0.00     0.000 A 
ATOM      2  C2  BNZ d   1      -0.572   0.225   0.705  0.00  0.00     0.000 A 
ATOM      3  C3  BNZ d   1      -1.137   1.352   0.176  0.00  0.00     0.000 A 
ATOM      4  C4  BNZ d   1      -0.644   1.866  -0.968  0.00  0.00     0.000 A 
ATOM      5  C5  BNZ d   1       0.403   1.245  -1.620  0.00  0.00     0.000 A 
ATOM      6  C6  BNZ d   1       0.944   0.089  -1.105  0.00  0.00     0.000 A 
ENDROOT
TORSDOF 0
ENDMDL
