MODEL 1
REMARK minimizedAffinity 0.466738373
REMARK minimizedRMSD -1
REMARK  0 active torsions:
REMARK  status: ('A' for Active; 'I' for Inactive)
ROOT
ATOM      1  C1  BNZ d   1      -0.203  -0.267   0.856  0.00  0.00     0.000 A 
ATOM      2  C2  BNZ d   1      -0.845  -0.150   2.060  0.00  0.00     0.000 A 
ATOM      3  C3  BNZ d   1      -1.430   1.028   2.430  0.00  0.00     0.000 A 
ATOM      4  C4  BNZ d   1      -1.339   2.099   1.615  0.00  0.00     0.000 A 
ATOM      5  C5  BNZ d   1      -0.687   2.000   0.402  0.00  0.00     0.000 A 
ATOM      6  C6  BNZ d   1      -0.133   0.801   0.016  0.00  0.00     0.000 A 
ENDROOT
TORSDOF 0
ENDMDL
