MODEL 1
REMARK minimizedAffinity -2.94455862
REMARK minimizedRMSD -1
REMARK  0 active torsions:
REMARK  status: ('A' for Active; 'I' for Inactive)
ROOT
ATOM      1  C1  BNZ d   1       1.171  -1.725  -1.147  0.00  0.00     0.000 A 
ATOM      2  C2  BNZ d   1       1.413  -2.892  -1.821  0.00  0.00     0.000 A 
ATOM      3  C3  BNZ d   1       0.388  -3.600  -2.385  0.00  0.00     0.000 A 
ATOM      4  C4  BNZ d   1      -0.879  -3.161  -2.240  0.00  0.00     0.000 A 
ATOM      5  C5  BNZ d   1      -1.140  -1.991  -1.555  0.00  0.00     0.000 A 
ATOM      6  C6  BNZ d   1      -0.103  -1.261  -1.022  0.00  0.00     0.000 A 
ENDROOT
TORSDOF 0
ENDMDL
