MODEL 1
REMARK minimizedAffinity -4.88504505
REMARK minimizedRMSD -1
REMARK  0 active torsions:
REMARK  status: ('A' for Active; 'I' for Inactive)
ROOT
ATOM      1  C1  BNZ d   1      -0.455  -0.466   1.142  0.00  0.00     0.000 A 
ATOM      2  C2  BNZ d   1      -1.397   0.521   1.253  0.00  0.00     0.000 A 
ATOM      3  C3  BNZ d   1      -1.598   1.414   0.238  0.00  0.00     0.000 A 
ATOM      4  C4  BNZ d   1      -0.831   1.343  -0.869  0.00  0.00     0.000 A 
ATOM      5  C5  BNZ d   1       0.129   0.359  -0.992  0.00  0.00     0.000 A 
ATOM      6  C6  BNZ d   1       0.302  -0.562   0.015  0.00  0.00     0.000 A 
ENDROOT
TORSDOF 0
ENDMDL
