MODEL 1
REMARK minimizedAffinity -4.55125761
REMARK minimizedRMSD -1
REMARK  0 active torsions:
REMARK  status: ('A' for Active; 'I' for Inactive)
ROOT
ATOM      1  C1  BNZ d   1       0.436  -2.222  -2.128  0.00  0.00     0.000 A 
ATOM      2  C2  BNZ d   1      -0.088  -1.252  -2.940  0.00  0.00     0.000 A 
ATOM      3  C3  BNZ d   1       0.105   0.072  -2.662  0.00  0.00     0.000 A 
ATOM      4  C4  BNZ d   1       0.787   0.425  -1.553  0.00  0.00     0.000 A 
ATOM      5  C5  BNZ d   1       1.314  -0.542  -0.720  0.00  0.00     0.000 A 
ATOM      6  C6  BNZ d   1       1.151  -1.874  -1.023  0.00  0.00     0.000 A 
ENDROOT
TORSDOF 0
ENDMDL
