MODEL 1
REMARK minimizedAffinity -2.98798728
REMARK minimizedRMSD -1
REMARK  0 active torsions:
REMARK  status: ('A' for Active; 'I' for Inactive)
ROOT
ATOM      1  C1  BNZ d   1      -0.299  -0.508   0.699  0.00  0.00     0.000 A 
ATOM      2  C2  BNZ d   1      -0.313   0.841   0.465  0.00  0.00     0.000 A 
ATOM      3  C3  BNZ d   1      -0.907   1.699   1.348  0.00  0.00     0.000 A 
ATOM      4  C4  BNZ d   1      -1.522   1.203   2.442  0.00  0.00     0.000 A 
ATOM      5  C5  BNZ d   1      -1.525  -0.155   2.687  0.00  0.00     0.000 A 
ATOM      6  C6  BNZ d   1      -0.891  -1.012   1.816  0.00  0.00     0.000 A 
ENDROOT
TORSDOF 0
ENDMDL
