MODEL 1
REMARK minimizedAffinity -4.53573036
REMARK minimizedRMSD -1
REMARK  0 active torsions:
REMARK  status: ('A' for Active; 'I' for Inactive)
ROOT
ATOM      1  C1  BNZ d   1       1.007   1.168  -0.685  0.00  0.00     0.000 A 
ATOM      2  C2  BNZ d   1       0.693   0.067   0.068  0.00  0.00     0.000 A 
ATOM      3  C3  BNZ d   1      -0.122   0.176   1.160  0.00  0.00     0.000 A 
ATOM      4  C4  BNZ d   1      -0.590   1.388   1.520  0.00  0.00     0.000 A 
ATOM      5  C5  BNZ d   1      -0.275   2.508   0.777  0.00  0.00     0.000 A 
ATOM      6  C6  BNZ d   1       0.514   2.390  -0.344  0.00  0.00     0.000 A 
ENDROOT
TORSDOF 0
ENDMDL
