MODEL 1
REMARK minimizedAffinity -5.30063915
REMARK minimizedRMSD -1
REMARK  0 active torsions:
REMARK  status: ('A' for Active; 'I' for Inactive)
ROOT
ATOM      1  C1  BNZ d   1      -0.391   1.268  -0.220  0.00  0.00     0.000 A 
ATOM      2  C2  BNZ d   1       0.132   2.484  -0.570  0.00  0.00     0.000 A 
ATOM      3  C3  BNZ d   1      -0.147   3.603   0.163  0.00  0.00     0.000 A 
ATOM      4  C4  BNZ d   1      -0.980   3.513   1.220  0.00  0.00     0.000 A 
ATOM      5  C5  BNZ d   1      -1.522   2.295   1.580  0.00  0.00     0.000 A 
ATOM      6  C6  BNZ d   1      -1.208   1.164   0.863  0.00  0.00     0.000 A 
ENDROOT
TORSDOF 0
ENDMDL
