MODEL 1
REMARK minimizedAffinity -4.5018611
REMARK minimizedRMSD -1
REMARK  0 active torsions:
REMARK  status: ('A' for Active; 'I' for Inactive)
ROOT
ATOM      1  C1  BNZ d   1      -0.624   0.676   0.987  0.00  0.00     0.000 A 
ATOM      2  C2  BNZ d   1      -0.040   0.916  -0.228  0.00  0.00     0.000 A 
ATOM      3  C3  BNZ d   1       0.074   2.190  -0.711  0.00  0.00     0.000 A 
ATOM      4  C4  BNZ d   1      -0.433   3.217   0.002  0.00  0.00     0.000 A 
ATOM      5  C5  BNZ d   1      -1.034   2.990   1.224  0.00  0.00     0.000 A 
ATOM      6  C6  BNZ d   1      -1.111   1.711   1.725  0.00  0.00     0.000 A 
ENDROOT
TORSDOF 0
ENDMDL
