MODEL 1
REMARK minimizedAffinity -3.85782051
REMARK minimizedRMSD -1
REMARK  0 active torsions:
REMARK  status: ('A' for Active; 'I' for Inactive)
ROOT
ATOM      1  C1  BNZ d   1      -1.097   0.663   1.806  0.00  0.00     0.000 A 
ATOM      2  C2  BNZ d   1      -0.677  -0.467   1.156  0.00  0.00     0.000 A 
ATOM      3  C3  BNZ d   1       0.128  -0.383   0.055  0.00  0.00     0.000 A 
ATOM      4  C4  BNZ d   1       0.478   0.830  -0.420  0.00  0.00     0.000 A 
ATOM      5  C5  BNZ d   1       0.054   1.979   0.218  0.00  0.00     0.000 A 
ATOM      6  C6  BNZ d   1      -0.724   1.889   1.350  0.00  0.00     0.000 A 
ENDROOT
TORSDOF 0
ENDMDL
