MODEL 1
REMARK minimizedAffinity -2.88008785
REMARK minimizedRMSD -1
REMARK  0 active torsions:
REMARK  status: ('A' for Active; 'I' for Inactive)
ROOT
ATOM      1  C1  BNZ d   1       0.148  -1.143  -1.643  0.00  0.00     0.000 A 
ATOM      2  C2  BNZ d   1      -0.377  -2.061  -2.513  0.00  0.00     0.000 A 
ATOM      3  C3  BNZ d   1      -0.047  -3.384  -2.418  0.00  0.00     0.000 A 
ATOM      4  C4  BNZ d   1       0.837  -3.781  -1.481  0.00  0.00     0.000 A 
ATOM      5  C5  BNZ d   1       1.382  -2.866  -0.602  0.00  0.00     0.000 A 
ATOM      6  C6  BNZ d   1       1.018  -1.542  -0.675  0.00  0.00     0.000 A 
ENDROOT
TORSDOF 0
ENDMDL
