MODEL 1
REMARK minimizedAffinity 2.47618651
REMARK minimizedRMSD -1
REMARK  1 active torsions:
REMARK  status: ('A' for Active; 'I' for Inactive)
REMARK    1  A    between atoms: C1_2  and  C2_3 
ROOT
ATOM      1  C2  UNL d   1      -1.537  -3.619   0.106  0.00  0.00    -0.073 A 
ATOM      2  C3  UNL d   1      -0.505  -4.491   0.472  0.00  0.00    -0.002 A 
ATOM      3  C4  UNL d   1       0.812  -4.036   0.540  0.00  0.00     0.004 A 
ATOM      4  C5  UNL d   1       1.111  -2.705   0.249  0.00  0.00    -0.004 A 
ATOM      5  C6  UNL d   1       0.092  -1.815  -0.107  0.00  0.00    -0.075 A 
ATOM      6  C7  UNL d   1       0.397  -0.381  -0.425  0.00  0.00     0.076 C 
ATOM      7  C8  UNL d   1      -1.228  -2.281  -0.175  0.00  0.00     0.001 A 
ENDROOT
BRANCH   1   8
ATOM      8  C1  UNL d   1      -2.962  -4.104   0.038  0.00  0.00     0.053 C 
ATOM      9  C   UNL d   1      -3.596  -3.821  -1.315  0.00  0.00     0.018 C 
ENDBRANCH   1   8
TORSDOF 1
ENDMDL
