MODEL 1
REMARK minimizedAffinity 0.0293275006
REMARK minimizedRMSD -1
REMARK  1 active torsions:
REMARK  status: ('A' for Active; 'I' for Inactive)
REMARK    1  A    between atoms: C1_2  and  C2_3 
ROOT
ATOM      1  C2  UNL d   1       4.886  -3.525   4.814  0.00  0.00    -0.073 A 
ATOM      2  C3  UNL d   1       4.348  -3.012   6.000  0.00  0.00    -0.002 A 
ATOM      3  C4  UNL d   1       3.372  -2.016   5.958  0.00  0.00     0.004 A 
ATOM      4  C5  UNL d   1       2.920  -1.528   4.732  0.00  0.00    -0.004 A 
ATOM      5  C6  UNL d   1       3.436  -2.036   3.536  0.00  0.00    -0.075 A 
ATOM      6  C7  UNL d   1       2.961  -1.520   2.209  0.00  0.00     0.076 C 
ATOM      7  C8  UNL d   1       4.418  -3.035   3.586  0.00  0.00     0.001 A 
ENDROOT
BRANCH   1   8
ATOM      8  C1  UNL d   1       5.935  -4.606   4.854  0.00  0.00     0.053 C 
ATOM      9  C   UNL d   1       5.708  -5.579   6.000  0.00  0.00     0.018 C 
ENDBRANCH   1   8
TORSDOF 1
ENDMDL
