MODEL 1
REMARK minimizedAffinity 9.61092377
REMARK minimizedRMSD -1
REMARK  1 active torsions:
REMARK  status: ('A' for Active; 'I' for Inactive)
REMARK    1  A    between atoms: C1_2  and  C2_3 
ROOT
ATOM      1  C2  UNL d   1       0.698  -2.030  -1.718  0.00  0.00    -0.073 A 
ATOM      2  C3  UNL d   1       1.105  -3.293  -2.162  0.00  0.00    -0.002 A 
ATOM      3  C4  UNL d   1       0.975  -4.407  -1.332  0.00  0.00     0.004 A 
ATOM      4  C5  UNL d   1       0.432  -4.271  -0.054  0.00  0.00    -0.004 A 
ATOM      5  C6  UNL d   1       0.009  -3.019   0.403  0.00  0.00    -0.075 A 
ATOM      6  C7  UNL d   1      -0.575  -2.855   1.775  0.00  0.00     0.076 C 
ATOM      7  C8  UNL d   1       0.145  -1.905  -0.436  0.00  0.00     0.001 A 
ENDROOT
BRANCH   1   8
ATOM      8  C1  UNL d   1       0.831  -0.825  -2.614  0.00  0.00     0.053 C 
ATOM      9  C   UNL d   1       0.845   0.474  -1.823  0.00  0.00     0.018 C 
ENDBRANCH   1   8
TORSDOF 1
ENDMDL
