MODEL 1
REMARK minimizedAffinity 5.86842155
REMARK minimizedRMSD -1
REMARK  1 active torsions:
REMARK  status: ('A' for Active; 'I' for Inactive)
REMARK    1  A    between atoms: C1_2  and  C2_3 
ROOT
ATOM      1  C2  UNL d   1       0.551  -2.131  -0.829  0.00  0.00    -0.073 A 
ATOM      2  C3  UNL d   1       1.392  -2.922  -0.038  0.00  0.00    -0.002 A 
ATOM      3  C4  UNL d   1       0.858  -3.754   0.946  0.00  0.00     0.004 A 
ATOM      4  C5  UNL d   1      -0.522  -3.808   1.147  0.00  0.00    -0.004 A 
ATOM      5  C6  UNL d   1      -1.380  -3.034   0.359  0.00  0.00    -0.075 A 
ATOM      6  C7  UNL d   1      -2.866  -3.080   0.563  0.00  0.00     0.076 C 
ATOM      7  C8  UNL d   1      -0.835  -2.199  -0.626  0.00  0.00     0.001 A 
ENDROOT
BRANCH   1   8
ATOM      8  C1  UNL d   1       1.123  -1.236  -1.898  0.00  0.00     0.053 C 
ATOM      9  C   UNL d   1       0.610   0.191  -1.781  0.00  0.00     0.018 C 
ENDBRANCH   1   8
TORSDOF 1
ENDMDL
