MODEL 1
REMARK minimizedAffinity -5.53392172
REMARK minimizedRMSD -1
REMARK  1 active torsions:
REMARK  status: ('A' for Active; 'I' for Inactive)
REMARK    1  A    between atoms: C1_2  and  C2_3 
ROOT
ATOM      1  C2  UNL d   1      -0.001  -1.516   0.007  0.00  0.00    -0.073 A 
ATOM      2  C3  UNL d   1      -0.954  -0.902   0.827  0.00  0.00    -0.002 A 
ATOM      3  C4  UNL d   1      -1.198   0.468   0.721  0.00  0.00     0.004 A 
ATOM      4  C5  UNL d   1      -0.498   1.236  -0.209  0.00  0.00    -0.004 A 
ATOM      5  C6  UNL d   1       0.450   0.639  -1.046  0.00  0.00    -0.075 A 
ATOM      6  C7  UNL d   1       1.213   1.451  -2.051  0.00  0.00     0.076 C 
ATOM      7  C8  UNL d   1       0.691  -0.737  -0.932  0.00  0.00     0.001 A 
ENDROOT
BRANCH   1   8
ATOM      8  C1  UNL d   1       0.262  -2.996   0.114  0.00  0.00     0.053 C 
ATOM      9  C   UNL d   1       1.174  -3.494  -0.996  0.00  0.00     0.018 C 
ENDBRANCH   1   8
TORSDOF 1
ENDMDL
