MODEL 1
REMARK minimizedAffinity 12.1549616
REMARK minimizedRMSD -1
REMARK  1 active torsions:
REMARK  status: ('A' for Active; 'I' for Inactive)
REMARK    1  A    between atoms: C1_2  and  C2_3 
ROOT
ATOM      1  C2  UNL d   1       3.748  -2.708  -3.051  0.00  0.00    -0.073 A 
ATOM      2  C3  UNL d   1       2.469  -3.266  -3.158  0.00  0.00    -0.002 A 
ATOM      3  C4  UNL d   1       2.178  -4.168  -4.182  0.00  0.00     0.004 A 
ATOM      4  C5  UNL d   1       3.162  -4.527  -5.103  0.00  0.00    -0.004 A 
ATOM      5  C6  UNL d   1       4.450  -3.989  -5.005  0.00  0.00    -0.075 A 
ATOM      6  C7  UNL d   1       5.519  -4.362  -5.989  0.00  0.00     0.076 C 
ATOM      7  C8  UNL d   1       4.734  -3.081  -3.976  0.00  0.00     0.001 A 
ENDROOT
BRANCH   1   8
ATOM      8  C1  UNL d   1       4.069  -1.738  -1.943  0.00  0.00     0.053 C 
ATOM      9  C   UNL d   1       2.848  -0.941  -1.512  0.00  0.00     0.018 C 
ENDBRANCH   1   8
TORSDOF 1
ENDMDL
