MODEL 1
REMARK minimizedAffinity 4.49066067
REMARK minimizedRMSD -1
REMARK  1 active torsions:
REMARK  status: ('A' for Active; 'I' for Inactive)
REMARK    1  A    between atoms: C1_2  and  C2_3 
ROOT
ATOM      1  C2  UNL d   1      -0.800  -1.626  -0.714  0.00  0.00    -0.073 A 
ATOM      2  C3  UNL d   1      -1.595  -2.579  -0.067  0.00  0.00    -0.002 A 
ATOM      3  C4  UNL d   1      -2.005  -2.377   1.252  0.00  0.00     0.004 A 
ATOM      4  C5  UNL d   1      -1.630  -1.220   1.934  0.00  0.00    -0.004 A 
ATOM      5  C6  UNL d   1      -0.845  -0.250   1.301  0.00  0.00    -0.075 A 
ATOM      6  C7  UNL d   1      -0.431   0.999   2.022  0.00  0.00     0.076 C 
ATOM      7  C8  UNL d   1      -0.436  -0.462  -0.023  0.00  0.00     0.001 A 
ENDROOT
BRANCH   1   8
ATOM      8  C1  UNL d   1      -0.361  -1.836  -2.140  0.00  0.00     0.053 C 
ATOM      9  C   UNL d   1      -1.055  -3.028  -2.780  0.00  0.00     0.018 C 
ENDBRANCH   1   8
TORSDOF 1
ENDMDL
