MODEL 1
REMARK minimizedAffinity -0.54401803
REMARK minimizedRMSD -1
REMARK  1 active torsions:
REMARK  status: ('A' for Active; 'I' for Inactive)
REMARK    1  A    between atoms: C1_2  and  C2_3 
ROOT
ATOM      1  C2  UNL d   1      -0.959  -2.727  -0.093  0.00  0.00    -0.073 A 
ATOM      2  C3  UNL d   1       0.094  -3.152   0.724  0.00  0.00    -0.002 A 
ATOM      3  C4  UNL d   1       0.807  -2.231   1.493  0.00  0.00     0.004 A 
ATOM      4  C5  UNL d   1       0.470  -0.878   1.458  0.00  0.00    -0.004 A 
ATOM      5  C6  UNL d   1      -0.588  -0.435   0.657  0.00  0.00    -0.075 A 
ATOM      6  C7  UNL d   1      -0.962   1.018   0.607  0.00  0.00     0.076 C 
ATOM      7  C8  UNL d   1      -1.297  -1.366  -0.114  0.00  0.00     0.001 A 
ENDROOT
BRANCH   1   8
ATOM      8  C1  UNL d   1      -1.736  -3.719  -0.919  0.00  0.00     0.053 C 
ATOM      9  C   UNL d   1      -1.620  -3.434  -2.409  0.00  0.00     0.018 C 
ENDBRANCH   1   8
TORSDOF 1
ENDMDL
