MODEL 1
REMARK minimizedAffinity -2.36082864
REMARK minimizedRMSD -1
REMARK  1 active torsions:
REMARK  status: ('A' for Active; 'I' for Inactive)
REMARK    1  A    between atoms: C1_2  and  C2_3 
ROOT
ATOM      1  C2  UNL d   1       0.312  -0.772  -0.735  0.00  0.00    -0.073 A 
ATOM      2  C3  UNL d   1       0.155  -2.148  -0.532  0.00  0.00    -0.002 A 
ATOM      3  C4  UNL d   1      -0.737  -2.622   0.430  0.00  0.00     0.004 A 
ATOM      4  C5  UNL d   1      -1.486  -1.727   1.194  0.00  0.00    -0.004 A 
ATOM      5  C6  UNL d   1      -1.353  -0.349   0.997  0.00  0.00    -0.075 A 
ATOM      6  C7  UNL d   1      -2.150   0.627   1.812  0.00  0.00     0.076 C 
ATOM      7  C8  UNL d   1      -0.453   0.119   0.031  0.00  0.00     0.001 A 
ENDROOT
BRANCH   1   8
ATOM      8  C1  UNL d   1       1.269  -0.256  -1.778  0.00  0.00     0.053 C 
ATOM      9  C   UNL d   1       1.041  -0.907  -3.133  0.00  0.00     0.018 C 
ENDBRANCH   1   8
TORSDOF 1
ENDMDL
