MODEL 1
REMARK minimizedAffinity -4.03160524
REMARK minimizedRMSD -1
REMARK  0 active torsions:
REMARK  status: ('A' for Active; 'I' for Inactive)
ROOT
ATOM      1  C   UNL d   1      -2.205   1.792   1.437  0.00  0.00     0.078 C 
ATOM      2  C1  UNL d   1      -1.241   0.771   0.910  0.00  0.00    -0.077 A 
ATOM      3  C2  UNL d   1      -0.810   0.807  -0.422  0.00  0.00    -0.001 A 
ATOM      4  C3  UNL d   1       0.080  -0.156  -0.902  0.00  0.00     0.003 A 
ATOM      5  C4  UNL d   1       0.545  -1.162  -0.057  0.00  0.00    -0.005 A 
ATOM      6  C5  UNL d   1       0.120  -1.206   1.269  0.00  0.00     0.003 A 
ATOM      7  C6  UNL d   1      -0.770  -0.245   1.751  0.00  0.00    -0.001 A 
ENDROOT
TORSDOF 0
ENDMDL
