MODEL 1
REMARK minimizedAffinity -5.34023857
REMARK minimizedRMSD -1
REMARK  0 active torsions:
REMARK  status: ('A' for Active; 'I' for Inactive)
ROOT
ATOM      1  C   UNL d   1       0.960  -0.903  -0.581  0.00  0.00     0.078 C 
ATOM      2  C1  UNL d   1       0.000   0.000   0.135  0.00  0.00    -0.077 A 
ATOM      3  C2  UNL d   1      -0.655   1.037  -0.541  0.00  0.00    -0.001 A 
ATOM      4  C3  UNL d   1      -1.538   1.876   0.140  0.00  0.00     0.003 A 
ATOM      5  C4  UNL d   1      -1.774   1.688   1.500  0.00  0.00    -0.005 A 
ATOM      6  C5  UNL d   1      -1.125   0.660   2.181  0.00  0.00     0.003 A 
ATOM      7  C6  UNL d   1      -0.241  -0.180   1.502  0.00  0.00    -0.001 A 
ENDROOT
TORSDOF 0
ENDMDL
