MODEL 1
REMARK minimizedAffinity -3.66336894
REMARK minimizedRMSD -1
REMARK  0 active torsions:
REMARK  status: ('A' for Active; 'I' for Inactive)
ROOT
ATOM      1  C   UNL d   1      -0.722  -0.639   1.799  0.00  0.00     0.078 C 
ATOM      2  C1  UNL d   1      -0.880   0.764   1.292  0.00  0.00    -0.077 A 
ATOM      3  C2  UNL d   1      -1.218   1.810   2.159  0.00  0.00    -0.001 A 
ATOM      4  C3  UNL d   1      -1.371   3.109   1.671  0.00  0.00     0.003 A 
ATOM      5  C4  UNL d   1      -1.189   3.374   0.315  0.00  0.00    -0.005 A 
ATOM      6  C5  UNL d   1      -0.855   2.338  -0.556  0.00  0.00     0.003 A 
ATOM      7  C6  UNL d   1      -0.701   1.039  -0.070  0.00  0.00    -0.001 A 
ENDROOT
TORSDOF 0
ENDMDL
