MODEL 1
REMARK minimizedAffinity -2.07094502
REMARK minimizedRMSD -1
REMARK  0 active torsions:
REMARK  status: ('A' for Active; 'I' for Inactive)
ROOT
ATOM      1  C   UNL d   1       0.642  -0.660   1.096  0.00  0.00     0.078 C 
ATOM      2  C1  UNL d   1       0.854  -1.455  -0.157  0.00  0.00    -0.077 A 
ATOM      3  C2  UNL d   1       1.221  -0.829  -1.355  0.00  0.00    -0.001 A 
ATOM      4  C3  UNL d   1       1.406  -1.580  -2.517  0.00  0.00     0.003 A 
ATOM      5  C4  UNL d   1       1.225  -2.962  -2.493  0.00  0.00    -0.005 A 
ATOM      6  C5  UNL d   1       0.858  -3.593  -1.306  0.00  0.00     0.003 A 
ATOM      7  C6  UNL d   1       0.673  -2.844  -0.143  0.00  0.00    -0.001 A 
ENDROOT
TORSDOF 0
ENDMDL
