MODEL 1
REMARK minimizedAffinity -3.38677001
REMARK minimizedRMSD -1
REMARK  0 active torsions:
REMARK  status: ('A' for Active; 'I' for Inactive)
ROOT
ATOM      1  C   UNL d   1      -1.902   1.824   1.708  0.00  0.00     0.078 C 
ATOM      2  C1  UNL d   1      -0.900   1.074   0.882  0.00  0.00    -0.077 A 
ATOM      3  C2  UNL d   1      -0.335   1.647  -0.263  0.00  0.00    -0.001 A 
ATOM      4  C3  UNL d   1       0.589   0.933  -1.028  0.00  0.00     0.003 A 
ATOM      5  C4  UNL d   1       0.956  -0.359  -0.655  0.00  0.00    -0.005 A 
ATOM      6  C5  UNL d   1       0.397  -0.938   0.482  0.00  0.00     0.003 A 
ATOM      7  C6  UNL d   1      -0.527  -0.226   1.248  0.00  0.00    -0.001 A 
ENDROOT
TORSDOF 0
ENDMDL
