MODEL 1
REMARK minimizedAffinity -1.84280241
REMARK minimizedRMSD -1
REMARK  0 active torsions:
REMARK  status: ('A' for Active; 'I' for Inactive)
ROOT
ATOM      1  C   UNL d   1       0.325   2.234  -1.205  0.00  0.00     0.078 C 
ATOM      2  C1  UNL d   1      -0.133   1.219  -0.200  0.00  0.00    -0.077 A 
ATOM      3  C2  UNL d   1      -0.875   1.601   0.924  0.00  0.00    -0.001 A 
ATOM      4  C3  UNL d   1      -1.286   0.647   1.856  0.00  0.00     0.003 A 
ATOM      5  C4  UNL d   1      -0.960  -0.695   1.674  0.00  0.00    -0.005 A 
ATOM      6  C5  UNL d   1      -0.220  -1.085   0.559  0.00  0.00     0.003 A 
ATOM      7  C6  UNL d   1       0.192  -0.132  -0.374  0.00  0.00    -0.001 A 
ENDROOT
TORSDOF 0
ENDMDL
