MODEL 1
REMARK minimizedAffinity -5.79679489
REMARK minimizedRMSD -1
REMARK  0 active torsions:
REMARK  status: ('A' for Active; 'I' for Inactive)
ROOT
ATOM      1  C   UNL d   1       1.181  -0.664  -0.731  0.00  0.00     0.078 C 
ATOM      2  C1  UNL d   1       0.066  -0.029   0.045  0.00  0.00    -0.077 A 
ATOM      3  C2  UNL d   1       0.011  -0.128   1.441  0.00  0.00    -0.001 A 
ATOM      4  C3  UNL d   1      -1.038   0.460   2.149  0.00  0.00     0.003 A 
ATOM      5  C4  UNL d   1      -2.041   1.149   1.470  0.00  0.00    -0.005 A 
ATOM      6  C5  UNL d   1      -1.996   1.251   0.082  0.00  0.00     0.003 A 
ATOM      7  C6  UNL d   1      -0.947   0.664  -0.629  0.00  0.00    -0.001 A 
ENDROOT
TORSDOF 0
ENDMDL
