MODEL 1
REMARK minimizedAffinity -5.34612608
REMARK minimizedRMSD -1
REMARK  0 active torsions:
REMARK  status: ('A' for Active; 'I' for Inactive)
ROOT
ATOM      1  C   UNL d   1       0.223  -1.688   2.676  0.00  0.00     0.078 C 
ATOM      2  C1  UNL d   1      -0.094  -0.718   1.578  0.00  0.00    -0.077 A 
ATOM      3  C2  UNL d   1       0.520  -0.822   0.324  0.00  0.00    -0.001 A 
ATOM      4  C3  UNL d   1       0.223   0.094  -0.686  0.00  0.00     0.003 A 
ATOM      5  C4  UNL d   1      -0.689   1.122  -0.452  0.00  0.00    -0.005 A 
ATOM      6  C5  UNL d   1      -1.304   1.235   0.793  0.00  0.00     0.003 A 
ATOM      7  C6  UNL d   1      -1.008   0.320   1.804  0.00  0.00    -0.001 A 
ENDROOT
TORSDOF 0
ENDMDL
