MODEL 1
REMARK minimizedAffinity -5.32262611
REMARK minimizedRMSD -1
REMARK  0 active torsions:
REMARK  status: ('A' for Active; 'I' for Inactive)
ROOT
ATOM      1  C   UNL d   1       0.571  -0.685  -0.739  0.00  0.00     0.078 C 
ATOM      2  C1  UNL d   1      -0.221   0.343   0.013  0.00  0.00    -0.077 A 
ATOM      3  C2  UNL d   1      -0.475   1.604  -0.539  0.00  0.00    -0.001 A 
ATOM      4  C3  UNL d   1      -1.205   2.554   0.176  0.00  0.00     0.003 A 
ATOM      5  C4  UNL d   1      -1.687   2.254   1.448  0.00  0.00    -0.005 A 
ATOM      6  C5  UNL d   1      -1.438   1.002   2.008  0.00  0.00     0.003 A 
ATOM      7  C6  UNL d   1      -0.708   0.050   1.294  0.00  0.00    -0.001 A 
ENDROOT
TORSDOF 0
ENDMDL
