MODEL 1
REMARK minimizedAffinity -5.35096979
REMARK minimizedRMSD -1
REMARK  0 active torsions:
REMARK  status: ('A' for Active; 'I' for Inactive)
ROOT
ATOM      1  C   UNL d   1       0.518  -0.848  -0.678  0.00  0.00     0.078 C 
ATOM      2  C1  UNL d   1      -0.110   0.174   0.221  0.00  0.00    -0.077 A 
ATOM      3  C2  UNL d   1      -0.279  -0.074   1.588  0.00  0.00    -0.001 A 
ATOM      4  C3  UNL d   1      -0.874   0.883   2.411  0.00  0.00     0.003 A 
ATOM      5  C4  UNL d   1      -1.307   2.095   1.876  0.00  0.00    -0.005 A 
ATOM      6  C5  UNL d   1      -1.145   2.350   0.516  0.00  0.00     0.003 A 
ATOM      7  C6  UNL d   1      -0.550   1.394  -0.309  0.00  0.00    -0.001 A 
ENDROOT
TORSDOF 0
ENDMDL
