MODEL 1
REMARK minimizedAffinity -5.18876839
REMARK minimizedRMSD -1
REMARK  0 active torsions:
REMARK  status: ('A' for Active; 'I' for Inactive)
ROOT
ATOM      1  C   UNL d   1      -1.674   0.827   1.849  0.00  0.00     0.078 C 
ATOM      2  C1  UNL d   1      -1.154   1.714   0.758  0.00  0.00    -0.077 A 
ATOM      3  C2  UNL d   1      -0.261   1.226  -0.204  0.00  0.00    -0.001 A 
ATOM      4  C3  UNL d   1       0.223   2.066  -1.209  0.00  0.00     0.003 A 
ATOM      5  C4  UNL d   1      -0.180   3.399  -1.260  0.00  0.00    -0.005 A 
ATOM      6  C5  UNL d   1      -1.066   3.894  -0.306  0.00  0.00     0.003 A 
ATOM      7  C6  UNL d   1      -1.551   3.056   0.699  0.00  0.00    -0.001 A 
ENDROOT
TORSDOF 0
ENDMDL
