MODEL 1
REMARK minimizedAffinity -4.92511511
REMARK minimizedRMSD -1
REMARK  0 active torsions:
REMARK  status: ('A' for Active; 'I' for Inactive)
ROOT
ATOM      1  C   UNL d   1      -0.351   3.822  -1.007  0.00  0.00     0.078 C 
ATOM      2  C1  UNL d   1      -0.578   2.636  -0.118  0.00  0.00    -0.077 A 
ATOM      3  C2  UNL d   1      -1.229   2.772   1.114  0.00  0.00    -0.001 A 
ATOM      4  C3  UNL d   1      -1.425   1.660   1.935  0.00  0.00     0.003 A 
ATOM      5  C4  UNL d   1      -0.970   0.405   1.535  0.00  0.00    -0.005 A 
ATOM      6  C5  UNL d   1      -0.318   0.261   0.312  0.00  0.00     0.003 A 
ATOM      7  C6  UNL d   1      -0.122   1.371  -0.511  0.00  0.00    -0.001 A 
ENDROOT
TORSDOF 0
ENDMDL
