MODEL 1
REMARK minimizedAffinity -4.48897743
REMARK minimizedRMSD -1
REMARK  0 active torsions:
REMARK  status: ('A' for Active; 'I' for Inactive)
ROOT
ATOM      1  C   UNL d   1       1.262  -0.847  -1.095  0.00  0.00     0.078 C 
ATOM      2  C1  UNL d   1       0.250  -0.116  -0.263  0.00  0.00    -0.077 A 
ATOM      3  C2  UNL d   1      -0.031  -0.519   1.048  0.00  0.00    -0.001 A 
ATOM      4  C3  UNL d   1      -0.982   0.165   1.808  0.00  0.00     0.003 A 
ATOM      5  C4  UNL d   1      -1.660   1.255   1.264  0.00  0.00    -0.005 A 
ATOM      6  C5  UNL d   1      -1.388   1.661  -0.040  0.00  0.00     0.003 A 
ATOM      7  C6  UNL d   1      -0.437   0.979  -0.801  0.00  0.00    -0.001 A 
ENDROOT
TORSDOF 0
ENDMDL
