MODEL 1
REMARK minimizedAffinity -4.89524889
REMARK minimizedRMSD -1
REMARK  0 active torsions:
REMARK  status: ('A' for Active; 'I' for Inactive)
ROOT
ATOM      1  C   UNL d   1       1.008  -0.756  -0.701  0.00  0.00     0.078 C 
ATOM      2  C1  UNL d   1      -0.012   0.059   0.038  0.00  0.00    -0.077 A 
ATOM      3  C2  UNL d   1      -0.385  -0.268   1.348  0.00  0.00    -0.001 A 
ATOM      4  C3  UNL d   1      -1.342   0.494   2.020  0.00  0.00     0.003 A 
ATOM      5  C4  UNL d   1      -1.936   1.586   1.390  0.00  0.00    -0.005 A 
ATOM      6  C5  UNL d   1      -1.573   1.917   0.086  0.00  0.00     0.003 A 
ATOM      7  C6  UNL d   1      -0.615   1.157  -0.588  0.00  0.00    -0.001 A 
ENDROOT
TORSDOF 0
ENDMDL
