MODEL 1
REMARK minimizedAffinity -4.36982775
REMARK minimizedRMSD -1
REMARK  0 active torsions:
REMARK  status: ('A' for Active; 'I' for Inactive)
ROOT
ATOM      1  C   UNL d   1      -2.415   2.221   1.308  0.00  0.00     0.078 C 
ATOM      2  C1  UNL d   1      -1.422   1.162   0.933  0.00  0.00    -0.077 A 
ATOM      3  C2  UNL d   1      -0.876   1.110  -0.356  0.00  0.00    -0.001 A 
ATOM      4  C3  UNL d   1       0.040   0.113  -0.694  0.00  0.00     0.003 A 
ATOM      5  C4  UNL d   1       0.418  -0.840   0.250  0.00  0.00    -0.005 A 
ATOM      6  C5  UNL d   1      -0.122  -0.797   1.534  0.00  0.00     0.003 A 
ATOM      7  C6  UNL d   1      -1.038   0.199   1.874  0.00  0.00    -0.001 A 
ENDROOT
TORSDOF 0
ENDMDL
