MODEL 1
REMARK minimizedAffinity -4.3798213
REMARK minimizedRMSD -1
REMARK  0 active torsions:
REMARK  status: ('A' for Active; 'I' for Inactive)
ROOT
ATOM      1  C   UNL d   1       0.683  -1.147  -0.849  0.00  0.00     0.078 C 
ATOM      2  C1  UNL d   1       0.009  -0.149   0.045  0.00  0.00    -0.077 A 
ATOM      3  C2  UNL d   1       0.295  -0.099   1.415  0.00  0.00    -0.001 A 
ATOM      4  C3  UNL d   1      -0.346   0.829   2.236  0.00  0.00     0.003 A 
ATOM      5  C4  UNL d   1      -1.279   1.713   1.698  0.00  0.00    -0.005 A 
ATOM      6  C5  UNL d   1      -1.572   1.670   0.337  0.00  0.00     0.003 A 
ATOM      7  C6  UNL d   1      -0.932   0.742  -0.487  0.00  0.00    -0.001 A 
ENDROOT
TORSDOF 0
ENDMDL
