MODEL 1
REMARK minimizedAffinity 0.693561673
REMARK minimizedRMSD -1
REMARK  1 active torsions:
REMARK  status: ('A' for Active; 'I' for Inactive)
REMARK    1  A    between atoms: C1_2  and  C2_3 
ROOT
ATOM      1  C2  UNL d   1       0.477  -0.834   0.786  0.00  0.00    -0.076 A 
ATOM      2  C3  UNL d   1       1.276  -1.128  -0.333  0.00  0.00     0.004 A 
ATOM      3  C4  UNL d   1       1.772  -2.413  -0.543  0.00  0.00    -0.003 A 
ATOM      4  C5  UNL d   1       1.477  -3.426   0.363  0.00  0.00     0.000 A 
ATOM      5  C6  UNL d   1       0.672  -3.157   1.469  0.00  0.00     0.000 A 
ATOM      6  C7  UNL d   1       0.150  -1.870   1.687  0.00  0.00    -0.073 A 
ATOM      7  C8  UNL d   1      -0.708  -1.634   2.900  0.00  0.00     0.078 C 
ENDROOT
BRANCH   1   8
ATOM      8  C1  UNL d   1      -0.010   0.585   0.976  0.00  0.00     0.053 C 
ATOM      9  C   UNL d   1      -1.407   0.801   0.416  0.00  0.00     0.018 C 
ENDBRANCH   1   8
TORSDOF 1
ENDMDL
