MODEL 1
REMARK minimizedAffinity -2.77232933
REMARK minimizedRMSD -1
REMARK  1 active torsions:
REMARK  status: ('A' for Active; 'I' for Inactive)
REMARK    1  A    between atoms: C1_2  and  C2_3 
ROOT
ATOM      1  C2  UNL d   1       1.606  -1.862   0.064  0.00  0.00    -0.076 A 
ATOM      2  C3  UNL d   1       2.982  -1.750  -0.202  0.00  0.00     0.004 A 
ATOM      3  C4  UNL d   1       3.783  -2.884  -0.324  0.00  0.00    -0.003 A 
ATOM      4  C5  UNL d   1       3.222  -4.148  -0.184  0.00  0.00     0.000 A 
ATOM      5  C6  UNL d   1       1.855  -4.278   0.063  0.00  0.00     0.000 A 
ATOM      6  C7  UNL d   1       1.030  -3.145   0.173  0.00  0.00    -0.073 A 
ATOM      7  C8  UNL d   1      -0.435  -3.344   0.446  0.00  0.00     0.078 C 
ENDROOT
BRANCH   1   8
ATOM      8  C1  UNL d   1       0.793  -0.596   0.214  0.00  0.00     0.053 C 
ATOM      9  C   UNL d   1       0.431  -0.304   1.662  0.00  0.00     0.018 C 
ENDBRANCH   1   8
TORSDOF 1
ENDMDL
