MODEL 1
REMARK minimizedAffinity -3.94082618
REMARK minimizedRMSD -1
REMARK  1 active torsions:
REMARK  status: ('A' for Active; 'I' for Inactive)
REMARK    1  A    between atoms: C1_2  and  C2_3 
ROOT
ATOM      1  C2  UNL d   1      -0.087  -0.928   0.953  0.00  0.00    -0.076 A 
ATOM      2  C3  UNL d   1      -0.664  -2.193   0.745  0.00  0.00     0.004 A 
ATOM      3  C4  UNL d   1       0.126  -3.300   0.438  0.00  0.00    -0.003 A 
ATOM      4  C5  UNL d   1       1.505  -3.160   0.335  0.00  0.00     0.000 A 
ATOM      5  C6  UNL d   1       2.096  -1.917   0.556  0.00  0.00     0.000 A 
ATOM      6  C7  UNL d   1       1.316  -0.794   0.882  0.00  0.00    -0.073 A 
ATOM      7  C8  UNL d   1       2.006   0.524   1.104  0.00  0.00     0.078 C 
ENDROOT
BRANCH   1   8
ATOM      8  C1  UNL d   1      -0.995   0.242   1.256  0.00  0.00     0.053 C 
ATOM      9  C   UNL d   1      -2.328   0.147   0.530  0.00  0.00     0.018 C 
ENDBRANCH   1   8
TORSDOF 1
ENDMDL
