MODEL 1
REMARK minimizedAffinity -4.00965023
REMARK minimizedRMSD -1
REMARK  1 active torsions:
REMARK  status: ('A' for Active; 'I' for Inactive)
REMARK    1  A    between atoms: C1_2  and  C2_3 
ROOT
ATOM      1  C2  UNL d   1       2.224  -2.470   0.478  0.00  0.00    -0.076 A 
ATOM      2  C3  UNL d   1       1.198  -3.387   0.766  0.00  0.00     0.004 A 
ATOM      3  C4  UNL d   1      -0.080  -2.951   1.108  0.00  0.00    -0.003 A 
ATOM      4  C5  UNL d   1      -0.355  -1.589   1.167  0.00  0.00     0.000 A 
ATOM      5  C6  UNL d   1       0.646  -0.664   0.867  0.00  0.00     0.000 A 
ATOM      6  C7  UNL d   1       1.936  -1.088   0.505  0.00  0.00    -0.073 A 
ATOM      7  C8  UNL d   1       2.978  -0.048   0.197  0.00  0.00     0.078 C 
ENDROOT
BRANCH   1   8
ATOM      8  C1  UNL d   1       3.598  -3.002   0.139  0.00  0.00     0.053 C 
ATOM      9  C   UNL d   1       3.625  -4.519   0.034  0.00  0.00     0.018 C 
ENDBRANCH   1   8
TORSDOF 1
ENDMDL
