MODEL 1
REMARK minimizedAffinity 1.45683384
REMARK minimizedRMSD -1
REMARK  1 active torsions:
REMARK  status: ('A' for Active; 'I' for Inactive)
REMARK    1  A    between atoms: C1_2  and  C2_3 
ROOT
ATOM      1  C2  UNL d   1       2.315  -2.992   0.236  0.00  0.00    -0.076 A 
ATOM      2  C3  UNL d   1       1.209  -3.859   0.227  0.00  0.00     0.004 A 
ATOM      3  C4  UNL d   1      -0.076  -3.387   0.490  0.00  0.00    -0.003 A 
ATOM      4  C5  UNL d   1      -0.275  -2.038   0.765  0.00  0.00     0.000 A 
ATOM      5  C6  UNL d   1       0.808  -1.160   0.760  0.00  0.00     0.000 A 
ATOM      6  C7  UNL d   1       2.107  -1.618   0.481  0.00  0.00    -0.073 A 
ATOM      7  C8  UNL d   1       3.240  -0.628   0.496  0.00  0.00     0.078 C 
ENDROOT
BRANCH   1   8
ATOM      8  C1  UNL d   1       3.688  -3.567  -0.030  0.00  0.00     0.053 C 
ATOM      9  C   UNL d   1       3.703  -5.087   0.019  0.00  0.00     0.018 C 
ENDBRANCH   1   8
TORSDOF 1
ENDMDL
