MODEL 1
REMARK minimizedAffinity -1.23334312
REMARK minimizedRMSD -1
REMARK  1 active torsions:
REMARK  status: ('A' for Active; 'I' for Inactive)
REMARK    1  A    between atoms: C1_2  and  C2_3 
ROOT
ATOM      1  C2  UNL d   1       2.627  -1.676   0.409  0.00  0.00    -0.076 A 
ATOM      2  C3  UNL d   1       3.701  -2.535   0.120  0.00  0.00     0.004 A 
ATOM      3  C4  UNL d   1       3.495  -3.899  -0.082  0.00  0.00    -0.003 A 
ATOM      4  C5  UNL d   1       2.210  -4.425   0.001  0.00  0.00     0.000 A 
ATOM      5  C6  UNL d   1       1.131  -3.584   0.270  0.00  0.00     0.000 A 
ATOM      6  C7  UNL d   1       1.320  -2.205   0.460  0.00  0.00    -0.073 A 
ATOM      7  C8  UNL d   1       0.120  -1.346   0.753  0.00  0.00     0.078 C 
ENDROOT
BRANCH   1   8
ATOM      8  C1  UNL d   1       2.915  -0.210   0.646  0.00  0.00     0.053 C 
ATOM      9  C   UNL d   1       2.976   0.140   2.124  0.00  0.00     0.018 C 
ENDBRANCH   1   8
TORSDOF 1
ENDMDL
