MODEL 1
REMARK minimizedAffinity 3.52211094
REMARK minimizedRMSD -1
REMARK  1 active torsions:
REMARK  status: ('A' for Active; 'I' for Inactive)
REMARK    1  A    between atoms: C1_2  and  C2_3 
ROOT
ATOM      1  C2  UNL d   1       2.279  -3.382   0.204  0.00  0.00    -0.076 A 
ATOM      2  C3  UNL d   1       3.082  -2.333   0.686  0.00  0.00     0.004 A 
ATOM      3  C4  UNL d   1       2.567  -1.047   0.839  0.00  0.00    -0.003 A 
ATOM      4  C5  UNL d   1       1.240  -0.789   0.513  0.00  0.00     0.000 A 
ATOM      5  C6  UNL d   1       0.424  -1.820   0.050  0.00  0.00     0.000 A 
ATOM      6  C7  UNL d   1       0.923  -3.126  -0.095  0.00  0.00    -0.073 A 
ATOM      7  C8  UNL d   1       0.001  -4.199  -0.604  0.00  0.00     0.078 C 
ENDROOT
BRANCH   1   8
ATOM      8  C1  UNL d   1       2.900  -4.750   0.033  0.00  0.00     0.053 C 
ATOM      9  C   UNL d   1       4.417  -4.695  -0.052  0.00  0.00     0.018 C 
ENDBRANCH   1   8
TORSDOF 1
ENDMDL
