MODEL 1
REMARK minimizedAffinity 0.71622771
REMARK minimizedRMSD -1
REMARK  1 active torsions:
REMARK  status: ('A' for Active; 'I' for Inactive)
REMARK    1  A    between atoms: C1_2  and  C2_3 
ROOT
ATOM      1  C2  UNL d   1       0.863  -1.759   0.662  0.00  0.00    -0.076 A 
ATOM      2  C3  UNL d   1       0.268  -3.031   0.583  0.00  0.00     0.004 A 
ATOM      3  C4  UNL d   1       0.992  -4.135   0.137  0.00  0.00    -0.003 A 
ATOM      4  C5  UNL d   1       2.323  -3.987  -0.235  0.00  0.00     0.000 A 
ATOM      5  C6  UNL d   1       2.935  -2.736  -0.146  0.00  0.00     0.000 A 
ATOM      6  C7  UNL d   1       2.223  -1.616   0.316  0.00  0.00    -0.073 A 
ATOM      7  C8  UNL d   1       2.931  -0.290   0.386  0.00  0.00     0.078 C 
ENDROOT
BRANCH   1   8
ATOM      8  C1  UNL d   1       0.020  -0.593   1.127  0.00  0.00     0.053 C 
ATOM      9  C   UNL d   1      -1.290  -0.479   0.362  0.00  0.00     0.018 C 
ENDBRANCH   1   8
TORSDOF 1
ENDMDL
