MODEL 1
REMARK minimizedAffinity -0.726154566
REMARK minimizedRMSD -1
REMARK  1 active torsions:
REMARK  status: ('A' for Active; 'I' for Inactive)
REMARK    1  A    between atoms: C1_2  and  C2_3 
ROOT
ATOM      1  C2  UNL d   1       2.893  -3.949   0.056  0.00  0.00    -0.076 A 
ATOM      2  C3  UNL d   1       1.522  -4.257   0.027  0.00  0.00     0.004 A 
ATOM      3  C4  UNL d   1       0.564  -3.296   0.345  0.00  0.00    -0.003 A 
ATOM      4  C5  UNL d   1       0.961  -2.011   0.697  0.00  0.00     0.000 A 
ATOM      5  C6  UNL d   1       2.316  -1.683   0.713  0.00  0.00     0.000 A 
ATOM      6  C7  UNL d   1       3.294  -2.635   0.380  0.00  0.00    -0.073 A 
ATOM      7  C8  UNL d   1       4.742  -2.228   0.420  0.00  0.00     0.078 C 
ENDROOT
BRANCH   1   8
ATOM      8  C1  UNL d   1       3.888  -5.040  -0.272  0.00  0.00     0.053 C 
ATOM      9  C   UNL d   1       4.104  -5.999   0.887  0.00  0.00     0.018 C 
ENDBRANCH   1   8
TORSDOF 1
ENDMDL
