MODEL 1
REMARK minimizedAffinity 2.4337914
REMARK minimizedRMSD -1
REMARK  1 active torsions:
REMARK  status: ('A' for Active; 'I' for Inactive)
REMARK    1  A    between atoms: C1_2  and  C2_3 
ROOT
ATOM      1  C2  UNL d   1       1.713  -1.659   0.587  0.00  0.00    -0.076 A 
ATOM      2  C3  UNL d   1       2.741  -2.601   0.409  0.00  0.00     0.004 A 
ATOM      3  C4  UNL d   1       2.454  -3.918   0.055  0.00  0.00    -0.003 A 
ATOM      4  C5  UNL d   1       1.134  -4.314  -0.128  0.00  0.00     0.000 A 
ATOM      5  C6  UNL d   1       0.102  -3.389   0.027  0.00  0.00     0.000 A 
ATOM      6  C7  UNL d   1       0.376  -2.053   0.368  0.00  0.00    -0.073 A 
ATOM      7  C8  UNL d   1      -0.776  -1.099   0.529  0.00  0.00     0.078 C 
ENDROOT
BRANCH   1   8
ATOM      8  C1  UNL d   1       2.083  -0.252   0.999  0.00  0.00     0.053 C 
ATOM      9  C   UNL d   1       2.216  -0.101   2.506  0.00  0.00     0.018 C 
ENDBRANCH   1   8
TORSDOF 1
ENDMDL
