MODEL 1
REMARK minimizedAffinity -1.31010008
REMARK minimizedRMSD -1
REMARK  1 active torsions:
REMARK  status: ('A' for Active; 'I' for Inactive)
REMARK    1  A    between atoms: C1_2  and  C2_3 
ROOT
ATOM      1  C2  UNL d   1       2.302   4.400  -3.736  0.00  0.00    -0.076 A 
ATOM      2  C3  UNL d   1       1.230   4.939  -3.004  0.00  0.00     0.004 A 
ATOM      3  C4  UNL d   1       0.147   5.533  -3.650  0.00  0.00    -0.003 A 
ATOM      4  C5  UNL d   1       0.119   5.597  -5.039  0.00  0.00     0.000 A 
ATOM      5  C6  UNL d   1       1.166   5.052  -5.782  0.00  0.00     0.000 A 
ATOM      6  C7  UNL d   1       2.257   4.435  -5.147  0.00  0.00    -0.073 A 
ATOM      7  C8  UNL d   1       3.361   3.868  -5.997  0.00  0.00     0.078 C 
ENDROOT
BRANCH   1   8
ATOM      8  C1  UNL d   1       3.462   3.792  -2.980  0.00  0.00     0.053 C 
ATOM      9  C   UNL d   1       3.543   2.283  -3.152  0.00  0.00     0.018 C 
ENDBRANCH   1   8
TORSDOF 1
ENDMDL
