MODEL 1
REMARK minimizedAffinity -0.0662069991
REMARK minimizedRMSD -1
REMARK  1 active torsions:
REMARK  status: ('A' for Active; 'I' for Inactive)
REMARK    1  A    between atoms: C1_2  and  C2_3 
ROOT
ATOM      1  C2  UNL d   1       0.729  -1.655   1.097  0.00  0.00    -0.076 A 
ATOM      2  C3  UNL d   1      -0.025  -2.808   0.814  0.00  0.00     0.004 A 
ATOM      3  C4  UNL d   1       0.553  -3.905   0.178  0.00  0.00    -0.003 A 
ATOM      4  C5  UNL d   1       1.895  -3.867  -0.185  0.00  0.00     0.000 A 
ATOM      5  C6  UNL d   1       2.662  -2.739   0.104  0.00  0.00     0.000 A 
ATOM      6  C7  UNL d   1       2.099  -1.631   0.759  0.00  0.00    -0.073 A 
ATOM      7  C8  UNL d   1       2.971  -0.439   1.041  0.00  0.00     0.078 C 
ENDROOT
BRANCH   1   8
ATOM      8  C1  UNL d   1       0.041  -0.486   1.765  0.00  0.00     0.053 C 
ATOM      9  C   UNL d   1       0.381  -0.376   3.243  0.00  0.00     0.018 C 
ENDBRANCH   1   8
TORSDOF 1
ENDMDL
