MODEL 1
REMARK minimizedAffinity 3.34949088
REMARK minimizedRMSD -1
REMARK  1 active torsions:
REMARK  status: ('A' for Active; 'I' for Inactive)
REMARK    1  A    between atoms: C1_2  and  C2_3 
ROOT
ATOM      1  C2  UNL d   1       0.813  -1.801   0.628  0.00  0.00    -0.076 A 
ATOM      2  C3  UNL d   1      -0.570  -1.894   0.393  0.00  0.00     0.004 A 
ATOM      3  C4  UNL d   1      -1.421  -0.829   0.682  0.00  0.00    -0.003 A 
ATOM      4  C5  UNL d   1      -0.902   0.349   1.210  0.00  0.00     0.000 A 
ATOM      5  C6  UNL d   1       0.469   0.465   1.433  0.00  0.00     0.000 A 
ATOM      6  C7  UNL d   1       1.343  -0.594   1.132  0.00  0.00    -0.073 A 
ATOM      7  C8  UNL d   1       2.813  -0.415   1.399  0.00  0.00     0.078 C 
ENDROOT
BRANCH   1   8
ATOM      8  C1  UNL d   1       1.682  -2.999   0.321  0.00  0.00     0.053 C 
ATOM      9  C   UNL d   1       0.881  -4.184  -0.196  0.00  0.00     0.018 C 
ENDBRANCH   1   8
TORSDOF 1
ENDMDL
