MODEL 1
REMARK minimizedAffinity 0.311626524
REMARK minimizedRMSD -1
REMARK  1 active torsions:
REMARK  status: ('A' for Active; 'I' for Inactive)
REMARK    1  A    between atoms: C1_2  and  C2_3 
ROOT
ATOM      1  C2  UNL d   1       3.183  -3.889  -0.226  0.00  0.00    -0.076 A 
ATOM      2  C3  UNL d   1       1.859  -4.356  -0.297  0.00  0.00     0.004 A 
ATOM      3  C4  UNL d   1       0.785  -3.515  -0.009  0.00  0.00    -0.003 A 
ATOM      4  C5  UNL d   1       1.017  -2.193   0.353  0.00  0.00     0.000 A 
ATOM      5  C6  UNL d   1       2.323  -1.707   0.411  0.00  0.00     0.000 A 
ATOM      6  C7  UNL d   1       3.416  -2.538   0.108  0.00  0.00    -0.073 A 
ATOM      7  C8  UNL d   1       4.804  -1.963   0.192  0.00  0.00     0.078 C 
ENDROOT
BRANCH   1   8
ATOM      8  C1  UNL d   1       4.308  -4.854  -0.523  0.00  0.00     0.053 C 
ATOM      9  C   UNL d   1       4.381  -5.991   0.485  0.00  0.00     0.018 C 
ENDBRANCH   1   8
TORSDOF 1
ENDMDL
