MODEL 1
REMARK minimizedAffinity -1.37119675
REMARK minimizedRMSD -1
REMARK  1 active torsions:
REMARK  status: ('A' for Active; 'I' for Inactive)
REMARK    1  A    between atoms: C1_2  and  C2_3 
ROOT
ATOM      1  C2  UNL d   1       1.288  -2.601  -0.129  0.00  0.00    -0.076 A 
ATOM      2  C3  UNL d   1       0.032  -2.965   0.386  0.00  0.00     0.004 A 
ATOM      3  C4  UNL d   1      -0.759  -2.041   1.067  0.00  0.00    -0.003 A 
ATOM      4  C5  UNL d   1      -0.307  -0.738   1.242  0.00  0.00     0.000 A 
ATOM      5  C6  UNL d   1       0.928  -0.354   0.722  0.00  0.00     0.000 A 
ATOM      6  C7  UNL d   1       1.731  -1.269   0.019  0.00  0.00    -0.073 A 
ATOM      7  C8  UNL d   1       3.058  -0.803  -0.515  0.00  0.00     0.078 C 
ENDROOT
BRANCH   1   8
ATOM      8  C1  UNL d   1       2.114  -3.653  -0.835  0.00  0.00     0.053 C 
ATOM      9  C   UNL d   1       3.260  -4.166   0.023  0.00  0.00     0.018 C 
ENDBRANCH   1   8
TORSDOF 1
ENDMDL
