MODEL 1
REMARK minimizedAffinity 2.88009882
REMARK minimizedRMSD -1
REMARK  3 active torsions:
REMARK  status: ('A' for Active; 'I' for Inactive)
REMARK    1  A    between atoms: C3'_2  and  C2'_3 
REMARK    2  A    between atoms: C2'_3  and  C1'_4 
REMARK    3  A    between atoms: C1'_4  and  C1_5 
ROOT
ATOM      1  C1  N4B d   1      -0.934   2.425   0.977  0.00  0.00    -0.075 A 
ATOM      2  C2  N4B d   1      -2.142   2.006   0.377  0.00  0.00     0.002 A 
ATOM      3  C3  N4B d   1      -2.137   1.513  -0.904  0.00  0.00     0.002 A 
ATOM      4  C4  N4B d   1      -0.945   1.447  -1.609  0.00  0.00    -0.004 A 
ATOM      5  C5  N4B d   1       0.221   1.830  -1.014  0.00  0.00     0.002 A 
ATOM      6  C6  N4B d   1       0.232   2.323   0.275  0.00  0.00     0.002 A 
ENDROOT
BRANCH   1   7
ATOM      7  C1' N4B d   1      -0.902   3.051   2.345  0.00  0.00     0.057 C 
BRANCH   7   8
ATOM      8  C2' N4B d   1       0.461   3.701   2.566  0.00  0.00     0.009 C 
BRANCH   8   9
ATOM      9  C3' N4B d   1       0.786   3.853   4.042  0.00  0.00     0.004 C 
ATOM     10  C4' N4B d   1       0.772   2.546   4.777  0.00  0.00     0.003 C 
ENDBRANCH   8   9
ENDBRANCH   7   8
ENDBRANCH   1   7
TORSDOF 3
ENDMDL
