MODEL 1
REMARK minimizedAffinity -2.94588208
REMARK minimizedRMSD -1
REMARK  3 active torsions:
REMARK  status: ('A' for Active; 'I' for Inactive)
REMARK    1  A    between atoms: C3'_2  and  C2'_3 
REMARK    2  A    between atoms: C2'_3  and  C1'_4 
REMARK    3  A    between atoms: C1'_4  and  C1_5 
ROOT
ATOM      1  C1  N4B d   1      -0.241   1.672   0.053  0.00  0.00    -0.075 A 
ATOM      2  C2  N4B d   1      -1.232   2.433  -0.605  0.00  0.00     0.002 A 
ATOM      3  C3  N4B d   1      -2.113   3.191   0.126  0.00  0.00     0.002 A 
ATOM      4  C4  N4B d   1      -2.034   3.190   1.511  0.00  0.00    -0.004 A 
ATOM      5  C5  N4B d   1      -1.057   2.473   2.137  0.00  0.00     0.002 A 
ATOM      6  C6  N4B d   1      -0.163   1.709   1.415  0.00  0.00     0.002 A 
ENDROOT
BRANCH   1   7
ATOM      7  C1' N4B d   1       0.690   0.760  -0.699  0.00  0.00     0.057 C 
BRANCH   7   8
ATOM      8  C2' N4B d   1       0.835  -0.551   0.068  0.00  0.00     0.009 C 
BRANCH   8   9
ATOM      9  C3' N4B d   1      -0.246  -1.550  -0.306  0.00  0.00     0.004 C 
ATOM     10  C4' N4B d   1       0.300  -2.769  -0.989  0.00  0.00     0.003 C 
ENDBRANCH   8   9
ENDBRANCH   7   8
ENDBRANCH   1   7
TORSDOF 3
ENDMDL
