MODEL 1
REMARK minimizedAffinity -4.67553759
REMARK minimizedRMSD -1
REMARK  3 active torsions:
REMARK  status: ('A' for Active; 'I' for Inactive)
REMARK    1  A    between atoms: C3'_2  and  C2'_3 
REMARK    2  A    between atoms: C2'_3  and  C1'_4 
REMARK    3  A    between atoms: C1'_4  and  C1_5 
ROOT
ATOM      1  C1  N4B d   1      -0.027  -0.594   0.248  0.00  0.00    -0.075 A 
ATOM      2  C2  N4B d   1      -0.133  -0.787   1.643  0.00  0.00     0.002 A 
ATOM      3  C3  N4B d   1      -0.787   0.141   2.416  0.00  0.00     0.002 A 
ATOM      4  C4  N4B d   1      -1.323   1.274   1.822  0.00  0.00    -0.004 A 
ATOM      5  C5  N4B d   1      -1.238   1.440   0.471  0.00  0.00     0.002 A 
ATOM      6  C6  N4B d   1      -0.588   0.513  -0.319  0.00  0.00     0.002 A 
ENDROOT
BRANCH   1   7
ATOM      7  C1' N4B d   1       0.752  -1.538  -0.627  0.00  0.00     0.057 C 
BRANCH   7   8
ATOM      8  C2' N4B d   1      -0.140  -2.012  -1.770  0.00  0.00     0.009 C 
BRANCH   8   9
ATOM      9  C3' N4B d   1       0.576  -2.996  -2.679  0.00  0.00     0.004 C 
ATOM     10  C4' N4B d   1      -0.108  -4.329  -2.747  0.00  0.00     0.003 C 
ENDBRANCH   8   9
ENDBRANCH   7   8
ENDBRANCH   1   7
TORSDOF 3
ENDMDL
