MODEL 1
REMARK minimizedAffinity -6.25248766
REMARK minimizedRMSD -1
REMARK  3 active torsions:
REMARK  status: ('A' for Active; 'I' for Inactive)
REMARK    1  A    between atoms: C3'_2  and  C2'_3 
REMARK    2  A    between atoms: C2'_3  and  C1'_4 
REMARK    3  A    between atoms: C1'_4  and  C1_5 
ROOT
ATOM      1  C1  N4B d   1      -0.241  -0.068   0.595  0.00  0.00    -0.075 A 
ATOM      2  C2  N4B d   1       0.454  -0.620   1.693  0.00  0.00     0.002 A 
ATOM      3  C3  N4B d   1       0.238  -0.130   2.958  0.00  0.00     0.002 A 
ATOM      4  C4  N4B d   1      -0.649   0.919   3.145  0.00  0.00    -0.004 A 
ATOM      5  C5  N4B d   1      -1.335   1.429   2.082  0.00  0.00     0.002 A 
ATOM      6  C6  N4B d   1      -1.131   0.945   0.806  0.00  0.00     0.002 A 
ENDROOT
BRANCH   1   7
ATOM      7  C1' N4B d   1       0.026  -0.512  -0.818  0.00  0.00     0.057 C 
BRANCH   7   8
ATOM      8  C2' N4B d   1       1.273  -1.391  -0.839  0.00  0.00     0.009 C 
BRANCH   8   9
ATOM      9  C3' N4B d   1       1.163  -2.507  -1.865  0.00  0.00     0.004 C 
ATOM     10  C4' N4B d   1       0.056  -2.283  -2.850  0.00  0.00     0.003 C 
ENDBRANCH   8   9
ENDBRANCH   7   8
ENDBRANCH   1   7
TORSDOF 3
ENDMDL
