MODEL 1
REMARK minimizedAffinity -6.25191307
REMARK minimizedRMSD -1
REMARK  3 active torsions:
REMARK  status: ('A' for Active; 'I' for Inactive)
REMARK    1  A    between atoms: C3'_2  and  C2'_3 
REMARK    2  A    between atoms: C2'_3  and  C1'_4 
REMARK    3  A    between atoms: C1'_4  and  C1_5 
ROOT
ATOM      1  C1  N4B d   1      -0.345   0.045   0.779  0.00  0.00    -0.075 A 
ATOM      2  C2  N4B d   1      -0.791   0.958  -0.201  0.00  0.00     0.002 A 
ATOM      3  C3  N4B d   1      -1.499   2.075   0.172  0.00  0.00     0.002 A 
ATOM      4  C4  N4B d   1      -1.788   2.287   1.512  0.00  0.00    -0.004 A 
ATOM      5  C5  N4B d   1      -1.331   1.413   2.454  0.00  0.00     0.002 A 
ATOM      6  C6  N4B d   1      -0.616   0.289   2.094  0.00  0.00     0.002 A 
ENDROOT
BRANCH   1   7
ATOM      7  C1' N4B d   1       0.358  -1.234   0.412  0.00  0.00     0.057 C 
BRANCH   7   8
ATOM      8  C2' N4B d   1       0.804  -1.159  -1.045  0.00  0.00     0.009 C 
BRANCH   8   9
ATOM      9  C3' N4B d   1       1.358  -2.485  -1.539  0.00  0.00     0.004 C 
ATOM     10  C4' N4B d   1       0.533  -3.085  -2.638  0.00  0.00     0.003 C 
ENDBRANCH   8   9
ENDBRANCH   7   8
ENDBRANCH   1   7
TORSDOF 3
ENDMDL
