MODEL 1
REMARK minimizedAffinity 5.68416309
REMARK minimizedRMSD -1
REMARK  0 active torsions:
REMARK  status: ('A' for Active; 'I' for Inactive)
ROOT
ATOM      1  C   UNL d   1      -1.464  -3.081  -2.357  0.00  0.00     0.172 C 
ATOM      2  N   UNL d   1      -1.659  -4.064  -3.397  0.00  0.00    -0.070 N 
ATOM      3  C1  UNL d   1      -1.805  -5.412  -3.204  0.00  0.00    -0.004 A 
ATOM      4  C2  UNL d   1      -1.968  -6.000  -4.440  0.00  0.00    -0.047 A 
ATOM      5  C3  UNL d   1      -1.916  -4.970  -5.409  0.00  0.00    -0.047 A 
ATOM      6  C4  UNL d   1      -1.724  -3.782  -4.736  0.00  0.00    -0.004 A 
ENDROOT
TORSDOF 0
ENDMDL
