MODEL 1
REMARK minimizedAffinity 1.26650918
REMARK minimizedRMSD -1
REMARK  0 active torsions:
REMARK  status: ('A' for Active; 'I' for Inactive)
ROOT
ATOM      1  C   UNL d   1       1.788  -3.037   4.408  0.00  0.00     0.172 C 
ATOM      2  N   UNL d   1       1.405  -1.840   3.698  0.00  0.00    -0.070 N 
ATOM      3  C1  UNL d   1       1.888  -0.581   3.937  0.00  0.00    -0.004 A 
ATOM      4  C2  UNL d   1       1.278   0.280   3.051  0.00  0.00    -0.047 A 
ATOM      5  C3  UNL d   1       0.397  -0.487   2.252  0.00  0.00    -0.047 A 
ATOM      6  C4  UNL d   1       0.496  -1.797   2.674  0.00  0.00    -0.004 A 
ENDROOT
TORSDOF 0
ENDMDL
