MODEL 1
REMARK minimizedAffinity 5.3847332
REMARK minimizedRMSD -1
REMARK  0 active torsions:
REMARK  status: ('A' for Active; 'I' for Inactive)
ROOT
ATOM      1  C   UNL d   1       3.777   6.000   2.240  0.00  0.00     0.172 C 
ATOM      2  N   UNL d   1       4.303   4.657   2.160  0.00  0.00    -0.070 N 
ATOM      3  C1  UNL d   1       4.264   3.849   1.056  0.00  0.00    -0.004 A 
ATOM      4  C2  UNL d   1       4.867   2.654   1.385  0.00  0.00    -0.047 A 
ATOM      5  C3  UNL d   1       5.282   2.748   2.735  0.00  0.00    -0.047 A 
ATOM      6  C4  UNL d   1       4.920   3.998   3.190  0.00  0.00    -0.004 A 
ENDROOT
TORSDOF 0
ENDMDL
