MODEL 1
REMARK minimizedAffinity 6.1460247
REMARK minimizedRMSD -1
REMARK  0 active torsions:
REMARK  status: ('A' for Active; 'I' for Inactive)
ROOT
ATOM      1  C   UNL d   1       0.169  -0.611  -4.529  0.00  0.00     0.172 C 
ATOM      2  N   UNL d   1      -0.461  -1.855  -4.907  0.00  0.00    -0.070 N 
ATOM      3  C1  UNL d   1      -0.125  -2.625  -5.988  0.00  0.00    -0.004 A 
ATOM      4  C2  UNL d   1      -0.957  -3.723  -5.999  0.00  0.00    -0.047 A 
ATOM      5  C3  UNL d   1      -1.825  -3.608  -4.887  0.00  0.00    -0.047 A 
ATOM      6  C4  UNL d   1      -1.496  -2.443  -4.228  0.00  0.00    -0.004 A 
ENDROOT
TORSDOF 0
ENDMDL
