MODEL 1
REMARK minimizedAffinity 4.61205053
REMARK minimizedRMSD -1
REMARK  0 active torsions:
REMARK  status: ('A' for Active; 'I' for Inactive)
ROOT
ATOM      1  C   UNL d   1       4.664  -2.522   4.925  0.00  0.00     0.172 C 
ATOM      2  N   UNL d   1       4.927  -3.918   5.188  0.00  0.00    -0.070 N 
ATOM      3  C1  UNL d   1       4.153  -4.744   5.958  0.00  0.00    -0.004 A 
ATOM      4  C2  UNL d   1       4.740  -5.991   5.960  0.00  0.00    -0.047 A 
ATOM      5  C3  UNL d   1       5.907  -5.911   5.164  0.00  0.00    -0.047 A 
ATOM      6  C4  UNL d   1       5.999  -4.616   4.699  0.00  0.00    -0.004 A 
ENDROOT
TORSDOF 0
ENDMDL
