MODEL 1
REMARK minimizedAffinity 10.2830553
REMARK minimizedRMSD -1
REMARK  0 active torsions:
REMARK  status: ('A' for Active; 'I' for Inactive)
ROOT
ATOM      1  C   UNL d   1      -2.115  -1.474  -3.022  0.00  0.00     0.172 C 
ATOM      2  N   UNL d   1      -0.878  -1.184  -3.708  0.00  0.00    -0.070 N 
ATOM      3  C1  UNL d   1       0.267  -0.710  -3.125  0.00  0.00    -0.004 A 
ATOM      4  C2  UNL d   1       1.216  -0.566  -4.114  0.00  0.00    -0.047 A 
ATOM      5  C3  UNL d   1       0.621  -0.966  -5.334  0.00  0.00    -0.047 A 
ATOM      6  C4  UNL d   1      -0.675  -1.344  -5.054  0.00  0.00    -0.004 A 
ENDROOT
TORSDOF 0
ENDMDL
