MODEL 1
REMARK minimizedAffinity 4.54439878
REMARK minimizedRMSD -1
REMARK  1 active torsions:
REMARK  status: ('A' for Active; 'I' for Inactive)
REMARK    1  A    between atoms: C1_2  and  C2_3 
ROOT
ATOM      1  C2  UNL d   1      -4.537  -3.590   3.917  0.00  0.00    -0.076 A 
ATOM      2  C3  UNL d   1      -4.557  -4.855   3.304  0.00  0.00     0.004 A 
ATOM      3  C4  UNL d   1      -4.885  -5.999   4.029  0.00  0.00    -0.003 A 
ATOM      4  C5  UNL d   1      -5.200  -5.897   5.380  0.00  0.00     0.000 A 
ATOM      5  C6  UNL d   1      -5.203  -4.648   6.000  0.00  0.00     0.000 A 
ATOM      6  C7  UNL d   1      -4.890  -3.483   5.279  0.00  0.00    -0.073 A 
ATOM      7  C8  UNL d   1      -4.902  -2.163   6.000  0.00  0.00     0.078 C 
ENDROOT
BRANCH   1   8
ATOM      8  C1  UNL d   1      -4.147  -2.389   3.086  0.00  0.00     0.053 C 
ATOM      9  C   UNL d   1      -2.728  -1.920   3.371  0.00  0.00     0.018 C 
ENDBRANCH   1   8
TORSDOF 1
ENDMDL
