MODEL 1
REMARK minimizedAffinity 12.920887
REMARK minimizedRMSD -1
REMARK  1 active torsions:
REMARK  status: ('A' for Active; 'I' for Inactive)
REMARK    1  A    between atoms: C1_2  and  C2_3 
ROOT
ATOM      1  C2  UNL d   1       4.070   2.283   1.565  0.00  0.00    -0.076 A 
ATOM      2  C3  UNL d   1       3.085   2.166   0.569  0.00  0.00     0.004 A 
ATOM      3  C4  UNL d   1       2.343   0.995   0.427  0.00  0.00    -0.003 A 
ATOM      4  C5  UNL d   1       2.574  -0.079   1.280  0.00  0.00     0.000 A 
ATOM      5  C6  UNL d   1       3.534   0.025   2.285  0.00  0.00     0.000 A 
ATOM      6  C7  UNL d   1       4.280   1.205   2.452  0.00  0.00    -0.073 A 
ATOM      7  C8  UNL d   1       5.307   1.260   3.549  0.00  0.00     0.078 C 
ENDROOT
BRANCH   1   8
ATOM      8  C1  UNL d   1       4.862   3.568   1.654  0.00  0.00     0.053 C 
ATOM      9  C   UNL d   1       5.995   3.625   0.640  0.00  0.00     0.018 C 
ENDBRANCH   1   8
TORSDOF 1
ENDMDL
