MODEL 1
REMARK minimizedAffinity 12.1919651
REMARK minimizedRMSD -1
REMARK  1 active torsions:
REMARK  status: ('A' for Active; 'I' for Inactive)
REMARK    1  A    between atoms: C1_2  and  C2_3 
ROOT
ATOM      1  C2  UNL d   1       4.401   4.235  -3.656  0.00  0.00    -0.076 A 
ATOM      2  C3  UNL d   1       3.854   5.016  -2.624  0.00  0.00     0.004 A 
ATOM      3  C4  UNL d   1       2.554   4.798  -2.170  0.00  0.00    -0.003 A 
ATOM      4  C5  UNL d   1       1.780   3.794  -2.742  0.00  0.00     0.000 A 
ATOM      5  C6  UNL d   1       2.313   2.998  -3.755  0.00  0.00     0.000 A 
ATOM      6  C7  UNL d   1       3.628   3.194  -4.212  0.00  0.00    -0.073 A 
ATOM      7  C8  UNL d   1       4.149   2.310  -5.311  0.00  0.00     0.078 C 
ENDROOT
BRANCH   1   8
ATOM      8  C1  UNL d   1       5.807   4.536  -4.124  0.00  0.00     0.053 C 
ATOM      9  C   UNL d   1       6.000   6.000  -4.487  0.00  0.00     0.018 C 
ENDBRANCH   1   8
TORSDOF 1
ENDMDL
