MODEL 1
REMARK minimizedAffinity 14.4863911
REMARK minimizedRMSD -1
REMARK  1 active torsions:
REMARK  status: ('A' for Active; 'I' for Inactive)
REMARK    1  A    between atoms: C1_2  and  C2_3 
ROOT
ATOM      1  C2  UNL d   1      -0.302  -0.522   3.172  0.00  0.00    -0.076 A 
ATOM      2  C3  UNL d   1       0.860  -0.554   3.963  0.00  0.00     0.004 A 
ATOM      3  C4  UNL d   1       1.759  -1.615   3.876  0.00  0.00    -0.003 A 
ATOM      4  C5  UNL d   1       1.511  -2.662   2.995  0.00  0.00     0.000 A 
ATOM      5  C6  UNL d   1       0.373  -2.639   2.190  0.00  0.00     0.000 A 
ATOM      6  C7  UNL d   1      -0.535  -1.568   2.254  0.00  0.00    -0.073 A 
ATOM      7  C8  UNL d   1      -1.750  -1.597   1.367  0.00  0.00     0.078 C 
ENDROOT
BRANCH   1   8
ATOM      8  C1  UNL d   1      -1.254   0.642   3.330  0.00  0.00     0.053 C 
ATOM      9  C   UNL d   1      -1.567   0.945   4.787  0.00  0.00     0.018 C 
ENDBRANCH   1   8
TORSDOF 1
ENDMDL
