MODEL 1
REMARK minimizedAffinity 15.2475519
REMARK minimizedRMSD -1
REMARK  1 active torsions:
REMARK  status: ('A' for Active; 'I' for Inactive)
REMARK    1  A    between atoms: C1_2  and  C2_3 
ROOT
ATOM      1  C2  UNL d   1      -2.721  -0.353   1.732  0.00  0.00    -0.076 A 
ATOM      2  C3  UNL d   1      -2.276  -1.489   1.035  0.00  0.00     0.004 A 
ATOM      3  C4  UNL d   1      -1.000  -2.008   1.248  0.00  0.00    -0.003 A 
ATOM      4  C5  UNL d   1      -0.148  -1.399   2.164  0.00  0.00     0.000 A 
ATOM      5  C6  UNL d   1      -0.580  -0.281   2.877  0.00  0.00     0.000 A 
ATOM      6  C7  UNL d   1      -1.869   0.245   2.685  0.00  0.00    -0.073 A 
ATOM      7  C8  UNL d   1      -2.280   1.456   3.477  0.00  0.00     0.078 C 
ENDROOT
BRANCH   1   8
ATOM      8  C1  UNL d   1      -4.105   0.181   1.439  0.00  0.00     0.053 C 
ATOM      9  C   UNL d   1      -4.496   0.013  -0.021  0.00  0.00     0.018 C 
ENDBRANCH   1   8
TORSDOF 1
ENDMDL
