MODEL 1
REMARK minimizedAffinity 8.70695591
REMARK minimizedRMSD -1
REMARK  1 active torsions:
REMARK  status: ('A' for Active; 'I' for Inactive)
REMARK    1  A    between atoms: C1_2  and  C2_3 
ROOT
ATOM      1  C2  UNL d   1      -5.869  -0.011  -1.642  0.00  0.00    -0.076 A 
ATOM      2  C3  UNL d   1      -5.773  -1.149  -0.822  0.00  0.00     0.004 A 
ATOM      3  C4  UNL d   1      -5.625  -1.028   0.558  0.00  0.00    -0.003 A 
ATOM      4  C5  UNL d   1      -5.572   0.233   1.142  0.00  0.00     0.000 A 
ATOM      5  C6  UNL d   1      -5.684   1.372   0.346  0.00  0.00     0.000 A 
ATOM      6  C7  UNL d   1      -5.849   1.268  -1.045  0.00  0.00    -0.073 A 
ATOM      7  C8  UNL d   1      -5.958   2.530  -1.856  0.00  0.00     0.078 C 
ENDROOT
BRANCH   1   8
ATOM      8  C1  UNL d   1      -6.000  -0.203  -3.136  0.00  0.00     0.053 C 
ATOM      9  C   UNL d   1      -6.000  -1.670  -3.537  0.00  0.00     0.018 C 
ENDBRANCH   1   8
TORSDOF 1
ENDMDL
