MODEL 1
REMARK minimizedAffinity 20.2102814
REMARK minimizedRMSD -1
REMARK  1 active torsions:
REMARK  status: ('A' for Active; 'I' for Inactive)
REMARK    1  A    between atoms: C1_2  and  C2_3 
ROOT
ATOM      1  C2  UNL d   1      -5.692   1.534  -1.487  0.00  0.00    -0.076 A 
ATOM      2  C3  UNL d   1      -5.999   1.495  -2.859  0.00  0.00     0.004 A 
ATOM      3  C4  UNL d   1      -5.817   0.330  -3.602  0.00  0.00    -0.003 A 
ATOM      4  C5  UNL d   1      -5.325  -0.815  -2.986  0.00  0.00     0.000 A 
ATOM      5  C6  UNL d   1      -5.032  -0.800  -1.622  0.00  0.00     0.000 A 
ATOM      6  C7  UNL d   1      -5.225   0.362  -0.855  0.00  0.00    -0.073 A 
ATOM      7  C8  UNL d   1      -4.887   0.324   0.610  0.00  0.00     0.078 C 
ENDROOT
BRANCH   1   8
ATOM      8  C1  UNL d   1      -5.885   2.833  -0.739  0.00  0.00     0.053 C 
ATOM      9  C   UNL d   1      -4.762   3.826  -0.996  0.00  0.00     0.018 C 
ENDBRANCH   1   8
TORSDOF 1
ENDMDL
