MODEL 1
REMARK minimizedAffinity 15.2820396
REMARK minimizedRMSD -1
REMARK  1 active torsions:
REMARK  status: ('A' for Active; 'I' for Inactive)
REMARK    1  A    between atoms: C1_2  and  C2_3 
ROOT
ATOM      1  C2  UNL d   1      -0.413   4.132  -2.940  0.00  0.00    -0.076 A 
ATOM      2  C3  UNL d   1      -0.222   4.001  -4.326  0.00  0.00     0.004 A 
ATOM      3  C4  UNL d   1      -1.136   4.540  -5.230  0.00  0.00    -0.003 A 
ATOM      4  C5  UNL d   1      -2.255   5.221  -4.763  0.00  0.00     0.000 A 
ATOM      5  C6  UNL d   1      -2.451   5.375  -3.391  0.00  0.00     0.000 A 
ATOM      6  C7  UNL d   1      -1.531   4.852  -2.466  0.00  0.00    -0.073 A 
ATOM      7  C8  UNL d   1      -1.795   5.043  -0.998  0.00  0.00     0.078 C 
ENDROOT
BRANCH   1   8
ATOM      8  C1  UNL d   1       0.597   3.503  -2.007  0.00  0.00     0.053 C 
ATOM      9  C   UNL d   1       1.213   2.237  -2.583  0.00  0.00     0.018 C 
ENDBRANCH   1   8
TORSDOF 1
ENDMDL
