MODEL 1
REMARK minimizedAffinity 10.7675247
REMARK minimizedRMSD -1
REMARK  1 active torsions:
REMARK  status: ('A' for Active; 'I' for Inactive)
REMARK    1  A    between atoms: C1_2  and  C2_3 
ROOT
ATOM      1  C2  UNL d   1      -0.060   4.059  -3.133  0.00  0.00    -0.076 A 
ATOM      2  C3  UNL d   1      -0.161   2.679  -3.379  0.00  0.00     0.004 A 
ATOM      3  C4  UNL d   1       0.791   1.790  -2.885  0.00  0.00    -0.003 A 
ATOM      4  C5  UNL d   1       1.861   2.267  -2.135  0.00  0.00     0.000 A 
ATOM      5  C6  UNL d   1       1.967   3.631  -1.866  0.00  0.00     0.000 A 
ATOM      6  C7  UNL d   1       1.007   4.539  -2.344  0.00  0.00    -0.073 A 
ATOM      7  C8  UNL d   1       1.174   6.000  -2.029  0.00  0.00     0.078 C 
ENDROOT
BRANCH   1   8
ATOM      8  C1  UNL d   1      -1.109   4.978  -3.719  0.00  0.00     0.053 C 
ATOM      9  C   UNL d   1      -1.449   4.630  -5.160  0.00  0.00     0.018 C 
ENDBRANCH   1   8
TORSDOF 1
ENDMDL
