MODEL 1
REMARK minimizedAffinity 13.7402792
REMARK minimizedRMSD -1
REMARK  1 active torsions:
REMARK  status: ('A' for Active; 'I' for Inactive)
REMARK    1  A    between atoms: C1_2  and  C2_3 
ROOT
ATOM      1  C2  UNL d   1      -0.726   4.372  -2.131  0.00  0.00    -0.076 A 
ATOM      2  C3  UNL d   1      -1.081   4.284  -0.774  0.00  0.00     0.004 A 
ATOM      3  C4  UNL d   1      -2.411   4.395  -0.371  0.00  0.00    -0.003 A 
ATOM      4  C5  UNL d   1      -3.408   4.596  -1.320  0.00  0.00     0.000 A 
ATOM      5  C6  UNL d   1      -3.076   4.668  -2.672  0.00  0.00     0.000 A 
ATOM      6  C7  UNL d   1      -1.742   4.541  -3.097  0.00  0.00    -0.073 A 
ATOM      7  C8  UNL d   1      -1.440   4.633  -4.567  0.00  0.00     0.078 C 
ENDROOT
BRANCH   1   8
ATOM      8  C1  UNL d   1       0.735   4.271  -2.506  0.00  0.00     0.053 C 
ATOM      9  C   UNL d   1       1.298   2.875  -2.286  0.00  0.00     0.018 C 
ENDBRANCH   1   8
TORSDOF 1
ENDMDL
