MODEL 1
REMARK minimizedAffinity 16.0205345
REMARK minimizedRMSD -1
REMARK  1 active torsions:
REMARK  status: ('A' for Active; 'I' for Inactive)
REMARK    1  A    between atoms: C1_2  and  C2_3 
ROOT
ATOM      1  C2  UNL d   1      -1.136  -3.112   0.847  0.00  0.00    -0.076 A 
ATOM      2  C3  UNL d   1      -2.029  -2.089   1.208  0.00  0.00     0.004 A 
ATOM      3  C4  UNL d   1      -1.598  -0.988   1.947  0.00  0.00    -0.003 A 
ATOM      4  C5  UNL d   1      -0.267  -0.892   2.335  0.00  0.00     0.000 A 
ATOM      5  C6  UNL d   1       0.637  -1.889   1.970  0.00  0.00     0.000 A 
ATOM      6  C7  UNL d   1       0.223  -2.998   1.212  0.00  0.00    -0.073 A 
ATOM      7  C8  UNL d   1       1.239  -4.046   0.852  0.00  0.00     0.078 C 
ENDROOT
BRANCH   1   8
ATOM      8  C1  UNL d   1      -1.666  -4.295   0.069  0.00  0.00     0.053 C 
ATOM      9  C   UNL d   1      -1.724  -4.030  -1.427  0.00  0.00     0.018 C 
ENDBRANCH   1   8
TORSDOF 1
ENDMDL
