MODEL 1
REMARK minimizedAffinity 9.89171791
REMARK minimizedRMSD -1
REMARK  1 active torsions:
REMARK  status: ('A' for Active; 'I' for Inactive)
REMARK    1  A    between atoms: C1_2  and  C2_3 
ROOT
ATOM      1  C2  UNL d   1       4.943   4.228  -2.900  0.00  0.00    -0.076 A 
ATOM      2  C3  UNL d   1       5.999   4.524  -3.780  0.00  0.00     0.004 A 
ATOM      3  C4  UNL d   1       5.954   4.124  -5.114  0.00  0.00    -0.003 A 
ATOM      4  C5  UNL d   1       4.853   3.422  -5.591  0.00  0.00     0.000 A 
ATOM      5  C6  UNL d   1       3.789   3.135  -4.736  0.00  0.00     0.000 A 
ATOM      6  C7  UNL d   1       3.811   3.545  -3.392  0.00  0.00    -0.073 A 
ATOM      7  C8  UNL d   1       2.639   3.203  -2.514  0.00  0.00     0.078 C 
ENDROOT
BRANCH   1   8
ATOM      8  C1  UNL d   1       5.060   4.664  -1.456  0.00  0.00     0.053 C 
ATOM      9  C   UNL d   1       5.997   5.848  -1.279  0.00  0.00     0.018 C 
ENDBRANCH   1   8
TORSDOF 1
ENDMDL
