MODEL 1
REMARK minimizedAffinity 10.3410044
REMARK minimizedRMSD -1
REMARK  1 active torsions:
REMARK  status: ('A' for Active; 'I' for Inactive)
REMARK    1  A    between atoms: C1_2  and  C2_3 
ROOT
ATOM      1  C2  UNL d   1       2.377   3.441  -2.934  0.00  0.00    -0.076 A 
ATOM      2  C3  UNL d   1       1.019   3.125  -3.110  0.00  0.00     0.004 A 
ATOM      3  C4  UNL d   1       0.020   4.028  -2.751  0.00  0.00    -0.003 A 
ATOM      4  C5  UNL d   1       0.363   5.262  -2.209  0.00  0.00     0.000 A 
ATOM      5  C6  UNL d   1       1.705   5.599  -2.043  0.00  0.00     0.000 A 
ATOM      6  C7  UNL d   1       2.725   4.706  -2.416  0.00  0.00    -0.073 A 
ATOM      7  C8  UNL d   1       4.157   5.119  -2.209  0.00  0.00     0.078 C 
ENDROOT
BRANCH   1   8
ATOM      8  C1  UNL d   1       3.416   2.411  -3.316  0.00  0.00     0.053 C 
ATOM      9  C   UNL d   1       4.071   2.714  -4.655  0.00  0.00     0.018 C 
ENDBRANCH   1   8
TORSDOF 1
ENDMDL
