MODEL 1
REMARK minimizedAffinity 12.3037939
REMARK minimizedRMSD -1
REMARK  1 active torsions:
REMARK  status: ('A' for Active; 'I' for Inactive)
REMARK    1  A    between atoms: C1_2  and  C2_3 
ROOT
ATOM      1  C2  UNL d   1       2.989   4.259  -2.159  0.00  0.00    -0.076 A 
ATOM      2  C3  UNL d   1       3.374   2.944  -2.473  0.00  0.00     0.004 A 
ATOM      3  C4  UNL d   1       2.422   1.960  -2.731  0.00  0.00    -0.003 A 
ATOM      4  C5  UNL d   1       1.068   2.275  -2.680  0.00  0.00     0.000 A 
ATOM      5  C6  UNL d   1       0.669   3.578  -2.387  0.00  0.00     0.000 A 
ATOM      6  C7  UNL d   1       1.616   4.587  -2.141  0.00  0.00    -0.073 A 
ATOM      7  C8  UNL d   1       1.129   5.974  -1.824  0.00  0.00     0.078 C 
ENDROOT
BRANCH   1   8
ATOM      8  C1  UNL d   1       4.066   5.278  -1.862  0.00  0.00     0.053 C 
ATOM      9  C   UNL d   1       5.411   4.634  -1.564  0.00  0.00     0.018 C 
ENDBRANCH   1   8
TORSDOF 1
ENDMDL
