MODEL 1
REMARK minimizedAffinity 12.8186998
REMARK minimizedRMSD -1
REMARK  1 active torsions:
REMARK  status: ('A' for Active; 'I' for Inactive)
REMARK    1  A    between atoms: C1_2  and  C2_3 
ROOT
ATOM      1  C2  UNL d   1      -5.599   1.454  -0.929  0.00  0.00    -0.076 A 
ATOM      2  C3  UNL d   1      -5.881   1.081  -2.255  0.00  0.00     0.004 A 
ATOM      3  C4  UNL d   1      -6.000  -0.261  -2.613  0.00  0.00    -0.003 A 
ATOM      4  C5  UNL d   1      -5.839  -1.252  -1.651  0.00  0.00     0.000 A 
ATOM      5  C6  UNL d   1      -5.576  -0.900  -0.327  0.00  0.00     0.000 A 
ATOM      6  C7  UNL d   1      -5.470   0.449   0.054  0.00  0.00    -0.073 A 
ATOM      7  C8  UNL d   1      -5.179   0.772   1.494  0.00  0.00     0.078 C 
ENDROOT
BRANCH   1   8
ATOM      8  C1  UNL d   1      -5.454   2.923  -0.605  0.00  0.00     0.053 C 
ATOM      9  C   UNL d   1      -4.414   3.612  -1.475  0.00  0.00     0.018 C 
ENDBRANCH   1   8
TORSDOF 1
ENDMDL
