MODEL 1
REMARK minimizedAffinity -6.36102724
REMARK minimizedRMSD -1
REMARK  1 active torsions:
REMARK  status: ('A' for Active; 'I' for Inactive)
REMARK    1  A    between atoms: C1_2  and  C2_3 
ROOT
ATOM      1  C2  UNL d   1      -1.645  -1.369   0.128  0.00  0.00    -0.077 A 
ATOM      2  C3  UNL d   1      -2.366  -0.746  -0.900  0.00  0.00     0.002 A 
ATOM      3  C4  UNL d   1      -1.730   0.143  -1.770  0.00  0.00     0.002 A 
ATOM      4  C5  UNL d   1      -0.372   0.413  -1.622  0.00  0.00    -0.004 A 
ATOM      5  C6  UNL d   1       0.353  -0.200  -0.601  0.00  0.00     0.002 A 
ATOM      6  C7  UNL d   1      -0.280  -1.088   0.270  0.00  0.00     0.002 A 
ENDROOT
BRANCH   1   7
ATOM      7  C1  UNL d   1      -2.317  -2.365   1.036  0.00  0.00     0.055 C 
ATOM      8  C   UNL d   1      -1.333  -3.414   1.532  0.00  0.00     0.019 C 
ENDBRANCH   1   7
TORSDOF 1
ENDMDL
