MODEL 1
REMARK minimizedAffinity -5.73217869
REMARK minimizedRMSD -1
REMARK  1 active torsions:
REMARK  status: ('A' for Active; 'I' for Inactive)
REMARK    1  A    between atoms: C1_2  and  C2_3 
ROOT
ATOM      1  C2  UNL d   1      -0.094  -0.129   0.005  0.00  0.00    -0.077 A 
ATOM      2  C3  UNL d   1      -0.853   0.126  -1.147  0.00  0.00     0.002 A 
ATOM      3  C4  UNL d   1      -2.230  -0.100  -1.149  0.00  0.00     0.002 A 
ATOM      4  C5  UNL d   1      -2.862  -0.578  -0.003  0.00  0.00    -0.004 A 
ATOM      5  C6  UNL d   1      -2.116  -0.836   1.147  0.00  0.00     0.002 A 
ATOM      6  C7  UNL d   1      -0.739  -0.612   1.151  0.00  0.00     0.002 A 
ENDROOT
BRANCH   1   7
ATOM      7  C1  UNL d   1       1.384   0.160   0.025  0.00  0.00     0.055 C 
ATOM      8  C   UNL d   1       1.684   1.456   0.763  0.00  0.00     0.019 C 
ENDBRANCH   1   7
TORSDOF 1
ENDMDL
