MODEL 1
REMARK minimizedAffinity -6.14307737
REMARK minimizedRMSD -1
REMARK  1 active torsions:
REMARK  status: ('A' for Active; 'I' for Inactive)
REMARK    1  A    between atoms: C1_2  and  C2_3 
ROOT
ATOM      1  C2  UNL d   1       0.040  -0.338   0.158  0.00  0.00    -0.077 A 
ATOM      2  C3  UNL d   1      -0.800  -0.719   1.214  0.00  0.00     0.002 A 
ATOM      3  C4  UNL d   1      -2.183  -0.777   1.032  0.00  0.00     0.002 A 
ATOM      4  C5  UNL d   1      -2.738  -0.460  -0.206  0.00  0.00    -0.004 A 
ATOM      5  C6  UNL d   1      -1.911  -0.078  -1.263  0.00  0.00     0.002 A 
ATOM      6  C7  UNL d   1      -0.529  -0.019  -1.082  0.00  0.00     0.002 A 
ENDROOT
BRANCH   1   7
ATOM      7  C1  UNL d   1       1.535  -0.323   0.339  0.00  0.00     0.055 C 
ATOM      8  C   UNL d   1       2.102   1.075   0.139  0.00  0.00     0.019 C 
ENDBRANCH   1   7
TORSDOF 1
ENDMDL
