MODEL 1
REMARK minimizedAffinity -4.807199
REMARK minimizedRMSD -1
REMARK  1 active torsions:
REMARK  status: ('A' for Active; 'I' for Inactive)
REMARK    1  A    between atoms: C1_2  and  C2_3 
ROOT
ATOM      1  C2  UNL d   1       0.880   0.047  -0.082  0.00  0.00    -0.077 A 
ATOM      2  C3  UNL d   1       0.333   0.094  -1.373  0.00  0.00     0.002 A 
ATOM      3  C4  UNL d   1      -0.984  -0.313  -1.597  0.00  0.00     0.002 A 
ATOM      4  C5  UNL d   1      -1.765  -0.766  -0.536  0.00  0.00    -0.004 A 
ATOM      5  C6  UNL d   1      -1.230  -0.819   0.750  0.00  0.00     0.002 A 
ATOM      6  C7  UNL d   1       0.086  -0.413   0.976  0.00  0.00     0.002 A 
ENDROOT
BRANCH   1   7
ATOM      7  C1  UNL d   1       2.283   0.532   0.170  0.00  0.00     0.055 C 
ATOM      8  C   UNL d   1       2.286   1.826   0.970  0.00  0.00     0.019 C 
ENDBRANCH   1   7
TORSDOF 1
ENDMDL
