MODEL 1
REMARK minimizedAffinity -4.46921015
REMARK minimizedRMSD -1
REMARK  1 active torsions:
REMARK  status: ('A' for Active; 'I' for Inactive)
REMARK    1  A    between atoms: C1_2  and  C2_3 
ROOT
ATOM      1  C2  UNL d   1      -0.207   0.146  -0.062  0.00  0.00    -0.077 A 
ATOM      2  C3  UNL d   1      -1.004  -0.281   1.009  0.00  0.00     0.002 A 
ATOM      3  C4  UNL d   1      -2.239  -0.888   0.772  0.00  0.00     0.002 A 
ATOM      4  C5  UNL d   1      -2.685  -1.077  -0.534  0.00  0.00    -0.004 A 
ATOM      5  C6  UNL d   1      -1.900  -0.654  -1.606  0.00  0.00     0.002 A 
ATOM      6  C7  UNL d   1      -0.666  -0.047  -1.371  0.00  0.00     0.002 A 
ENDROOT
BRANCH   1   7
ATOM      7  C1  UNL d   1       1.148   0.756   0.190  0.00  0.00     0.055 C 
ATOM      8  C   UNL d   1       1.077   1.840   1.255  0.00  0.00     0.019 C 
ENDBRANCH   1   7
TORSDOF 1
ENDMDL
