MODEL 1
REMARK minimizedAffinity -4.20956516
REMARK minimizedRMSD -1
REMARK  1 active torsions:
REMARK  status: ('A' for Active; 'I' for Inactive)
REMARK    1  A    between atoms: C1_2  and  C2_3 
ROOT
ATOM      1  C2  UNL d   1      -0.285   0.226   0.211  0.00  0.00    -0.077 A 
ATOM      2  C3  UNL d   1      -0.693   0.166  -1.129  0.00  0.00     0.002 A 
ATOM      3  C4  UNL d   1      -2.040  -0.019  -1.449  0.00  0.00     0.002 A 
ATOM      4  C5  UNL d   1      -2.988  -0.141  -0.436  0.00  0.00    -0.004 A 
ATOM      5  C6  UNL d   1      -2.592  -0.084   0.900  0.00  0.00     0.002 A 
ATOM      6  C7  UNL d   1      -1.246   0.100   1.222  0.00  0.00     0.002 A 
ENDROOT
BRANCH   1   7
ATOM      7  C1  UNL d   1       1.160   0.475   0.558  0.00  0.00     0.055 C 
ATOM      8  C   UNL d   1       1.331   1.791   1.303  0.00  0.00     0.019 C 
ENDBRANCH   1   7
TORSDOF 1
ENDMDL
