MODEL 1
REMARK minimizedAffinity -4.7959075
REMARK minimizedRMSD -1
REMARK  1 active torsions:
REMARK  status: ('A' for Active; 'I' for Inactive)
REMARK    1  A    between atoms: C1_2  and  C2_3 
ROOT
ATOM      1  C2  UNL d   1      -0.426  -0.157  -0.020  0.00  0.00    -0.077 A 
ATOM      2  C3  UNL d   1      -0.747  -0.931   1.104  0.00  0.00     0.002 A 
ATOM      3  C4  UNL d   1      -1.888  -1.735   1.105  0.00  0.00     0.002 A 
ATOM      4  C5  UNL d   1      -2.716  -1.775  -0.015  0.00  0.00    -0.004 A 
ATOM      5  C6  UNL d   1      -2.407  -1.007  -1.137  0.00  0.00     0.002 A 
ATOM      6  C7  UNL d   1      -1.267  -0.202  -1.140  0.00  0.00     0.002 A 
ENDROOT
BRANCH   1   7
ATOM      7  C1  UNL d   1       0.831   0.673  -0.042  0.00  0.00     0.055 C 
ATOM      8  C   UNL d   1       1.921   0.049   0.817  0.00  0.00     0.019 C 
ENDBRANCH   1   7
TORSDOF 1
ENDMDL
