MODEL 1
REMARK minimizedAffinity -5.72871447
REMARK minimizedRMSD -1
REMARK  1 active torsions:
REMARK  status: ('A' for Active; 'I' for Inactive)
REMARK    1  A    between atoms: C1_2  and  C2_3 
ROOT
ATOM      1  C2  UNL d   1      -0.205  -0.170  -0.141  0.00  0.00    -0.077 A 
ATOM      2  C3  UNL d   1      -0.882   0.232  -1.301  0.00  0.00     0.002 A 
ATOM      3  C4  UNL d   1      -2.267   0.082  -1.398  0.00  0.00     0.002 A 
ATOM      4  C5  UNL d   1      -2.986  -0.465  -0.338  0.00  0.00    -0.004 A 
ATOM      5  C6  UNL d   1      -2.322  -0.870   0.819  0.00  0.00     0.002 A 
ATOM      6  C7  UNL d   1      -0.938  -0.723   0.917  0.00  0.00     0.002 A 
ENDROOT
BRANCH   1   7
ATOM      7  C1  UNL d   1       1.282   0.035  -0.015  0.00  0.00     0.055 C 
ATOM      8  C   UNL d   1       1.601   1.321   0.735  0.00  0.00     0.019 C 
ENDBRANCH   1   7
TORSDOF 1
ENDMDL
