MODEL 1
REMARK minimizedAffinity -5.63669443
REMARK minimizedRMSD -1
REMARK  1 active torsions:
REMARK  status: ('A' for Active; 'I' for Inactive)
REMARK    1  A    between atoms: C1_2  and  C2_3 
ROOT
ATOM      1  C2  UNL d   1      -1.192  -0.458   0.558  0.00  0.00    -0.077 A 
ATOM      2  C3  UNL d   1      -0.758  -1.411   1.490  0.00  0.00     0.002 A 
ATOM      3  C4  UNL d   1      -1.590  -2.470   1.856  0.00  0.00     0.002 A 
ATOM      4  C5  UNL d   1      -2.858  -2.590   1.292  0.00  0.00    -0.004 A 
ATOM      5  C6  UNL d   1      -3.300  -1.646   0.365  0.00  0.00     0.002 A 
ATOM      6  C7  UNL d   1      -2.470  -0.585  -0.001  0.00  0.00     0.002 A 
ENDROOT
BRANCH   1   7
ATOM      7  C1  UNL d   1      -0.278   0.658   0.125  0.00  0.00     0.055 C 
ATOM      8  C   UNL d   1       1.182   0.304   0.368  0.00  0.00     0.019 C 
ENDBRANCH   1   7
TORSDOF 1
ENDMDL
