MODEL 1
REMARK minimizedAffinity -3.83593464
REMARK minimizedRMSD -1
REMARK  1 active torsions:
REMARK  status: ('A' for Active; 'I' for Inactive)
REMARK    1  A    between atoms: C1_2  and  C2_3 
ROOT
ATOM      1  C2  UNL d   1      -0.833  -0.872  -0.308  0.00  0.00    -0.077 A 
ATOM      2  C3  UNL d   1      -0.483  -1.727   0.747  0.00  0.00     0.002 A 
ATOM      3  C4  UNL d   1      -1.289  -2.822   1.065  0.00  0.00     0.002 A 
ATOM      4  C5  UNL d   1      -2.446  -3.074   0.332  0.00  0.00    -0.004 A 
ATOM      5  C6  UNL d   1      -2.804  -2.229  -0.718  0.00  0.00     0.002 A 
ATOM      6  C7  UNL d   1      -2.000  -1.133  -1.037  0.00  0.00     0.002 A 
ENDROOT
BRANCH   1   7
ATOM      7  C1  UNL d   1       0.061   0.280  -0.685  0.00  0.00     0.055 C 
ATOM      8  C   UNL d   1       1.513  -0.007  -0.332  0.00  0.00     0.019 C 
ENDBRANCH   1   7
TORSDOF 1
ENDMDL
