MODEL 1
REMARK minimizedAffinity -5.14682817
REMARK minimizedRMSD -1
REMARK  1 active torsions:
REMARK  status: ('A' for Active; 'I' for Inactive)
REMARK    1  A    between atoms: C1_2  and  C2_3 
ROOT
ATOM      1  C2  UNL d   1       3.910   3.615  -2.132  0.00  0.00    -0.077 A 
ATOM      2  C3  UNL d   1       3.537   4.578  -1.184  0.00  0.00     0.002 A 
ATOM      3  C4  UNL d   1       2.891   4.196  -0.007  0.00  0.00     0.002 A 
ATOM      4  C5  UNL d   1       2.617   2.852   0.236  0.00  0.00    -0.004 A 
ATOM      5  C6  UNL d   1       2.983   1.887  -0.702  0.00  0.00     0.002 A 
ATOM      6  C7  UNL d   1       3.627   2.266  -1.880  0.00  0.00     0.002 A 
ENDROOT
BRANCH   1   7
ATOM      7  C1  UNL d   1       4.651   4.019  -3.380  0.00  0.00     0.055 C 
ATOM      8  C   UNL d   1       5.998   3.317  -3.476  0.00  0.00     0.019 C 
ENDBRANCH   1   7
TORSDOF 1
ENDMDL
