MODEL 1
REMARK minimizedAffinity -4.43999434
REMARK minimizedRMSD -1
REMARK  1 active torsions:
REMARK  status: ('A' for Active; 'I' for Inactive)
REMARK    1  A    between atoms: C1_2  and  C2_3 
ROOT
ATOM      1  C2  UNL d   1       3.220   3.569  -1.029  0.00  0.00    -0.077 A 
ATOM      2  C3  UNL d   1       2.880   2.226  -1.247  0.00  0.00     0.002 A 
ATOM      3  C4  UNL d   1       2.276   1.477  -0.236  0.00  0.00     0.002 A 
ATOM      4  C5  UNL d   1       2.002   2.063   0.998  0.00  0.00    -0.004 A 
ATOM      5  C6  UNL d   1       2.338   3.397   1.226  0.00  0.00     0.002 A 
ATOM      6  C7  UNL d   1       2.943   4.147   0.217  0.00  0.00     0.002 A 
ENDROOT
BRANCH   1   7
ATOM      7  C1  UNL d   1       3.827   4.392  -2.135  0.00  0.00     0.055 C 
ATOM      8  C   UNL d   1       4.671   3.534  -3.065  0.00  0.00     0.019 C 
ENDBRANCH   1   7
TORSDOF 1
ENDMDL
