MODEL 1
REMARK minimizedAffinity -3.01933503
REMARK minimizedRMSD -1
REMARK  1 active torsions:
REMARK  status: ('A' for Active; 'I' for Inactive)
REMARK    1  A    between atoms: C1_2  and  C2_3 
ROOT
ATOM      1  C2  UNL d   1       3.444   2.952  -0.292  0.00  0.00    -0.077 A 
ATOM      2  C3  UNL d   1       4.166   2.113  -1.153  0.00  0.00     0.002 A 
ATOM      3  C4  UNL d   1       4.990   2.655  -2.141  0.00  0.00     0.002 A 
ATOM      4  C5  UNL d   1       5.104   4.037  -2.274  0.00  0.00    -0.004 A 
ATOM      5  C6  UNL d   1       4.389   4.880  -1.424  0.00  0.00     0.002 A 
ATOM      6  C7  UNL d   1       3.564   4.340  -0.437  0.00  0.00     0.002 A 
ENDROOT
BRANCH   1   7
ATOM      7  C1  UNL d   1       2.593   2.369   0.806  0.00  0.00     0.055 C 
ATOM      8  C   UNL d   1       1.913   3.461   1.618  0.00  0.00     0.019 C 
ENDBRANCH   1   7
TORSDOF 1
ENDMDL
