MODEL 1
REMARK minimizedAffinity -5.33934021
REMARK minimizedRMSD -1
REMARK  1 active torsions:
REMARK  status: ('A' for Active; 'I' for Inactive)
REMARK    1  A    between atoms: C1_2  and  C2_3 
ROOT
ATOM      1  C2  UNL d   1       2.977   3.658  -0.750  0.00  0.00    -0.077 A 
ATOM      2  C3  UNL d   1       2.904   4.332   0.477  0.00  0.00     0.002 A 
ATOM      3  C4  UNL d   1       2.505   3.656   1.632  0.00  0.00     0.002 A 
ATOM      4  C5  UNL d   1       2.181   2.303   1.572  0.00  0.00    -0.004 A 
ATOM      5  C6  UNL d   1       2.249   1.623   0.356  0.00  0.00     0.002 A 
ATOM      6  C7  UNL d   1       2.646   2.298  -0.799  0.00  0.00     0.002 A 
ENDROOT
BRANCH   1   7
ATOM      7  C1  UNL d   1       3.455   4.373  -1.987  0.00  0.00     0.055 C 
ATOM      8  C   UNL d   1       4.655   3.670  -2.604  0.00  0.00     0.019 C 
ENDBRANCH   1   7
TORSDOF 1
ENDMDL
