MODEL 1
REMARK minimizedAffinity 7.11865807
REMARK minimizedRMSD -1
REMARK  3 active torsions:
REMARK  status: ('A' for Active; 'I' for Inactive)
REMARK    1  A    between atoms: C3'_2  and  C2'_3 
REMARK    2  A    between atoms: C2'_3  and  C1'_4 
REMARK    3  A    between atoms: C1'_4  and  C1_5 
ROOT
ATOM      1  C1  N4B d   1       1.673  -2.034   1.670  0.00  0.00    -0.075 A 
ATOM      2  C2  N4B d   1       2.735  -1.538   0.882  0.00  0.00     0.002 A 
ATOM      3  C3  N4B d   1       2.936  -0.184   0.775  0.00  0.00     0.002 A 
ATOM      4  C4  N4B d   1       2.080   0.691   1.427  0.00  0.00    -0.004 A 
ATOM      5  C5  N4B d   1       1.072   0.203   2.206  0.00  0.00     0.002 A 
ATOM      6  C6  N4B d   1       0.860  -1.155   2.327  0.00  0.00     0.002 A 
ENDROOT
BRANCH   1   7
ATOM      7  C1' N4B d   1       1.361  -3.503   1.749  0.00  0.00     0.057 C 
BRANCH   7   8
ATOM      8  C2' N4B d   1       0.398  -3.872   0.625  0.00  0.00     0.009 C 
BRANCH   8   9
ATOM      9  C3' N4B d   1       0.511  -5.336   0.236  0.00  0.00     0.004 C 
ATOM     10  C4' N4B d   1      -0.824  -5.992   0.047  0.00  0.00     0.003 C 
ENDBRANCH   8   9
ENDBRANCH   7   8
ENDBRANCH   1   7
TORSDOF 3
ENDMDL
