MODEL 1
REMARK minimizedAffinity 7.01746225
REMARK minimizedRMSD -1
REMARK  3 active torsions:
REMARK  status: ('A' for Active; 'I' for Inactive)
REMARK    1  A    between atoms: C3'_2  and  C2'_3 
REMARK    2  A    between atoms: C2'_3  and  C1'_4 
REMARK    3  A    between atoms: C1'_4  and  C1_5 
ROOT
ATOM      1  C1  N4B d   1       0.395  -2.087   0.498  0.00  0.00    -0.075 A 
ATOM      2  C2  N4B d   1      -1.001  -1.908   0.391  0.00  0.00     0.002 A 
ATOM      3  C3  N4B d   1      -1.608  -1.961  -0.839  0.00  0.00     0.002 A 
ATOM      4  C4  N4B d   1      -0.840  -2.173  -1.974  0.00  0.00    -0.004 A 
ATOM      5  C5  N4B d   1       0.505  -2.370  -1.860  0.00  0.00     0.002 A 
ATOM      6  C6  N4B d   1       1.128  -2.323  -0.629  0.00  0.00     0.002 A 
ENDROOT
BRANCH   1   7
ATOM      7  C1' N4B d   1       1.115  -1.951   1.812  0.00  0.00     0.057 C 
BRANCH   7   8
ATOM      8  C2' N4B d   1       2.474  -1.300   1.574  0.00  0.00     0.009 C 
BRANCH   8   9
ATOM      9  C3' N4B d   1       2.422   0.207   1.759  0.00  0.00     0.004 C 
ATOM     10  C4' N4B d   1       3.188   0.949   0.704  0.00  0.00     0.003 C 
ENDBRANCH   8   9
ENDBRANCH   7   8
ENDBRANCH   1   7
TORSDOF 3
ENDMDL
