MODEL 1
REMARK minimizedAffinity 10.0328188
REMARK minimizedRMSD -1
REMARK  1 active torsions:
REMARK  status: ('A' for Active; 'I' for Inactive)
REMARK    1  A    between atoms: C1_2  and  C2_3 
ROOT
ATOM      1  C2  UNL d   1      -2.992  -0.938   1.874  0.00  0.00    -0.076 A 
ATOM      2  C3  UNL d   1      -1.778  -0.605   2.499  0.00  0.00     0.004 A 
ATOM      3  C4  UNL d   1      -1.710  -0.414   3.878  0.00  0.00    -0.003 A 
ATOM      4  C5  UNL d   1      -2.855  -0.555   4.655  0.00  0.00     0.000 A 
ATOM      5  C6  UNL d   1      -4.064  -0.902   4.053  0.00  0.00     0.000 A 
ATOM      6  C7  UNL d   1      -4.146  -1.114   2.666  0.00  0.00    -0.073 A 
ATOM      7  C8  UNL d   1      -5.477  -1.481   2.070  0.00  0.00     0.078 C 
ENDROOT
BRANCH   1   8
ATOM      8  C1  UNL d   1      -3.010  -1.105   0.371  0.00  0.00     0.053 C 
ATOM      9  C   UNL d   1      -1.945  -2.073  -0.121  0.00  0.00     0.018 C 
ENDBRANCH   1   8
TORSDOF 1
ENDMDL
