MODEL 1
REMARK minimizedAffinity -3.20047593
REMARK minimizedRMSD -1
REMARK  1 active torsions:
REMARK  status: ('A' for Active; 'I' for Inactive)
REMARK    1  A    between atoms: C1_2  and  C2_3 
ROOT
ATOM      1  C2  UNL d   1      -2.543   0.933   1.215  0.00  0.00    -0.076 A 
ATOM      2  C3  UNL d   1      -2.729   1.620   2.428  0.00  0.00     0.004 A 
ATOM      3  C4  UNL d   1      -2.993   0.930   3.610  0.00  0.00    -0.003 A 
ATOM      4  C5  UNL d   1      -3.074  -0.458   3.599  0.00  0.00     0.000 A 
ATOM      5  C6  UNL d   1      -2.875  -1.157   2.408  0.00  0.00     0.000 A 
ATOM      6  C7  UNL d   1      -2.592  -0.477   1.211  0.00  0.00    -0.073 A 
ATOM      7  C8  UNL d   1      -2.391  -1.280  -0.045  0.00  0.00     0.078 C 
ENDROOT
BRANCH   1   8
ATOM      8  C1  UNL d   1      -2.286   1.736  -0.040  0.00  0.00     0.053 C 
ATOM      9  C   UNL d   1      -3.111   3.013  -0.093  0.00  0.00     0.018 C 
ENDBRANCH   1   8
TORSDOF 1
ENDMDL
