MODEL 1
REMARK minimizedAffinity 9.4906311
REMARK minimizedRMSD -1
REMARK  1 active torsions:
REMARK  status: ('A' for Active; 'I' for Inactive)
REMARK    1  A    between atoms: C1_2  and  C2_3 
ROOT
ATOM      1  C2  UNL d   1      -2.069   1.979  -0.430  0.00  0.00    -0.076 A 
ATOM      2  C3  UNL d   1      -1.740   3.345  -0.378  0.00  0.00     0.004 A 
ATOM      3  C4  UNL d   1      -2.700   4.302  -0.049  0.00  0.00    -0.003 A 
ATOM      4  C5  UNL d   1      -4.003   3.908   0.233  0.00  0.00     0.000 A 
ATOM      5  C6  UNL d   1      -4.342   2.556   0.203  0.00  0.00     0.000 A 
ATOM      6  C7  UNL d   1      -3.383   1.577  -0.110  0.00  0.00    -0.073 A 
ATOM      7  C8  UNL d   1      -3.806   0.134  -0.134  0.00  0.00     0.078 C 
ENDROOT
BRANCH   1   8
ATOM      8  C1  UNL d   1      -0.994   0.990  -0.819  0.00  0.00     0.053 C 
ATOM      9  C   UNL d   1      -0.105   1.506  -1.940  0.00  0.00     0.018 C 
ENDBRANCH   1   8
TORSDOF 1
ENDMDL
