MODEL 1
REMARK minimizedAffinity 0.761555135
REMARK minimizedRMSD -1
REMARK  1 active torsions:
REMARK  status: ('A' for Active; 'I' for Inactive)
REMARK    1  A    between atoms: C1_2  and  C2_3 
ROOT
ATOM      1  C2  UNL d   1      -3.005   1.433   0.908  0.00  0.00    -0.076 A 
ATOM      2  C3  UNL d   1      -2.341   2.514   1.513  0.00  0.00     0.004 A 
ATOM      3  C4  UNL d   1      -2.611   3.827   1.132  0.00  0.00    -0.003 A 
ATOM      4  C5  UNL d   1      -3.551   4.081   0.139  0.00  0.00     0.000 A 
ATOM      5  C6  UNL d   1      -4.233   3.022  -0.460  0.00  0.00     0.000 A 
ATOM      6  C7  UNL d   1      -3.984   1.693  -0.076  0.00  0.00    -0.073 A 
ATOM      7  C8  UNL d   1      -4.743   0.590  -0.759  0.00  0.00     0.078 C 
ENDROOT
BRANCH   1   8
ATOM      8  C1  UNL d   1      -2.651   0.030   1.343  0.00  0.00     0.053 C 
ATOM      9  C   UNL d   1      -2.566  -0.107   2.856  0.00  0.00     0.018 C 
ENDBRANCH   1   8
TORSDOF 1
ENDMDL
