MODEL 1
REMARK minimizedAffinity 0.370437056
REMARK minimizedRMSD -1
REMARK  1 active torsions:
REMARK  status: ('A' for Active; 'I' for Inactive)
REMARK    1  A    between atoms: C1_2  and  C2_3 
ROOT
ATOM      1  C2  UNL d   1       4.152   0.213   3.071  0.00  0.00    -0.076 A 
ATOM      2  C3  UNL d   1       5.279   1.023   3.299  0.00  0.00     0.004 A 
ATOM      3  C4  UNL d   1       6.000   0.931   4.488  0.00  0.00    -0.003 A 
ATOM      4  C5  UNL d   1       5.606   0.028   5.469  0.00  0.00     0.000 A 
ATOM      5  C6  UNL d   1       4.502  -0.795   5.253  0.00  0.00     0.000 A 
ATOM      6  C7  UNL d   1       3.774  -0.727   4.053  0.00  0.00    -0.073 A 
ATOM      7  C8  UNL d   1       2.587  -1.635   3.876  0.00  0.00     0.078 C 
ENDROOT
BRANCH   1   8
ATOM      8  C1  UNL d   1       3.394   0.376   1.773  0.00  0.00     0.053 C 
ATOM      9  C   UNL d   1       3.125   1.834   1.434  0.00  0.00     0.018 C 
ENDBRANCH   1   8
TORSDOF 1
ENDMDL
