MODEL 1
REMARK minimizedAffinity 11.3316832
REMARK minimizedRMSD -1
REMARK  1 active torsions:
REMARK  status: ('A' for Active; 'I' for Inactive)
REMARK    1  A    between atoms: C1_2  and  C2_3 
ROOT
ATOM      1  C2  UNL d   1       5.173   3.158   3.440  0.00  0.00    -0.076 A 
ATOM      2  C3  UNL d   1       5.994   2.564   4.415  0.00  0.00     0.004 A 
ATOM      3  C4  UNL d   1       6.000   1.184   4.605  0.00  0.00    -0.003 A 
ATOM      4  C5  UNL d   1       5.185   0.373   3.822  0.00  0.00     0.000 A 
ATOM      5  C6  UNL d   1       4.377   0.943   2.838  0.00  0.00     0.000 A 
ATOM      6  C7  UNL d   1       4.372   2.332   2.623  0.00  0.00    -0.073 A 
ATOM      7  C8  UNL d   1       3.477   2.893   1.552  0.00  0.00     0.078 C 
ENDROOT
BRANCH   1   8
ATOM      8  C1  UNL d   1       5.189   4.663   3.299  0.00  0.00     0.053 C 
ATOM      9  C   UNL d   1       5.995   5.343   4.395  0.00  0.00     0.018 C 
ENDBRANCH   1   8
TORSDOF 1
ENDMDL
