MODEL 1
REMARK minimizedAffinity 3.28528929
REMARK minimizedRMSD -1
REMARK  1 active torsions:
REMARK  status: ('A' for Active; 'I' for Inactive)
REMARK    1  A    between atoms: C1_2  and  C2_3 
ROOT
ATOM      1  C2  UNL d   1      -3.123   2.437   0.110  0.00  0.00    -0.076 A 
ATOM      2  C3  UNL d   1      -4.148   3.260   0.610  0.00  0.00     0.004 A 
ATOM      3  C4  UNL d   1      -3.942   4.625   0.801  0.00  0.00    -0.003 A 
ATOM      4  C5  UNL d   1      -2.709   5.190   0.496  0.00  0.00     0.000 A 
ATOM      5  C6  UNL d   1      -1.687   4.392  -0.018  0.00  0.00     0.000 A 
ATOM      6  C7  UNL d   1      -1.883   3.017  -0.232  0.00  0.00    -0.073 A 
ATOM      7  C8  UNL d   1      -0.744   2.203  -0.782  0.00  0.00     0.078 C 
ENDROOT
BRANCH   1   8
ATOM      8  C1  UNL d   1      -3.396   0.959  -0.051  0.00  0.00     0.053 C 
ATOM      9  C   UNL d   1      -3.704   0.275   1.272  0.00  0.00     0.018 C 
ENDBRANCH   1   8
TORSDOF 1
ENDMDL
