MODEL 1
REMARK minimizedAffinity 1.48001981
REMARK minimizedRMSD -1
REMARK  1 active torsions:
REMARK  status: ('A' for Active; 'I' for Inactive)
REMARK    1  A    between atoms: C1_2  and  C2_3 
ROOT
ATOM      1  C2  UNL d   1      -3.227   1.250   1.612  0.00  0.00    -0.076 A 
ATOM      2  C3  UNL d   1      -2.880   1.571   2.936  0.00  0.00     0.004 A 
ATOM      3  C4  UNL d   1      -2.941   0.613   3.946  0.00  0.00    -0.003 A 
ATOM      4  C5  UNL d   1      -3.349  -0.683   3.649  0.00  0.00     0.000 A 
ATOM      5  C6  UNL d   1      -3.680  -1.024   2.338  0.00  0.00     0.000 A 
ATOM      6  C7  UNL d   1      -3.608  -0.074   1.304  0.00  0.00    -0.073 A 
ATOM      7  C8  UNL d   1      -3.982  -0.495  -0.091  0.00  0.00     0.078 C 
ENDROOT
BRANCH   1   8
ATOM      8  C1  UNL d   1      -3.168   2.338   0.563  0.00  0.00     0.053 C 
ATOM      9  C   UNL d   1      -2.057   2.110  -0.451  0.00  0.00     0.018 C 
ENDBRANCH   1   8
TORSDOF 1
ENDMDL
