MODEL 1
REMARK minimizedAffinity -0.72868669
REMARK minimizedRMSD -1
REMARK  1 active torsions:
REMARK  status: ('A' for Active; 'I' for Inactive)
REMARK    1  A    between atoms: C1_2  and  C2_3 
ROOT
ATOM      1  C2  UNL d   1       3.293  -1.113   2.819  0.00  0.00    -0.076 A 
ATOM      2  C3  UNL d   1       3.655   0.045   2.109  0.00  0.00     0.004 A 
ATOM      3  C4  UNL d   1       4.460   1.022   2.692  0.00  0.00    -0.003 A 
ATOM      4  C5  UNL d   1       4.918   0.856   3.995  0.00  0.00     0.000 A 
ATOM      5  C6  UNL d   1       4.583  -0.295   4.708  0.00  0.00     0.000 A 
ATOM      6  C7  UNL d   1       3.786  -1.297   4.129  0.00  0.00    -0.073 A 
ATOM      7  C8  UNL d   1       3.451  -2.515   4.945  0.00  0.00     0.078 C 
ENDROOT
BRANCH   1   8
ATOM      8  C1  UNL d   1       2.395  -2.125   2.144  0.00  0.00     0.053 C 
ATOM      9  C   UNL d   1       2.388  -1.979   0.630  0.00  0.00     0.018 C 
ENDBRANCH   1   8
TORSDOF 1
ENDMDL
