MODEL 1
REMARK minimizedAffinity -0.232099563
REMARK minimizedRMSD -1
REMARK  1 active torsions:
REMARK  status: ('A' for Active; 'I' for Inactive)
REMARK    1  A    between atoms: C1_2  and  C2_3 
ROOT
ATOM      1  C2  UNL d   1      -3.225   0.576   1.291  0.00  0.00    -0.076 A 
ATOM      2  C3  UNL d   1      -2.709   1.756   1.855  0.00  0.00     0.004 A 
ATOM      3  C4  UNL d   1      -2.737   2.959   1.151  0.00  0.00    -0.003 A 
ATOM      4  C5  UNL d   1      -3.281   3.002  -0.127  0.00  0.00     0.000 A 
ATOM      5  C6  UNL d   1      -3.814   1.845  -0.695  0.00  0.00     0.000 A 
ATOM      6  C7  UNL d   1      -3.808   0.627   0.007  0.00  0.00    -0.073 A 
ATOM      7  C8  UNL d   1      -4.390  -0.591  -0.657  0.00  0.00     0.078 C 
ENDROOT
BRANCH   1   8
ATOM      8  C1  UNL d   1      -3.143  -0.705   2.090  0.00  0.00     0.053 C 
ATOM      9  C   UNL d   1      -2.682  -0.471   3.520  0.00  0.00     0.018 C 
ENDBRANCH   1   8
TORSDOF 1
ENDMDL
