MODEL 1
REMARK minimizedAffinity 0.842691898
REMARK minimizedRMSD -1
REMARK  1 active torsions:
REMARK  status: ('A' for Active; 'I' for Inactive)
REMARK    1  A    between atoms: C1_2  and  C2_3 
ROOT
ATOM      1  C2  UNL d   1       0.466  -2.675  -1.339  0.00  0.00    -0.076 A 
ATOM      2  C3  UNL d   1       1.678  -3.353  -1.121  0.00  0.00     0.004 A 
ATOM      3  C4  UNL d   1       1.883  -4.104   0.035  0.00  0.00    -0.003 A 
ATOM      4  C5  UNL d   1       0.878  -4.190   0.992  0.00  0.00     0.000 A 
ATOM      5  C6  UNL d   1      -0.337  -3.539   0.785  0.00  0.00     0.000 A 
ATOM      6  C7  UNL d   1      -0.565  -2.790  -0.383  0.00  0.00    -0.073 A 
ATOM      7  C8  UNL d   1      -1.893  -2.103  -0.552  0.00  0.00     0.078 C 
ENDROOT
BRANCH   1   8
ATOM      8  C1  UNL d   1       0.312  -1.853  -2.598  0.00  0.00     0.053 C 
ATOM      9  C   UNL d   1       1.365  -0.761  -2.714  0.00  0.00     0.018 C 
ENDBRANCH   1   8
TORSDOF 1
ENDMDL
