MODEL 1
REMARK minimizedAffinity 11.8956232
REMARK minimizedRMSD -1
REMARK  0 active torsions:
REMARK  status: ('A' for Active; 'I' for Inactive)
ROOT
ATOM      1  C   UNL d   1      -2.053  -0.357   2.083  0.00  0.00     0.124 A 
ATOM      2  C1  UNL d   1      -0.847  -0.521   2.752  0.00  0.00     0.062 A 
ATOM      3  C2  UNL d   1       0.353  -0.490   2.048  0.00  0.00     0.162 A 
ATOM      4  C3  UNL d   1       0.355  -0.292   0.667  0.00  0.00    -0.034 A 
ATOM      5  C4  UNL d   1      -0.862  -0.129   0.002  0.00  0.00     0.162 A 
ATOM      6  C5  UNL d   1      -2.059  -0.161   0.710  0.00  0.00     0.062 A 
ATOM      7  F   UNL d   1      -3.222  -0.002   0.062  0.00  0.00    -0.097 F 
ATOM      8  F1  UNL d   1      -0.897   0.064  -1.325  0.00  0.00    -0.096 F 
ATOM      9  I   UNL d   1       2.148  -0.244  -0.388  0.00  0.00    -0.060 I 
ATOM     10  F2  UNL d   1       1.503  -0.651   2.720  0.00  0.00    -0.096 F 
ATOM     11  F3  UNL d   1      -0.839  -0.712   4.079  0.00  0.00    -0.097 F 
ATOM     12  F4  UNL d   1      -3.206  -0.389   2.763  0.00  0.00    -0.092 F 
ENDROOT
TORSDOF 0
ENDMDL
