MODEL 1
REMARK minimizedAffinity 8.74508858
REMARK minimizedRMSD -1
REMARK  0 active torsions:
REMARK  status: ('A' for Active; 'I' for Inactive)
ROOT
ATOM      1  C   UNL d   1       0.625  -0.757   2.416  0.00  0.00     0.124 A 
ATOM      2  C1  UNL d   1       0.692  -0.369   1.085  0.00  0.00     0.062 A 
ATOM      3  C2  UNL d   1      -0.459   0.031   0.413  0.00  0.00     0.162 A 
ATOM      4  C3  UNL d   1      -1.689   0.046   1.072  0.00  0.00    -0.034 A 
ATOM      5  C4  UNL d   1      -1.749  -0.347   2.410  0.00  0.00     0.162 A 
ATOM      6  C5  UNL d   1      -0.596  -0.745   3.077  0.00  0.00     0.062 A 
ATOM      7  F   UNL d   1      -0.663  -1.120   4.363  0.00  0.00    -0.097 F 
ATOM      8  F1  UNL d   1      -2.915  -0.344   3.074  0.00  0.00    -0.096 F 
ATOM      9  I   UNL d   1      -3.413   0.643   0.071  0.00  0.00    -0.060 I 
ATOM     10  F2  UNL d   1      -0.365   0.400  -0.872  0.00  0.00    -0.096 F 
ATOM     11  F3  UNL d   1       1.870  -0.380   0.444  0.00  0.00    -0.097 F 
ATOM     12  F4  UNL d   1       1.734  -1.142   3.060  0.00  0.00    -0.092 F 
ENDROOT
TORSDOF 0
ENDMDL
