MODEL 1
REMARK minimizedAffinity 10.1160164
REMARK minimizedRMSD -1
REMARK  0 active torsions:
REMARK  status: ('A' for Active; 'I' for Inactive)
ROOT
ATOM      1  C   UNL d   1      -2.139  -0.619   2.985  0.00  0.00     0.124 A 
ATOM      2  C1  UNL d   1      -2.242  -0.100   1.702  0.00  0.00     0.062 A 
ATOM      3  C2  UNL d   1      -1.100   0.081   0.927  0.00  0.00     0.162 A 
ATOM      4  C3  UNL d   1       0.155  -0.258   1.432  0.00  0.00    -0.034 A 
ATOM      5  C4  UNL d   1       0.251  -0.778   2.724  0.00  0.00     0.162 A 
ATOM      6  C5  UNL d   1      -0.893  -0.957   3.495  0.00  0.00     0.062 A 
ATOM      7  F   UNL d   1      -0.792  -1.458   4.735  0.00  0.00    -0.097 F 
ATOM      8  F1  UNL d   1       1.442  -1.114   3.241  0.00  0.00    -0.096 F 
ATOM      9  I   UNL d   1       1.864   0.012   0.276  0.00  0.00    -0.060 I 
ATOM     10  F2  UNL d   1      -1.229   0.584  -0.310  0.00  0.00    -0.096 F 
ATOM     11  F3  UNL d   1      -3.444   0.228   1.208  0.00  0.00    -0.097 F 
ATOM     12  F4  UNL d   1      -3.239  -0.791   3.730  0.00  0.00    -0.092 F 
ENDROOT
TORSDOF 0
ENDMDL
