MODEL 1
REMARK minimizedAffinity 12.4598503
REMARK minimizedRMSD -1
REMARK  0 active torsions:
REMARK  status: ('A' for Active; 'I' for Inactive)
ROOT
ATOM      1  C   UNL d   1      -0.121  -0.178  -2.824  0.00  0.00     0.124 A 
ATOM      2  C1  UNL d   1      -0.199  -0.489  -1.473  0.00  0.00     0.062 A 
ATOM      3  C2  UNL d   1       0.578   0.205  -0.550  0.00  0.00     0.162 A 
ATOM      4  C3  UNL d   1       1.438   1.217  -0.973  0.00  0.00    -0.034 A 
ATOM      5  C4  UNL d   1       1.512   1.523  -2.333  0.00  0.00     0.162 A 
ATOM      6  C5  UNL d   1       0.734   0.827  -3.253  0.00  0.00     0.062 A 
ATOM      7  F   UNL d   1       0.810   1.129  -4.557  0.00  0.00    -0.097 F 
ATOM      8  F1  UNL d   1       2.329   2.491  -2.775  0.00  0.00    -0.096 F 
ATOM      9  I   UNL d   1       2.601   2.257   0.405  0.00  0.00    -0.060 I 
ATOM     10  F2  UNL d   1       0.482  -0.117   0.749  0.00  0.00    -0.096 F 
ATOM     11  F3  UNL d   1      -1.024  -1.461  -1.057  0.00  0.00    -0.097 F 
ATOM     12  F4  UNL d   1      -0.869  -0.848  -3.711  0.00  0.00    -0.092 F 
ENDROOT
TORSDOF 0
ENDMDL
