MODEL 1
REMARK minimizedAffinity 11.4153557
REMARK minimizedRMSD -1
REMARK  0 active torsions:
REMARK  status: ('A' for Active; 'I' for Inactive)
ROOT
ATOM      1  C   UNL d   1      -2.083  -0.529   1.992  0.00  0.00     0.124 A 
ATOM      2  C1  UNL d   1      -2.159  -0.094   0.677  0.00  0.00     0.062 A 
ATOM      3  C2  UNL d   1      -0.997   0.111  -0.062  0.00  0.00     0.162 A 
ATOM      4  C3  UNL d   1       0.252  -0.120   0.514  0.00  0.00    -0.034 A 
ATOM      5  C4  UNL d   1       0.321  -0.556   1.838  0.00  0.00     0.162 A 
ATOM      6  C5  UNL d   1      -0.843  -0.760   2.572  0.00  0.00     0.062 A 
ATOM      7  F   UNL d   1      -0.767  -1.180   3.843  0.00  0.00    -0.097 F 
ATOM      8  F1  UNL d   1       1.506  -0.788   2.422  0.00  0.00    -0.096 F 
ATOM      9  I   UNL d   1       1.992   0.186  -0.587  0.00  0.00    -0.060 I 
ATOM     10  F2  UNL d   1      -1.101   0.532  -1.331  0.00  0.00    -0.096 F 
ATOM     11  F3  UNL d   1      -3.356   0.131   0.115  0.00  0.00    -0.097 F 
ATOM     12  F4  UNL d   1      -3.202  -0.724   2.701  0.00  0.00    -0.092 F 
ENDROOT
TORSDOF 0
ENDMDL
