MODEL 1
REMARK minimizedAffinity 4.96357441
REMARK minimizedRMSD -1
REMARK  0 active torsions:
REMARK  status: ('A' for Active; 'I' for Inactive)
ROOT
ATOM      1  C   UNL d   1      -2.178  -0.356   2.671  0.00  0.00     0.124 A 
ATOM      2  C1  UNL d   1      -2.313   0.036   1.346  0.00  0.00     0.062 A 
ATOM      3  C2  UNL d   1      -1.190   0.139   0.530  0.00  0.00     0.162 A 
ATOM      4  C3  UNL d   1       0.077  -0.150   1.035  0.00  0.00    -0.034 A 
ATOM      5  C4  UNL d   1       0.205  -0.542   2.369  0.00  0.00     0.162 A 
ATOM      6  C5  UNL d   1      -0.920  -0.644   3.181  0.00  0.00     0.062 A 
ATOM      7  F   UNL d   1      -0.788  -1.022   4.461  0.00  0.00    -0.097 F 
ATOM      8  F1  UNL d   1       1.408  -0.827   2.888  0.00  0.00    -0.096 F 
ATOM      9  I   UNL d   1       1.758   0.004  -0.182  0.00  0.00    -0.060 I 
ATOM     10  F2  UNL d   1      -1.350   0.520  -0.747  0.00  0.00    -0.096 F 
ATOM     11  F3  UNL d   1      -3.527   0.316   0.851  0.00  0.00    -0.097 F 
ATOM     12  F4  UNL d   1      -3.260  -0.454   3.455  0.00  0.00    -0.092 F 
ENDROOT
TORSDOF 0
ENDMDL
