MODEL 1
REMARK minimizedAffinity 11.6710634
REMARK minimizedRMSD -1
REMARK  0 active torsions:
REMARK  status: ('A' for Active; 'I' for Inactive)
ROOT
ATOM      1  C   UNL d   1      -0.873  -0.290  -0.369  0.00  0.00     0.124 A 
ATOM      2  C1  UNL d   1      -0.375  -0.231   0.925  0.00  0.00     0.062 A 
ATOM      3  C2  UNL d   1       0.906   0.261   1.160  0.00  0.00     0.162 A 
ATOM      4  C3  UNL d   1       1.698   0.698   0.098  0.00  0.00    -0.034 A 
ATOM      5  C4  UNL d   1       1.191   0.634  -1.201  0.00  0.00     0.162 A 
ATOM      6  C5  UNL d   1      -0.090   0.142  -1.430  0.00  0.00     0.062 A 
ATOM      7  F   UNL d   1      -0.570   0.085  -2.681  0.00  0.00    -0.097 F 
ATOM      8  F1  UNL d   1       1.925   1.046  -2.245  0.00  0.00    -0.096 F 
ATOM      9  I   UNL d   1       3.614   1.433   0.445  0.00  0.00    -0.060 I 
ATOM     10  F2  UNL d   1       1.362   0.307   2.421  0.00  0.00    -0.096 F 
ATOM     11  F3  UNL d   1      -1.128  -0.648   1.952  0.00  0.00    -0.097 F 
ATOM     12  F4  UNL d   1      -2.105  -0.765  -0.592  0.00  0.00    -0.092 F 
ENDROOT
TORSDOF 0
ENDMDL
