MODEL 1
REMARK minimizedAffinity 13.4700098
REMARK minimizedRMSD -1
REMARK  0 active torsions:
REMARK  status: ('A' for Active; 'I' for Inactive)
ROOT
ATOM      1  C   UNL d   1      -2.296  -1.919   4.995  0.00  0.00     0.124 A 
ATOM      2  C1  UNL d   1      -0.911  -1.899   4.911  0.00  0.00     0.062 A 
ATOM      3  C2  UNL d   1      -0.283  -1.224   3.868  0.00  0.00     0.162 A 
ATOM      4  C3  UNL d   1      -1.039  -0.563   2.901  0.00  0.00    -0.034 A 
ATOM      5  C4  UNL d   1      -2.432  -0.588   2.991  0.00  0.00     0.162 A 
ATOM      6  C5  UNL d   1      -3.055  -1.264   4.036  0.00  0.00     0.062 A 
ATOM      7  F   UNL d   1      -4.394  -1.282   4.115  0.00  0.00    -0.097 F 
ATOM      8  F1  UNL d   1      -3.190   0.038   2.078  0.00  0.00    -0.096 F 
ATOM      9  I   UNL d   1      -0.104   0.447   1.340  0.00  0.00    -0.060 I 
ATOM     10  F2  UNL d   1       1.057  -1.221   3.812  0.00  0.00    -0.096 F 
ATOM     11  F3  UNL d   1      -0.175  -2.531   5.836  0.00  0.00    -0.097 F 
ATOM     12  F4  UNL d   1      -2.898  -2.569   5.999  0.00  0.00    -0.092 F 
ENDROOT
TORSDOF 0
ENDMDL
