MODEL 1
REMARK minimizedAffinity -2.59368658
REMARK minimizedRMSD -1
REMARK  1 active torsions:
REMARK  status: ('A' for Active; 'I' for Inactive)
REMARK    1  A    between atoms: C3_4  and  O_7 
ROOT
ATOM      1  C   UNL d   1      -1.797   1.955   2.002  0.00  0.00    -0.033 A 
ATOM      2  C1  UNL d   1      -0.727   1.363   2.675  0.00  0.00     0.039 A 
ATOM      3  C2  UNL d   1       0.551   1.383   2.113  0.00  0.00    -0.080 A 
ATOM      4  C3  UNL d   1       0.746   1.998   0.880  0.00  0.00     0.150 A 
ATOM      5  C4  UNL d   1      -0.315   2.594   0.205  0.00  0.00    -0.007 A 
ATOM      6  C5  UNL d   1      -1.591   2.571   0.767  0.00  0.00     0.039 A 
ENDROOT
BRANCH   4   7
ATOM      7  O   UNL d   1       1.974   2.039   0.290  0.00  0.00    -0.526 OA
ATOM      8  H5  UNL d   1       2.604   1.564   0.857  0.00  0.00     0.418 HD
ENDBRANCH   4   7
TORSDOF 1
ENDMDL
