MODEL 1
REMARK minimizedAffinity 0.848235309
REMARK minimizedRMSD -1
REMARK  1 active torsions:
REMARK  status: ('A' for Active; 'I' for Inactive)
REMARK    1  A    between atoms: C3_4  and  O_7 
ROOT
ATOM      1  C   UNL d   1       2.127  -1.923  -0.382  0.00  0.00    -0.033 A 
ATOM      2  C1  UNL d   1       2.058  -3.189   0.204  0.00  0.00     0.039 A 
ATOM      3  C2  UNL d   1       1.018  -4.059  -0.131  0.00  0.00    -0.080 A 
ATOM      4  C3  UNL d   1       0.057  -3.653  -1.053  0.00  0.00     0.150 A 
ATOM      5  C4  UNL d   1       0.122  -2.395  -1.643  0.00  0.00    -0.007 A 
ATOM      6  C5  UNL d   1       1.160  -1.527  -1.307  0.00  0.00     0.039 A 
ENDROOT
BRANCH   4   7
ATOM      7  O   UNL d   1      -0.978  -4.466  -1.407  0.00  0.00    -0.526 OA
ATOM      8  H5  UNL d   1      -0.910  -5.291  -0.899  0.00  0.00     0.418 HD
ENDBRANCH   4   7
TORSDOF 1
ENDMDL
