MODEL 1
REMARK minimizedAffinity 5.94732904
REMARK minimizedRMSD -1
REMARK  1 active torsions:
REMARK  status: ('A' for Active; 'I' for Inactive)
REMARK    1  A    between atoms: C3_4  and  O_7 
ROOT
ATOM      1  C   UNL d   1       1.743   2.440   1.432  0.00  0.00    -0.033 A 
ATOM      2  C1  UNL d   1       0.998   3.064   0.429  0.00  0.00     0.039 A 
ATOM      3  C2  UNL d   1      -0.397   3.036   0.475  0.00  0.00    -0.080 A 
ATOM      4  C3  UNL d   1      -1.034   2.384   1.527  0.00  0.00     0.150 A 
ATOM      5  C4  UNL d   1      -0.298   1.764   2.531  0.00  0.00    -0.007 A 
ATOM      6  C5  UNL d   1       1.095   1.791   2.484  0.00  0.00     0.039 A 
ENDROOT
BRANCH   4   7
ATOM      7  O   UNL d   1      -2.394   2.326   1.611  0.00  0.00    -0.526 OA
ATOM      8  H5  UNL d   1      -2.769   2.773   0.834  0.00  0.00     0.418 HD
ENDBRANCH   4   7
TORSDOF 1
ENDMDL
