MODEL 1
REMARK minimizedAffinity -3.33991075
REMARK minimizedRMSD -1
REMARK  1 active torsions:
REMARK  status: ('A' for Active; 'I' for Inactive)
REMARK    1  A    between atoms: C3_4  and  O_7 
ROOT
ATOM      1  C   UNL d   1       0.040   1.896  -0.020  0.00  0.00    -0.033 A 
ATOM      2  C1  UNL d   1      -0.235   2.304   1.287  0.00  0.00     0.039 A 
ATOM      3  C2  UNL d   1      -1.531   2.201   1.795  0.00  0.00    -0.080 A 
ATOM      4  C3  UNL d   1      -2.542   1.688   0.987  0.00  0.00     0.150 A 
ATOM      5  C4  UNL d   1      -2.275   1.276  -0.315  0.00  0.00    -0.007 A 
ATOM      6  C5  UNL d   1      -0.980   1.381  -0.820  0.00  0.00     0.039 A 
ENDROOT
BRANCH   4   7
ATOM      7  O   UNL d   1      -3.824   1.573   1.437  0.00  0.00    -0.526 OA
ATOM      8  H5  UNL d   1      -3.865   1.923   2.342  0.00  0.00     0.418 HD
ENDBRANCH   4   7
TORSDOF 1
ENDMDL
