MODEL 1
REMARK minimizedAffinity 3.639395
REMARK minimizedRMSD -1
REMARK  1 active torsions:
REMARK  status: ('A' for Active; 'I' for Inactive)
REMARK    1  A    between atoms: C3_4  and  O_7 
ROOT
ATOM      1  C   UNL d   1       1.264  -2.907  -0.730  0.00  0.00    -0.033 A 
ATOM      2  C1  UNL d   1       0.095  -2.160  -0.896  0.00  0.00     0.039 A 
ATOM      3  C2  UNL d   1       0.132  -0.769  -0.786  0.00  0.00    -0.080 A 
ATOM      4  C3  UNL d   1       1.342  -0.137  -0.512  0.00  0.00     0.150 A 
ATOM      5  C4  UNL d   1       2.510  -0.874  -0.349  0.00  0.00    -0.007 A 
ATOM      6  C5  UNL d   1       2.472  -2.263  -0.458  0.00  0.00     0.039 A 
ENDROOT
BRANCH   4   7
ATOM      7  O   UNL d   1       1.426   1.219  -0.391  0.00  0.00    -0.526 OA
ATOM      8  H5  UNL d   1       0.536   1.593  -0.500  0.00  0.00     0.418 HD
ENDBRANCH   4   7
TORSDOF 1
ENDMDL
