MODEL 1
REMARK minimizedAffinity 4.52638197
REMARK minimizedRMSD -1
REMARK  1 active torsions:
REMARK  status: ('A' for Active; 'I' for Inactive)
REMARK    1  A    between atoms: C3_4  and  O_7 
ROOT
ATOM      1  C   UNL d   1      -0.152   3.138   0.343  0.00  0.00    -0.033 A 
ATOM      2  C1  UNL d   1       0.820   2.335   0.943  0.00  0.00     0.039 A 
ATOM      3  C2  UNL d   1       0.591   1.784   2.205  0.00  0.00    -0.080 A 
ATOM      4  C3  UNL d   1      -0.612   2.042   2.855  0.00  0.00     0.150 A 
ATOM      5  C4  UNL d   1      -1.586   2.838   2.262  0.00  0.00    -0.007 A 
ATOM      6  C5  UNL d   1      -1.356   3.388   1.002  0.00  0.00     0.039 A 
ENDROOT
BRANCH   4   7
ATOM      7  O   UNL d   1      -0.879   1.530   4.090  0.00  0.00    -0.526 OA
ATOM      8  H5  UNL d   1      -0.104   1.025   4.388  0.00  0.00     0.418 HD
ENDBRANCH   4   7
TORSDOF 1
ENDMDL
