MODEL 1
REMARK minimizedAffinity 0.250572234
REMARK minimizedRMSD -1
REMARK  1 active torsions:
REMARK  status: ('A' for Active; 'I' for Inactive)
REMARK    1  A    between atoms: C3_4  and  O_7 
ROOT
ATOM      1  C   UNL d   1       1.632  -2.741  -0.272  0.00  0.00    -0.033 A 
ATOM      2  C1  UNL d   1       0.466  -2.194  -0.810  0.00  0.00     0.039 A 
ATOM      3  C2  UNL d   1       0.304  -0.808  -0.867  0.00  0.00    -0.080 A 
ATOM      4  C3  UNL d   1       1.316   0.018  -0.384  0.00  0.00     0.150 A 
ATOM      5  C4  UNL d   1       2.482  -0.520   0.149  0.00  0.00    -0.007 A 
ATOM      6  C5  UNL d   1       2.641  -1.904   0.206  0.00  0.00     0.039 A 
ENDROOT
BRANCH   4   7
ATOM      7  O   UNL d   1       1.202   1.376  -0.414  0.00  0.00    -0.526 OA
ATOM      8  H5  UNL d   1       0.332   1.604  -0.783  0.00  0.00     0.418 HD
ENDBRANCH   4   7
TORSDOF 1
ENDMDL
