MODEL 1
REMARK minimizedAffinity 1.59312379
REMARK minimizedRMSD -1
REMARK  1 active torsions:
REMARK  status: ('A' for Active; 'I' for Inactive)
REMARK    1  A    between atoms: C3_4  and  O_7 
ROOT
ATOM      1  C   UNL d   1       2.305  -2.335  -0.068  0.00  0.00    -0.033 A 
ATOM      2  C1  UNL d   1       1.001  -1.837  -0.055  0.00  0.00     0.039 A 
ATOM      3  C2  UNL d   1       0.778  -0.460  -0.123  0.00  0.00    -0.080 A 
ATOM      4  C3  UNL d   1       1.865   0.406  -0.204  0.00  0.00     0.150 A 
ATOM      5  C4  UNL d   1       3.167  -0.084  -0.221  0.00  0.00    -0.007 A 
ATOM      6  C5  UNL d   1       3.388  -1.459  -0.152  0.00  0.00     0.039 A 
ENDROOT
BRANCH   4   7
ATOM      7  O   UNL d   1       1.696   1.757  -0.267  0.00  0.00    -0.526 OA
ATOM      8  H5  UNL d   1       0.746   1.951  -0.218  0.00  0.00     0.418 HD
ENDBRANCH   4   7
TORSDOF 1
ENDMDL
