MODEL 1
REMARK minimizedAffinity 3.96945786
REMARK minimizedRMSD -1
REMARK  1 active torsions:
REMARK  status: ('A' for Active; 'I' for Inactive)
REMARK    1  A    between atoms: C3_4  and  O_7 
ROOT
ATOM      1  C   UNL d   1       0.362   2.507   2.121  0.00  0.00    -0.033 A 
ATOM      2  C1  UNL d   1      -0.319   2.848   0.951  0.00  0.00     0.039 A 
ATOM      3  C2  UNL d   1      -1.612   2.370   0.729  0.00  0.00    -0.080 A 
ATOM      4  C3  UNL d   1      -2.213   1.555   1.684  0.00  0.00     0.150 A 
ATOM      5  C4  UNL d   1      -1.542   1.214   2.854  0.00  0.00    -0.007 A 
ATOM      6  C5  UNL d   1      -0.250   1.691   3.073  0.00  0.00     0.039 A 
ENDROOT
BRANCH   4   7
ATOM      7  O   UNL d   1      -3.471   1.060   1.510  0.00  0.00    -0.526 OA
ATOM      8  H5  UNL d   1      -3.800   1.355   0.644  0.00  0.00     0.418 HD
ENDBRANCH   4   7
TORSDOF 1
ENDMDL
