MODEL 1
REMARK minimizedAffinity -0.943727076
REMARK minimizedRMSD -1
REMARK  0 active torsions:
REMARK  status: ('A' for Active; 'I' for Inactive)
ROOT
ATOM      1  C   UNL d   1      -2.123   2.910  -3.234  0.00  0.00     0.172 C 
ATOM      2  N   UNL d   1      -2.667   1.738  -3.881  0.00  0.00    -0.070 N 
ATOM      3  C1  UNL d   1      -2.379   1.323  -5.153  0.00  0.00    -0.004 A 
ATOM      4  C2  UNL d   1      -3.096   0.170  -5.393  0.00  0.00    -0.047 A 
ATOM      5  C3  UNL d   1      -3.840  -0.116  -4.224  0.00  0.00    -0.047 A 
ATOM      6  C4  UNL d   1      -3.556   0.871  -3.304  0.00  0.00    -0.004 A 
ENDROOT
TORSDOF 0
ENDMDL
