MODEL 1
REMARK minimizedAffinity -2.85430837
REMARK minimizedRMSD -1
REMARK  0 active torsions:
REMARK  status: ('A' for Active; 'I' for Inactive)
ROOT
ATOM      1  C   UNL d   1       2.870   6.000   4.082  0.00  0.00     0.172 C 
ATOM      2  N   UNL d   1       3.970   5.348   3.413  0.00  0.00    -0.070 N 
ATOM      3  C1  UNL d   1       5.258   5.810   3.356  0.00  0.00    -0.004 A 
ATOM      4  C2  UNL d   1       6.000   4.905   2.629  0.00  0.00    -0.047 A 
ATOM      5  C3  UNL d   1       5.128   3.863   2.234  0.00  0.00    -0.047 A 
ATOM      6  C4  UNL d   1       3.878   4.162   2.733  0.00  0.00    -0.004 A 
ENDROOT
TORSDOF 0
ENDMDL
