MODEL 1
REMARK minimizedAffinity 1.841874
REMARK minimizedRMSD -1
REMARK  0 active torsions:
REMARK  status: ('A' for Active; 'I' for Inactive)
ROOT
ATOM      1  C   UNL d   1       4.913  -4.858   2.691  0.00  0.00     0.172 C 
ATOM      2  N   UNL d   1       4.843  -4.134   3.939  0.00  0.00    -0.070 N 
ATOM      3  C1  UNL d   1       5.561  -3.011   4.251  0.00  0.00    -0.004 A 
ATOM      4  C2  UNL d   1       5.210  -2.627   5.527  0.00  0.00    -0.047 A 
ATOM      5  C3  UNL d   1       4.250  -3.553   5.999  0.00  0.00    -0.047 A 
ATOM      6  C4  UNL d   1       4.041  -4.476   4.996  0.00  0.00    -0.004 A 
ENDROOT
TORSDOF 0
ENDMDL
