MODEL 1
REMARK minimizedAffinity 3.17691851
REMARK minimizedRMSD -1
REMARK  0 active torsions:
REMARK  status: ('A' for Active; 'I' for Inactive)
ROOT
ATOM      1  C   UNL d   1       3.001  -4.438   2.536  0.00  0.00     0.172 C 
ATOM      2  N   UNL d   1       3.315  -4.501   3.944  0.00  0.00    -0.070 N 
ATOM      3  C1  UNL d   1       3.318  -5.635   4.711  0.00  0.00    -0.004 A 
ATOM      4  C2  UNL d   1       3.668  -5.275   5.995  0.00  0.00    -0.047 A 
ATOM      5  C3  UNL d   1       3.882  -3.876   5.999  0.00  0.00    -0.047 A 
ATOM      6  C4  UNL d   1       3.656  -3.422   4.716  0.00  0.00    -0.004 A 
ENDROOT
TORSDOF 0
ENDMDL
