MODEL 1
REMARK minimizedAffinity 0.0169431157
REMARK minimizedRMSD -1
REMARK  0 active torsions:
REMARK  status: ('A' for Active; 'I' for Inactive)
ROOT
ATOM      1  C   UNL d   1       0.993  -0.276  -1.313  0.00  0.00     0.172 C 
ATOM      2  N   UNL d   1       1.756   0.701  -2.055  0.00  0.00    -0.070 N 
ATOM      3  C1  UNL d   1       3.005   0.506  -2.580  0.00  0.00    -0.004 A 
ATOM      4  C2  UNL d   1       3.385   1.671  -3.211  0.00  0.00    -0.047 A 
ATOM      5  C3  UNL d   1       2.327   2.599  -3.057  0.00  0.00    -0.047 A 
ATOM      6  C4  UNL d   1       1.332   1.972  -2.338  0.00  0.00    -0.004 A 
ENDROOT
TORSDOF 0
ENDMDL
