MODEL 1
REMARK minimizedAffinity -2.8649478
REMARK minimizedRMSD -1
REMARK  0 active torsions:
REMARK  status: ('A' for Active; 'I' for Inactive)
ROOT
ATOM      1  C   UNL d   1       1.499  -3.083   1.689  0.00  0.00     0.172 C 
ATOM      2  N   UNL d   1       0.442  -2.100   1.674  0.00  0.00    -0.070 N 
ATOM      3  C1  UNL d   1      -0.001  -1.420   0.571  0.00  0.00    -0.004 A 
ATOM      4  C2  UNL d   1      -1.016  -0.578   0.973  0.00  0.00    -0.047 A 
ATOM      5  C3  UNL d   1      -1.188  -0.758   2.366  0.00  0.00    -0.047 A 
ATOM      6  C4  UNL d   1      -0.274  -1.706   2.774  0.00  0.00    -0.004 A 
ENDROOT
TORSDOF 0
ENDMDL
