MODEL 1
REMARK minimizedAffinity -1.85438049
REMARK minimizedRMSD -1
REMARK  0 active torsions:
REMARK  status: ('A' for Active; 'I' for Inactive)
ROOT
ATOM      1  C   UNL d   1       1.327  -4.037   1.603  0.00  0.00     0.172 C 
ATOM      2  N   UNL d   1       0.431  -2.953   1.934  0.00  0.00    -0.070 N 
ATOM      3  C1  UNL d   1       0.105  -1.908   1.111  0.00  0.00    -0.004 A 
ATOM      4  C2  UNL d   1      -0.774  -1.093   1.792  0.00  0.00    -0.047 A 
ATOM      5  C3  UNL d   1      -0.982  -1.669   3.068  0.00  0.00    -0.047 A 
ATOM      6  C4  UNL d   1      -0.225  -2.819   3.129  0.00  0.00    -0.004 A 
ENDROOT
TORSDOF 0
ENDMDL
