MODEL 1
REMARK minimizedAffinity 0.600768566
REMARK minimizedRMSD -1
REMARK  0 active torsions:
REMARK  status: ('A' for Active; 'I' for Inactive)
ROOT
ATOM      1  C   UNL d   1      -4.345  -0.530   1.290  0.00  0.00     0.172 C 
ATOM      2  N   UNL d   1      -2.914  -0.478   1.098  0.00  0.00    -0.070 N 
ATOM      3  C1  UNL d   1      -1.972  -0.552   2.089  0.00  0.00    -0.004 A 
ATOM      4  C2  UNL d   1      -0.730  -0.467   1.498  0.00  0.00    -0.047 A 
ATOM      5  C3  UNL d   1      -0.933  -0.338   0.103  0.00  0.00    -0.047 A 
ATOM      6  C4  UNL d   1      -2.294  -0.347  -0.117  0.00  0.00    -0.004 A 
ENDROOT
TORSDOF 0
ENDMDL
