MODEL 1
REMARK minimizedAffinity -3.46508431
REMARK minimizedRMSD -1
REMARK  1 active torsions:
REMARK  status: ('A' for Active; 'I' for Inactive)
REMARK    1  A    between atoms: C1_2  and  C2_3 
ROOT
ATOM      1  C2  UNL d   1      -0.177  -1.407   1.085  0.00  0.00    -0.073 A 
ATOM      2  C3  UNL d   1      -1.016  -2.048   2.004  0.00  0.00    -0.002 A 
ATOM      3  C4  UNL d   1      -2.013  -1.332   2.667  0.00  0.00     0.004 A 
ATOM      4  C5  UNL d   1      -2.186   0.029   2.415  0.00  0.00    -0.004 A 
ATOM      5  C6  UNL d   1      -1.365   0.685   1.492  0.00  0.00    -0.075 A 
ATOM      6  C7  UNL d   1      -1.537   2.149   1.211  0.00  0.00     0.076 C 
ATOM      7  C8  UNL d   1      -0.364  -0.041   0.832  0.00  0.00     0.001 A 
ENDROOT
BRANCH   1   8
ATOM      8  C1  UNL d   1       0.897  -2.178   0.362  0.00  0.00     0.053 C 
ATOM      9  C   UNL d   1       2.290  -1.673   0.705  0.00  0.00     0.018 C 
ENDBRANCH   1   8
TORSDOF 1
ENDMDL
