MODEL 1
REMARK minimizedAffinity -5.37345457
REMARK minimizedRMSD -1
REMARK  1 active torsions:
REMARK  status: ('A' for Active; 'I' for Inactive)
REMARK    1  A    between atoms: C1_2  and  C2_3 
ROOT
ATOM      1  C2  UNL d   1       0.266   0.085   0.043  0.00  0.00    -0.073 A 
ATOM      2  C3  UNL d   1       0.686  -1.248   0.109  0.00  0.00    -0.002 A 
ATOM      3  C4  UNL d   1      -0.087  -2.199   0.777  0.00  0.00     0.004 A 
ATOM      4  C5  UNL d   1      -1.290  -1.828   1.379  0.00  0.00    -0.004 A 
ATOM      5  C6  UNL d   1      -1.733  -0.503   1.313  0.00  0.00    -0.075 A 
ATOM      6  C7  UNL d   1      -3.023  -0.088   1.957  0.00  0.00     0.076 C 
ATOM      7  C8  UNL d   1      -0.949   0.446   0.643  0.00  0.00     0.001 A 
ENDROOT
BRANCH   1   8
ATOM      8  C1  UNL d   1       1.095   1.114  -0.682  0.00  0.00     0.053 C 
ATOM      9  C   UNL d   1       0.348   1.719  -1.860  0.00  0.00     0.018 C 
ENDBRANCH   1   8
TORSDOF 1
ENDMDL
