MODEL 1
REMARK minimizedAffinity -2.55740047
REMARK minimizedRMSD -1
REMARK  1 active torsions:
REMARK  status: ('A' for Active; 'I' for Inactive)
REMARK    1  A    between atoms: C1_2  and  C2_3 
ROOT
ATOM      1  C2  UNL d   1       0.593   0.908  -1.247  0.00  0.00    -0.073 A 
ATOM      2  C3  UNL d   1       1.878   1.080  -0.721  0.00  0.00    -0.002 A 
ATOM      3  C4  UNL d   1       2.331   0.260   0.314  0.00  0.00     0.004 A 
ATOM      4  C5  UNL d   1       1.508  -0.742   0.827  0.00  0.00    -0.004 A 
ATOM      5  C6  UNL d   1       0.225  -0.937   0.306  0.00  0.00    -0.075 A 
ATOM      6  C7  UNL d   1      -0.674  -2.009   0.849  0.00  0.00     0.076 C 
ATOM      7  C8  UNL d   1      -0.224  -0.108  -0.731  0.00  0.00     0.001 A 
ENDROOT
BRANCH   1   8
ATOM      8  C1  UNL d   1       0.102   1.787  -2.369  0.00  0.00     0.053 C 
ATOM      9  C   UNL d   1       1.128   1.917  -3.482  0.00  0.00     0.018 C 
ENDBRANCH   1   8
TORSDOF 1
ENDMDL
