MODEL 1
REMARK minimizedAffinity -2.57941151
REMARK minimizedRMSD -1
REMARK  1 active torsions:
REMARK  status: ('A' for Active; 'I' for Inactive)
REMARK    1  A    between atoms: C1_2  and  C2_3 
ROOT
ATOM      1  C2  UNL d   1       0.969   1.180  -0.843  0.00  0.00    -0.073 A 
ATOM      2  C3  UNL d   1       1.595  -0.055  -0.638  0.00  0.00    -0.002 A 
ATOM      3  C4  UNL d   1       1.040  -0.990   0.236  0.00  0.00     0.004 A 
ATOM      4  C5  UNL d   1      -0.148  -0.704   0.909  0.00  0.00    -0.004 A 
ATOM      5  C6  UNL d   1      -0.795   0.520   0.709  0.00  0.00    -0.075 A 
ATOM      6  C7  UNL d   1      -2.072   0.844   1.427  0.00  0.00     0.076 C 
ATOM      7  C8  UNL d   1      -0.230   1.455  -0.169  0.00  0.00     0.001 A 
ENDROOT
BRANCH   1   8
ATOM      8  C1  UNL d   1       1.561   2.190  -1.791  0.00  0.00     0.053 C 
ATOM      9  C   UNL d   1       0.788   2.267  -3.098  0.00  0.00     0.018 C 
ENDBRANCH   1   8
TORSDOF 1
ENDMDL
