MODEL 1
REMARK minimizedAffinity -1.35672581
REMARK minimizedRMSD -1
REMARK  1 active torsions:
REMARK  status: ('A' for Active; 'I' for Inactive)
REMARK    1  A    between atoms: C1_2  and  C2_3 
ROOT
ATOM      1  C2  UNL d   1       0.506   0.918  -0.929  0.00  0.00    -0.073 A 
ATOM      2  C3  UNL d   1       1.207   2.114  -0.736  0.00  0.00    -0.002 A 
ATOM      3  C4  UNL d   1       1.541   2.919  -1.825  0.00  0.00     0.004 A 
ATOM      4  C5  UNL d   1       1.173   2.541  -3.116  0.00  0.00    -0.004 A 
ATOM      5  C6  UNL d   1       0.462   1.356  -3.329  0.00  0.00    -0.075 A 
ATOM      6  C7  UNL d   1       0.060   0.934  -4.712  0.00  0.00     0.076 C 
ATOM      7  C8  UNL d   1       0.132   0.551  -2.230  0.00  0.00     0.001 A 
ENDROOT
BRANCH   1   8
ATOM      8  C1  UNL d   1       0.136   0.048   0.245  0.00  0.00     0.053 C 
ATOM      9  C   UNL d   1       0.817  -1.310   0.185  0.00  0.00     0.018 C 
ENDBRANCH   1   8
TORSDOF 1
ENDMDL
