MODEL 1
REMARK minimizedAffinity -2.57144403
REMARK minimizedRMSD -1
REMARK  1 active torsions:
REMARK  status: ('A' for Active; 'I' for Inactive)
REMARK    1  A    between atoms: C1_2  and  C2_3 
ROOT
ATOM      1  C2  UNL d   1       1.113   1.444  -0.996  0.00  0.00    -0.073 A 
ATOM      2  C3  UNL d   1       0.344   2.367  -0.278  0.00  0.00    -0.002 A 
ATOM      3  C4  UNL d   1      -0.444   1.946   0.794  0.00  0.00     0.004 A 
ATOM      4  C5  UNL d   1      -0.466   0.601   1.163  0.00  0.00    -0.004 A 
ATOM      5  C6  UNL d   1       0.305  -0.335   0.465  0.00  0.00    -0.075 A 
ATOM      6  C7  UNL d   1       0.290  -1.786   0.848  0.00  0.00     0.076 C 
ATOM      7  C8  UNL d   1       1.092   0.096  -0.611  0.00  0.00     0.001 A 
ENDROOT
BRANCH   1   8
ATOM      8  C1  UNL d   1       1.971   1.895  -2.149  0.00  0.00     0.053 C 
ATOM      9  C   UNL d   1       1.220   1.849  -3.470  0.00  0.00     0.018 C 
ENDBRANCH   1   8
TORSDOF 1
ENDMDL
