MODEL 1
REMARK minimizedAffinity -2.5860219
REMARK minimizedRMSD -1
REMARK  1 active torsions:
REMARK  status: ('A' for Active; 'I' for Inactive)
REMARK    1  A    between atoms: C1_2  and  C2_3 
ROOT
ATOM      1  C2  UNL d   1       0.916   1.428  -1.037  0.00  0.00    -0.073 A 
ATOM      2  C3  UNL d   1      -0.169   1.992  -1.719  0.00  0.00    -0.002 A 
ATOM      3  C4  UNL d   1      -0.028   2.412  -3.042  0.00  0.00     0.004 A 
ATOM      4  C5  UNL d   1       1.194   2.268  -3.698  0.00  0.00    -0.004 A 
ATOM      5  C6  UNL d   1       2.286   1.696  -3.038  0.00  0.00    -0.075 A 
ATOM      6  C7  UNL d   1       3.608   1.536  -3.730  0.00  0.00     0.076 C 
ATOM      7  C8  UNL d   1       2.138   1.279  -1.708  0.00  0.00     0.001 A 
ENDROOT
BRANCH   1   8
ATOM      8  C1  UNL d   1       0.768   0.967   0.390  0.00  0.00     0.053 C 
ATOM      9  C   UNL d   1       0.848  -0.546   0.511  0.00  0.00     0.018 C 
ENDBRANCH   1   8
TORSDOF 1
ENDMDL
