MODEL 1
REMARK minimizedAffinity -4.28946877
REMARK minimizedRMSD -1
REMARK  1 active torsions:
REMARK  status: ('A' for Active; 'I' for Inactive)
REMARK    1  A    between atoms: C1_2  and  C2_3 
ROOT
ATOM      1  C2  UNL d   1      -0.020  -0.420   0.168  0.00  0.00    -0.073 A 
ATOM      2  C3  UNL d   1       0.279  -1.782   0.285  0.00  0.00    -0.002 A 
ATOM      3  C4  UNL d   1      -0.453  -2.592   1.154  0.00  0.00     0.004 A 
ATOM      4  C5  UNL d   1      -1.494  -2.051   1.909  0.00  0.00    -0.004 A 
ATOM      5  C6  UNL d   1      -1.815  -0.695   1.797  0.00  0.00    -0.075 A 
ATOM      6  C7  UNL d   1      -2.930  -0.097   2.603  0.00  0.00     0.076 C 
ATOM      7  C8  UNL d   1      -1.074   0.113   0.924  0.00  0.00     0.001 A 
ENDROOT
BRANCH   1   8
ATOM      8  C1  UNL d   1       0.764   0.457  -0.774  0.00  0.00     0.053 C 
ATOM      9  C   UNL d   1       0.835   1.896  -0.287  0.00  0.00     0.018 C 
ENDBRANCH   1   8
TORSDOF 1
ENDMDL
