MODEL 1
REMARK minimizedAffinity -2.47632933
REMARK minimizedRMSD -1
REMARK  1 active torsions:
REMARK  status: ('A' for Active; 'I' for Inactive)
REMARK    1  A    between atoms: C1_2  and  C2_3 
ROOT
ATOM      1  C2  UNL d   1       0.680   1.254  -1.212  0.00  0.00    -0.073 A 
ATOM      2  C3  UNL d   1      -0.274   1.586  -2.180  0.00  0.00    -0.002 A 
ATOM      3  C4  UNL d   1       0.127   1.981  -3.457  0.00  0.00     0.004 A 
ATOM      4  C5  UNL d   1       1.482   2.042  -3.781  0.00  0.00    -0.004 A 
ATOM      5  C6  UNL d   1       2.450   1.702  -2.830  0.00  0.00    -0.075 A 
ATOM      6  C7  UNL d   1       3.912   1.764  -3.162  0.00  0.00     0.076 C 
ATOM      7  C8  UNL d   1       2.040   1.309  -1.549  0.00  0.00     0.001 A 
ENDROOT
BRANCH   1   8
ATOM      8  C1  UNL d   1       0.253   0.821   0.167  0.00  0.00     0.053 C 
ATOM      9  C   UNL d   1       0.883  -0.503   0.569  0.00  0.00     0.018 C 
ENDBRANCH   1   8
TORSDOF 1
ENDMDL
