MODEL 1
REMARK minimizedAffinity -3.67411089
REMARK minimizedRMSD -1
REMARK  0 active torsions:
REMARK  status: ('A' for Active; 'I' for Inactive)
ROOT
ATOM      1  C1  BNZ d   1       0.795   5.780   3.655  0.00  0.00     0.000 A 
ATOM      2  C2  BNZ d   1       1.906   4.982   3.731  0.00  0.00     0.000 A 
ATOM      3  C3  BNZ d   1       2.240   4.357   4.899  0.00  0.00     0.000 A 
ATOM      4  C4  BNZ d   1       1.488   4.563   6.000  0.00  0.00     0.000 A 
ATOM      5  C5  BNZ d   1       0.371   5.372   5.942  0.00  0.00     0.000 A 
ATOM      6  C6  BNZ d   1       0.015   5.968   4.754  0.00  0.00     0.000 A 
ENDROOT
TORSDOF 0
ENDMDL
