MODEL 1
REMARK minimizedAffinity 4.1772871
REMARK minimizedRMSD -1
REMARK  0 active torsions:
REMARK  status: ('A' for Active; 'I' for Inactive)
ROOT
ATOM      1  C1  BNZ d   1      -4.227   3.519   3.307  0.00  0.00     0.000 A 
ATOM      2  C2  BNZ d   1      -4.371   2.243   2.829  0.00  0.00     0.000 A 
ATOM      3  C3  BNZ d   1      -3.990   1.925   1.556  0.00  0.00     0.000 A 
ATOM      4  C4  BNZ d   1      -3.503   2.890   0.749  0.00  0.00     0.000 A 
ATOM      5  C5  BNZ d   1      -3.360   4.183   1.213  0.00  0.00     0.000 A 
ATOM      6  C6  BNZ d   1      -3.709   4.491   2.508  0.00  0.00     0.000 A 
ENDROOT
TORSDOF 0
ENDMDL
