MODEL 1
REMARK minimizedAffinity -0.558078647
REMARK minimizedRMSD -1
REMARK  0 active torsions:
REMARK  status: ('A' for Active; 'I' for Inactive)
ROOT
ATOM      1  C1  BNZ d   1       4.459   1.815  -1.160  0.00  0.00     0.000 A 
ATOM      2  C2  BNZ d   1       3.780   0.715  -1.614  0.00  0.00     0.000 A 
ATOM      3  C3  BNZ d   1       3.018  -0.037  -0.764  0.00  0.00     0.000 A 
ATOM      4  C4  BNZ d   1       2.968   0.287   0.544  0.00  0.00     0.000 A 
ATOM      5  C5  BNZ d   1       3.654   1.388   1.018  0.00  0.00     0.000 A 
ATOM      6  C6  BNZ d   1       4.388   2.165   0.153  0.00  0.00     0.000 A 
ENDROOT
TORSDOF 0
ENDMDL
