MODEL 1
REMARK minimizedAffinity 3.16209173
REMARK minimizedRMSD -1
REMARK  0 active torsions:
REMARK  status: ('A' for Active; 'I' for Inactive)
ROOT
ATOM      1  C1  BNZ d   1       3.258  -0.739   0.030  0.00  0.00     0.000 A 
ATOM      2  C2  BNZ d   1       2.889   0.530   0.391  0.00  0.00     0.000 A 
ATOM      3  C3  BNZ d   1       1.848   1.160  -0.232  0.00  0.00     0.000 A 
ATOM      4  C4  BNZ d   1       1.203   0.537  -1.239  0.00  0.00     0.000 A 
ATOM      5  C5  BNZ d   1       1.569  -0.739  -1.620  0.00  0.00     0.000 A 
ATOM      6  C6  BNZ d   1       2.592  -1.384  -0.965  0.00  0.00     0.000 A 
ENDROOT
TORSDOF 0
ENDMDL
