MODEL 1
REMARK minimizedAffinity 6.35557032
REMARK minimizedRMSD -1
REMARK  0 active torsions:
REMARK  status: ('A' for Active; 'I' for Inactive)
ROOT
ATOM      1  C1  BNZ d   1       1.542   0.365   1.299  0.00  0.00     0.000 A 
ATOM      2  C2  BNZ d   1       0.249   0.811   1.226  0.00  0.00     0.000 A 
ATOM      3  C3  BNZ d   1      -0.171   1.571   0.170  0.00  0.00     0.000 A 
ATOM      4  C4  BNZ d   1       0.711   1.918  -0.789  0.00  0.00     0.000 A 
ATOM      5  C5  BNZ d   1       2.021   1.485  -0.724  0.00  0.00     0.000 A 
ATOM      6  C6  BNZ d   1       2.430   0.687   0.320  0.00  0.00     0.000 A 
ENDROOT
TORSDOF 0
ENDMDL
