MODEL 1
REMARK minimizedAffinity 0.637115359
REMARK minimizedRMSD -1
REMARK  0 active torsions:
REMARK  status: ('A' for Active; 'I' for Inactive)
ROOT
ATOM      1  C1  BNZ d   1       1.916   3.315   2.769  0.00  0.00     0.000 A 
ATOM      2  C2  BNZ d   1       2.696   4.302   3.309  0.00  0.00     0.000 A 
ATOM      3  C3  BNZ d   1       2.285   5.605   3.296  0.00  0.00     0.000 A 
ATOM      4  C4  BNZ d   1       1.114   5.925   2.708  0.00  0.00     0.000 A 
ATOM      5  C5  BNZ d   1       0.320   4.942   2.150  0.00  0.00     0.000 A 
ATOM      6  C6  BNZ d   1       0.720   3.626   2.200  0.00  0.00     0.000 A 
ENDROOT
TORSDOF 0
ENDMDL
