MODEL 1
REMARK minimizedAffinity -4.02299166
REMARK minimizedRMSD -1
REMARK  0 active torsions:
REMARK  status: ('A' for Active; 'I' for Inactive)
ROOT
ATOM      1  C1  BNZ d   1       0.515   5.598   3.440  0.00  0.00     0.000 A 
ATOM      2  C2  BNZ d   1       1.652   4.891   3.726  0.00  0.00     0.000 A 
ATOM      3  C3  BNZ d   1       1.850   4.355   4.968  0.00  0.00     0.000 A 
ATOM      4  C4  BNZ d   1       0.930   4.562   5.933  0.00  0.00     0.000 A 
ATOM      5  C5  BNZ d   1      -0.217   5.281   5.663  0.00  0.00     0.000 A 
ATOM      6  C6  BNZ d   1      -0.431   5.785   4.401  0.00  0.00     0.000 A 
ENDROOT
TORSDOF 0
ENDMDL
