MODEL 1
REMARK minimizedAffinity -1.08722258
REMARK minimizedRMSD -1
REMARK  0 active torsions:
REMARK  status: ('A' for Active; 'I' for Inactive)
ROOT
ATOM      1  C1  BNZ d   1       2.698   1.581  -0.215  0.00  0.00     0.000 A 
ATOM      2  C2  BNZ d   1       1.834   0.558   0.069  0.00  0.00     0.000 A 
ATOM      3  C3  BNZ d   1       2.243  -0.744  -0.004  0.00  0.00     0.000 A 
ATOM      4  C4  BNZ d   1       3.502  -1.023  -0.399  0.00  0.00     0.000 A 
ATOM      5  C5  BNZ d   1       4.382  -0.002  -0.699  0.00  0.00     0.000 A 
ATOM      6  C6  BNZ d   1       3.979   1.308  -0.586  0.00  0.00     0.000 A 
ENDROOT
TORSDOF 0
ENDMDL
