MODEL 1
REMARK minimizedAffinity 3.91069388
REMARK minimizedRMSD -1
REMARK  0 active torsions:
REMARK  status: ('A' for Active; 'I' for Inactive)
ROOT
ATOM      1  C1  BNZ d   1       1.513  -0.362   0.752  0.00  0.00     0.000 A 
ATOM      2  C2  BNZ d   1       0.673  -0.158   1.814  0.00  0.00     0.000 A 
ATOM      3  C3  BNZ d   1      -0.573  -0.721   1.839  0.00  0.00     0.000 A 
ATOM      4  C4  BNZ d   1      -0.991  -1.451   0.785  0.00  0.00     0.000 A 
ATOM      5  C5  BNZ d   1      -0.160  -1.657  -0.297  0.00  0.00     0.000 A 
ATOM      6  C6  BNZ d   1       1.108  -1.122  -0.302  0.00  0.00     0.000 A 
ENDROOT
TORSDOF 0
ENDMDL
