MODEL 1
REMARK minimizedAffinity 8.77450275
REMARK minimizedRMSD -1
REMARK  0 active torsions:
REMARK  status: ('A' for Active; 'I' for Inactive)
ROOT
ATOM      1  C   UNL d   1       1.731  -0.061   1.390  0.00  0.00     0.023 A 
ATOM      2  C1  UNL d   1       1.197  -0.405   2.632  0.00  0.00     0.003 A 
ATOM      3  C2  UNL d   1       0.960  -1.745   2.946  0.00  0.00     0.048 A 
ATOM      4  C3  UNL d   1       1.261  -2.737   2.013  0.00  0.00     0.023 A 
ATOM      5  C4  UNL d   1       1.796  -2.398   0.769  0.00  0.00     0.048 A 
ATOM      6  C5  UNL d   1       2.030  -1.057   0.460  0.00  0.00     0.003 A 
ATOM      7  I   UNL d   1       0.910  -4.732   2.477  0.00  0.00    -0.146 I 
ENDROOT
TORSDOF 0
ENDMDL
