MODEL 1
REMARK minimizedAffinity -1.96251273
REMARK minimizedRMSD -1
REMARK  0 active torsions:
REMARK  status: ('A' for Active; 'I' for Inactive)
ROOT
ATOM      1  C   UNL d   1      -3.869   2.313   5.060  0.00  0.00     0.023 A 
ATOM      2  C1  UNL d   1      -2.839   2.308   6.000  0.00  0.00     0.003 A 
ATOM      3  C2  UNL d   1      -1.887   3.329   6.000  0.00  0.00     0.048 A 
ATOM      4  C3  UNL d   1      -1.972   4.354   5.058  0.00  0.00     0.023 A 
ATOM      5  C4  UNL d   1      -3.002   4.364   4.116  0.00  0.00     0.048 A 
ATOM      6  C5  UNL d   1      -3.951   3.339   4.119  0.00  0.00     0.003 A 
ATOM      7  I   UNL d   1      -0.557   5.876   5.056  0.00  0.00    -0.146 I 
ENDROOT
TORSDOF 0
ENDMDL
