MODEL 1
REMARK minimizedAffinity -2.27075434
REMARK minimizedRMSD -1
REMARK  0 active torsions:
REMARK  status: ('A' for Active; 'I' for Inactive)
ROOT
ATOM      1  C   UNL d   1      -1.861   5.105   4.594  0.00  0.00     0.023 A 
ATOM      2  C1  UNL d   1      -1.254   4.782   5.808  0.00  0.00     0.003 A 
ATOM      3  C2  UNL d   1       0.106   5.038   6.000  0.00  0.00     0.048 A 
ATOM      4  C3  UNL d   1       0.852   5.616   4.974  0.00  0.00     0.023 A 
ATOM      5  C4  UNL d   1       0.249   5.942   3.758  0.00  0.00     0.048 A 
ATOM      6  C5  UNL d   1      -1.111   5.684   3.570  0.00  0.00     0.003 A 
ATOM      7  I   UNL d   1       2.875   5.997   5.257  0.00  0.00    -0.146 I 
ENDROOT
TORSDOF 0
ENDMDL
