MODEL 1
REMARK minimizedAffinity 1.68550134
REMARK minimizedRMSD -1
REMARK  0 active torsions:
REMARK  status: ('A' for Active; 'I' for Inactive)
ROOT
ATOM      1  C   UNL d   1       2.229  -1.718   0.991  0.00  0.00     0.023 A 
ATOM      2  C1  UNL d   1       0.896  -2.023   1.267  0.00  0.00     0.003 A 
ATOM      3  C2  UNL d   1       0.565  -3.252   1.842  0.00  0.00     0.048 A 
ATOM      4  C3  UNL d   1       1.571  -4.170   2.139  0.00  0.00     0.023 A 
ATOM      5  C4  UNL d   1       2.906  -3.869   1.865  0.00  0.00     0.048 A 
ATOM      6  C5  UNL d   1       3.233  -2.640   1.289  0.00  0.00     0.003 A 
ATOM      7  I   UNL d   1       1.080  -5.999   2.996  0.00  0.00    -0.146 I 
ENDROOT
TORSDOF 0
ENDMDL
