MODEL 1
REMARK minimizedAffinity 3.09978318
REMARK minimizedRMSD -1
REMARK  0 active torsions:
REMARK  status: ('A' for Active; 'I' for Inactive)
ROOT
ATOM      1  C   UNL d   1      -1.034   5.590   4.175  0.00  0.00     0.023 A 
ATOM      2  C1  UNL d   1      -0.805   5.882   5.520  0.00  0.00     0.003 A 
ATOM      3  C2  UNL d   1       0.502   6.000   5.998  0.00  0.00     0.048 A 
ATOM      4  C3  UNL d   1       1.576   5.825   5.125  0.00  0.00     0.023 A 
ATOM      5  C4  UNL d   1       1.351   5.533   3.779  0.00  0.00     0.048 A 
ATOM      6  C5  UNL d   1       0.043   5.415   3.306  0.00  0.00     0.003 A 
ATOM      7  I   UNL d   1       3.522   5.999   5.834  0.00  0.00    -0.146 I 
ENDROOT
TORSDOF 0
ENDMDL
