MODEL 1
REMARK minimizedAffinity 0.762835979
REMARK minimizedRMSD -1
REMARK  0 active torsions:
REMARK  status: ('A' for Active; 'I' for Inactive)
ROOT
ATOM      1  O1  BZF d   1       0.280  -1.253  -2.002  0.00  0.00    -0.204 OA
ATOM      2  C2  BZF d   1      -0.980  -1.159  -1.444  0.00  0.00     0.174 A 
ATOM      3  C3  BZF d   1      -0.906  -0.754  -0.160  0.00  0.00    -0.012 A 
ATOM      4  C3A BZF d   1       0.482  -0.495   0.073  0.00  0.00    -0.107 A 
ATOM      5  C4  BZF d   1       1.185  -0.050   1.156  0.00  0.00     0.055 A 
ATOM      6  C5  BZF d   1       2.539   0.025   1.079  0.00  0.00    -0.016 A 
ATOM      7  C6  BZF d   1       3.223  -0.340  -0.063  0.00  0.00     0.022 A 
ATOM      8  C7  BZF d   1       2.568  -0.782  -1.164  0.00  0.00     0.029 A 
ATOM      9  C7A BZF d   1       1.197  -0.828  -1.100  0.00  0.00     0.058 A 
ENDROOT
TORSDOF 0
ENDMDL
