MODEL 1
REMARK minimizedAffinity 2.18786669
REMARK minimizedRMSD -1
REMARK  0 active torsions:
REMARK  status: ('A' for Active; 'I' for Inactive)
ROOT
ATOM      1  O1  BZF d   1      -0.523  -5.258  -5.505  0.00  0.00    -0.204 OA
ATOM      2  C2  BZF d   1       0.363  -4.321  -5.999  0.00  0.00     0.174 A 
ATOM      3  C3  BZF d   1       0.572  -3.339  -5.099  0.00  0.00    -0.012 A 
ATOM      4  C3A BZF d   1      -0.162  -3.732  -3.935  0.00  0.00    -0.107 A 
ATOM      5  C4  BZF d   1      -0.334  -3.175  -2.701  0.00  0.00     0.055 A 
ATOM      6  C5  BZF d   1      -1.173  -3.775  -1.816  0.00  0.00    -0.016 A 
ATOM      7  C6  BZF d   1      -1.860  -4.928  -2.134  0.00  0.00     0.022 A 
ATOM      8  C7  BZF d   1      -1.718  -5.521  -3.345  0.00  0.00     0.029 A 
ATOM      9  C7A BZF d   1      -0.845  -4.935  -4.229  0.00  0.00     0.058 A 
ENDROOT
TORSDOF 0
ENDMDL
