MODEL 1
REMARK minimizedAffinity 0.430936098
REMARK minimizedRMSD -1
REMARK  0 active torsions:
REMARK  status: ('A' for Active; 'I' for Inactive)
ROOT
ATOM      1  O1  BZF d   1      -2.657   1.876   3.421  0.00  0.00    -0.204 OA
ATOM      2  C2  BZF d   1      -1.978   1.096   4.337  0.00  0.00     0.174 A 
ATOM      3  C3  BZF d   1      -1.440   0.014   3.739  0.00  0.00    -0.012 A 
ATOM      4  C3A BZF d   1      -1.727   0.172   2.346  0.00  0.00    -0.107 A 
ATOM      5  C4  BZF d   1      -1.438  -0.571   1.237  0.00  0.00     0.055 A 
ATOM      6  C5  BZF d   1      -1.927  -0.177   0.032  0.00  0.00    -0.016 A 
ATOM      7  C6  BZF d   1      -2.711   0.951  -0.100  0.00  0.00     0.022 A 
ATOM      8  C7  BZF d   1      -3.020   1.723   0.970  0.00  0.00     0.029 A 
ATOM      9  C7A BZF d   1      -2.500   1.345   2.184  0.00  0.00     0.058 A 
ENDROOT
TORSDOF 0
ENDMDL
