MODEL 1
REMARK minimizedAffinity 1.72528172
REMARK minimizedRMSD -1
REMARK  0 active torsions:
REMARK  status: ('A' for Active; 'I' for Inactive)
ROOT
ATOM      1  O1  BZF d   1       1.114  -1.350   0.213  0.00  0.00    -0.204 OA
ATOM      2  C2  BZF d   1       2.175  -1.056   1.047  0.00  0.00     0.174 A 
ATOM      3  C3  BZF d   1       1.776  -0.277   2.073  0.00  0.00    -0.012 A 
ATOM      4  C3A BZF d   1       0.359  -0.148   1.918  0.00  0.00    -0.107 A 
ATOM      5  C4  BZF d   1      -0.609   0.494   2.636  0.00  0.00     0.055 A 
ATOM      6  C5  BZF d   1      -1.888   0.485   2.175  0.00  0.00    -0.016 A 
ATOM      7  C6  BZF d   1      -2.232  -0.150   1.000  0.00  0.00     0.022 A 
ATOM      8  C7  BZF d   1      -1.307  -0.804   0.256  0.00  0.00     0.029 A 
ATOM      9  C7A BZF d   1      -0.020  -0.825   0.736  0.00  0.00     0.058 A 
ENDROOT
TORSDOF 0
ENDMDL
