MODEL 1
REMARK minimizedAffinity 7.05291319
REMARK minimizedRMSD -1
REMARK  0 active torsions:
REMARK  status: ('A' for Active; 'I' for Inactive)
ROOT
ATOM      1  O1  BZF d   1      -3.341   1.411  -0.061  0.00  0.00    -0.204 OA
ATOM      2  C2  BZF d   1      -4.194   0.385  -0.418  0.00  0.00     0.174 A 
ATOM      3  C3  BZF d   1      -3.969  -0.709   0.337  0.00  0.00    -0.012 A 
ATOM      4  C3A BZF d   1      -2.972  -0.315   1.284  0.00  0.00    -0.107 A 
ATOM      5  C4  BZF d   1      -2.345  -0.960   2.311  0.00  0.00     0.055 A 
ATOM      6  C5  BZF d   1      -1.366  -0.314   2.997  0.00  0.00    -0.016 A 
ATOM      7  C6  BZF d   1      -0.985   0.973   2.680  0.00  0.00     0.022 A 
ATOM      8  C7  BZF d   1      -1.581   1.656   1.672  0.00  0.00     0.029 A 
ATOM      9  C7A BZF d   1      -2.594   1.018   0.999  0.00  0.00     0.058 A 
ENDROOT
TORSDOF 0
ENDMDL
