MODEL 1
REMARK minimizedAffinity 9.78172207
REMARK minimizedRMSD -1
REMARK  0 active torsions:
REMARK  status: ('A' for Active; 'I' for Inactive)
ROOT
ATOM      1  O1  BZF d   1      -2.654  -5.948  -4.830  0.00  0.00    -0.204 OA
ATOM      2  C2  BZF d   1      -3.447  -5.149  -5.631  0.00  0.00     0.174 A 
ATOM      3  C3  BZF d   1      -2.787  -4.032  -5.996  0.00  0.00    -0.012 A 
ATOM      4  C3A BZF d   1      -1.468  -4.182  -5.462  0.00  0.00    -0.107 A 
ATOM      5  C4  BZF d   1      -0.345  -3.407  -5.503  0.00  0.00     0.055 A 
ATOM      6  C5  BZF d   1       0.758  -3.806  -4.817  0.00  0.00    -0.016 A 
ATOM      7  C6  BZF d   1       0.771  -4.970  -4.076  0.00  0.00     0.022 A 
ATOM      8  C7  BZF d   1      -0.318  -5.774  -4.009  0.00  0.00     0.029 A 
ATOM      9  C7A BZF d   1      -1.423  -5.390  -4.728  0.00  0.00     0.058 A 
ENDROOT
TORSDOF 0
ENDMDL
