MODEL 1
REMARK minimizedAffinity 3.42386365
REMARK minimizedRMSD -1
REMARK  0 active torsions:
REMARK  status: ('A' for Active; 'I' for Inactive)
ROOT
ATOM      1  O1  BZF d   1      -0.310  -2.896  -2.291  0.00  0.00    -0.204 OA
ATOM      2  C2  BZF d   1      -1.510  -2.428  -1.792  0.00  0.00     0.174 A 
ATOM      3  C3  BZF d   1      -2.540  -2.841  -2.558  0.00  0.00    -0.012 A 
ATOM      4  C3A BZF d   1      -1.955  -3.691  -3.549  0.00  0.00    -0.107 A 
ATOM      5  C4  BZF d   1      -2.469  -4.415  -4.587  0.00  0.00     0.055 A 
ATOM      6  C5  BZF d   1      -1.619  -5.082  -5.412  0.00  0.00    -0.016 A 
ATOM      7  C6  BZF d   1      -0.252  -5.043  -5.231  0.00  0.00     0.022 A 
ATOM      8  C7  BZF d   1       0.304  -4.343  -4.212  0.00  0.00     0.029 A 
ATOM      9  C7A BZF d   1      -0.554  -3.695  -3.358  0.00  0.00     0.058 A 
ENDROOT
TORSDOF 0
ENDMDL
