MODEL 1
REMARK minimizedAffinity -5.66536522
REMARK minimizedRMSD -1
REMARK  3 active torsions:
REMARK  status: ('A' for Active; 'I' for Inactive)
REMARK    1  A    between atoms: C3'_2  and  C2'_3 
REMARK    2  A    between atoms: C2'_3  and  C1'_4 
REMARK    3  A    between atoms: C1'_4  and  C1_5 
ROOT
ATOM      1  C1  N4B d   1      -0.437   0.383   0.019  0.00  0.00    -0.075 A 
ATOM      2  C2  N4B d   1       0.522   0.257   1.049  0.00  0.00     0.002 A 
ATOM      3  C3  N4B d   1       0.134   0.351   2.363  0.00  0.00     0.002 A 
ATOM      4  C4  N4B d   1      -1.197   0.589   2.670  0.00  0.00    -0.004 A 
ATOM      5  C5  N4B d   1      -2.121   0.684   1.670  0.00  0.00     0.002 A 
ATOM      6  C6  N4B d   1      -1.746   0.587   0.345  0.00  0.00     0.002 A 
ENDROOT
BRANCH   1   7
ATOM      7  C1' N4B d   1      -0.047   0.373  -1.434  0.00  0.00     0.057 C 
BRANCH   7   8
ATOM      8  C2' N4B d   1       0.753  -0.893  -1.729  0.00  0.00     0.009 C 
BRANCH   8   9
ATOM      9  C3' N4B d   1       1.392  -0.852  -3.106  0.00  0.00     0.004 C 
ATOM     10  C4' N4B d   1       0.551  -1.513  -4.157  0.00  0.00     0.003 C 
ENDBRANCH   8   9
ENDBRANCH   7   8
ENDBRANCH   1   7
TORSDOF 3
ENDMDL
