MODEL 1
REMARK minimizedAffinity -5.93902588
REMARK minimizedRMSD -1
REMARK  3 active torsions:
REMARK  status: ('A' for Active; 'I' for Inactive)
REMARK    1  A    between atoms: C3'_2  and  C2'_3 
REMARK    2  A    between atoms: C2'_3  and  C1'_4 
REMARK    3  A    between atoms: C1'_4  and  C1_5 
ROOT
ATOM      1  C1  N4B d   1       0.250  -0.087   0.723  0.00  0.00    -0.075 A 
ATOM      2  C2  N4B d   1       0.680  -0.303   2.051  0.00  0.00     0.002 A 
ATOM      3  C3  N4B d   1      -0.238  -0.354   3.070  0.00  0.00     0.002 A 
ATOM      4  C4  N4B d   1      -1.584  -0.175   2.791  0.00  0.00    -0.004 A 
ATOM      5  C5  N4B d   1      -1.995   0.007   1.502  0.00  0.00     0.002 A 
ATOM      6  C6  N4B d   1      -1.083   0.057   0.467  0.00  0.00     0.002 A 
ENDROOT
BRANCH   1   7
ATOM      7  C1' N4B d   1       1.224   0.062  -0.413  0.00  0.00     0.057 C 
BRANCH   7   8
ATOM      8  C2' N4B d   1       0.512  -0.248  -1.727  0.00  0.00     0.009 C 
BRANCH   8   9
ATOM      9  C3' N4B d   1       1.493  -0.498  -2.860  0.00  0.00     0.004 C 
ATOM     10  C4' N4B d   1       1.366  -1.872  -3.446  0.00  0.00     0.003 C 
ENDBRANCH   8   9
ENDBRANCH   7   8
ENDBRANCH   1   7
TORSDOF 3
ENDMDL
