MODEL 1
REMARK minimizedAffinity -4.93501854
REMARK minimizedRMSD -1
REMARK  3 active torsions:
REMARK  status: ('A' for Active; 'I' for Inactive)
REMARK    1  A    between atoms: C3'_2  and  C2'_3 
REMARK    2  A    between atoms: C2'_3  and  C1'_4 
REMARK    3  A    between atoms: C1'_4  and  C1_5 
ROOT
ATOM      1  C1  N4B d   1       0.169   0.124  -0.113  0.00  0.00    -0.075 A 
ATOM      2  C2  N4B d   1       1.402   0.440   0.499  0.00  0.00     0.002 A 
ATOM      3  C3  N4B d   1       1.545   0.315   1.859  0.00  0.00     0.002 A 
ATOM      4  C4  N4B d   1       0.468  -0.104   2.626  0.00  0.00    -0.004 A 
ATOM      5  C5  N4B d   1      -0.711  -0.432   2.024  0.00  0.00     0.002 A 
ATOM      6  C6  N4B d   1      -0.868  -0.315   0.657  0.00  0.00     0.002 A 
ENDROOT
BRANCH   1   7
ATOM      7  C1' N4B d   1      -0.060   0.327  -1.586  0.00  0.00     0.057 C 
BRANCH   7   8
ATOM      8  C2' N4B d   1       1.203  -0.061  -2.348  0.00  0.00     0.009 C 
BRANCH   8   9
ATOM      9  C3' N4B d   1       1.045  -1.389  -3.070  0.00  0.00     0.004 C 
ATOM     10  C4' N4B d   1      -0.380  -1.852  -3.130  0.00  0.00     0.003 C 
ENDBRANCH   8   9
ENDBRANCH   7   8
ENDBRANCH   1   7
TORSDOF 3
ENDMDL
