MODEL 1
REMARK minimizedAffinity -5.96946144
REMARK minimizedRMSD -1
REMARK  3 active torsions:
REMARK  status: ('A' for Active; 'I' for Inactive)
REMARK    1  A    between atoms: C3'_2  and  C2'_3 
REMARK    2  A    between atoms: C2'_3  and  C1'_4 
REMARK    3  A    between atoms: C1'_4  and  C1_5 
ROOT
ATOM      1  C1  N4B d   1       0.169  -0.418   1.138  0.00  0.00    -0.075 A 
ATOM      2  C2  N4B d   1       0.763  -0.771   2.369  0.00  0.00     0.002 A 
ATOM      3  C3  N4B d   1      -0.026  -1.141   3.431  0.00  0.00     0.002 A 
ATOM      4  C4  N4B d   1      -1.406  -1.148   3.290  0.00  0.00    -0.004 A 
ATOM      5  C5  N4B d   1      -1.970  -0.831   2.090  0.00  0.00     0.002 A 
ATOM      6  C6  N4B d   1      -1.189  -0.461   1.013  0.00  0.00     0.002 A 
ENDROOT
BRANCH   1   7
ATOM      7  C1' N4B d   1       0.986   0.076  -0.025  0.00  0.00     0.057 C 
BRANCH   7   8
ATOM      8  C2' N4B d   1       0.184  -0.101  -1.311  0.00  0.00     0.009 C 
BRANCH   8   9
ATOM      9  C3' N4B d   1       0.928  -0.944  -2.333  0.00  0.00     0.004 C 
ATOM     10  C4' N4B d   1       0.970  -0.307  -3.690  0.00  0.00     0.003 C 
ENDBRANCH   8   9
ENDBRANCH   7   8
ENDBRANCH   1   7
TORSDOF 3
ENDMDL
