MODEL 1
REMARK minimizedAffinity -6.21096277
REMARK minimizedRMSD -1
REMARK  3 active torsions:
REMARK  status: ('A' for Active; 'I' for Inactive)
REMARK    1  A    between atoms: C3'_2  and  C2'_3 
REMARK    2  A    between atoms: C2'_3  and  C1'_4 
REMARK    3  A    between atoms: C1'_4  and  C1_5 
ROOT
ATOM      1  C1  N4B d   1      -0.422   0.071   1.260  0.00  0.00    -0.075 A 
ATOM      2  C2  N4B d   1      -1.788   0.293   0.977  0.00  0.00     0.002 A 
ATOM      3  C3  N4B d   1      -2.726   0.160   1.970  0.00  0.00     0.002 A 
ATOM      4  C4  N4B d   1      -2.326  -0.211   3.246  0.00  0.00    -0.004 A 
ATOM      5  C5  N4B d   1      -1.003  -0.399   3.518  0.00  0.00     0.002 A 
ATOM      6  C6  N4B d   1      -0.048  -0.264   2.529  0.00  0.00     0.002 A 
ENDROOT
BRANCH   1   7
ATOM      7  C1' N4B d   1       0.631   0.121   0.187  0.00  0.00     0.057 C 
BRANCH   7   8
ATOM      8  C2' N4B d   1      -0.032   0.439  -1.150  0.00  0.00     0.009 C 
BRANCH   8   9
ATOM      9  C3' N4B d   1       0.855   0.068  -2.326  0.00  0.00     0.004 C 
ATOM     10  C4' N4B d   1       0.425  -1.201  -3.000  0.00  0.00     0.003 C 
ENDBRANCH   8   9
ENDBRANCH   7   8
ENDBRANCH   1   7
TORSDOF 3
ENDMDL
