MODEL 1
REMARK minimizedAffinity -4.62332439
REMARK minimizedRMSD -1
REMARK  3 active torsions:
REMARK  status: ('A' for Active; 'I' for Inactive)
REMARK    1  A    between atoms: C3'_2  and  C2'_3 
REMARK    2  A    between atoms: C2'_3  and  C1'_4 
REMARK    3  A    between atoms: C1'_4  and  C1_5 
ROOT
ATOM      1  C1  N4B d   1      -0.164   0.439  -0.041  0.00  0.00    -0.075 A 
ATOM      2  C2  N4B d   1       0.849   0.139   0.896  0.00  0.00     0.002 A 
ATOM      3  C3  N4B d   1       0.539   0.021   2.229  0.00  0.00     0.002 A 
ATOM      4  C4  N4B d   1      -0.768   0.217   2.649  0.00  0.00    -0.004 A 
ATOM      5  C5  N4B d   1      -1.746   0.481   1.734  0.00  0.00     0.002 A 
ATOM      6  C6  N4B d   1      -1.449   0.599   0.391  0.00  0.00     0.002 A 
ENDROOT
BRANCH   1   7
ATOM      7  C1' N4B d   1       0.141   0.662  -1.496  0.00  0.00     0.057 C 
BRANCH   7   8
ATOM      8  C2' N4B d   1       0.047  -0.668  -2.238  0.00  0.00     0.009 C 
BRANCH   8   9
ATOM      9  C3' N4B d   1       1.072  -0.770  -3.354  0.00  0.00     0.004 C 
ATOM     10  C4' N4B d   1       1.028  -2.090  -4.064  0.00  0.00     0.003 C 
ENDBRANCH   8   9
ENDBRANCH   7   8
ENDBRANCH   1   7
TORSDOF 3
ENDMDL
