MODEL 1
REMARK minimizedAffinity -4.19561005
REMARK minimizedRMSD -1
REMARK  3 active torsions:
REMARK  status: ('A' for Active; 'I' for Inactive)
REMARK    1  A    between atoms: C3'_2  and  C2'_3 
REMARK    2  A    between atoms: C2'_3  and  C1'_4 
REMARK    3  A    between atoms: C1'_4  and  C1_5 
ROOT
ATOM      1  C1  N4B d   1      -0.508   0.583   0.279  0.00  0.00    -0.075 A 
ATOM      2  C2  N4B d   1      -1.865   0.815   0.594  0.00  0.00     0.002 A 
ATOM      3  C3  N4B d   1      -2.299   0.694   1.892  0.00  0.00     0.002 A 
ATOM      4  C4  N4B d   1      -1.402   0.325   2.883  0.00  0.00    -0.004 A 
ATOM      5  C5  N4B d   1      -0.088   0.128   2.574  0.00  0.00     0.002 A 
ATOM      6  C6  N4B d   1       0.363   0.250   1.275  0.00  0.00     0.002 A 
ENDROOT
BRANCH   1   7
ATOM      7  C1' N4B d   1      -0.005   0.619  -1.138  0.00  0.00     0.057 C 
BRANCH   7   8
ATOM      8  C2' N4B d   1       0.566  -0.748  -1.502  0.00  0.00     0.009 C 
BRANCH   8   9
ATOM      9  C3' N4B d   1       0.729  -0.915  -3.003  0.00  0.00     0.004 C 
ATOM     10  C4' N4B d   1       2.157  -1.116  -3.413  0.00  0.00     0.003 C 
ENDBRANCH   8   9
ENDBRANCH   7   8
ENDBRANCH   1   7
TORSDOF 3
ENDMDL
