MODEL 1
REMARK minimizedAffinity -5.07348251
REMARK minimizedRMSD -1
REMARK  3 active torsions:
REMARK  status: ('A' for Active; 'I' for Inactive)
REMARK    1  A    between atoms: C3'_2  and  C2'_3 
REMARK    2  A    between atoms: C2'_3  and  C1'_4 
REMARK    3  A    between atoms: C1'_4  and  C1_5 
ROOT
ATOM      1  C1  N4B d   1      -0.388   0.215   1.063  0.00  0.00    -0.075 A 
ATOM      2  C2  N4B d   1      -0.162   0.248   2.457  0.00  0.00     0.002 A 
ATOM      3  C3  N4B d   1      -1.222   0.375   3.321  0.00  0.00     0.002 A 
ATOM      4  C4  N4B d   1      -2.509   0.490   2.817  0.00  0.00    -0.004 A 
ATOM      5  C5  N4B d   1      -2.720   0.432   1.470  0.00  0.00     0.002 A 
ATOM      6  C6  N4B d   1      -1.665   0.300   0.590  0.00  0.00     0.002 A 
ENDROOT
BRANCH   1   7
ATOM      7  C1' N4B d   1       0.746   0.163   0.076  0.00  0.00     0.057 C 
BRANCH   7   8
ATOM      8  C2' N4B d   1       0.188   0.310  -1.336  0.00  0.00     0.009 C 
BRANCH   8   9
ATOM      9  C3' N4B d   1       1.244   0.043  -2.395  0.00  0.00     0.004 C 
ATOM     10  C4' N4B d   1       0.852  -1.053  -3.342  0.00  0.00     0.003 C 
ENDBRANCH   8   9
ENDBRANCH   7   8
ENDBRANCH   1   7
TORSDOF 3
ENDMDL
