MODEL 1
REMARK minimizedAffinity -6.44488764
REMARK minimizedRMSD -1
REMARK  3 active torsions:
REMARK  status: ('A' for Active; 'I' for Inactive)
REMARK    1  A    between atoms: C3'_2  and  C2'_3 
REMARK    2  A    between atoms: C2'_3  and  C1'_4 
REMARK    3  A    between atoms: C1'_4  and  C1_5 
ROOT
ATOM      1  C1  N4B d   1      -0.843  -0.207   1.265  0.00  0.00    -0.075 A 
ATOM      2  C2  N4B d   1      -0.696  -0.618   2.609  0.00  0.00     0.002 A 
ATOM      3  C3  N4B d   1      -1.766  -0.555   3.467  0.00  0.00     0.002 A 
ATOM      4  C4  N4B d   1      -2.982  -0.069   3.012  0.00  0.00    -0.004 A 
ATOM      5  C5  N4B d   1      -3.123   0.302   1.707  0.00  0.00     0.002 A 
ATOM      6  C6  N4B d   1      -2.057   0.240   0.832  0.00  0.00     0.002 A 
ENDROOT
BRANCH   1   7
ATOM      7  C1' N4B d   1       0.321  -0.177   0.312  0.00  0.00     0.057 C 
BRANCH   7   8
ATOM      8  C2' N4B d   1      -0.205  -0.176  -1.120  0.00  0.00     0.009 C 
BRANCH   8   9
ATOM      9  C3' N4B d   1       0.881  -0.518  -2.125  0.00  0.00     0.004 C 
ATOM     10  C4' N4B d   1       0.489  -1.635  -3.046  0.00  0.00     0.003 C 
ENDBRANCH   8   9
ENDBRANCH   7   8
ENDBRANCH   1   7
TORSDOF 3
ENDMDL
