MODEL 1
REMARK minimizedAffinity -6.01799059
REMARK minimizedRMSD -1
REMARK  3 active torsions:
REMARK  status: ('A' for Active; 'I' for Inactive)
REMARK    1  A    between atoms: C3'_2  and  C2'_3 
REMARK    2  A    between atoms: C2'_3  and  C1'_4 
REMARK    3  A    between atoms: C1'_4  and  C1_5 
ROOT
ATOM      1  C1  N4B d   1      -0.694  -0.151   1.402  0.00  0.00    -0.075 A 
ATOM      2  C2  N4B d   1      -1.994   0.272   1.047  0.00  0.00     0.002 A 
ATOM      3  C3  N4B d   1      -3.009   0.218   1.971  0.00  0.00     0.002 A 
ATOM      4  C4  N4B d   1      -2.754  -0.270   3.244  0.00  0.00    -0.004 A 
ATOM      5  C5  N4B d   1      -1.490  -0.653   3.586  0.00  0.00     0.002 A 
ATOM      6  C6  N4B d   1      -0.459  -0.601   2.669  0.00  0.00     0.002 A 
ENDROOT
BRANCH   1   7
ATOM      7  C1' N4B d   1       0.428  -0.192   0.401  0.00  0.00     0.057 C 
BRANCH   7   8
ATOM      8  C2' N4B d   1      -0.076   0.338  -0.938  0.00  0.00     0.009 C 
BRANCH   8   9
ATOM      9  C3' N4B d   1       0.840  -0.054  -2.085  0.00  0.00     0.004 C 
ATOM     10  C4' N4B d   1       0.438  -1.344  -2.735  0.00  0.00     0.003 C 
ENDBRANCH   8   9
ENDBRANCH   7   8
ENDBRANCH   1   7
TORSDOF 3
ENDMDL
