MODEL 1
REMARK minimizedAffinity -0.857512593
REMARK minimizedRMSD -1
REMARK  0 active torsions:
REMARK  status: ('A' for Active; 'I' for Inactive)
ROOT
ATOM      1  C1  BNZ d   1      -0.732   0.489   2.557  0.00  0.00     0.000 A 
ATOM      2  C2  BNZ d   1      -0.328  -0.562   1.778  0.00  0.00     0.000 A 
ATOM      3  C3  BNZ d   1       0.239  -0.348   0.553  0.00  0.00     0.000 A 
ATOM      4  C4  BNZ d   1       0.365   0.913   0.092  0.00  0.00     0.000 A 
ATOM      5  C5  BNZ d   1      -0.047   1.983   0.862  0.00  0.00     0.000 A 
ATOM      6  C6  BNZ d   1      -0.581   1.765   2.111  0.00  0.00     0.000 A 
ENDROOT
TORSDOF 0
ENDMDL
