MODEL 1
REMARK minimizedAffinity -2.22319555
REMARK minimizedRMSD -1
REMARK  0 active torsions:
REMARK  status: ('A' for Active; 'I' for Inactive)
ROOT
ATOM      1  C1  BNZ d   1      -0.651   2.208   1.034  0.00  0.00     0.000 A 
ATOM      2  C2  BNZ d   1       0.017   2.106  -0.157  0.00  0.00     0.000 A 
ATOM      3  C3  BNZ d   1       0.518   0.906  -0.578  0.00  0.00     0.000 A 
ATOM      4  C4  BNZ d   1       0.385  -0.181   0.210  0.00  0.00     0.000 A 
ATOM      5  C5  BNZ d   1      -0.278  -0.092   1.418  0.00  0.00     0.000 A 
ATOM      6  C6  BNZ d   1      -0.814   1.109   1.820  0.00  0.00     0.000 A 
ENDROOT
TORSDOF 0
ENDMDL
