MODEL 1
REMARK minimizedAffinity -3.91433597
REMARK minimizedRMSD -1
REMARK  0 active torsions:
REMARK  status: ('A' for Active; 'I' for Inactive)
ROOT
ATOM      1  C1  BNZ d   1       0.377   1.043   0.573  0.00  0.00     0.000 A 
ATOM      2  C2  BNZ d   1      -0.077   2.172   1.202  0.00  0.00     0.000 A 
ATOM      3  C3  BNZ d   1      -0.885   2.084   2.301  0.00  0.00     0.000 A 
ATOM      4  C4  BNZ d   1      -1.270   0.870   2.745  0.00  0.00     0.000 A 
ATOM      5  C5  BNZ d   1      -0.828  -0.277   2.116  0.00  0.00     0.000 A 
ATOM      6  C6  BNZ d   1       0.017  -0.186   1.034  0.00  0.00     0.000 A 
ENDROOT
TORSDOF 0
ENDMDL
