MODEL 1
REMARK minimizedAffinity -3.8439548
REMARK minimizedRMSD -1
REMARK  0 active torsions:
REMARK  status: ('A' for Active; 'I' for Inactive)
ROOT
ATOM      1  C1  BNZ d   1      -1.036   1.725   2.102  0.00  0.00     0.000 A 
ATOM      2  C2  BNZ d   1      -0.744   0.454   1.686  0.00  0.00     0.000 A 
ATOM      3  C3  BNZ d   1      -0.044   0.238   0.531  0.00  0.00     0.000 A 
ATOM      4  C4  BNZ d   1       0.327   1.291  -0.225  0.00  0.00     0.000 A 
ATOM      5  C5  BNZ d   1       0.031   2.579   0.176  0.00  0.00     0.000 A 
ATOM      6  C6  BNZ d   1      -0.639   2.793   1.358  0.00  0.00     0.000 A 
ENDROOT
TORSDOF 0
ENDMDL
