MODEL 1
REMARK minimizedAffinity -2.3719604
REMARK minimizedRMSD -1
REMARK  0 active torsions:
REMARK  status: ('A' for Active; 'I' for Inactive)
ROOT
ATOM      1  C1  BNZ d   1      -0.057  -0.720   1.921  0.00  0.00     0.000 A 
ATOM      2  C2  BNZ d   1       0.484  -0.602   0.669  0.00  0.00     0.000 A 
ATOM      3  C3  BNZ d   1       0.284   0.527  -0.076  0.00  0.00     0.000 A 
ATOM      4  C4  BNZ d   1      -0.489   1.517   0.415  0.00  0.00     0.000 A 
ATOM      5  C5  BNZ d   1      -1.049   1.408   1.672  0.00  0.00     0.000 A 
ATOM      6  C6  BNZ d   1      -0.813   0.288   2.435  0.00  0.00     0.000 A 
ENDROOT
TORSDOF 0
ENDMDL
