MODEL 1
REMARK minimizedAffinity -1.96789265
REMARK minimizedRMSD -1
REMARK  0 active torsions:
REMARK  status: ('A' for Active; 'I' for Inactive)
ROOT
ATOM      1  C1  BNZ d   1       0.911   0.795   0.457  0.00  0.00     0.000 A 
ATOM      2  C2  BNZ d   1       0.082   0.350   1.452  0.00  0.00     0.000 A 
ATOM      3  C3  BNZ d   1      -0.414  -0.923   1.433  0.00  0.00     0.000 A 
ATOM      4  C4  BNZ d   1      -0.113  -1.736   0.399  0.00  0.00     0.000 A 
ATOM      5  C5  BNZ d   1       0.714  -1.299  -0.616  0.00  0.00     0.000 A 
ATOM      6  C6  BNZ d   1       1.243  -0.029  -0.573  0.00  0.00     0.000 A 
ENDROOT
TORSDOF 0
ENDMDL
