MODEL 1
REMARK minimizedAffinity -3.32758164
REMARK minimizedRMSD -1
REMARK  0 active torsions:
REMARK  status: ('A' for Active; 'I' for Inactive)
ROOT
ATOM      1  C1  BNZ d   1       0.120  -0.462   0.636  0.00  0.00     0.000 A 
ATOM      2  C2  BNZ d   1      -0.241  -0.292   1.946  0.00  0.00     0.000 A 
ATOM      3  C3  BNZ d   1      -0.835   0.866   2.364  0.00  0.00     0.000 A 
ATOM      4  C4  BNZ d   1      -1.031   1.867   1.481  0.00  0.00     0.000 A 
ATOM      5  C5  BNZ d   1      -0.664   1.714   0.159  0.00  0.00     0.000 A 
ATOM      6  C6  BNZ d   1      -0.102   0.533  -0.266  0.00  0.00     0.000 A 
ENDROOT
TORSDOF 0
ENDMDL
