MODEL 1
REMARK minimizedAffinity -3.72680402
REMARK minimizedRMSD -1
REMARK  0 active torsions:
REMARK  status: ('A' for Active; 'I' for Inactive)
ROOT
ATOM      1  C1  BNZ d   1      -0.353   0.610  -1.190  0.00  0.00     0.000 A 
ATOM      2  C2  BNZ d   1       0.412   0.611  -0.054  0.00  0.00     0.000 A 
ATOM      3  C3  BNZ d   1       1.249  -0.433   0.227  0.00  0.00     0.000 A 
ATOM      4  C4  BNZ d   1       1.290  -1.493  -0.606  0.00  0.00     0.000 A 
ATOM      5  C5  BNZ d   1       0.518  -1.513  -1.750  0.00  0.00     0.000 A 
ATOM      6  C6  BNZ d   1      -0.294  -0.443  -2.050  0.00  0.00     0.000 A 
ENDROOT
TORSDOF 0
ENDMDL
