MODEL 1
REMARK minimizedAffinity -2.52763176
REMARK minimizedRMSD -1
REMARK  0 active torsions:
REMARK  status: ('A' for Active; 'I' for Inactive)
ROOT
ATOM      1  C1  BNZ d   1       0.668  -0.476  -1.232  0.00  0.00     0.000 A 
ATOM      2  C2  BNZ d   1       0.973  -1.786  -0.977  0.00  0.00     0.000 A 
ATOM      3  C3  BNZ d   1       0.666  -2.766  -1.879  0.00  0.00     0.000 A 
ATOM      4  C4  BNZ d   1       0.019  -2.440  -3.016  0.00  0.00     0.000 A 
ATOM      5  C5  BNZ d   1      -0.304  -1.125  -3.285  0.00  0.00     0.000 A 
ATOM      6  C6  BNZ d   1       0.041  -0.136  -2.392  0.00  0.00     0.000 A 
ENDROOT
TORSDOF 0
ENDMDL
