MODEL 1
REMARK minimizedAffinity 1.65260768
REMARK minimizedRMSD -1
REMARK  0 active torsions:
REMARK  status: ('A' for Active; 'I' for Inactive)
ROOT
ATOM      1  C1  BNZ d   1       0.944   0.555  -0.194  0.00  0.00     0.000 A 
ATOM      2  C2  BNZ d   1       0.704   1.168   1.007  0.00  0.00     0.000 A 
ATOM      3  C3  BNZ d   1       0.079   0.499   2.022  0.00  0.00     0.000 A 
ATOM      4  C4  BNZ d   1      -0.341  -0.767   1.822  0.00  0.00     0.000 A 
ATOM      5  C5  BNZ d   1      -0.115  -1.396   0.614  0.00  0.00     0.000 A 
ATOM      6  C6  BNZ d   1       0.549  -0.733  -0.392  0.00  0.00     0.000 A 
ENDROOT
TORSDOF 0
ENDMDL
