MODEL 1
REMARK minimizedAffinity -3.67266536
REMARK minimizedRMSD -1
REMARK  0 active torsions:
REMARK  status: ('A' for Active; 'I' for Inactive)
ROOT
ATOM      1  C1  BNZ d   1       1.183  -3.095  -0.867  0.00  0.00     0.000 A 
ATOM      2  C2  BNZ d   1       0.609  -3.944  -1.775  0.00  0.00     0.000 A 
ATOM      3  C3  BNZ d   1       0.141  -3.476  -2.971  0.00  0.00     0.000 A 
ATOM      4  C4  BNZ d   1       0.210  -2.156  -3.240  0.00  0.00     0.000 A 
ATOM      5  C5  BNZ d   1       0.777  -1.286  -2.331  0.00  0.00     0.000 A 
ATOM      6  C6  BNZ d   1       1.283  -1.766  -1.145  0.00  0.00     0.000 A 
ENDROOT
TORSDOF 0
ENDMDL
