MODEL 1
REMARK minimizedAffinity -4.03181744
REMARK minimizedRMSD -1
REMARK  0 active torsions:
REMARK  status: ('A' for Active; 'I' for Inactive)
ROOT
ATOM      1  C1  BNZ d   1       0.050   0.035  -0.232  0.00  0.00     0.000 A 
ATOM      2  C2  BNZ d   1      -0.701   1.103   0.182  0.00  0.00     0.000 A 
ATOM      3  C3  BNZ d   1      -1.079   1.228   1.489  0.00  0.00     0.000 A 
ATOM      4  C4  BNZ d   1      -0.742   0.266   2.372  0.00  0.00     0.000 A 
ATOM      5  C5  BNZ d   1       0.007  -0.821   1.969  0.00  0.00     0.000 A 
ATOM      6  C6  BNZ d   1       0.419  -0.924   0.660  0.00  0.00     0.000 A 
ENDROOT
TORSDOF 0
ENDMDL
