MODEL 1
REMARK minimizedAffinity -2.57447076
REMARK minimizedRMSD -1
REMARK  0 active torsions:
REMARK  status: ('A' for Active; 'I' for Inactive)
ROOT
ATOM      1  C1  BNZ d   1      -1.314  -0.662   1.326  0.00  0.00     0.000 A 
ATOM      2  C2  BNZ d   1      -0.401  -0.953   2.304  0.00  0.00     0.000 A 
ATOM      3  C3  BNZ d   1      -0.079  -0.029   3.259  0.00  0.00     0.000 A 
ATOM      4  C4  BNZ d   1      -0.640   1.196   3.211  0.00  0.00     0.000 A 
ATOM      5  C5  BNZ d   1      -1.556   1.508   2.226  0.00  0.00     0.000 A 
ATOM      6  C6  BNZ d   1      -1.906   0.563   1.290  0.00  0.00     0.000 A 
ENDROOT
TORSDOF 0
ENDMDL
