MODEL 1
REMARK minimizedAffinity 1.81211591
REMARK minimizedRMSD -1
REMARK  0 active torsions:
REMARK  status: ('A' for Active; 'I' for Inactive)
ROOT
ATOM      1  C1  BNZ d   1      -0.252  -0.319   0.387  0.00  0.00     0.000 A 
ATOM      2  C2  BNZ d   1      -1.252   0.291   1.097  0.00  0.00     0.000 A 
ATOM      3  C3  BNZ d   1      -1.192   0.375   2.460  0.00  0.00     0.000 A 
ATOM      4  C4  BNZ d   1      -0.154  -0.186   3.114  0.00  0.00     0.000 A 
ATOM      5  C5  BNZ d   1       0.857  -0.814   2.413  0.00  0.00     0.000 A 
ATOM      6  C6  BNZ d   1       0.812  -0.862   1.038  0.00  0.00     0.000 A 
ENDROOT
TORSDOF 0
ENDMDL
