MODEL 1
REMARK minimizedAffinity -4.35744619
REMARK minimizedRMSD -1
REMARK  0 active torsions:
REMARK  status: ('A' for Active; 'I' for Inactive)
ROOT
ATOM      1  C1  BNZ d   1      -0.801   1.499   1.888  0.00  0.00     0.000 A 
ATOM      2  C2  BNZ d   1      -0.279   1.351   0.630  0.00  0.00     0.000 A 
ATOM      3  C3  BNZ d   1       0.185   0.138   0.204  0.00  0.00     0.000 A 
ATOM      4  C4  BNZ d   1       0.163  -0.914   1.047  0.00  0.00     0.000 A 
ATOM      5  C5  BNZ d   1      -0.351  -0.778   2.321  0.00  0.00     0.000 A 
ATOM      6  C6  BNZ d   1      -0.853   0.435   2.734  0.00  0.00     0.000 A 
ENDROOT
TORSDOF 0
ENDMDL
