MODEL 1
REMARK minimizedAffinity 5.16993999
REMARK minimizedRMSD -1
REMARK  0 active torsions:
REMARK  status: ('A' for Active; 'I' for Inactive)
ROOT
ATOM      1  C   UNL d   1       6.000  -0.320   1.227  0.00  0.00     0.172 C 
ATOM      2  N   UNL d   1       4.721   0.263   0.893  0.00  0.00    -0.070 N 
ATOM      3  C1  UNL d   1       4.513   1.555   0.490  0.00  0.00    -0.004 A 
ATOM      4  C2  UNL d   1       3.162   1.716   0.270  0.00  0.00    -0.047 A 
ATOM      5  C3  UNL d   1       2.536   0.478   0.551  0.00  0.00    -0.047 A 
ATOM      6  C4  UNL d   1       3.525  -0.404   0.935  0.00  0.00    -0.004 A 
ENDROOT
TORSDOF 0
ENDMDL
