MODEL 1
REMARK minimizedAffinity 8.05755234
REMARK minimizedRMSD -1
REMARK  0 active torsions:
REMARK  status: ('A' for Active; 'I' for Inactive)
ROOT
ATOM      1  C   UNL d   1      -1.991  -2.123  -2.122  0.00  0.00     0.172 C 
ATOM      2  N   UNL d   1      -1.420  -2.764  -0.961  0.00  0.00    -0.070 N 
ATOM      3  C1  UNL d   1      -2.120  -3.223   0.123  0.00  0.00    -0.004 A 
ATOM      4  C2  UNL d   1      -1.216  -3.767   1.010  0.00  0.00    -0.047 A 
ATOM      5  C3  UNL d   1       0.072  -3.628   0.440  0.00  0.00    -0.047 A 
ATOM      6  C4  UNL d   1      -0.083  -3.005  -0.780  0.00  0.00    -0.004 A 
ENDROOT
TORSDOF 0
ENDMDL
