MODEL 1
REMARK minimizedAffinity 11.5662403
REMARK minimizedRMSD -1
REMARK  0 active torsions:
REMARK  status: ('A' for Active; 'I' for Inactive)
ROOT
ATOM      1  C   UNL d   1      -1.750  -2.932  -5.982  0.00  0.00     0.172 C 
ATOM      2  N   UNL d   1      -1.918  -2.938  -4.548  0.00  0.00    -0.070 N 
ATOM      3  C1  UNL d   1      -1.490  -3.923  -3.698  0.00  0.00    -0.004 A 
ATOM      4  C2  UNL d   1      -1.839  -3.556  -2.417  0.00  0.00    -0.047 A 
ATOM      5  C3  UNL d   1      -2.500  -2.307  -2.499  0.00  0.00    -0.047 A 
ATOM      6  C4  UNL d   1      -2.535  -1.948  -3.830  0.00  0.00    -0.004 A 
ENDROOT
TORSDOF 0
ENDMDL
