MODEL 1
REMARK minimizedAffinity 1.25528109
REMARK minimizedRMSD -1
REMARK  0 active torsions:
REMARK  status: ('A' for Active; 'I' for Inactive)
ROOT
ATOM      1  C   UNL d   1       4.279  -0.590   1.278  0.00  0.00     0.172 C 
ATOM      2  N   UNL d   1       3.203   0.345   1.045  0.00  0.00    -0.070 N 
ATOM      3  C1  UNL d   1       1.901   0.177   1.433  0.00  0.00    -0.004 A 
ATOM      4  C2  UNL d   1       1.192   1.286   1.025  0.00  0.00    -0.047 A 
ATOM      5  C3  UNL d   1       2.100   2.151   0.368  0.00  0.00    -0.047 A 
ATOM      6  C4  UNL d   1       3.337   1.544   0.395  0.00  0.00    -0.004 A 
ENDROOT
TORSDOF 0
ENDMDL
