MODEL 1
REMARK minimizedAffinity 2.09077907
REMARK minimizedRMSD -1
REMARK  0 active torsions:
REMARK  status: ('A' for Active; 'I' for Inactive)
ROOT
ATOM      1  C   UNL d   1       4.041  -0.511   2.641  0.00  0.00     0.172 C 
ATOM      2  N   UNL d   1       3.324   0.010   1.501  0.00  0.00    -0.070 N 
ATOM      3  C1  UNL d   1       2.600   1.173   1.476  0.00  0.00    -0.004 A 
ATOM      4  C2  UNL d   1       2.073   1.315   0.211  0.00  0.00    -0.047 A 
ATOM      5  C3  UNL d   1       2.494   0.199  -0.551  0.00  0.00    -0.047 A 
ATOM      6  C4  UNL d   1       3.267  -0.593   0.272  0.00  0.00    -0.004 A 
ENDROOT
TORSDOF 0
ENDMDL
