MODEL 1
REMARK minimizedAffinity 4.04109049
REMARK minimizedRMSD -1
REMARK  0 active torsions:
REMARK  status: ('A' for Active; 'I' for Inactive)
ROOT
ATOM      1  C   UNL d   1      -0.781  -3.071   0.666  0.00  0.00     0.172 C 
ATOM      2  N   UNL d   1      -1.299  -3.122  -0.681  0.00  0.00    -0.070 N 
ATOM      3  C1  UNL d   1      -1.015  -4.088  -1.610  0.00  0.00    -0.004 A 
ATOM      4  C2  UNL d   1      -1.702  -3.779  -2.763  0.00  0.00    -0.047 A 
ATOM      5  C3  UNL d   1      -2.424  -2.587  -2.520  0.00  0.00    -0.047 A 
ATOM      6  C4  UNL d   1      -2.156  -2.202  -1.224  0.00  0.00    -0.004 A 
ENDROOT
TORSDOF 0
ENDMDL
