MODEL 1
REMARK minimizedAffinity 2.46322632
REMARK minimizedRMSD -1
REMARK  0 active torsions:
REMARK  status: ('A' for Active; 'I' for Inactive)
ROOT
ATOM      1  C   UNL d   1      -2.144  -3.442  -3.246  0.00  0.00     0.172 C 
ATOM      2  N   UNL d   1      -3.275  -4.305  -2.999  0.00  0.00    -0.070 N 
ATOM      3  C1  UNL d   1      -4.547  -4.107  -3.465  0.00  0.00    -0.004 A 
ATOM      4  C2  UNL d   1      -5.330  -5.147  -3.012  0.00  0.00    -0.047 A 
ATOM      5  C3  UNL d   1      -4.499  -5.999  -2.246  0.00  0.00    -0.047 A 
ATOM      6  C4  UNL d   1      -3.233  -5.454  -2.254  0.00  0.00    -0.004 A 
ENDROOT
TORSDOF 0
ENDMDL
