MODEL 1
REMARK minimizedAffinity 2.4411118
REMARK minimizedRMSD -1
REMARK  0 active torsions:
REMARK  status: ('A' for Active; 'I' for Inactive)
ROOT
ATOM      1  C   UNL d   1       2.711   0.369   0.373  0.00  0.00     0.172 C 
ATOM      2  N   UNL d   1       3.983  -0.200   0.752  0.00  0.00    -0.070 N 
ATOM      3  C1  UNL d   1       4.430  -0.373   2.035  0.00  0.00    -0.004 A 
ATOM      4  C2  UNL d   1       5.683  -0.944   1.972  0.00  0.00    -0.047 A 
ATOM      5  C3  UNL d   1       6.000  -1.120   0.604  0.00  0.00    -0.047 A 
ATOM      6  C4  UNL d   1       4.930  -0.651  -0.129  0.00  0.00    -0.004 A 
ENDROOT
TORSDOF 0
ENDMDL
