MODEL 1
REMARK minimizedAffinity -0.871507525
REMARK minimizedRMSD -1
REMARK  0 active torsions:
REMARK  status: ('A' for Active; 'I' for Inactive)
ROOT
ATOM      1  C   UNL d   1       3.925  -1.001   0.607  0.00  0.00     0.172 C 
ATOM      2  N   UNL d   1       3.003  -0.438   1.565  0.00  0.00    -0.070 N 
ATOM      3  C1  UNL d   1       2.885  -0.815   2.876  0.00  0.00    -0.004 A 
ATOM      4  C2  UNL d   1       1.899  -0.043   3.451  0.00  0.00    -0.047 A 
ATOM      5  C3  UNL d   1       1.405   0.827   2.450  0.00  0.00    -0.047 A 
ATOM      6  C4  UNL d   1       2.106   0.561   1.293  0.00  0.00    -0.004 A 
ENDROOT
TORSDOF 0
ENDMDL
