MODEL 1
REMARK minimizedAffinity -0.44872728
REMARK minimizedRMSD -1
REMARK  0 active torsions:
REMARK  status: ('A' for Active; 'I' for Inactive)
ROOT
ATOM      1  C   UNL d   1       0.889   0.470   3.979  0.00  0.00     0.172 C 
ATOM      2  N   UNL d   1       1.674   0.462   2.767  0.00  0.00    -0.070 N 
ATOM      3  C1  UNL d   1       2.516  -0.541   2.368  0.00  0.00    -0.004 A 
ATOM      4  C2  UNL d   1       3.075  -0.170   1.165  0.00  0.00    -0.047 A 
ATOM      5  C3  UNL d   1       2.551   1.101   0.829  0.00  0.00    -0.047 A 
ATOM      6  C4  UNL d   1       1.687   1.469   1.838  0.00  0.00    -0.004 A 
ENDROOT
TORSDOF 0
ENDMDL
