MODEL 1
REMARK minimizedAffinity 3.85535741
REMARK minimizedRMSD -1
REMARK  0 active torsions:
REMARK  status: ('A' for Active; 'I' for Inactive)
ROOT
ATOM      1  C   UNL d   1       4.094  -0.803   1.280  0.00  0.00     0.172 C 
ATOM      2  N   UNL d   1       3.630   0.539   1.020  0.00  0.00    -0.070 N 
ATOM      3  C1  UNL d   1       4.427   1.624   0.769  0.00  0.00    -0.004 A 
ATOM      4  C2  UNL d   1       3.607   2.714   0.573  0.00  0.00    -0.047 A 
ATOM      5  C3  UNL d   1       2.271   2.269   0.710  0.00  0.00    -0.047 A 
ATOM      6  C4  UNL d   1       2.314   0.918   0.987  0.00  0.00    -0.004 A 
ENDROOT
TORSDOF 0
ENDMDL
