MODEL 1
REMARK minimizedAffinity 2.90825343
REMARK minimizedRMSD -1
REMARK  0 active torsions:
REMARK  status: ('A' for Active; 'I' for Inactive)
ROOT
ATOM      1  C   UNL d   1      -4.855   4.195   6.000  0.00  0.00     0.172 C 
ATOM      2  N   UNL d   1      -4.950   2.869   5.436  0.00  0.00    -0.070 N 
ATOM      3  C1  UNL d   1      -4.370   2.455   4.267  0.00  0.00    -0.004 A 
ATOM      4  C2  UNL d   1      -4.695   1.128   4.081  0.00  0.00    -0.047 A 
ATOM      5  C3  UNL d   1      -5.498   0.732   5.176  0.00  0.00    -0.047 A 
ATOM      6  C4  UNL d   1      -5.641   1.829   6.000  0.00  0.00    -0.004 A 
ENDROOT
TORSDOF 0
ENDMDL
