MODEL 1
REMARK minimizedAffinity 4.03320217
REMARK minimizedRMSD -1
REMARK  0 active torsions:
REMARK  status: ('A' for Active; 'I' for Inactive)
ROOT
ATOM      1  C   UNL d   1      -1.819  -2.623   0.726  0.00  0.00     0.172 C 
ATOM      2  N   UNL d   1      -2.023  -3.997   1.121  0.00  0.00    -0.070 N 
ATOM      3  C1  UNL d   1      -1.158  -4.749   1.870  0.00  0.00    -0.004 A 
ATOM      4  C2  UNL d   1      -1.715  -6.000   2.028  0.00  0.00    -0.047 A 
ATOM      5  C3  UNL d   1      -2.956  -6.000   1.348  0.00  0.00    -0.047 A 
ATOM      6  C4  UNL d   1      -3.122  -4.747   0.796  0.00  0.00    -0.004 A 
ENDROOT
TORSDOF 0
ENDMDL
