MODEL 1
REMARK minimizedAffinity 3.42663193
REMARK minimizedRMSD -1
REMARK  0 active torsions:
REMARK  status: ('A' for Active; 'I' for Inactive)
ROOT
ATOM      1  C   UNL d   1      -4.826   2.570   3.735  0.00  0.00     0.172 C 
ATOM      2  N   UNL d   1      -5.155   3.962   3.929  0.00  0.00    -0.070 N 
ATOM      3  C1  UNL d   1      -4.775   4.730   4.998  0.00  0.00    -0.004 A 
ATOM      4  C2  UNL d   1      -5.287   5.996   4.810  0.00  0.00    -0.047 A 
ATOM      5  C3  UNL d   1      -5.999   5.988   3.587  0.00  0.00    -0.047 A 
ATOM      6  C4  UNL d   1      -5.901   4.717   3.063  0.00  0.00    -0.004 A 
ENDROOT
TORSDOF 0
ENDMDL
