MODEL 1
REMARK minimizedAffinity 10.6843204
REMARK minimizedRMSD -1
REMARK  0 active torsions:
REMARK  status: ('A' for Active; 'I' for Inactive)
ROOT
ATOM      1  C   UNL d   1      -1.771  -1.990  -2.358  0.00  0.00     0.172 C 
ATOM      2  N   UNL d   1      -1.741  -2.358  -0.962  0.00  0.00    -0.070 N 
ATOM      3  C1  UNL d   1      -2.800  -2.294  -0.096  0.00  0.00    -0.004 A 
ATOM      4  C2  UNL d   1      -2.365  -2.730   1.137  0.00  0.00    -0.047 A 
ATOM      5  C3  UNL d   1      -0.997  -3.066   1.008  0.00  0.00    -0.047 A 
ATOM      6  C4  UNL d   1      -0.636  -2.826  -0.301  0.00  0.00    -0.004 A 
ENDROOT
TORSDOF 0
ENDMDL
