MODEL 1
REMARK minimizedAffinity 1.10213852
REMARK minimizedRMSD -1
REMARK  0 active torsions:
REMARK  status: ('A' for Active; 'I' for Inactive)
ROOT
ATOM      1  C   UNL d   1       0.509  -0.012   1.528  0.00  0.00     0.172 C 
ATOM      2  N   UNL d   1       1.700   0.226   0.748  0.00  0.00    -0.070 N 
ATOM      3  C1  UNL d   1       2.763  -0.630   0.632  0.00  0.00    -0.004 A 
ATOM      4  C2  UNL d   1       3.692  -0.040  -0.198  0.00  0.00    -0.047 A 
ATOM      5  C3  UNL d   1       3.170   1.215  -0.593  0.00  0.00    -0.047 A 
ATOM      6  C4  UNL d   1       1.936   1.353   0.007  0.00  0.00    -0.004 A 
ENDROOT
TORSDOF 0
ENDMDL
