MODEL 1
REMARK minimizedAffinity 3.64521003
REMARK minimizedRMSD -1
REMARK  0 active torsions:
REMARK  status: ('A' for Active; 'I' for Inactive)
ROOT
ATOM      1  C   UNL d   1      -1.543  -2.822   0.311  0.00  0.00     0.172 C 
ATOM      2  N   UNL d   1      -1.937  -4.102   0.850  0.00  0.00    -0.070 N 
ATOM      3  C1  UNL d   1      -1.211  -4.853   1.735  0.00  0.00    -0.004 A 
ATOM      4  C2  UNL d   1      -1.927  -6.000   2.004  0.00  0.00    -0.047 A 
ATOM      5  C3  UNL d   1      -3.125  -5.936   1.253  0.00  0.00    -0.047 A 
ATOM      6  C4  UNL d   1      -3.105  -4.751   0.548  0.00  0.00    -0.004 A 
ENDROOT
TORSDOF 0
ENDMDL
