MODEL 1
REMARK minimizedAffinity 0.552074611
REMARK minimizedRMSD -1
REMARK  0 active torsions:
REMARK  status: ('A' for Active; 'I' for Inactive)
ROOT
ATOM      1  C   UNL d   1       4.200  -0.492   3.307  0.00  0.00     0.172 C 
ATOM      2  N   UNL d   1       3.359   0.157   2.328  0.00  0.00    -0.070 N 
ATOM      3  C1  UNL d   1       2.250   0.911   2.602  0.00  0.00    -0.004 A 
ATOM      4  C2  UNL d   1       1.731   1.351   1.404  0.00  0.00    -0.047 A 
ATOM      5  C3  UNL d   1       2.557   0.842   0.373  0.00  0.00    -0.047 A 
ATOM      6  C4  UNL d   1       3.557   0.106   0.973  0.00  0.00    -0.004 A 
ENDROOT
TORSDOF 0
ENDMDL
