MODEL 1
REMARK minimizedAffinity 2.0913856
REMARK minimizedRMSD -1
REMARK  0 active torsions:
REMARK  status: ('A' for Active; 'I' for Inactive)
ROOT
ATOM      1  C   UNL d   1      -1.104  -3.141  -0.487  0.00  0.00     0.172 C 
ATOM      2  N   UNL d   1      -1.554  -3.444  -1.825  0.00  0.00    -0.070 N 
ATOM      3  C1  UNL d   1      -0.768  -3.909  -2.846  0.00  0.00    -0.004 A 
ATOM      4  C2  UNL d   1      -1.569  -4.072  -3.955  0.00  0.00    -0.047 A 
ATOM      5  C3  UNL d   1      -2.882  -3.690  -3.589  0.00  0.00    -0.047 A 
ATOM      6  C4  UNL d   1      -2.844  -3.306  -2.265  0.00  0.00    -0.004 A 
ENDROOT
TORSDOF 0
ENDMDL
