MODEL 1
REMARK minimizedAffinity 15.6926746
REMARK minimizedRMSD -1
REMARK  0 active torsions:
REMARK  status: ('A' for Active; 'I' for Inactive)
ROOT
ATOM      1  C1  DEN d   1       1.008   5.462  -1.251  0.00  0.00     0.130 A 
ATOM      2  C2  DEN d   1       2.295   5.456  -0.561  0.00  0.00    -0.031 A 
ATOM      3  C3  DEN d   1       2.376   4.221   0.245  0.00  0.00     0.027 A 
ATOM      4  C4  DEN d   1       0.644   2.326   0.487  0.00  0.00     0.027 A 
ATOM      5  C5  DEN d   1      -0.606   1.891   0.103  0.00  0.00    -0.003 A 
ATOM      6  C6  DEN d   1      -1.412   2.627  -0.725  0.00  0.00     0.001 A 
ATOM      7  C7  DEN d   1      -0.960   3.816  -1.233  0.00  0.00     0.017 A 
ATOM      8  C8  DEN d   1       0.296   4.264  -0.845  0.00  0.00    -0.094 A 
ATOM      9  C9  DEN d   1       1.101   3.500  -0.017  0.00  0.00    -0.072 A 
ENDROOT
TORSDOF 0
ENDMDL
