MODEL 1
REMARK minimizedAffinity 16.7405453
REMARK minimizedRMSD -1
REMARK  0 active torsions:
REMARK  status: ('A' for Active; 'I' for Inactive)
ROOT
ATOM      1  C1  DEN d   1      -6.000   2.105  -1.220  0.00  0.00     0.130 A 
ATOM      2  C2  DEN d   1      -5.511   0.756  -1.496  0.00  0.00    -0.031 A 
ATOM      3  C3  DEN d   1      -4.910   0.755  -2.844  0.00  0.00     0.027 A 
ATOM      4  C4  DEN d   1      -4.683   2.701  -4.522  0.00  0.00     0.027 A 
ATOM      5  C5  DEN d   1      -4.959   4.032  -4.740  0.00  0.00    -0.003 A 
ATOM      6  C6  DEN d   1      -5.626   4.800  -3.823  0.00  0.00     0.001 A 
ATOM      7  C7  DEN d   1      -6.000   4.253  -2.624  0.00  0.00     0.017 A 
ATOM      8  C8  DEN d   1      -5.732   2.909  -2.399  0.00  0.00    -0.094 A 
ATOM      9  C9  DEN d   1      -5.046   2.153  -3.334  0.00  0.00    -0.072 A 
ENDROOT
TORSDOF 0
ENDMDL
