MODEL 1
REMARK minimizedAffinity 3.17651105
REMARK minimizedRMSD -1
REMARK  0 active torsions:
REMARK  status: ('A' for Active; 'I' for Inactive)
ROOT
ATOM      1  C1  DEN d   1      -0.179   1.088   1.347  0.00  0.00     0.130 A 
ATOM      2  C2  DEN d   1      -0.524   2.331   2.032  0.00  0.00    -0.031 A 
ATOM      3  C3  DEN d   1      -0.888   3.331   1.008  0.00  0.00     0.027 A 
ATOM      4  C4  DEN d   1      -0.955   3.075  -1.558  0.00  0.00     0.027 A 
ATOM      5  C5  DEN d   1      -0.734   2.209  -2.606  0.00  0.00    -0.003 A 
ATOM      6  C6  DEN d   1      -0.284   0.930  -2.413  0.00  0.00     0.001 A 
ATOM      7  C7  DEN d   1      -0.083   0.465  -1.140  0.00  0.00     0.017 A 
ATOM      8  C8  DEN d   1      -0.296   1.335  -0.079  0.00  0.00    -0.094 A 
ATOM      9  C9  DEN d   1      -0.763   2.621  -0.294  0.00  0.00    -0.072 A 
ENDROOT
TORSDOF 0
ENDMDL
