MODEL 1
REMARK minimizedAffinity 10.8354301
REMARK minimizedRMSD -1
REMARK  0 active torsions:
REMARK  status: ('A' for Active; 'I' for Inactive)
ROOT
ATOM      1  C1  DEN d   1      -0.707   0.367   4.255  0.00  0.00     0.130 A 
ATOM      2  C2  DEN d   1       0.309  -0.682   4.271  0.00  0.00    -0.031 A 
ATOM      3  C3  DEN d   1       1.247  -0.425   3.160  0.00  0.00     0.027 A 
ATOM      4  C4  DEN d   1       1.228   1.487   1.429  0.00  0.00     0.027 A 
ATOM      5  C5  DEN d   1       0.554   2.612   1.006  0.00  0.00    -0.003 A 
ATOM      6  C6  DEN d   1      -0.596   3.044   1.610  0.00  0.00     0.001 A 
ATOM      7  C7  DEN d   1      -1.084   2.373   2.701  0.00  0.00     0.017 A 
ATOM      8  C8  DEN d   1      -0.414   1.234   3.128  0.00  0.00    -0.094 A 
ATOM      9  C9  DEN d   1       0.754   0.820   2.511  0.00  0.00    -0.072 A 
ENDROOT
TORSDOF 0
ENDMDL
