MODEL 1
REMARK minimizedAffinity 1.68831801
REMARK minimizedRMSD -1
REMARK  0 active torsions:
REMARK  status: ('A' for Active; 'I' for Inactive)
ROOT
ATOM      1  C1  DEN d   1       1.171   0.871   0.161  0.00  0.00     0.130 A 
ATOM      2  C2  DEN d   1      -0.056   0.352  -0.436  0.00  0.00    -0.031 A 
ATOM      3  C3  DEN d   1      -1.129   1.341  -0.207  0.00  0.00     0.027 A 
ATOM      4  C4  DEN d   1      -1.008   3.615   1.003  0.00  0.00     0.027 A 
ATOM      5  C5  DEN d   1      -0.182   4.481   1.687  0.00  0.00    -0.003 A 
ATOM      6  C6  DEN d   1       1.133   4.191   1.937  0.00  0.00     0.001 A 
ATOM      7  C7  DEN d   1       1.673   3.026   1.461  0.00  0.00     0.017 A 
ATOM      8  C8  DEN d   1       0.845   2.145   0.778  0.00  0.00    -0.094 A 
ATOM      9  C9  DEN d   1      -0.478   2.461   0.524  0.00  0.00    -0.072 A 
ENDROOT
TORSDOF 0
ENDMDL
