MODEL 1
REMARK minimizedAffinity 0.647043705
REMARK minimizedRMSD -1
REMARK  2 active torsions:
REMARK  status: ('A' for Active; 'I' for Inactive)
REMARK    1  A    between atoms: C1_2  and  C2_3 
REMARK    2  A    between atoms: C2_3  and  C3_4 
ROOT
ATOM      1  C3  UNL d   1       1.594   0.387   0.000  0.00  0.00    -0.075 A 
ATOM      2  C4  UNL d   1       1.780   1.631   0.620  0.00  0.00     0.002 A 
ATOM      3  C5  UNL d   1       2.969   2.339   0.446  0.00  0.00     0.002 A 
ATOM      4  C6  UNL d   1       3.990   1.809  -0.339  0.00  0.00    -0.004 A 
ATOM      5  C7  UNL d   1       3.823   0.566  -0.947  0.00  0.00     0.002 A 
ATOM      6  C8  UNL d   1       2.632  -0.142  -0.778  0.00  0.00     0.002 A 
ENDROOT
BRANCH   1   7
ATOM      7  C2  UNL d   1       0.297  -0.370   0.160  0.00  0.00     0.056 C 
BRANCH   7   8
ATOM      8  C1  UNL d   1       0.443  -1.890   0.033  0.00  0.00     0.007 C 
ATOM      9  C   UNL d   1      -0.457  -2.492  -1.038  0.00  0.00     0.009 C 
ENDBRANCH   7   8
ENDBRANCH   1   7
TORSDOF 2
ENDMDL
