MODEL 1
REMARK minimizedAffinity 5.79660511
REMARK minimizedRMSD -1
REMARK  2 active torsions:
REMARK  status: ('A' for Active; 'I' for Inactive)
REMARK    1  A    between atoms: C1_2  and  C2_3 
REMARK    2  A    between atoms: C2_3  and  C3_4 
ROOT
ATOM      1  C3  UNL d   1       1.284   0.475   0.402  0.00  0.00    -0.075 A 
ATOM      2  C4  UNL d   1       1.719  -0.840   0.184  0.00  0.00     0.002 A 
ATOM      3  C5  UNL d   1       3.081  -1.144   0.182  0.00  0.00     0.002 A 
ATOM      4  C6  UNL d   1       4.023  -0.139   0.388  0.00  0.00    -0.004 A 
ATOM      5  C7  UNL d   1       3.602   1.174   0.589  0.00  0.00     0.002 A 
ATOM      6  C8  UNL d   1       2.241   1.481   0.596  0.00  0.00     0.002 A 
ENDROOT
BRANCH   1   7
ATOM      7  C2  UNL d   1      -0.189   0.806   0.435  0.00  0.00     0.056 C 
BRANCH   7   8
ATOM      8  C1  UNL d   1      -0.725   1.129   1.834  0.00  0.00     0.007 C 
ATOM      9  C   UNL d   1      -0.297   0.118   2.889  0.00  0.00     0.009 C 
ENDBRANCH   7   8
ENDBRANCH   1   7
TORSDOF 2
ENDMDL
