MODEL 1
REMARK minimizedAffinity 5.41899872
REMARK minimizedRMSD -1
REMARK  2 active torsions:
REMARK  status: ('A' for Active; 'I' for Inactive)
REMARK    1  A    between atoms: C1_2  and  C2_3 
REMARK    2  A    between atoms: C2_3  and  C3_4 
ROOT
ATOM      1  C3  UNL d   1       1.628   1.389   0.969  0.00  0.00    -0.075 A 
ATOM      2  C4  UNL d   1       0.801   2.278   0.267  0.00  0.00     0.002 A 
ATOM      3  C5  UNL d   1      -0.434   2.662   0.791  0.00  0.00     0.002 A 
ATOM      4  C6  UNL d   1      -0.861   2.155   2.016  0.00  0.00    -0.004 A 
ATOM      5  C7  UNL d   1      -0.056   1.259   2.715  0.00  0.00     0.002 A 
ATOM      6  C8  UNL d   1       1.182   0.877   2.195  0.00  0.00     0.002 A 
ENDROOT
BRANCH   1   7
ATOM      7  C2  UNL d   1       2.978   0.992   0.421  0.00  0.00     0.056 C 
BRANCH   7   8
ATOM      8  C1  UNL d   1       3.434  -0.409   0.841  0.00  0.00     0.007 C 
ATOM      9  C   UNL d   1       4.595  -0.391   1.827  0.00  0.00     0.009 C 
ENDBRANCH   7   8
ENDBRANCH   1   7
TORSDOF 2
ENDMDL
