MODEL 1
REMARK minimizedAffinity 2.63814759
REMARK minimizedRMSD -1
REMARK  2 active torsions:
REMARK  status: ('A' for Active; 'I' for Inactive)
REMARK    1  A    between atoms: C1_2  and  C2_3 
REMARK    2  A    between atoms: C2_3  and  C3_4 
ROOT
ATOM      1  C3  UNL d   1       3.033   0.606   0.347  0.00  0.00    -0.075 A 
ATOM      2  C4  UNL d   1       1.727   0.687   0.854  0.00  0.00     0.002 A 
ATOM      3  C5  UNL d   1       1.081   1.920   0.951  0.00  0.00     0.002 A 
ATOM      4  C6  UNL d   1       1.733   3.085   0.554  0.00  0.00    -0.004 A 
ATOM      5  C7  UNL d   1       3.036   3.018   0.064  0.00  0.00     0.002 A 
ATOM      6  C8  UNL d   1       3.683   1.786  -0.038  0.00  0.00     0.002 A 
ENDROOT
BRANCH   1   7
ATOM      7  C2  UNL d   1       3.727  -0.728   0.211  0.00  0.00     0.056 C 
BRANCH   7   8
ATOM      8  C1  UNL d   1       3.017  -1.708  -0.729  0.00  0.00     0.007 C 
ATOM      9  C   UNL d   1       2.392  -2.891  -0.002  0.00  0.00     0.009 C 
ENDBRANCH   7   8
ENDBRANCH   1   7
TORSDOF 2
ENDMDL
