MODEL 1
REMARK minimizedAffinity -1.31302595
REMARK minimizedRMSD -1
REMARK  2 active torsions:
REMARK  status: ('A' for Active; 'I' for Inactive)
REMARK    1  A    between atoms: C1_2  and  C2_3 
REMARK    2  A    between atoms: C2_3  and  C3_4 
ROOT
ATOM      1  C3  UNL d   1       2.087  -0.933  -0.678  0.00  0.00    -0.075 A 
ATOM      2  C4  UNL d   1       2.965  -0.280   0.199  0.00  0.00     0.002 A 
ATOM      3  C5  UNL d   1       2.674   1.000   0.671  0.00  0.00     0.002 A 
ATOM      4  C6  UNL d   1       1.508   1.647   0.265  0.00  0.00    -0.004 A 
ATOM      5  C7  UNL d   1       0.637   1.014  -0.619  0.00  0.00     0.002 A 
ATOM      6  C8  UNL d   1       0.924  -0.269  -1.089  0.00  0.00     0.002 A 
ENDROOT
BRANCH   1   7
ATOM      7  C2  UNL d   1       2.382  -2.330  -1.169  0.00  0.00     0.056 C 
BRANCH   7   8
ATOM      8  C1  UNL d   1       1.567  -3.422  -0.469  0.00  0.00     0.007 C 
ATOM      9  C   UNL d   1       0.506  -4.047  -1.365  0.00  0.00     0.009 C 
ENDBRANCH   7   8
ENDBRANCH   1   7
TORSDOF 2
ENDMDL
