MODEL 1
REMARK minimizedAffinity -4.40654421
REMARK minimizedRMSD -1
REMARK  0 active torsions:
REMARK  status: ('A' for Active; 'I' for Inactive)
ROOT
ATOM      1  N1  IND d   1       0.420   0.617  -1.445  0.00  0.00    -0.196 N 
ATOM      2  C2  IND d   1      -0.093   1.137  -0.289  0.00  0.00     0.054 A 
ATOM      3  C3  IND d   1      -0.579   0.149   0.496  0.00  0.00    -0.031 A 
ATOM      4  C4  IND d   1      -0.547  -2.399   0.128  0.00  0.00     0.051 A 
ATOM      5  C5  IND d   1      -0.217  -3.349  -0.797  0.00  0.00    -0.031 A 
ATOM      6  C6  IND d   1       0.356  -3.020  -2.009  0.00  0.00     0.015 A 
ATOM      7  C7  IND d   1       0.632  -1.723  -2.337  0.00  0.00    -0.016 A 
ATOM      8  C8  IND d   1       0.292  -0.754  -1.403  0.00  0.00    -0.047 A 
ATOM      9  C9  IND d   1      -0.329  -1.079  -0.190  0.00  0.00    -0.096 A 
ATOM     10  HN1 IND d   1       0.764   1.070  -2.090  0.00  0.00     0.298 HD
ENDROOT
TORSDOF 0
ENDMDL
