MODEL 1
REMARK minimizedAffinity -5.5036068
REMARK minimizedRMSD -1
REMARK  0 active torsions:
REMARK  status: ('A' for Active; 'I' for Inactive)
ROOT
ATOM      1  N1  IND d   1       0.500   0.214  -1.226  0.00  0.00    -0.196 N 
ATOM      2  C2  IND d   1       0.341   0.801  -0.002  0.00  0.00     0.054 A 
ATOM      3  C3  IND d   1      -0.054  -0.114   0.912  0.00  0.00    -0.031 A 
ATOM      4  C4  IND d   1      -0.403  -2.650   0.640  0.00  0.00     0.051 A 
ATOM      5  C5  IND d   1      -0.415  -3.641  -0.301  0.00  0.00    -0.031 A 
ATOM      6  C6  IND d   1      -0.113  -3.393  -1.625  0.00  0.00     0.015 A 
ATOM      7  C7  IND d   1       0.224  -2.142  -2.056  0.00  0.00    -0.016 A 
ATOM      8  C8  IND d   1       0.230  -1.132  -1.105  0.00  0.00    -0.047 A 
ATOM      9  C9  IND d   1      -0.117  -1.369   0.231  0.00  0.00    -0.096 A 
ATOM     10  HN1 IND d   1       0.730   0.617  -1.950  0.00  0.00     0.298 HD
ENDROOT
TORSDOF 0
ENDMDL
