MODEL 1
REMARK minimizedAffinity -4.94564199
REMARK minimizedRMSD -1
REMARK  0 active torsions:
REMARK  status: ('A' for Active; 'I' for Inactive)
ROOT
ATOM      1  N1  IND d   1       0.205   0.317  -1.665  0.00  0.00    -0.196 N 
ATOM      2  C2  IND d   1      -0.072   1.415  -0.898  0.00  0.00     0.054 A 
ATOM      3  C3  IND d   1      -0.296   1.048   0.384  0.00  0.00    -0.031 A 
ATOM      4  C4  IND d   1      -0.161  -1.284   1.465  0.00  0.00     0.051 A 
ATOM      5  C5  IND d   1       0.022  -2.604   1.161  0.00  0.00    -0.031 A 
ATOM      6  C6  IND d   1       0.284  -3.026  -0.127  0.00  0.00     0.015 A 
ATOM      7  C7  IND d   1       0.384  -2.138  -1.161  0.00  0.00    -0.016 A 
ATOM      8  C8  IND d   1       0.191  -0.798  -0.856  0.00  0.00    -0.047 A 
ATOM      9  C9  IND d   1      -0.117  -0.368   0.441  0.00  0.00    -0.096 A 
ATOM     10  HN1 IND d   1       0.362   0.323  -2.511  0.00  0.00     0.298 HD
ENDROOT
TORSDOF 0
ENDMDL
