MODEL 1
REMARK minimizedAffinity -2.72099519
REMARK minimizedRMSD -1
REMARK  0 active torsions:
REMARK  status: ('A' for Active; 'I' for Inactive)
ROOT
ATOM      1  N1  IND d   1      -1.206   0.128   0.462  0.00  0.00    -0.196 N 
ATOM      2  C2  IND d   1      -0.388   1.124   0.008  0.00  0.00     0.054 A 
ATOM      3  C3  IND d   1       0.825   0.624  -0.318  0.00  0.00    -0.031 A 
ATOM      4  C4  IND d   1       1.653  -1.814  -0.282  0.00  0.00     0.051 A 
ATOM      5  C5  IND d   1       1.277  -3.074   0.091  0.00  0.00    -0.031 A 
ATOM      6  C6  IND d   1       0.028  -3.337   0.616  0.00  0.00     0.015 A 
ATOM      7  C7  IND d   1      -0.900  -2.347   0.776  0.00  0.00    -0.016 A 
ATOM      8  C8  IND d   1      -0.519  -1.065   0.405  0.00  0.00    -0.047 A 
ATOM      9  C9  IND d   1       0.762  -0.785  -0.088  0.00  0.00    -0.096 A 
ATOM     10  HN1 IND d   1      -2.014   0.229   0.738  0.00  0.00     0.298 HD
ENDROOT
TORSDOF 0
ENDMDL
