MODEL 1
REMARK minimizedAffinity -5.38923264
REMARK minimizedRMSD -1
REMARK  0 active torsions:
REMARK  status: ('A' for Active; 'I' for Inactive)
ROOT
ATOM      1  N1  IND d   1       0.202  -0.086  -1.080  0.00  0.00    -0.196 N 
ATOM      2  C2  IND d   1       0.033   0.457   0.163  0.00  0.00     0.054 A 
ATOM      3  C3  IND d   1      -0.235  -0.512   1.067  0.00  0.00    -0.031 A 
ATOM      4  C4  IND d   1      -0.342  -3.064   0.745  0.00  0.00     0.051 A 
ATOM      5  C5  IND d   1      -0.292  -4.031  -0.219  0.00  0.00    -0.031 A 
ATOM      6  C6  IND d   1      -0.067  -3.727  -1.546  0.00  0.00     0.015 A 
ATOM      7  C7  IND d   1       0.128  -2.439  -1.958  0.00  0.00    -0.016 A 
ATOM      8  C8  IND d   1       0.070  -1.454  -0.983  0.00  0.00    -0.047 A 
ATOM      9  C9  IND d   1      -0.200  -1.752   0.359  0.00  0.00    -0.096 A 
ATOM     10  HN1 IND d   1       0.363   0.353  -1.801  0.00  0.00     0.298 HD
ENDROOT
TORSDOF 0
ENDMDL
