MODEL 1
REMARK minimizedAffinity -2.65806508
REMARK minimizedRMSD -1
REMARK  0 active torsions:
REMARK  status: ('A' for Active; 'I' for Inactive)
ROOT
ATOM      1  N1  IND d   1       1.048   0.065  -1.168  0.00  0.00    -0.196 N 
ATOM      2  C2  IND d   1       0.568   1.318  -0.904  0.00  0.00     0.054 A 
ATOM      3  C3  IND d   1      -0.409   1.261   0.028  0.00  0.00    -0.031 A 
ATOM      4  C4  IND d   1      -1.309  -0.769   1.332  0.00  0.00     0.051 A 
ATOM      5  C5  IND d   1      -1.206  -2.129   1.412  0.00  0.00    -0.031 A 
ATOM      6  C6  IND d   1      -0.327  -2.842   0.622  0.00  0.00     0.015 A 
ATOM      7  C7  IND d   1       0.494  -2.217  -0.273  0.00  0.00    -0.016 A 
ATOM      8  C8  IND d   1       0.387  -0.836  -0.362  0.00  0.00    -0.047 A 
ATOM      9  C9  IND d   1      -0.533  -0.111   0.406  0.00  0.00    -0.096 A 
ATOM     10  HN1 IND d   1       1.660  -0.127  -1.740  0.00  0.00     0.298 HD
ENDROOT
TORSDOF 0
ENDMDL
