MODEL 1
REMARK minimizedAffinity -3.05323792
REMARK minimizedRMSD -1
REMARK  0 active torsions:
REMARK  status: ('A' for Active; 'I' for Inactive)
ROOT
ATOM      1  N1  IND d   1      -1.170  -1.933   1.105  0.00  0.00    -0.196 N 
ATOM      2  C2  IND d   1      -1.276  -3.172   0.538  0.00  0.00     0.054 A 
ATOM      3  C3  IND d   1      -0.850  -3.141  -0.744  0.00  0.00    -0.031 A 
ATOM      4  C4  IND d   1       0.158  -1.189  -2.087  0.00  0.00     0.051 A 
ATOM      5  C5  IND d   1       0.423   0.149  -2.007  0.00  0.00    -0.031 A 
ATOM      6  C6  IND d   1       0.168   0.876  -0.862  0.00  0.00     0.015 A 
ATOM      7  C7  IND d   1      -0.354   0.287   0.254  0.00  0.00    -0.016 A 
ATOM      8  C8  IND d   1      -0.630  -1.071   0.175  0.00  0.00    -0.047 A 
ATOM      9  C9  IND d   1      -0.413  -1.805  -0.998  0.00  0.00    -0.096 A 
ATOM     10  HN1 IND d   1      -1.401  -1.726   1.907  0.00  0.00     0.298 HD
ENDROOT
TORSDOF 0
ENDMDL
