MODEL 1
REMARK minimizedAffinity -4.53632164
REMARK minimizedRMSD -1
REMARK  0 active torsions:
REMARK  status: ('A' for Active; 'I' for Inactive)
ROOT
ATOM      1  N1  IND d   1       0.465   0.133  -0.381  0.00  0.00    -0.196 N 
ATOM      2  C2  IND d   1      -0.064   0.582   0.797  0.00  0.00     0.054 A 
ATOM      3  C3  IND d   1      -0.668  -0.430   1.458  0.00  0.00    -0.031 A 
ATOM      4  C4  IND d   1      -0.819  -2.926   0.842  0.00  0.00     0.051 A 
ATOM      5  C5  IND d   1      -0.516  -3.809  -0.156  0.00  0.00    -0.031 A 
ATOM      6  C6  IND d   1       0.144  -3.416  -1.302  0.00  0.00     0.015 A 
ATOM      7  C7  IND d   1       0.539  -2.122  -1.488  0.00  0.00    -0.016 A 
ATOM      8  C8  IND d   1       0.228  -1.220  -0.480  0.00  0.00    -0.047 A 
ATOM      9  C9  IND d   1      -0.480  -1.605   0.666  0.00  0.00    -0.096 A 
ATOM     10  HN1 IND d   1       0.878   0.614  -0.961  0.00  0.00     0.298 HD
ENDROOT
TORSDOF 0
ENDMDL
