MODEL 1
REMARK minimizedAffinity -4.27388525
REMARK minimizedRMSD -1
REMARK  0 active torsions:
REMARK  status: ('A' for Active; 'I' for Inactive)
ROOT
ATOM      1  N1  IND d   1      -0.654  -2.750  -1.306  0.00  0.00    -0.196 N 
ATOM      2  C2  IND d   1      -1.144  -3.239  -0.127  0.00  0.00     0.054 A 
ATOM      3  C3  IND d   1      -1.185  -2.262   0.806  0.00  0.00    -0.031 A 
ATOM      4  C4  IND d   1      -0.592   0.234   0.589  0.00  0.00     0.051 A 
ATOM      5  C5  IND d   1      -0.065   1.144  -0.284  0.00  0.00    -0.031 A 
ATOM      6  C6  IND d   1       0.297   0.796  -1.569  0.00  0.00     0.015 A 
ATOM      7  C7  IND d   1       0.135  -0.478  -2.035  0.00  0.00    -0.016 A 
ATOM      8  C8  IND d   1      -0.393  -1.406  -1.149  0.00  0.00    -0.047 A 
ATOM      9  C9  IND d   1      -0.723  -1.069   0.170  0.00  0.00    -0.096 A 
ATOM     10  HN1 IND d   1      -0.529  -3.205  -2.025  0.00  0.00     0.298 HD
ENDROOT
TORSDOF 0
ENDMDL
