MODEL 1
REMARK minimizedAffinity -1.78109276
REMARK minimizedRMSD -1
REMARK  0 active torsions:
REMARK  status: ('A' for Active; 'I' for Inactive)
ROOT
ATOM      1  N1  IND d   1       0.072   0.510  -0.811  0.00  0.00    -0.196 N 
ATOM      2  C2  IND d   1      -0.474   0.875   0.388  0.00  0.00     0.054 A 
ATOM      3  C3  IND d   1      -0.897  -0.216   1.064  0.00  0.00    -0.031 A 
ATOM      4  C4  IND d   1      -0.702  -2.706   0.438  0.00  0.00     0.051 A 
ATOM      5  C5  IND d   1      -0.311  -3.534  -0.577  0.00  0.00    -0.031 A 
ATOM      6  C6  IND d   1       0.242  -3.046  -1.744  0.00  0.00     0.015 A 
ATOM      7  C7  IND d   1       0.435  -1.708  -1.935  0.00  0.00    -0.016 A 
ATOM      8  C8  IND d   1       0.032  -0.863  -0.910  0.00  0.00    -0.047 A 
ATOM      9  C9  IND d   1      -0.568  -1.349   0.258  0.00  0.00    -0.096 A 
ATOM     10  HN1 IND d   1       0.387   1.048  -1.403  0.00  0.00     0.298 HD
ENDROOT
TORSDOF 0
ENDMDL
