MODEL 1
REMARK minimizedAffinity -5.61953354
REMARK minimizedRMSD -1
REMARK  0 active torsions:
REMARK  status: ('A' for Active; 'I' for Inactive)
ROOT
ATOM      1  N1  IND d   1       0.442  -1.671  -2.313  0.00  0.00    -0.196 N 
ATOM      2  C2  IND d   1       0.378  -3.037  -2.313  0.00  0.00     0.054 A 
ATOM      3  C3  IND d   1      -0.006  -3.489  -1.098  0.00  0.00    -0.031 A 
ATOM      4  C4  IND d   1      -0.677  -2.163   1.004  0.00  0.00     0.051 A 
ATOM      5  C5  IND d   1      -0.742  -0.891   1.500  0.00  0.00    -0.031 A 
ATOM      6  C6  IND d   1      -0.411   0.208   0.734  0.00  0.00     0.015 A 
ATOM      7  C7  IND d   1      -0.012   0.076  -0.566  0.00  0.00    -0.016 A 
ATOM      8  C8  IND d   1       0.061  -1.214  -1.071  0.00  0.00    -0.047 A 
ATOM      9  C9  IND d   1      -0.232  -2.336  -0.286  0.00  0.00    -0.096 A 
ATOM     10  HN1 IND d   1       0.681  -1.180  -2.978  0.00  0.00     0.298 HD
ENDROOT
TORSDOF 0
ENDMDL
