MODEL 1
REMARK minimizedAffinity -5.53452778
REMARK minimizedRMSD -1
REMARK  0 active torsions:
REMARK  status: ('A' for Active; 'I' for Inactive)
ROOT
ATOM      1  N1  IND d   1       0.197  -1.102  -1.367  0.00  0.00    -0.196 N 
ATOM      2  C2  IND d   1       0.509  -2.431  -1.286  0.00  0.00     0.054 A 
ATOM      3  C3  IND d   1       0.236  -2.903  -0.049  0.00  0.00    -0.031 A 
ATOM      4  C4  IND d   1      -0.820  -1.698   1.966  0.00  0.00     0.051 A 
ATOM      5  C5  IND d   1      -1.242  -0.468   2.385  0.00  0.00    -0.031 A 
ATOM      6  C6  IND d   1      -1.208   0.636   1.558  0.00  0.00     0.015 A 
ATOM      7  C7  IND d   1      -0.759   0.547   0.270  0.00  0.00    -0.016 A 
ATOM      8  C8  IND d   1      -0.323  -0.699  -0.157  0.00  0.00    -0.047 A 
ATOM      9  C9  IND d   1      -0.316  -1.814   0.692  0.00  0.00    -0.096 A 
ATOM     10  HN1 IND d   1       0.307  -0.602  -2.058  0.00  0.00     0.298 HD
ENDROOT
TORSDOF 0
ENDMDL
