MODEL 1
REMARK minimizedAffinity -6.09685469
REMARK minimizedRMSD -1
REMARK  0 active torsions:
REMARK  status: ('A' for Active; 'I' for Inactive)
ROOT
ATOM      1  N1  IND d   1      -0.506   0.600  -1.174  0.00  0.00    -0.196 N 
ATOM      2  C2  IND d   1      -1.051   1.177  -0.061  0.00  0.00     0.054 A 
ATOM      3  C3  IND d   1      -1.242   0.249   0.904  0.00  0.00    -0.031 A 
ATOM      4  C4  IND d   1      -0.640  -2.254   0.908  0.00  0.00     0.051 A 
ATOM      5  C5  IND d   1      -0.157  -3.247   0.102  0.00  0.00    -0.031 A 
ATOM      6  C6  IND d   1       0.245  -3.003  -1.195  0.00  0.00     0.015 A 
ATOM      7  C7  IND d   1       0.189  -1.749  -1.734  0.00  0.00    -0.016 A 
ATOM      8  C8  IND d   1      -0.307  -0.740  -0.922  0.00  0.00    -0.047 A 
ATOM      9  C9  IND d   1      -0.756  -0.989   0.382  0.00  0.00    -0.096 A 
ATOM     10  HN1 IND d   1      -0.320   1.006  -1.909  0.00  0.00     0.298 HD
ENDROOT
TORSDOF 0
ENDMDL
