MODEL 1
REMARK minimizedAffinity -5.26151085
REMARK minimizedRMSD -1
REMARK  0 active torsions:
REMARK  status: ('A' for Active; 'I' for Inactive)
ROOT
ATOM      1  N1  IND d   1       0.186   0.269  -1.228  0.00  0.00    -0.196 N 
ATOM      2  C2  IND d   1      -0.229   0.686   0.006  0.00  0.00     0.054 A 
ATOM      3  C3  IND d   1      -0.519  -0.376   0.789  0.00  0.00    -0.031 A 
ATOM      4  C4  IND d   1      -0.287  -2.891   0.286  0.00  0.00     0.051 A 
ATOM      5  C5  IND d   1       0.018  -3.764  -0.719  0.00  0.00    -0.031 A 
ATOM      6  C6  IND d   1       0.406  -3.329  -1.970  0.00  0.00     0.015 A 
ATOM      7  C7  IND d   1       0.514  -1.999  -2.260  0.00  0.00    -0.016 A 
ATOM      8  C8  IND d   1       0.198  -1.109  -1.244  0.00  0.00    -0.047 A 
ATOM      9  C9  IND d   1      -0.237  -1.544   0.015  0.00  0.00    -0.096 A 
ATOM     10  HN1 IND d   1       0.404   0.780  -1.884  0.00  0.00     0.298 HD
ENDROOT
TORSDOF 0
ENDMDL
