MODEL 1
REMARK minimizedAffinity -6.10901785
REMARK minimizedRMSD -1
REMARK  0 active torsions:
REMARK  status: ('A' for Active; 'I' for Inactive)
ROOT
ATOM      1  N1  IND d   1      -0.217   0.172  -1.030  0.00  0.00    -0.196 N 
ATOM      2  C2  IND d   1      -0.827   0.640   0.100  0.00  0.00     0.054 A 
ATOM      3  C3  IND d   1      -1.107  -0.381   0.940  0.00  0.00    -0.031 A 
ATOM      4  C4  IND d   1      -0.564  -2.887   0.708  0.00  0.00     0.051 A 
ATOM      5  C5  IND d   1      -0.047  -3.800  -0.168  0.00  0.00    -0.031 A 
ATOM      6  C6  IND d   1       0.452  -3.428  -1.400  0.00  0.00     0.015 A 
ATOM      7  C7  IND d   1       0.463  -2.121  -1.799  0.00  0.00    -0.016 A 
ATOM      8  C8  IND d   1      -0.067  -1.192  -0.915  0.00  0.00    -0.047 A 
ATOM      9  C9  IND d   1      -0.614  -1.569   0.319  0.00  0.00    -0.096 A 
ATOM     10  HN1 IND d   1       0.031   0.650  -1.701  0.00  0.00     0.298 HD
ENDROOT
TORSDOF 0
ENDMDL
