MODEL 1
REMARK minimizedAffinity -3.89085507
REMARK minimizedRMSD -1
REMARK  0 active torsions:
REMARK  status: ('A' for Active; 'I' for Inactive)
ROOT
ATOM      1  N1  IND d   1       0.054   0.439  -0.477  0.00  0.00    -0.196 N 
ATOM      2  C2  IND d   1      -0.299   0.629   0.830  0.00  0.00     0.054 A 
ATOM      3  C3  IND d   1      -0.596  -0.553   1.414  0.00  0.00    -0.031 A 
ATOM      4  C4  IND d   1      -0.474  -2.934   0.443  0.00  0.00     0.051 A 
ATOM      5  C5  IND d   1      -0.239  -3.612  -0.721  0.00  0.00    -0.031 A 
ATOM      6  C6  IND d   1       0.115  -2.962  -1.885  0.00  0.00     0.015 A 
ATOM      7  C7  IND d   1       0.260  -1.604  -1.927  0.00  0.00    -0.016 A 
ATOM      8  C8  IND d   1       0.015  -0.911  -0.749  0.00  0.00    -0.047 A 
ATOM      9  C9  IND d   1      -0.386  -1.562   0.425  0.00  0.00    -0.096 A 
ATOM     10  HN1 IND d   1       0.265   1.058  -1.035  0.00  0.00     0.298 HD
ENDROOT
TORSDOF 0
ENDMDL
