MODEL 1
REMARK minimizedAffinity -5.7881465
REMARK minimizedRMSD -1
REMARK  0 active torsions:
REMARK  status: ('A' for Active; 'I' for Inactive)
ROOT
ATOM      1  N1  IND d   1       0.325   0.445  -0.867  0.00  0.00    -0.196 N 
ATOM      2  C2  IND d   1      -0.293   0.914   0.259  0.00  0.00     0.054 A 
ATOM      3  C3  IND d   1      -0.735  -0.115   1.016  0.00  0.00    -0.031 A 
ATOM      4  C4  IND d   1      -0.465  -2.649   0.650  0.00  0.00     0.051 A 
ATOM      5  C5  IND d   1      -0.004  -3.564  -0.255  0.00  0.00    -0.031 A 
ATOM      6  C6  IND d   1       0.605  -3.181  -1.433  0.00  0.00     0.015 A 
ATOM      7  C7  IND d   1       0.786  -1.863  -1.745  0.00  0.00    -0.016 A 
ATOM      8  C8  IND d   1       0.313  -0.932  -0.832  0.00  0.00    -0.047 A 
ATOM      9  C9  IND d   1      -0.343  -1.314   0.345  0.00  0.00    -0.096 A 
ATOM     10  HN1 IND d   1       0.664   0.929  -1.492  0.00  0.00     0.298 HD
ENDROOT
TORSDOF 0
ENDMDL
