MODEL 1
REMARK minimizedAffinity 9.34037018
REMARK minimizedRMSD -1
REMARK  1 active torsions:
REMARK  status: ('A' for Active; 'I' for Inactive)
REMARK    1  A    between atoms: N_2  and  C1_3 
ROOT
ATOM      1  C1  UNL d   1       4.080  -2.074   3.665  0.00  0.00     0.143 A 
ATOM      2  C2  UNL d   1       2.986  -2.224   4.524  0.00  0.00    -0.057 A 
ATOM      3  C3  UNL d   1       1.757  -1.612   4.249  0.00  0.00     0.033 A 
ATOM      4  C4  UNL d   1       1.609  -0.813   3.120  0.00  0.00    -0.042 A 
ATOM      5  C5  UNL d   1       2.690  -0.629   2.266  0.00  0.00     0.033 A 
ATOM      6  C6  UNL d   1       3.912  -1.248   2.542  0.00  0.00    -0.057 A 
ENDROOT
BRANCH   1   7
ATOM      7  N   UNL d   1       5.356  -2.576   3.934  0.00  0.00    -0.732 N 
ATOM      8  C   UNL d   1       6.000  -2.308   5.202  0.00  0.00     0.284 C 
ATOM      9  H3  UNL d   1       5.477  -3.528   3.599  0.00  0.00     0.395 HD
ENDBRANCH   1   7
TORSDOF 1
ENDMDL
