MODEL 1
REMARK minimizedAffinity 5.51545238
REMARK minimizedRMSD -1
REMARK  1 active torsions:
REMARK  status: ('A' for Active; 'I' for Inactive)
REMARK    1  A    between atoms: N_2  and  C1_3 
ROOT
ATOM      1  C1  UNL d   1       4.252  -1.831   4.202  0.00  0.00     0.143 A 
ATOM      2  C2  UNL d   1       3.279  -2.636   4.805  0.00  0.00    -0.057 A 
ATOM      3  C3  UNL d   1       1.925  -2.508   4.474  0.00  0.00     0.033 A 
ATOM      4  C4  UNL d   1       1.515  -1.549   3.553  0.00  0.00    -0.042 A 
ATOM      5  C5  UNL d   1       2.462  -0.721   2.961  0.00  0.00     0.033 A 
ATOM      6  C6  UNL d   1       3.814  -0.858   3.290  0.00  0.00    -0.057 A 
ENDROOT
BRANCH   1   7
ATOM      7  N   UNL d   1       5.602  -1.843   4.561  0.00  0.00    -0.732 N 
ATOM      8  C   UNL d   1       5.999  -2.091   5.931  0.00  0.00     0.284 C 
ATOM      9  H3  UNL d   1       6.184  -2.310   3.869  0.00  0.00     0.395 HD
ENDBRANCH   1   7
TORSDOF 1
ENDMDL
