MODEL 1
REMARK minimizedAffinity 2.96181178
REMARK minimizedRMSD -1
REMARK  1 active torsions:
REMARK  status: ('A' for Active; 'I' for Inactive)
REMARK    1  A    between atoms: N_2  and  C1_3 
ROOT
ATOM      1  C1  UNL d   1       3.755  -2.266   4.965  0.00  0.00     0.143 A 
ATOM      2  C2  UNL d   1       2.381  -2.061   5.124  0.00  0.00    -0.057 A 
ATOM      3  C3  UNL d   1       1.595  -1.565   4.077  0.00  0.00     0.033 A 
ATOM      4  C4  UNL d   1       2.177  -1.238   2.857  0.00  0.00    -0.042 A 
ATOM      5  C5  UNL d   1       3.546  -1.410   2.685  0.00  0.00     0.033 A 
ATOM      6  C6  UNL d   1       4.324  -1.912   3.732  0.00  0.00    -0.057 A 
ENDROOT
BRANCH   1   7
ATOM      7  N   UNL d   1       4.607  -2.663   5.999  0.00  0.00    -0.732 N 
ATOM      8  C   UNL d   1       5.999  -2.269   5.999  0.00  0.00     0.284 C 
ATOM      9  H3  UNL d   1       4.160  -2.611   6.912  0.00  0.00     0.395 HD
ENDBRANCH   1   7
TORSDOF 1
ENDMDL
