MODEL 1
REMARK minimizedAffinity 13.5675678
REMARK minimizedRMSD -1
REMARK  1 active torsions:
REMARK  status: ('A' for Active; 'I' for Inactive)
REMARK    1  A    between atoms: N_2  and  C1_3 
ROOT
ATOM      1  C1  UNL d   1       0.914  -3.264   4.575  0.00  0.00     0.143 A 
ATOM      2  C2  UNL d   1       1.538  -4.333   3.923  0.00  0.00    -0.057 A 
ATOM      3  C3  UNL d   1       1.266  -5.659   4.279  0.00  0.00     0.033 A 
ATOM      4  C4  UNL d   1       0.385  -5.941   5.317  0.00  0.00    -0.042 A 
ATOM      5  C5  UNL d   1      -0.228  -4.894   5.997  0.00  0.00     0.033 A 
ATOM      6  C6  UNL d   1       0.042  -3.571   5.632  0.00  0.00    -0.057 A 
ENDROOT
BRANCH   1   7
ATOM      7  N   UNL d   1       1.216  -1.922   4.334  0.00  0.00    -0.732 N 
ATOM      8  C   UNL d   1       1.970  -1.536   3.160  0.00  0.00     0.284 C 
ATOM      9  H3  UNL d   1       0.437  -1.304   4.550  0.00  0.00     0.395 HD
ENDBRANCH   1   7
TORSDOF 1
ENDMDL
