MODEL 1
REMARK minimizedAffinity 13.2767715
REMARK minimizedRMSD -1
REMARK  1 active torsions:
REMARK  status: ('A' for Active; 'I' for Inactive)
REMARK    1  A    between atoms: N_2  and  C1_3 
ROOT
ATOM      1  C1  UNL d   1       1.170  -0.189   0.941  0.00  0.00     0.143 A 
ATOM      2  C2  UNL d   1       1.288  -1.042  -0.162  0.00  0.00    -0.057 A 
ATOM      3  C3  UNL d   1       0.254  -1.166  -1.098  0.00  0.00     0.033 A 
ATOM      4  C4  UNL d   1      -0.932  -0.458  -0.931  0.00  0.00    -0.042 A 
ATOM      5  C5  UNL d   1      -1.082   0.376   0.172  0.00  0.00     0.033 A 
ATOM      6  C6  UNL d   1      -0.043   0.500   1.099  0.00  0.00    -0.057 A 
ENDROOT
BRANCH   1   7
ATOM      7  N   UNL d   1       2.122  -0.098   1.959  0.00  0.00    -0.732 N 
ATOM      8  C   UNL d   1       2.124  -1.043   3.054  0.00  0.00     0.284 C 
ATOM      9  H3  UNL d   1       3.049   0.130   1.604  0.00  0.00     0.395 HD
ENDBRANCH   1   7
TORSDOF 1
ENDMDL
