MODEL 1
REMARK minimizedAffinity 11.0777941
REMARK minimizedRMSD -1
REMARK  1 active torsions:
REMARK  status: ('A' for Active; 'I' for Inactive)
REMARK    1  A    between atoms: N_2  and  C1_3 
ROOT
ATOM      1  C1  UNL d   1       3.544  -2.254   4.381  0.00  0.00     0.143 A 
ATOM      2  C2  UNL d   1       2.239  -2.387   4.868  0.00  0.00    -0.057 A 
ATOM      3  C3  UNL d   1       1.140  -1.923   4.135  0.00  0.00     0.033 A 
ATOM      4  C4  UNL d   1       1.329  -1.290   2.911  0.00  0.00    -0.042 A 
ATOM      5  C5  UNL d   1       2.619  -1.125   2.419  0.00  0.00     0.033 A 
ATOM      6  C6  UNL d   1       3.712  -1.596   3.152  0.00  0.00    -0.057 A 
ENDROOT
BRANCH   1   7
ATOM      7  N   UNL d   1       4.685  -2.606   5.106  0.00  0.00    -0.732 N 
ATOM      8  C   UNL d   1       5.996  -2.539   4.497  0.00  0.00     0.284 C 
ATOM      9  H3  UNL d   1       4.654  -2.268   6.066  0.00  0.00     0.395 HD
ENDBRANCH   1   7
TORSDOF 1
ENDMDL
