MODEL 1
REMARK minimizedAffinity -1.95065284
REMARK minimizedRMSD -1
REMARK  0 active torsions:
REMARK  status: ('A' for Active; 'I' for Inactive)
ROOT
ATOM      1  C   UNL d   1       5.844   5.611  -1.883  0.00  0.00     0.172 C 
ATOM      2  N   UNL d   1       5.358   5.444  -3.233  0.00  0.00    -0.070 N 
ATOM      3  C1  UNL d   1       4.196   5.968  -3.733  0.00  0.00    -0.004 A 
ATOM      4  C2  UNL d   1       4.093   5.582  -5.052  0.00  0.00    -0.047 A 
ATOM      5  C3  UNL d   1       5.232   4.799  -5.355  0.00  0.00    -0.047 A 
ATOM      6  C4  UNL d   1       5.998   4.729  -4.211  0.00  0.00    -0.004 A 
ENDROOT
TORSDOF 0
ENDMDL
