MODEL 1
REMARK minimizedAffinity -3.09843326
REMARK minimizedRMSD -1
REMARK  0 active torsions:
REMARK  status: ('A' for Active; 'I' for Inactive)
ROOT
ATOM      1  C   UNL d   1       5.583   5.592  -2.549  0.00  0.00     0.172 C 
ATOM      2  N   UNL d   1       5.442   5.046  -3.879  0.00  0.00    -0.070 N 
ATOM      3  C1  UNL d   1       6.000   3.878  -4.326  0.00  0.00    -0.004 A 
ATOM      4  C2  UNL d   1       5.630   3.711  -5.643  0.00  0.00    -0.047 A 
ATOM      5  C3  UNL d   1       4.823   4.817  -6.000  0.00  0.00    -0.047 A 
ATOM      6  C4  UNL d   1       4.723   5.628  -4.889  0.00  0.00    -0.004 A 
ENDROOT
TORSDOF 0
ENDMDL
