MODEL 1
REMARK minimizedAffinity -3.19297719
REMARK minimizedRMSD -1
REMARK  0 active torsions:
REMARK  status: ('A' for Active; 'I' for Inactive)
ROOT
ATOM      1  C   UNL d   1       5.685   3.699  -5.604  0.00  0.00     0.172 C 
ATOM      2  N   UNL d   1       5.245   4.307  -4.370  0.00  0.00    -0.070 N 
ATOM      3  C1  UNL d   1       4.025   4.118  -3.778  0.00  0.00    -0.004 A 
ATOM      4  C2  UNL d   1       3.995   4.870  -2.623  0.00  0.00    -0.047 A 
ATOM      5  C3  UNL d   1       5.240   5.534  -2.518  0.00  0.00    -0.047 A 
ATOM      6  C4  UNL d   1       5.995   5.168  -3.613  0.00  0.00    -0.004 A 
ENDROOT
TORSDOF 0
ENDMDL
