MODEL 1
REMARK minimizedAffinity -3.63810205
REMARK minimizedRMSD -1
REMARK  0 active torsions:
REMARK  status: ('A' for Active; 'I' for Inactive)
ROOT
ATOM      1  C   UNL d   1       3.713   4.991  -2.602  0.00  0.00     0.172 C 
ATOM      2  N   UNL d   1       4.374   4.289  -3.677  0.00  0.00    -0.070 N 
ATOM      3  C1  UNL d   1       5.723   4.074  -3.778  0.00  0.00    -0.004 A 
ATOM      4  C2  UNL d   1       5.951   3.370  -4.941  0.00  0.00    -0.047 A 
ATOM      5  C3  UNL d   1       4.697   3.155  -5.560  0.00  0.00    -0.047 A 
ATOM      6  C4  UNL d   1       3.738   3.735  -4.756  0.00  0.00    -0.004 A 
ENDROOT
TORSDOF 0
ENDMDL
