MODEL 1
REMARK minimizedAffinity -2.00316429
REMARK minimizedRMSD -1
REMARK  0 active torsions:
REMARK  status: ('A' for Active; 'I' for Inactive)
ROOT
ATOM      1  C   UNL d   1       5.997   4.899  -2.538  0.00  0.00     0.172 C 
ATOM      2  N   UNL d   1       5.470   4.386  -3.781  0.00  0.00    -0.070 N 
ATOM      3  C1  UNL d   1       4.375   4.871  -4.444  0.00  0.00    -0.004 A 
ATOM      4  C2  UNL d   1       4.202   4.114  -5.583  0.00  0.00    -0.047 A 
ATOM      5  C3  UNL d   1       5.229   3.140  -5.604  0.00  0.00    -0.047 A 
ATOM      6  C4  UNL d   1       6.000   3.332  -4.477  0.00  0.00    -0.004 A 
ENDROOT
TORSDOF 0
ENDMDL
