MODEL 1
REMARK minimizedAffinity -3.07478166
REMARK minimizedRMSD -1
REMARK  0 active torsions:
REMARK  status: ('A' for Active; 'I' for Inactive)
ROOT
ATOM      1  C   UNL d   1       4.893   3.563  -5.940  0.00  0.00     0.172 C 
ATOM      2  N   UNL d   1       4.896   4.063  -4.586  0.00  0.00    -0.070 N 
ATOM      3  C1  UNL d   1       3.810   4.123  -3.754  0.00  0.00    -0.004 A 
ATOM      4  C2  UNL d   1       4.226   4.658  -2.554  0.00  0.00    -0.047 A 
ATOM      5  C3  UNL d   1       5.610   4.930  -2.669  0.00  0.00    -0.047 A 
ATOM      6  C4  UNL d   1       5.999   4.552  -3.937  0.00  0.00    -0.004 A 
ENDROOT
TORSDOF 0
ENDMDL
