MODEL 1
REMARK minimizedAffinity -2.77670979
REMARK minimizedRMSD -1
REMARK  0 active torsions:
REMARK  status: ('A' for Active; 'I' for Inactive)
ROOT
ATOM      1  C   UNL d   1       5.277   4.866  -2.473  0.00  0.00     0.172 C 
ATOM      2  N   UNL d   1       5.298   4.347  -3.820  0.00  0.00    -0.070 N 
ATOM      3  C1  UNL d   1       6.000   3.249  -4.241  0.00  0.00    -0.004 A 
ATOM      4  C2  UNL d   1       5.757   3.084  -5.587  0.00  0.00    -0.047 A 
ATOM      5  C3  UNL d   1       4.880   4.119  -5.990  0.00  0.00    -0.047 A 
ATOM      6  C4  UNL d   1       4.612   4.886  -4.876  0.00  0.00    -0.004 A 
ENDROOT
TORSDOF 0
ENDMDL
