MODEL 1
REMARK minimizedAffinity -2.29063225
REMARK minimizedRMSD -1
REMARK  0 active torsions:
REMARK  status: ('A' for Active; 'I' for Inactive)
ROOT
ATOM      1  C   UNL d   1       4.779   5.221  -5.046  0.00  0.00     0.172 C 
ATOM      2  N   UNL d   1       5.080   5.154  -3.636  0.00  0.00    -0.070 N 
ATOM      3  C1  UNL d   1       5.999   5.928  -2.978  0.00  0.00    -0.004 A 
ATOM      4  C2  UNL d   1       5.987   5.560  -1.650  0.00  0.00    -0.047 A 
ATOM      5  C3  UNL d   1       5.029   4.529  -1.505  0.00  0.00    -0.047 A 
ATOM      6  C4  UNL d   1       4.482   4.298  -2.749  0.00  0.00    -0.004 A 
ENDROOT
TORSDOF 0
ENDMDL
