MODEL 1
REMARK minimizedAffinity -3.46573663
REMARK minimizedRMSD -1
REMARK  0 active torsions:
REMARK  status: ('A' for Active; 'I' for Inactive)
ROOT
ATOM      1  C   UNL d   1       5.999   3.365  -5.580  0.00  0.00     0.172 C 
ATOM      2  N   UNL d   1       5.363   4.097  -4.510  0.00  0.00    -0.070 N 
ATOM      3  C1  UNL d   1       5.997   4.631  -3.420  0.00  0.00    -0.004 A 
ATOM      4  C2  UNL d   1       5.045   5.248  -2.637  0.00  0.00    -0.047 A 
ATOM      5  C3  UNL d   1       3.795   5.078  -3.278  0.00  0.00    -0.047 A 
ATOM      6  C4  UNL d   1       4.021   4.362  -4.435  0.00  0.00    -0.004 A 
ENDROOT
TORSDOF 0
ENDMDL
