MODEL 1
REMARK minimizedAffinity -2.43871689
REMARK minimizedRMSD -1
REMARK  0 active torsions:
REMARK  status: ('A' for Active; 'I' for Inactive)
ROOT
ATOM      1  C   UNL d   1       5.995   3.020  -4.660  0.00  0.00     0.172 C 
ATOM      2  N   UNL d   1       5.472   4.229  -4.068  0.00  0.00    -0.070 N 
ATOM      3  C1  UNL d   1       5.998   4.879  -2.983  0.00  0.00    -0.004 A 
ATOM      4  C2  UNL d   1       5.215   5.985  -2.732  0.00  0.00    -0.047 A 
ATOM      5  C3  UNL d   1       4.182   6.000  -3.699  0.00  0.00    -0.047 A 
ATOM      6  C4  UNL d   1       4.365   4.902  -4.513  0.00  0.00    -0.004 A 
ENDROOT
TORSDOF 0
ENDMDL
