MODEL 1
REMARK minimizedAffinity -2.94843578
REMARK minimizedRMSD -1
REMARK  0 active torsions:
REMARK  status: ('A' for Active; 'I' for Inactive)
ROOT
ATOM      1  C   UNL d   1       5.663   5.249  -2.250  0.00  0.00     0.172 C 
ATOM      2  N   UNL d   1       5.274   4.950  -3.608  0.00  0.00    -0.070 N 
ATOM      3  C1  UNL d   1       4.133   5.387  -4.226  0.00  0.00    -0.004 A 
ATOM      4  C2  UNL d   1       4.131   4.887  -5.510  0.00  0.00    -0.047 A 
ATOM      5  C3  UNL d   1       5.311   4.122  -5.669  0.00  0.00    -0.047 A 
ATOM      6  C4  UNL d   1       6.000   4.178  -4.476  0.00  0.00    -0.004 A 
ENDROOT
TORSDOF 0
ENDMDL
