MODEL 1
REMARK minimizedAffinity -3.23845267
REMARK minimizedRMSD -1
REMARK  0 active torsions:
REMARK  status: ('A' for Active; 'I' for Inactive)
ROOT
ATOM      1  C   UNL d   1       5.997   2.916  -5.292  0.00  0.00     0.172 C 
ATOM      2  N   UNL d   1       5.356   3.754  -4.305  0.00  0.00    -0.070 N 
ATOM      3  C1  UNL d   1       6.000   4.555  -3.400  0.00  0.00    -0.004 A 
ATOM      4  C2  UNL d   1       5.040   5.188  -2.640  0.00  0.00    -0.047 A 
ATOM      5  C3  UNL d   1       3.776   4.752  -3.104  0.00  0.00    -0.047 A 
ATOM      6  C4  UNL d   1       4.002   3.864  -4.135  0.00  0.00    -0.004 A 
ENDROOT
TORSDOF 0
ENDMDL
