MODEL 1
REMARK minimizedAffinity -1.57516778
REMARK minimizedRMSD -1
REMARK  0 active torsions:
REMARK  status: ('A' for Active; 'I' for Inactive)
ROOT
ATOM      1  C   UNL d   1       5.999   6.000  -1.080  0.00  0.00     0.172 C 
ATOM      2  N   UNL d   1       5.450   5.196  -2.146  0.00  0.00    -0.070 N 
ATOM      3  C1  UNL d   1       5.994   4.038  -2.634  0.00  0.00    -0.004 A 
ATOM      4  C2  UNL d   1       5.172   3.578  -3.641  0.00  0.00    -0.047 A 
ATOM      5  C3  UNL d   1       4.098   4.491  -3.763  0.00  0.00    -0.047 A 
ATOM      6  C4  UNL d   1       4.295   5.483  -2.825  0.00  0.00    -0.004 A 
ENDROOT
TORSDOF 0
ENDMDL
