MODEL 1
REMARK minimizedAffinity -2.59033394
REMARK minimizedRMSD -1
REMARK  0 active torsions:
REMARK  status: ('A' for Active; 'I' for Inactive)
ROOT
ATOM      1  C   UNL d   1       5.279   4.875  -5.999  0.00  0.00     0.172 C 
ATOM      2  N   UNL d   1       5.179   5.100  -4.576  0.00  0.00    -0.070 N 
ATOM      3  C1  UNL d   1       5.999   5.910  -3.836  0.00  0.00    -0.004 A 
ATOM      4  C2  UNL d   1       5.576   5.855  -2.526  0.00  0.00    -0.047 A 
ATOM      5  C3  UNL d   1       4.464   4.981  -2.476  0.00  0.00    -0.047 A 
ATOM      6  C4  UNL d   1       4.240   4.528  -3.759  0.00  0.00    -0.004 A 
ENDROOT
TORSDOF 0
ENDMDL
