MODEL 1
REMARK minimizedAffinity -1.92501938
REMARK minimizedRMSD -1
REMARK  0 active torsions:
REMARK  status: ('A' for Active; 'I' for Inactive)
ROOT
ATOM      1  C   UNL d   1       5.971   5.714  -2.130  0.00  0.00     0.172 C 
ATOM      2  N   UNL d   1       4.756   5.293  -2.787  0.00  0.00    -0.070 N 
ATOM      3  C1  UNL d   1       4.097   5.985  -3.767  0.00  0.00    -0.004 A 
ATOM      4  C2  UNL d   1       2.988   5.251  -4.130  0.00  0.00    -0.047 A 
ATOM      5  C3  UNL d   1       2.980   4.077  -3.340  0.00  0.00    -0.047 A 
ATOM      6  C4  UNL d   1       4.086   4.128  -2.518  0.00  0.00    -0.004 A 
ENDROOT
TORSDOF 0
ENDMDL
