MODEL 1
REMARK minimizedAffinity -1.53487074
REMARK minimizedRMSD -1
REMARK  0 active torsions:
REMARK  status: ('A' for Active; 'I' for Inactive)
ROOT
ATOM      1  C   UNL d   1       4.512   5.241  -5.743  0.00  0.00     0.172 C 
ATOM      2  N   UNL d   1       4.873   4.951  -4.375  0.00  0.00    -0.070 N 
ATOM      3  C1  UNL d   1       4.151   4.177  -3.506  0.00  0.00    -0.004 A 
ATOM      4  C2  UNL d   1       4.828   4.146  -2.306  0.00  0.00    -0.047 A 
ATOM      5  C3  UNL d   1       5.997   4.929  -2.459  0.00  0.00    -0.047 A 
ATOM      6  C4  UNL d   1       6.000   5.415  -3.750  0.00  0.00    -0.004 A 
ENDROOT
TORSDOF 0
ENDMDL
