MODEL 1
REMARK minimizedAffinity -2.73474717
REMARK minimizedRMSD -1
REMARK  0 active torsions:
REMARK  status: ('A' for Active; 'I' for Inactive)
ROOT
ATOM      1  C   UNL d   1       5.989   5.895  -2.152  0.00  0.00     0.172 C 
ATOM      2  N   UNL d   1       5.359   5.506  -3.392  0.00  0.00    -0.070 N 
ATOM      3  C1  UNL d   1       4.041   5.696  -3.712  0.00  0.00    -0.004 A 
ATOM      4  C2  UNL d   1       3.837   5.190  -4.977  0.00  0.00    -0.047 A 
ATOM      5  C3  UNL d   1       5.075   4.677  -5.433  0.00  0.00    -0.047 A 
ATOM      6  C4  UNL d   1       5.999   4.886  -4.432  0.00  0.00    -0.004 A 
ENDROOT
TORSDOF 0
ENDMDL
