MODEL 1
REMARK minimizedAffinity -2.17008853
REMARK minimizedRMSD -1
REMARK  0 active torsions:
REMARK  status: ('A' for Active; 'I' for Inactive)
ROOT
ATOM      1  C   UNL d   1       3.577  -3.359  -3.735  0.00  0.00     0.172 C 
ATOM      2  N   UNL d   1       4.559  -3.554  -2.694  0.00  0.00    -0.070 N 
ATOM      3  C1  UNL d   1       5.082  -2.571  -1.897  0.00  0.00    -0.004 A 
ATOM      4  C2  UNL d   1       5.981  -3.162  -1.035  0.00  0.00    -0.047 A 
ATOM      5  C3  UNL d   1       5.999  -4.547  -1.325  0.00  0.00    -0.047 A 
ATOM      6  C4  UNL d   1       5.109  -4.762  -2.356  0.00  0.00    -0.004 A 
ENDROOT
TORSDOF 0
ENDMDL
