MODEL 1
REMARK minimizedAffinity 0.133874908
REMARK minimizedRMSD -1
REMARK  0 active torsions:
REMARK  status: ('A' for Active; 'I' for Inactive)
ROOT
ATOM      1  C1  BNZ d   1      -1.004  -0.636  -1.192  0.00  0.00     0.000 A 
ATOM      2  C2  BNZ d   1      -0.157   0.274  -0.617  0.00  0.00     0.000 A 
ATOM      3  C3  BNZ d   1       1.157  -0.034  -0.399  0.00  0.00     0.000 A 
ATOM      4  C4  BNZ d   1       1.612  -1.263  -0.719  0.00  0.00     0.000 A 
ATOM      5  C5  BNZ d   1       0.768  -2.194  -1.290  0.00  0.00     0.000 A 
ATOM      6  C6  BNZ d   1      -0.545  -1.867  -1.544  0.00  0.00     0.000 A 
ENDROOT
TORSDOF 0
ENDMDL
