MODEL 1
REMARK minimizedAffinity 1.49756014
REMARK minimizedRMSD -1
REMARK  0 active torsions:
REMARK  status: ('A' for Active; 'I' for Inactive)
ROOT
ATOM      1  C1  BNZ d   1       2.126  -3.563   5.980  0.00  0.00     0.000 A 
ATOM      2  C2  BNZ d   1       1.112  -2.643   5.985  0.00  0.00     0.000 A 
ATOM      3  C3  BNZ d   1      -0.195  -3.042   6.000  0.00  0.00     0.000 A 
ATOM      4  C4  BNZ d   1      -0.487  -4.358   5.969  0.00  0.00     0.000 A 
ATOM      5  C5  BNZ d   1       0.525  -5.298   5.955  0.00  0.00     0.000 A 
ATOM      6  C6  BNZ d   1       1.839  -4.893   5.979  0.00  0.00     0.000 A 
ENDROOT
TORSDOF 0
ENDMDL
