MODEL 1
REMARK minimizedAffinity -0.877134085
REMARK minimizedRMSD -1
REMARK  0 active torsions:
REMARK  status: ('A' for Active; 'I' for Inactive)
ROOT
ATOM      1  C1  BNZ d   1      -0.777  -2.630   5.991  0.00  0.00     0.000 A 
ATOM      2  C2  BNZ d   1       0.357  -1.862   5.971  0.00  0.00     0.000 A 
ATOM      3  C3  BNZ d   1       1.594  -2.442   5.940  0.00  0.00     0.000 A 
ATOM      4  C4  BNZ d   1       1.697  -3.786   5.969  0.00  0.00     0.000 A 
ATOM      5  C5  BNZ d   1       0.564  -4.574   5.998  0.00  0.00     0.000 A 
ATOM      6  C6  BNZ d   1      -0.681  -3.987   5.991  0.00  0.00     0.000 A 
ENDROOT
TORSDOF 0
ENDMDL
