MODEL 1
REMARK minimizedAffinity -0.508976102
REMARK minimizedRMSD -1
REMARK  0 active torsions:
REMARK  status: ('A' for Active; 'I' for Inactive)
ROOT
ATOM      1  C1  BNZ d   1      -0.003  -1.127  -1.076  0.00  0.00     0.000 A 
ATOM      2  C2  BNZ d   1       1.338  -1.368  -0.932  0.00  0.00     0.000 A 
ATOM      3  C3  BNZ d   1       2.058  -0.751   0.052  0.00  0.00     0.000 A 
ATOM      4  C4  BNZ d   1       1.447   0.136   0.864  0.00  0.00     0.000 A 
ATOM      5  C5  BNZ d   1       0.099   0.397   0.725  0.00  0.00     0.000 A 
ATOM      6  C6  BNZ d   1      -0.632  -0.256  -0.242  0.00  0.00     0.000 A 
ENDROOT
TORSDOF 0
ENDMDL
