MODEL 1
REMARK minimizedAffinity -1.76217639
REMARK minimizedRMSD -1
REMARK  0 active torsions:
REMARK  status: ('A' for Active; 'I' for Inactive)
ROOT
ATOM      1  C1  BNZ d   1       1.476  -3.760   5.993  0.00  0.00     0.000 A 
ATOM      2  C2  BNZ d   1       0.549  -4.768   5.999  0.00  0.00     0.000 A 
ATOM      3  C3  BNZ d   1      -0.789  -4.489   5.978  0.00  0.00     0.000 A 
ATOM      4  C4  BNZ d   1      -1.198  -3.204   5.992  0.00  0.00     0.000 A 
ATOM      5  C5  BNZ d   1      -0.275  -2.176   5.996  0.00  0.00     0.000 A 
ATOM      6  C6  BNZ d   1       1.071  -2.461   5.978  0.00  0.00     0.000 A 
ENDROOT
TORSDOF 0
ENDMDL
