MODEL 1
REMARK minimizedAffinity 2.90001345
REMARK minimizedRMSD -1
REMARK  0 active torsions:
REMARK  status: ('A' for Active; 'I' for Inactive)
ROOT
ATOM      1  C1  BNZ d   1       1.140  -2.123  -0.144  0.00  0.00     0.000 A 
ATOM      2  C2  BNZ d   1       1.577  -2.312   1.140  0.00  0.00     0.000 A 
ATOM      3  C3  BNZ d   1       2.474  -1.451   1.708  0.00  0.00     0.000 A 
ATOM      4  C4  BNZ d   1       2.964  -0.428   0.980  0.00  0.00     0.000 A 
ATOM      5  C5  BNZ d   1       2.540  -0.229  -0.319  0.00  0.00     0.000 A 
ATOM      6  C6  BNZ d   1       1.607  -1.074  -0.875  0.00  0.00     0.000 A 
ENDROOT
TORSDOF 0
ENDMDL
