MODEL 1
REMARK minimizedAffinity -1.3475368
REMARK minimizedRMSD -1
REMARK  0 active torsions:
REMARK  status: ('A' for Active; 'I' for Inactive)
ROOT
ATOM      1  C1  BNZ d   1      -0.274  -4.566   6.000  0.00  0.00     0.000 A 
ATOM      2  C2  BNZ d   1      -0.756  -3.284   6.000  0.00  0.00     0.000 A 
ATOM      3  C3  BNZ d   1       0.097  -2.217   5.975  0.00  0.00     0.000 A 
ATOM      4  C4  BNZ d   1       1.429  -2.431   5.990  0.00  0.00     0.000 A 
ATOM      5  C5  BNZ d   1       1.930  -3.717   5.999  0.00  0.00     0.000 A 
ATOM      6  C6  BNZ d   1       1.068  -4.790   5.985  0.00  0.00     0.000 A 
ENDROOT
TORSDOF 0
ENDMDL
