MODEL 1
REMARK minimizedAffinity -0.739212871
REMARK minimizedRMSD -1
REMARK  0 active torsions:
REMARK  status: ('A' for Active; 'I' for Inactive)
ROOT
ATOM      1  C1  BNZ d   1      -3.730   1.860   1.506  0.00  0.00     0.000 A 
ATOM      2  C2  BNZ d   1      -3.742   0.798   0.642  0.00  0.00     0.000 A 
ATOM      3  C3  BNZ d   1      -4.884   0.074   0.440  0.00  0.00     0.000 A 
ATOM      4  C4  BNZ d   1      -5.999   0.387   1.131  0.00  0.00     0.000 A 
ATOM      5  C5  BNZ d   1      -5.999   1.449   2.013  0.00  0.00     0.000 A 
ATOM      6  C6  BNZ d   1      -4.859   2.200   2.185  0.00  0.00     0.000 A 
ENDROOT
TORSDOF 0
ENDMDL
