MODEL 1
REMARK minimizedAffinity 6.31865835
REMARK minimizedRMSD -1
REMARK  2 active torsions:
REMARK  status: ('A' for Active; 'I' for Inactive)
REMARK    1  A    between atoms: C1_2  and  C2_3 
REMARK    2  A    between atoms: C2_3  and  C3_4 
ROOT
ATOM      1  C3  UNL d   1      -3.276   1.798  -0.760  0.00  0.00    -0.075 A 
ATOM      2  C4  UNL d   1      -2.609   2.535   0.230  0.00  0.00     0.002 A 
ATOM      3  C5  UNL d   1      -1.217   2.628   0.226  0.00  0.00     0.002 A 
ATOM      4  C6  UNL d   1      -0.475   1.978  -0.758  0.00  0.00    -0.004 A 
ATOM      5  C7  UNL d   1      -1.126   1.230  -1.736  0.00  0.00     0.002 A 
ATOM      6  C8  UNL d   1      -2.519   1.139  -1.737  0.00  0.00     0.002 A 
ENDROOT
BRANCH   1   7
ATOM      7  C2  UNL d   1      -4.784   1.718  -0.779  0.00  0.00     0.056 C 
BRANCH   7   8
ATOM      8  C1  UNL d   1      -5.331   0.349  -1.199  0.00  0.00     0.007 C 
ATOM      9  C   UNL d   1      -6.000  -0.406  -0.058  0.00  0.00     0.009 C 
ENDBRANCH   7   8
ENDBRANCH   1   7
TORSDOF 2
ENDMDL
