MODEL 1
REMARK minimizedAffinity -1.50710416
REMARK minimizedRMSD -1
REMARK  2 active torsions:
REMARK  status: ('A' for Active; 'I' for Inactive)
REMARK    1  A    between atoms: C1_2  and  C2_3 
REMARK    2  A    between atoms: C2_3  and  C3_4 
ROOT
ATOM      1  C3  UNL d   1       2.095  -0.117   0.190  0.00  0.00    -0.075 A 
ATOM      2  C4  UNL d   1       3.185   0.614  -0.303  0.00  0.00     0.002 A 
ATOM      3  C5  UNL d   1       4.192  -0.020  -1.031  0.00  0.00     0.002 A 
ATOM      4  C6  UNL d   1       4.127  -1.391  -1.267  0.00  0.00    -0.004 A 
ATOM      5  C7  UNL d   1       3.057  -2.131  -0.768  0.00  0.00     0.002 A 
ATOM      6  C8  UNL d   1       2.046  -1.498  -0.042  0.00  0.00     0.002 A 
ENDROOT
BRANCH   1   7
ATOM      7  C2  UNL d   1       0.987   0.568   0.954  0.00  0.00     0.056 C 
BRANCH   7   8
ATOM      8  C1  UNL d   1       1.023   0.316   2.466  0.00  0.00     0.007 C 
ATOM      9  C   UNL d   1       2.043   1.181   3.194  0.00  0.00     0.009 C 
ENDBRANCH   7   8
ENDBRANCH   1   7
TORSDOF 2
ENDMDL
