MODEL 1
REMARK minimizedAffinity 3.3814168
REMARK minimizedRMSD -1
REMARK  2 active torsions:
REMARK  status: ('A' for Active; 'I' for Inactive)
REMARK    1  A    between atoms: C1_2  and  C2_3 
REMARK    2  A    between atoms: C2_3  and  C3_4 
ROOT
ATOM      1  C3  UNL d   1       1.824  -2.233  -0.380  0.00  0.00    -0.075 A 
ATOM      2  C4  UNL d   1       1.104  -1.987  -1.558  0.00  0.00     0.002 A 
ATOM      3  C5  UNL d   1      -0.031  -2.738  -1.865  0.00  0.00     0.002 A 
ATOM      4  C6  UNL d   1      -0.453  -3.751  -1.006  0.00  0.00    -0.004 A 
ATOM      5  C7  UNL d   1       0.264  -4.015   0.158  0.00  0.00     0.002 A 
ATOM      6  C8  UNL d   1       1.397  -3.262   0.470  0.00  0.00     0.002 A 
ENDROOT
BRANCH   1   7
ATOM      7  C2  UNL d   1       3.035  -1.404  -0.027  0.00  0.00     0.056 C 
BRANCH   7   8
ATOM      8  C1  UNL d   1       2.921   0.070  -0.431  0.00  0.00     0.007 C 
ATOM      9  C   UNL d   1       4.267   0.715  -0.735  0.00  0.00     0.009 C 
ENDBRANCH   7   8
ENDBRANCH   1   7
TORSDOF 2
ENDMDL
