MODEL 1
REMARK minimizedAffinity 0.109765023
REMARK minimizedRMSD -1
REMARK  2 active torsions:
REMARK  status: ('A' for Active; 'I' for Inactive)
REMARK    1  A    between atoms: C1_2  and  C2_3 
REMARK    2  A    between atoms: C2_3  and  C3_4 
ROOT
ATOM      1  C3  UNL d   1       2.053  -1.699  -0.396  0.00  0.00    -0.075 A 
ATOM      2  C4  UNL d   1       2.185  -0.394   0.099  0.00  0.00     0.002 A 
ATOM      3  C5  UNL d   1       3.208   0.437  -0.358  0.00  0.00     0.002 A 
ATOM      4  C6  UNL d   1       4.118  -0.029  -1.305  0.00  0.00    -0.004 A 
ATOM      5  C7  UNL d   1       4.007  -1.329  -1.791  0.00  0.00     0.002 A 
ATOM      6  C8  UNL d   1       2.981  -2.162  -1.340  0.00  0.00     0.002 A 
ENDROOT
BRANCH   1   7
ATOM      7  C2  UNL d   1       0.930  -2.594   0.072  0.00  0.00     0.056 C 
BRANCH   7   8
ATOM      8  C1  UNL d   1      -0.152  -2.841  -0.985  0.00  0.00     0.007 C 
ATOM      9  C   UNL d   1      -0.954  -4.112  -0.736  0.00  0.00     0.009 C 
ENDBRANCH   7   8
ENDBRANCH   1   7
TORSDOF 2
ENDMDL
