MODEL 1
REMARK minimizedAffinity 8.05616951
REMARK minimizedRMSD -1
REMARK  2 active torsions:
REMARK  status: ('A' for Active; 'I' for Inactive)
REMARK    1  A    between atoms: C1_2  and  C2_3 
REMARK    2  A    between atoms: C2_3  and  C3_4 
ROOT
ATOM      1  C3  UNL d   1       1.094   0.960   0.618  0.00  0.00    -0.075 A 
ATOM      2  C4  UNL d   1      -0.045   1.110  -0.186  0.00  0.00     0.002 A 
ATOM      3  C5  UNL d   1      -1.317   1.136   0.385  0.00  0.00     0.002 A 
ATOM      4  C6  UNL d   1      -1.468   1.002   1.763  0.00  0.00    -0.004 A 
ATOM      5  C7  UNL d   1      -0.345   0.836   2.570  0.00  0.00     0.002 A 
ATOM      6  C8  UNL d   1       0.930   0.814   2.002  0.00  0.00     0.002 A 
ENDROOT
BRANCH   1   7
ATOM      7  C2  UNL d   1       2.476   0.960   0.010  0.00  0.00     0.056 C 
BRANCH   7   8
ATOM      8  C1  UNL d   1       2.705  -0.152  -1.020  0.00  0.00     0.007 C 
ATOM      9  C   UNL d   1       2.555  -1.550  -0.436  0.00  0.00     0.009 C 
ENDBRANCH   7   8
ENDBRANCH   1   7
TORSDOF 2
ENDMDL
