MODEL 1
REMARK minimizedAffinity 7.02526426
REMARK minimizedRMSD -1
REMARK  2 active torsions:
REMARK  status: ('A' for Active; 'I' for Inactive)
REMARK    1  A    between atoms: C1_2  and  C2_3 
REMARK    2  A    between atoms: C2_3  and  C3_4 
ROOT
ATOM      1  C3  UNL d   1       2.655  -0.518  -0.152  0.00  0.00    -0.075 A 
ATOM      2  C4  UNL d   1       2.553  -1.099  -1.424  0.00  0.00     0.002 A 
ATOM      3  C5  UNL d   1       2.044  -2.389  -1.575  0.00  0.00     0.002 A 
ATOM      4  C6  UNL d   1       1.641  -3.118  -0.458  0.00  0.00    -0.004 A 
ATOM      5  C7  UNL d   1       1.754  -2.557   0.813  0.00  0.00     0.002 A 
ATOM      6  C8  UNL d   1       2.259  -1.264   0.966  0.00  0.00     0.002 A 
ENDROOT
BRANCH   1   7
ATOM      7  C2  UNL d   1       3.178   0.889   0.015  0.00  0.00     0.056 C 
BRANCH   7   8
ATOM      8  C1  UNL d   1       4.425   1.194  -0.820  0.00  0.00     0.007 C 
ATOM      9  C   UNL d   1       5.618   1.630   0.019  0.00  0.00     0.009 C 
ENDBRANCH   7   8
ENDBRANCH   1   7
TORSDOF 2
ENDMDL
