MODEL 1
REMARK minimizedAffinity -0.035391178
REMARK minimizedRMSD -1
REMARK  2 active torsions:
REMARK  status: ('A' for Active; 'I' for Inactive)
REMARK    1  A    between atoms: C1_2  and  C2_3 
REMARK    2  A    between atoms: C2_3  and  C3_4 
ROOT
ATOM      1  C3  UNL d   1       1.146   1.105   0.862  0.00  0.00    -0.075 A 
ATOM      2  C4  UNL d   1       1.044   1.132   2.261  0.00  0.00     0.002 A 
ATOM      3  C5  UNL d   1      -0.197   1.292   2.878  0.00  0.00     0.002 A 
ATOM      4  C6  UNL d   1      -1.348   1.437   2.106  0.00  0.00    -0.004 A 
ATOM      5  C7  UNL d   1      -1.257   1.429   0.716  0.00  0.00     0.002 A 
ATOM      6  C8  UNL d   1      -0.017   1.264   0.096  0.00  0.00     0.002 A 
ENDROOT
BRANCH   1   7
ATOM      7  C2  UNL d   1       2.482   0.903   0.188  0.00  0.00     0.056 C 
BRANCH   7   8
ATOM      8  C1  UNL d   1       3.438   2.091   0.331  0.00  0.00     0.007 C 
ATOM      9  C   UNL d   1       4.889   1.732   0.038  0.00  0.00     0.009 C 
ENDBRANCH   7   8
ENDBRANCH   1   7
TORSDOF 2
ENDMDL
