MODEL 1
REMARK minimizedAffinity 0.191369712
REMARK minimizedRMSD -1
REMARK  2 active torsions:
REMARK  status: ('A' for Active; 'I' for Inactive)
REMARK    1  A    between atoms: C1_2  and  C2_3 
REMARK    2  A    between atoms: C2_3  and  C3_4 
ROOT
ATOM      1  C3  UNL d   1       1.163   0.622   0.832  0.00  0.00    -0.075 A 
ATOM      2  C4  UNL d   1       0.083   1.087   0.068  0.00  0.00     0.002 A 
ATOM      3  C5  UNL d   1      -1.128   1.414   0.678  0.00  0.00     0.002 A 
ATOM      4  C6  UNL d   1      -1.278   1.272   2.056  0.00  0.00    -0.004 A 
ATOM      5  C7  UNL d   1      -0.217   0.795   2.823  0.00  0.00     0.002 A 
ATOM      6  C8  UNL d   1       0.998   0.471   2.215  0.00  0.00     0.002 A 
ENDROOT
BRANCH   1   7
ATOM      7  C2  UNL d   1       2.486   0.295   0.182  0.00  0.00     0.056 C 
BRANCH   7   8
ATOM      8  C1  UNL d   1       3.454   1.480   0.105  0.00  0.00     0.007 C 
ATOM      9  C   UNL d   1       4.916   1.059   0.049  0.00  0.00     0.009 C 
ENDBRANCH   7   8
ENDBRANCH   1   7
TORSDOF 2
ENDMDL
