MODEL 1
REMARK minimizedAffinity 2.9225719
REMARK minimizedRMSD -1
REMARK  2 active torsions:
REMARK  status: ('A' for Active; 'I' for Inactive)
REMARK    1  A    between atoms: C1_2  and  C2_3 
REMARK    2  A    between atoms: C2_3  and  C3_4 
ROOT
ATOM      1  C3  UNL d   1       0.948   0.836   0.542  0.00  0.00    -0.075 A 
ATOM      2  C4  UNL d   1       0.656   0.792   1.913  0.00  0.00     0.002 A 
ATOM      3  C5  UNL d   1      -0.609   1.152   2.380  0.00  0.00     0.002 A 
ATOM      4  C6  UNL d   1      -1.592   1.569   1.486  0.00  0.00    -0.004 A 
ATOM      5  C7  UNL d   1      -1.308   1.633   0.124  0.00  0.00     0.002 A 
ATOM      6  C8  UNL d   1      -0.045   1.270  -0.347  0.00  0.00     0.002 A 
ENDROOT
BRANCH   1   7
ATOM      7  C2  UNL d   1       2.305   0.420   0.027  0.00  0.00     0.056 C 
BRANCH   7   8
ATOM      8  C1  UNL d   1       3.336   1.553   0.001  0.00  0.00     0.007 C 
ATOM      9  C   UNL d   1       4.766   1.059  -0.179  0.00  0.00     0.009 C 
ENDBRANCH   7   8
ENDBRANCH   1   7
TORSDOF 2
ENDMDL
