MODEL 1
REMARK minimizedAffinity -2.7558732
REMARK minimizedRMSD -1
REMARK  2 active torsions:
REMARK  status: ('A' for Active; 'I' for Inactive)
REMARK    1  A    between atoms: C1_2  and  C2_3 
REMARK    2  A    between atoms: C2_3  and  C3_4 
ROOT
ATOM      1  C3  UNL d   1       1.978  -0.798   1.152  0.00  0.00    -0.075 A 
ATOM      2  C4  UNL d   1       2.547  -1.909   0.513  0.00  0.00     0.002 A 
ATOM      3  C5  UNL d   1       3.450  -1.738  -0.536  0.00  0.00     0.002 A 
ATOM      4  C6  UNL d   1       3.788  -0.456  -0.966  0.00  0.00    -0.004 A 
ATOM      5  C7  UNL d   1       3.216   0.655  -0.349  0.00  0.00     0.002 A 
ATOM      6  C8  UNL d   1       2.315   0.486   0.703  0.00  0.00     0.002 A 
ENDROOT
BRANCH   1   7
ATOM      7  C2  UNL d   1       1.022  -0.977   2.307  0.00  0.00     0.056 C 
BRANCH   7   8
ATOM      8  C1  UNL d   1       0.640   0.331   3.008  0.00  0.00     0.007 C 
ATOM      9  C   UNL d   1      -0.793   0.765   2.728  0.00  0.00     0.009 C 
ENDBRANCH   7   8
ENDBRANCH   1   7
TORSDOF 2
ENDMDL
