MODEL 1
REMARK minimizedAffinity 25.459343
REMARK minimizedRMSD -1
REMARK  0 active torsions:
REMARK  status: ('A' for Active; 'I' for Inactive)
ROOT
ATOM      1  C   UNL d   1       2.845   2.061  -0.740  0.00  0.00     0.124 A 
ATOM      2  C1  UNL d   1       3.994   2.592  -0.172  0.00  0.00     0.062 A 
ATOM      3  C2  UNL d   1       4.896   3.307  -0.955  0.00  0.00     0.162 A 
ATOM      4  C3  UNL d   1       4.651   3.495  -2.316  0.00  0.00    -0.034 A 
ATOM      5  C4  UNL d   1       3.493   2.957  -2.880  0.00  0.00     0.162 A 
ATOM      6  C5  UNL d   1       2.595   2.243  -2.093  0.00  0.00     0.062 A 
ATOM      7  F   UNL d   1       1.485   1.730  -2.644  0.00  0.00    -0.097 F 
ATOM      8  F1  UNL d   1       3.227   3.119  -4.185  0.00  0.00    -0.096 F 
ATOM      9  I   UNL d   1       5.997   4.563  -3.490  0.00  0.00    -0.060 I 
ATOM     10  F2  UNL d   1       5.998   3.810  -0.380  0.00  0.00    -0.096 F 
ATOM     11  F3  UNL d   1       4.237   2.416   1.135  0.00  0.00    -0.097 F 
ATOM     12  F4  UNL d   1       1.979   1.372   0.016  0.00  0.00    -0.092 F 
ENDROOT
TORSDOF 0
ENDMDL
