MODEL 1
REMARK minimizedAffinity 27.6760693
REMARK minimizedRMSD -1
REMARK  0 active torsions:
REMARK  status: ('A' for Active; 'I' for Inactive)
ROOT
ATOM      1  C   UNL d   1      -5.746   3.464  -2.263  0.00  0.00     0.124 A 
ATOM      2  C1  UNL d   1      -5.727   2.243  -2.923  0.00  0.00     0.062 A 
ATOM      3  C2  UNL d   1      -5.799   1.055  -2.201  0.00  0.00     0.162 A 
ATOM      4  C3  UNL d   1      -5.891   1.082  -0.809  0.00  0.00    -0.034 A 
ATOM      5  C4  UNL d   1      -5.909   2.314  -0.152  0.00  0.00     0.162 A 
ATOM      6  C5  UNL d   1      -5.836   3.498  -0.879  0.00  0.00     0.062 A 
ATOM      7  F   UNL d   1      -5.855   4.677  -0.239  0.00  0.00    -0.097 F 
ATOM      8  F1  UNL d   1      -5.997   2.376   1.185  0.00  0.00    -0.096 F 
ATOM      9  I   UNL d   1      -5.999  -0.691   0.274  0.00  0.00    -0.060 I 
ATOM     10  F2  UNL d   1      -5.779  -0.110  -2.865  0.00  0.00    -0.096 F 
ATOM     11  F3  UNL d   1      -5.638   2.207  -4.261  0.00  0.00    -0.097 F 
ATOM     12  F4  UNL d   1      -5.675   4.605  -2.960  0.00  0.00    -0.092 F 
ENDROOT
TORSDOF 0
ENDMDL
