MODEL 1
REMARK minimizedAffinity 13.7111626
REMARK minimizedRMSD -1
REMARK  0 active torsions:
REMARK  status: ('A' for Active; 'I' for Inactive)
ROOT
ATOM      1  C   UNL d   1      -0.223  -0.943   1.634  0.00  0.00     0.124 A 
ATOM      2  C1  UNL d   1      -0.560   0.354   1.270  0.00  0.00     0.062 A 
ATOM      3  C2  UNL d   1      -1.881   0.676   0.974  0.00  0.00     0.162 A 
ATOM      4  C3  UNL d   1      -2.876  -0.299   1.042  0.00  0.00    -0.034 A 
ATOM      5  C4  UNL d   1      -2.529  -1.601   1.407  0.00  0.00     0.162 A 
ATOM      6  C5  UNL d   1      -1.207  -1.919   1.702  0.00  0.00     0.062 A 
ATOM      7  F   UNL d   1      -0.883  -3.171   2.053  0.00  0.00    -0.097 F 
ATOM      8  F1  UNL d   1      -3.461  -2.563   1.482  0.00  0.00    -0.096 F 
ATOM      9  I   UNL d   1      -4.853   0.179   0.600  0.00  0.00    -0.060 I 
ATOM     10  F2  UNL d   1      -2.179   1.937   0.625  0.00  0.00    -0.096 F 
ATOM     11  F3  UNL d   1       0.389   1.298   1.202  0.00  0.00    -0.097 F 
ATOM     12  F4  UNL d   1       1.049  -1.251   1.917  0.00  0.00    -0.092 F 
ENDROOT
TORSDOF 0
ENDMDL
