MODEL 1
REMARK minimizedAffinity 27.8723164
REMARK minimizedRMSD -1
REMARK  0 active torsions:
REMARK  status: ('A' for Active; 'I' for Inactive)
ROOT
ATOM      1  C   UNL d   1       1.622   4.919  -3.488  0.00  0.00     0.124 A 
ATOM      2  C1  UNL d   1       0.823   3.802  -3.288  0.00  0.00     0.062 A 
ATOM      3  C2  UNL d   1       1.331   2.686  -2.630  0.00  0.00     0.162 A 
ATOM      4  C3  UNL d   1       2.646   2.681  -2.165  0.00  0.00    -0.034 A 
ATOM      5  C4  UNL d   1       3.445   3.808  -2.370  0.00  0.00     0.162 A 
ATOM      6  C5  UNL d   1       2.932   4.921  -3.029  0.00  0.00     0.062 A 
ATOM      7  F   UNL d   1       3.706   5.999  -3.221  0.00  0.00    -0.097 F 
ATOM      8  F1  UNL d   1       4.713   3.837  -1.937  0.00  0.00    -0.096 F 
ATOM      9  I   UNL d   1       3.410   1.014  -1.180  0.00  0.00    -0.060 I 
ATOM     10  F2  UNL d   1       0.536   1.621  -2.451  0.00  0.00    -0.096 F 
ATOM     11  F3  UNL d   1      -0.443   3.797  -3.731  0.00  0.00    -0.097 F 
ATOM     12  F4  UNL d   1       1.131   5.991  -4.122  0.00  0.00    -0.092 F 
ENDROOT
TORSDOF 0
ENDMDL
