MODEL 1
REMARK minimizedAffinity 22.7961197
REMARK minimizedRMSD -1
REMARK  0 active torsions:
REMARK  status: ('A' for Active; 'I' for Inactive)
ROOT
ATOM      1  C   UNL d   1       1.190   3.635  -2.471  0.00  0.00     0.124 A 
ATOM      2  C1  UNL d   1       1.849   4.832  -2.230  0.00  0.00     0.062 A 
ATOM      3  C2  UNL d   1       3.165   4.828  -1.776  0.00  0.00     0.162 A 
ATOM      4  C3  UNL d   1       3.831   3.621  -1.561  0.00  0.00    -0.034 A 
ATOM      5  C4  UNL d   1       3.161   2.421  -1.804  0.00  0.00     0.162 A 
ATOM      6  C5  UNL d   1       1.846   2.431  -2.258  0.00  0.00     0.062 A 
ATOM      7  F   UNL d   1       1.211   1.273  -2.490  0.00  0.00    -0.097 F 
ATOM      8  F1  UNL d   1       3.772   1.243  -1.608  0.00  0.00    -0.096 F 
ATOM      9  I   UNL d   1       5.799   3.611  -0.882  0.00  0.00    -0.060 I 
ATOM     10  F2  UNL d   1       3.777   6.000  -1.551  0.00  0.00    -0.096 F 
ATOM     11  F3  UNL d   1       1.217   5.997  -2.434  0.00  0.00    -0.097 F 
ATOM     12  F4  UNL d   1      -0.076   3.642  -2.907  0.00  0.00    -0.092 F 
ENDROOT
TORSDOF 0
ENDMDL
