MODEL 1
REMARK minimizedAffinity 27.1761761
REMARK minimizedRMSD -1
REMARK  0 active torsions:
REMARK  status: ('A' for Active; 'I' for Inactive)
ROOT
ATOM      1  C   UNL d   1       4.801   4.985  -2.258  0.00  0.00     0.124 A 
ATOM      2  C1  UNL d   1       4.714   4.304  -3.464  0.00  0.00     0.062 A 
ATOM      3  C2  UNL d   1       3.470   3.979  -3.996  0.00  0.00     0.162 A 
ATOM      4  C3  UNL d   1       2.302   4.335  -3.323  0.00  0.00    -0.034 A 
ATOM      5  C4  UNL d   1       2.397   5.019  -2.109  0.00  0.00     0.162 A 
ATOM      6  C5  UNL d   1       3.643   5.342  -1.582  0.00  0.00     0.062 A 
ATOM      7  F   UNL d   1       3.724   5.999  -0.416  0.00  0.00    -0.097 F 
ATOM      8  F1  UNL d   1       1.293   5.376  -1.436  0.00  0.00    -0.096 F 
ATOM      9  I   UNL d   1       0.439   3.850  -4.115  0.00  0.00    -0.060 I 
ATOM     10  F2  UNL d   1       3.416   3.321  -5.164  0.00  0.00    -0.096 F 
ATOM     11  F3  UNL d   1       5.832   3.958  -4.119  0.00  0.00    -0.097 F 
ATOM     12  F4  UNL d   1       5.999   5.297  -1.747  0.00  0.00    -0.092 F 
ENDROOT
TORSDOF 0
ENDMDL
