MODEL 1
REMARK minimizedAffinity 20.392395
REMARK minimizedRMSD -1
REMARK  0 active torsions:
REMARK  status: ('A' for Active; 'I' for Inactive)
ROOT
ATOM      1  C   UNL d   1      -0.300  -1.023   3.997  0.00  0.00     0.124 A 
ATOM      2  C1  UNL d   1       0.544  -1.973   3.438  0.00  0.00     0.062 A 
ATOM      3  C2  UNL d   1       0.172  -2.642   2.275  0.00  0.00     0.162 A 
ATOM      4  C3  UNL d   1      -1.050  -2.363   1.663  0.00  0.00    -0.034 A 
ATOM      5  C4  UNL d   1      -1.894  -1.407   2.232  0.00  0.00     0.162 A 
ATOM      6  C5  UNL d   1      -1.518  -0.741   3.394  0.00  0.00     0.062 A 
ATOM      7  F   UNL d   1      -2.334   0.176   3.933  0.00  0.00    -0.097 F 
ATOM      8  F1  UNL d   1      -3.076  -1.115   1.670  0.00  0.00    -0.096 F 
ATOM      9  I   UNL d   1      -1.611  -3.362  -0.075  0.00  0.00    -0.060 I 
ATOM     10  F2  UNL d   1       1.007  -3.555   1.757  0.00  0.00    -0.096 F 
ATOM     11  F3  UNL d   1       1.721  -2.247   4.019  0.00  0.00    -0.097 F 
ATOM     12  F4  UNL d   1       0.060  -0.381   5.116  0.00  0.00    -0.092 F 
ENDROOT
TORSDOF 0
ENDMDL
