MODEL 1
REMARK minimizedAffinity 22.4079838
REMARK minimizedRMSD -1
REMARK  0 active torsions:
REMARK  status: ('A' for Active; 'I' for Inactive)
ROOT
ATOM      1  C   UNL d   1       0.339  -2.686   2.198  0.00  0.00     0.124 A 
ATOM      2  C1  UNL d   1      -0.805  -2.339   1.492  0.00  0.00     0.062 A 
ATOM      3  C2  UNL d   1      -1.673  -1.374   1.996  0.00  0.00     0.162 A 
ATOM      4  C3  UNL d   1      -1.400  -0.749   3.212  0.00  0.00    -0.034 A 
ATOM      5  C4  UNL d   1      -0.249  -1.104   3.917  0.00  0.00     0.162 A 
ATOM      6  C5  UNL d   1       0.616  -2.068   3.409  0.00  0.00     0.062 A 
ATOM      7  F   UNL d   1       1.720  -2.403   4.093  0.00  0.00    -0.097 F 
ATOM      8  F1  UNL d   1       0.044  -0.522   5.090  0.00  0.00    -0.096 F 
ATOM      9  I   UNL d   1      -2.695   0.694   3.969  0.00  0.00    -0.060 I 
ATOM     10  F2  UNL d   1      -2.770  -1.058   1.292  0.00  0.00    -0.096 F 
ATOM     11  F3  UNL d   1      -1.075  -2.934   0.321  0.00  0.00    -0.097 F 
ATOM     12  F4  UNL d   1       1.172  -3.615   1.711  0.00  0.00    -0.092 F 
ENDROOT
TORSDOF 0
ENDMDL
