MODEL 1
REMARK minimizedAffinity 25.2913818
REMARK minimizedRMSD -1
REMARK  0 active torsions:
REMARK  status: ('A' for Active; 'I' for Inactive)
ROOT
ATOM      1  C   UNL d   1      -2.695  -2.327   1.417  0.00  0.00     0.124 A 
ATOM      2  C1  UNL d   1      -1.672  -3.192   1.054  0.00  0.00     0.062 A 
ATOM      3  C2  UNL d   1      -0.344  -2.833   1.263  0.00  0.00     0.162 A 
ATOM      4  C3  UNL d   1      -0.030  -1.602   1.839  0.00  0.00    -0.034 A 
ATOM      5  C4  UNL d   1      -1.064  -0.737   2.201  0.00  0.00     0.162 A 
ATOM      6  C5  UNL d   1      -2.390  -1.101   1.990  0.00  0.00     0.062 A 
ATOM      7  F   UNL d   1      -3.377  -0.264   2.342  0.00  0.00    -0.097 F 
ATOM      8  F1  UNL d   1      -0.798   0.454   2.758  0.00  0.00    -0.096 F 
ATOM      9  I   UNL d   1       1.955  -1.060   2.154  0.00  0.00    -0.060 I 
ATOM     10  F2  UNL d   1       0.624  -3.688   0.902  0.00  0.00    -0.096 F 
ATOM     11  F3  UNL d   1      -1.963  -4.377   0.499  0.00  0.00    -0.097 F 
ATOM     12  F4  UNL d   1      -3.972  -2.675   1.214  0.00  0.00    -0.092 F 
ENDROOT
TORSDOF 0
ENDMDL
