MODEL 1
REMARK minimizedAffinity 23.7759285
REMARK minimizedRMSD -1
REMARK  0 active torsions:
REMARK  status: ('A' for Active; 'I' for Inactive)
ROOT
ATOM      1  C   UNL d   1       2.458   3.297  -3.943  0.00  0.00     0.124 A 
ATOM      2  C1  UNL d   1       1.229   3.616  -3.383  0.00  0.00     0.062 A 
ATOM      3  C2  UNL d   1       0.936   3.238  -2.076  0.00  0.00     0.162 A 
ATOM      4  C3  UNL d   1       1.876   2.538  -1.319  0.00  0.00    -0.034 A 
ATOM      5  C4  UNL d   1       3.109   2.220  -1.889  0.00  0.00     0.162 A 
ATOM      6  C5  UNL d   1       3.397   2.599  -3.196  0.00  0.00     0.062 A 
ATOM      7  F   UNL d   1       4.585   2.290  -3.736  0.00  0.00    -0.097 F 
ATOM      8  F1  UNL d   1       4.035   1.547  -1.190  0.00  0.00    -0.096 F 
ATOM      9  I   UNL d   1       1.442   1.971   0.637  0.00  0.00    -0.060 I 
ATOM     10  F2  UNL d   1      -0.259   3.559  -1.560  0.00  0.00    -0.096 F 
ATOM     11  F3  UNL d   1       0.319   4.288  -4.103  0.00  0.00    -0.097 F 
ATOM     12  F4  UNL d   1       2.736   3.661  -5.202  0.00  0.00    -0.092 F 
ENDROOT
TORSDOF 0
ENDMDL
