MODEL 1
REMARK minimizedAffinity 19.0723801
REMARK minimizedRMSD -1
REMARK  0 active torsions:
REMARK  status: ('A' for Active; 'I' for Inactive)
ROOT
ATOM      1  C   UNL d   1       3.684   2.372  -4.030  0.00  0.00     0.124 A 
ATOM      2  C1  UNL d   1       4.853   1.647  -3.847  0.00  0.00     0.062 A 
ATOM      3  C2  UNL d   1       4.838   0.473  -3.100  0.00  0.00     0.162 A 
ATOM      4  C3  UNL d   1       3.650   0.016  -2.530  0.00  0.00    -0.034 A 
ATOM      5  C4  UNL d   1       2.478   0.751  -2.718  0.00  0.00     0.162 A 
ATOM      6  C5  UNL d   1       2.498   1.924  -3.466  0.00  0.00     0.062 A 
ATOM      7  F   UNL d   1       1.368   2.624  -3.641  0.00  0.00    -0.097 F 
ATOM      8  F1  UNL d   1       1.318   0.341  -2.184  0.00  0.00    -0.096 F 
ATOM      9  I   UNL d   1       3.624  -1.739  -1.412  0.00  0.00    -0.060 I 
ATOM     10  F2  UNL d   1       5.983  -0.208  -2.940  0.00  0.00    -0.096 F 
ATOM     11  F3  UNL d   1       6.000   2.078  -4.391  0.00  0.00    -0.097 F 
ATOM     12  F4  UNL d   1       3.701   3.502  -4.749  0.00  0.00    -0.092 F 
ENDROOT
TORSDOF 0
ENDMDL
