MODEL 1
REMARK minimizedAffinity 24.7372036
REMARK minimizedRMSD -1
REMARK  0 active torsions:
REMARK  status: ('A' for Active; 'I' for Inactive)
ROOT
ATOM      1  C   UNL d   1       1.345  -2.759   3.104  0.00  0.00     0.124 A 
ATOM      2  C1  UNL d   1       1.003  -3.675   2.120  0.00  0.00     0.062 A 
ATOM      3  C2  UNL d   1      -0.270  -3.658   1.559  0.00  0.00     0.162 A 
ATOM      4  C3  UNL d   1      -1.212  -2.719   1.981  0.00  0.00    -0.034 A 
ATOM      5  C4  UNL d   1      -0.861  -1.801   2.972  0.00  0.00     0.162 A 
ATOM      6  C5  UNL d   1       0.413  -1.822   3.529  0.00  0.00     0.062 A 
ATOM      7  F   UNL d   1       0.742  -0.936   4.480  0.00  0.00    -0.097 F 
ATOM      8  F1  UNL d   1      -1.742  -0.885   3.401  0.00  0.00    -0.096 F 
ATOM      9  I   UNL d   1      -3.118  -2.690   1.145  0.00  0.00    -0.060 I 
ATOM     10  F2  UNL d   1      -0.573  -4.555   0.610  0.00  0.00    -0.096 F 
ATOM     11  F3  UNL d   1       1.902  -4.581   1.708  0.00  0.00    -0.097 F 
ATOM     12  F4  UNL d   1       2.571  -2.778   3.643  0.00  0.00    -0.092 F 
ENDROOT
TORSDOF 0
ENDMDL
