MODEL 1
REMARK minimizedAffinity 1.68934357
REMARK minimizedRMSD -1
REMARK  0 active torsions:
REMARK  status: ('A' for Active; 'I' for Inactive)
ROOT
ATOM      1  C   UNL d   1       1.788  -0.755   0.757  0.00  0.00     0.124 A 
ATOM      2  C1  UNL d   1       0.757  -1.624   1.090  0.00  0.00     0.062 A 
ATOM      3  C2  UNL d   1      -0.519  -1.426   0.572  0.00  0.00     0.162 A 
ATOM      4  C3  UNL d   1      -0.773  -0.356  -0.286  0.00  0.00    -0.034 A 
ATOM      5  C4  UNL d   1       0.268   0.514  -0.615  0.00  0.00     0.162 A 
ATOM      6  C5  UNL d   1       1.542   0.312  -0.095  0.00  0.00     0.062 A 
ATOM      7  F   UNL d   1       2.537   1.152  -0.418  0.00  0.00    -0.097 F 
ATOM      8  F1  UNL d   1       0.059   1.553  -1.437  0.00  0.00    -0.096 F 
ATOM      9  I   UNL d   1      -2.681  -0.057  -1.063  0.00  0.00    -0.060 I 
ATOM     10  F2  UNL d   1      -1.496  -2.281   0.910  0.00  0.00    -0.096 F 
ATOM     11  F3  UNL d   1       0.992  -2.656   1.913  0.00  0.00    -0.097 F 
ATOM     12  F4  UNL d   1       3.015  -0.947   1.257  0.00  0.00    -0.092 F 
ENDROOT
TORSDOF 0
ENDMDL
