MODEL 1
REMARK minimizedAffinity 0.322184473
REMARK minimizedRMSD -1
REMARK  2 active torsions:
REMARK  status: ('A' for Active; 'I' for Inactive)
REMARK    1  A    between atoms: C1_2  and  C2_3 
REMARK    2  A    between atoms: C2_3  and  C3_4 
ROOT
ATOM      1  C3  UNL d   1       0.256   1.011  -0.621  0.00  0.00    -0.075 A 
ATOM      2  C4  UNL d   1       1.014   0.148  -1.426  0.00  0.00     0.002 A 
ATOM      3  C5  UNL d   1       1.893   0.659  -2.381  0.00  0.00     0.002 A 
ATOM      4  C6  UNL d   1       2.017   2.037  -2.551  0.00  0.00    -0.004 A 
ATOM      5  C7  UNL d   1       1.257   2.903  -1.768  0.00  0.00     0.002 A 
ATOM      6  C8  UNL d   1       0.380   2.394  -0.809  0.00  0.00     0.002 A 
ENDROOT
BRANCH   1   7
ATOM      7  C2  UNL d   1      -0.675   0.464   0.435  0.00  0.00     0.056 C 
BRANCH   7   8
ATOM      8  C1  UNL d   1       0.004  -0.472   1.441  0.00  0.00     0.007 C 
ATOM      9  C   UNL d   1      -0.940  -1.516   2.021  0.00  0.00     0.009 C 
ENDBRANCH   7   8
ENDBRANCH   1   7
TORSDOF 2
ENDMDL
