MODEL 1
REMARK minimizedAffinity 13.8897276
REMARK minimizedRMSD -1
REMARK  2 active torsions:
REMARK  status: ('A' for Active; 'I' for Inactive)
REMARK    1  A    between atoms: C1_2  and  C2_3 
REMARK    2  A    between atoms: C2_3  and  C3_4 
ROOT
ATOM      1  C3  UNL d   1       0.350  -4.083  -2.892  0.00  0.00    -0.075 A 
ATOM      2  C4  UNL d   1       1.068  -3.836  -1.713  0.00  0.00     0.002 A 
ATOM      3  C5  UNL d   1       2.393  -3.402  -1.769  0.00  0.00     0.002 A 
ATOM      4  C6  UNL d   1       3.018  -3.220  -3.000  0.00  0.00    -0.004 A 
ATOM      5  C7  UNL d   1       2.320  -3.478  -4.177  0.00  0.00     0.002 A 
ATOM      6  C8  UNL d   1       0.993  -3.908  -4.125  0.00  0.00     0.002 A 
ENDROOT
BRANCH   1   7
ATOM      7  C2  UNL d   1      -1.093  -4.525  -2.840  0.00  0.00     0.056 C 
BRANCH   7   8
ATOM      8  C1  UNL d   1      -1.858  -4.012  -1.615  0.00  0.00     0.007 C 
ATOM      9  C   UNL d   1      -2.909  -4.992  -1.110  0.00  0.00     0.009 C 
ENDBRANCH   7   8
ENDBRANCH   1   7
TORSDOF 2
ENDMDL
