MODEL 1
REMARK minimizedAffinity -1.3839407
REMARK minimizedRMSD -1
REMARK  2 active torsions:
REMARK  status: ('A' for Active; 'I' for Inactive)
REMARK    1  A    between atoms: C1_2  and  C2_3 
REMARK    2  A    between atoms: C2_3  and  C3_4 
ROOT
ATOM      1  C3  UNL d   1      -1.325   3.757  -5.975  0.00  0.00    -0.075 A 
ATOM      2  C4  UNL d   1      -1.362   5.158  -5.961  0.00  0.00     0.002 A 
ATOM      3  C5  UNL d   1      -2.582   5.834  -5.912  0.00  0.00     0.002 A 
ATOM      4  C6  UNL d   1      -3.777   5.120  -5.887  0.00  0.00    -0.004 A 
ATOM      5  C7  UNL d   1      -3.753   3.727  -5.917  0.00  0.00     0.002 A 
ATOM      6  C8  UNL d   1      -2.534   3.048  -5.961  0.00  0.00     0.002 A 
ENDROOT
BRANCH   1   7
ATOM      7  C2  UNL d   1      -0.008   3.019  -5.997  0.00  0.00     0.056 C 
BRANCH   7   8
ATOM      8  C1  UNL d   1       1.220   3.935  -5.999  0.00  0.00     0.007 C 
ATOM      9  C   UNL d   1       2.538   3.172  -5.997  0.00  0.00     0.009 C 
ENDBRANCH   7   8
ENDBRANCH   1   7
TORSDOF 2
ENDMDL
