MODEL 1
REMARK minimizedAffinity -3.42749524
REMARK minimizedRMSD -1
REMARK  2 active torsions:
REMARK  status: ('A' for Active; 'I' for Inactive)
REMARK    1  A    between atoms: C1_2  and  C2_3 
REMARK    2  A    between atoms: C2_3  and  C3_4 
ROOT
ATOM      1  C3  UNL d   1       2.255   5.250  -5.994  0.00  0.00    -0.075 A 
ATOM      2  C4  UNL d   1       2.283   3.848  -6.000  0.00  0.00     0.002 A 
ATOM      3  C5  UNL d   1       3.499   3.164  -5.989  0.00  0.00     0.002 A 
ATOM      4  C6  UNL d   1       4.700   3.871  -5.982  0.00  0.00    -0.004 A 
ATOM      5  C7  UNL d   1       4.684   5.264  -5.993  0.00  0.00     0.002 A 
ATOM      6  C8  UNL d   1       3.468   5.951  -5.999  0.00  0.00     0.002 A 
ENDROOT
BRANCH   1   7
ATOM      7  C2  UNL d   1       0.942   5.997  -5.976  0.00  0.00     0.056 C 
BRANCH   7   8
ATOM      8  C1  UNL d   1      -0.270   5.118  -5.651  0.00  0.00     0.007 C 
ATOM      9  C   UNL d   1      -1.559   5.911  -5.483  0.00  0.00     0.009 C 
ENDBRANCH   7   8
ENDBRANCH   1   7
TORSDOF 2
ENDMDL
