MODEL 1
REMARK minimizedAffinity 6.37294388
REMARK minimizedRMSD -1
REMARK  2 active torsions:
REMARK  status: ('A' for Active; 'I' for Inactive)
REMARK    1  A    between atoms: C1_2  and  C2_3 
REMARK    2  A    between atoms: C2_3  and  C3_4 
ROOT
ATOM      1  C3  UNL d   1      -0.501  -1.902  -0.484  0.00  0.00    -0.075 A 
ATOM      2  C4  UNL d   1      -1.799  -2.337  -0.789  0.00  0.00     0.002 A 
ATOM      3  C5  UNL d   1      -2.026  -3.180  -1.877  0.00  0.00     0.002 A 
ATOM      4  C6  UNL d   1      -0.962  -3.591  -2.677  0.00  0.00    -0.004 A 
ATOM      5  C7  UNL d   1       0.329  -3.152  -2.393  0.00  0.00     0.002 A 
ATOM      6  C8  UNL d   1       0.559  -2.312  -1.303  0.00  0.00     0.002 A 
ENDROOT
BRANCH   1   7
ATOM      7  C2  UNL d   1      -0.245  -1.013   0.710  0.00  0.00     0.056 C 
BRANCH   7   8
ATOM      8  C1  UNL d   1      -1.031   0.303   0.687  0.00  0.00     0.007 C 
ATOM      9  C   UNL d   1      -0.181   1.516   1.041  0.00  0.00     0.009 C 
ENDBRANCH   7   8
ENDBRANCH   1   7
TORSDOF 2
ENDMDL
