MODEL 1
REMARK minimizedAffinity 1.06005621
REMARK minimizedRMSD -1
REMARK  2 active torsions:
REMARK  status: ('A' for Active; 'I' for Inactive)
REMARK    1  A    between atoms: C1_2  and  C2_3 
REMARK    2  A    between atoms: C2_3  and  C3_4 
ROOT
ATOM      1  C3  UNL d   1       1.261   4.626  -5.925  0.00  0.00    -0.075 A 
ATOM      2  C4  UNL d   1       2.012   5.810  -5.966  0.00  0.00     0.002 A 
ATOM      3  C5  UNL d   1       3.406   5.764  -5.999  0.00  0.00     0.002 A 
ATOM      4  C6  UNL d   1       4.066   4.537  -5.981  0.00  0.00    -0.004 A 
ATOM      5  C7  UNL d   1       3.331   3.355  -5.924  0.00  0.00     0.002 A 
ATOM      6  C8  UNL d   1       1.935   3.398  -5.895  0.00  0.00     0.002 A 
ENDROOT
BRANCH   1   7
ATOM      7  C2  UNL d   1      -0.248   4.668  -5.919  0.00  0.00     0.056 C 
BRANCH   7   8
ATOM      8  C1  UNL d   1      -0.884   4.079  -4.656  0.00  0.00     0.007 C 
ATOM      9  C   UNL d   1      -1.778   2.879  -4.937  0.00  0.00     0.009 C 
ENDBRANCH   7   8
ENDBRANCH   1   7
TORSDOF 2
ENDMDL
