MODEL 1
REMARK minimizedAffinity 1.55623639
REMARK minimizedRMSD -1
REMARK  2 active torsions:
REMARK  status: ('A' for Active; 'I' for Inactive)
REMARK    1  A    between atoms: C1_2  and  C2_3 
REMARK    2  A    between atoms: C2_3  and  C3_4 
ROOT
ATOM      1  C3  UNL d   1      -1.097   3.731  -5.982  0.00  0.00    -0.075 A 
ATOM      2  C4  UNL d   1      -2.395   3.200  -5.968  0.00  0.00     0.002 A 
ATOM      3  C5  UNL d   1      -3.505   4.044  -5.981  0.00  0.00     0.002 A 
ATOM      4  C6  UNL d   1      -3.333   5.427  -6.000  0.00  0.00    -0.004 A 
ATOM      5  C7  UNL d   1      -2.048   5.965  -5.997  0.00  0.00     0.002 A 
ATOM      6  C8  UNL d   1      -0.935   5.123  -5.988  0.00  0.00     0.002 A 
ENDROOT
BRANCH   1   7
ATOM      7  C2  UNL d   1       0.109   2.822  -5.997  0.00  0.00     0.056 C 
BRANCH   7   8
ATOM      8  C1  UNL d   1       1.074   3.047  -4.828  0.00  0.00     0.007 C 
ATOM      9  C   UNL d   1       0.370   3.440  -3.536  0.00  0.00     0.009 C 
ENDBRANCH   7   8
ENDBRANCH   1   7
TORSDOF 2
ENDMDL
