MODEL 1
REMARK minimizedAffinity -0.238615021
REMARK minimizedRMSD -1
REMARK  2 active torsions:
REMARK  status: ('A' for Active; 'I' for Inactive)
REMARK    1  A    between atoms: C1_2  and  C2_3 
REMARK    2  A    between atoms: C2_3  and  C3_4 
ROOT
ATOM      1  C3  UNL d   1       2.811   3.742  -5.982  0.00  0.00    -0.075 A 
ATOM      2  C4  UNL d   1       2.999   5.132  -5.989  0.00  0.00     0.002 A 
ATOM      3  C5  UNL d   1       4.285   5.672  -6.000  0.00  0.00     0.002 A 
ATOM      4  C6  UNL d   1       5.397   4.833  -5.992  0.00  0.00    -0.004 A 
ATOM      5  C7  UNL d   1       5.222   3.451  -5.968  0.00  0.00     0.002 A 
ATOM      6  C8  UNL d   1       3.936   2.907  -5.962  0.00  0.00     0.002 A 
ENDROOT
BRANCH   1   7
ATOM      7  C2  UNL d   1       1.422   3.151  -6.000  0.00  0.00     0.056 C 
BRANCH   7   8
ATOM      8  C1  UNL d   1       0.308   4.166  -5.724  0.00  0.00     0.007 C 
ATOM      9  C   UNL d   1      -1.087   3.612  -5.982  0.00  0.00     0.009 C 
ENDBRANCH   7   8
ENDBRANCH   1   7
TORSDOF 2
ENDMDL
