MODEL 1
REMARK minimizedAffinity -3.01095295
REMARK minimizedRMSD -1
REMARK  2 active torsions:
REMARK  status: ('A' for Active; 'I' for Inactive)
REMARK    1  A    between atoms: C1_2  and  C2_3 
REMARK    2  A    between atoms: C2_3  and  C3_4 
ROOT
ATOM      1  C3  UNL d   1      -0.539   3.525  -5.975  0.00  0.00    -0.075 A 
ATOM      2  C4  UNL d   1      -1.592   2.598  -5.976  0.00  0.00     0.002 A 
ATOM      3  C5  UNL d   1      -2.917   3.032  -5.994  0.00  0.00     0.002 A 
ATOM      4  C6  UNL d   1      -3.207   4.395  -6.000  0.00  0.00    -0.004 A 
ATOM      5  C7  UNL d   1      -2.169   5.324  -5.982  0.00  0.00     0.002 A 
ATOM      6  C8  UNL d   1      -0.842   4.893  -5.969  0.00  0.00     0.002 A 
ENDROOT
BRANCH   1   7
ATOM      7  C2  UNL d   1       0.898   3.061  -5.986  0.00  0.00     0.056 C 
BRANCH   7   8
ATOM      8  C1  UNL d   1       1.318   2.301  -4.724  0.00  0.00     0.007 C 
ATOM      9  C   UNL d   1       1.117   3.103  -3.445  0.00  0.00     0.009 C 
ENDBRANCH   7   8
ENDBRANCH   1   7
TORSDOF 2
ENDMDL
