MODEL 1
REMARK minimizedAffinity 5.22437477
REMARK minimizedRMSD -1
REMARK  2 active torsions:
REMARK  status: ('A' for Active; 'I' for Inactive)
REMARK    1  A    between atoms: C1_2  and  C2_3 
REMARK    2  A    between atoms: C2_3  and  C3_4 
ROOT
ATOM      1  C3  UNL d   1       0.753   3.538  -5.195  0.00  0.00    -0.075 A 
ATOM      2  C4  UNL d   1      -0.640   3.372  -5.169  0.00  0.00     0.002 A 
ATOM      3  C5  UNL d   1      -1.484   4.409  -5.566  0.00  0.00     0.002 A 
ATOM      4  C6  UNL d   1      -0.950   5.625  -5.984  0.00  0.00    -0.004 A 
ATOM      5  C7  UNL d   1       0.431   5.807  -5.999  0.00  0.00     0.002 A 
ATOM      6  C8  UNL d   1       1.279   4.769  -5.606  0.00  0.00     0.002 A 
ENDROOT
BRANCH   1   7
ATOM      7  C2  UNL d   1       1.673   2.409  -4.795  0.00  0.00     0.056 C 
BRANCH   7   8
ATOM      8  C1  UNL d   1       2.252   2.548  -3.383  0.00  0.00     0.007 C 
ATOM      9  C   UNL d   1       1.995   1.329  -2.507  0.00  0.00     0.009 C 
ENDBRANCH   7   8
ENDBRANCH   1   7
TORSDOF 2
ENDMDL
