MODEL 1
REMARK minimizedAffinity -6.08305788
REMARK minimizedRMSD -1
REMARK  0 active torsions:
REMARK  status: ('A' for Active; 'I' for Inactive)
ROOT
ATOM      1  C   UNL d   1       0.542   1.345   1.017  0.00  0.00     0.078 C 
ATOM      2  C1  UNL d   1      -0.753   1.309   1.772  0.00  0.00    -0.077 A 
ATOM      3  C2  UNL d   1      -1.496   0.127   1.875  0.00  0.00    -0.001 A 
ATOM      4  C3  UNL d   1      -2.705   0.111   2.573  0.00  0.00     0.003 A 
ATOM      5  C4  UNL d   1      -3.181   1.275   3.173  0.00  0.00    -0.005 A 
ATOM      6  C5  UNL d   1      -2.450   2.457   3.074  0.00  0.00     0.003 A 
ATOM      7  C6  UNL d   1      -1.241   2.474   2.377  0.00  0.00    -0.001 A 
ENDROOT
TORSDOF 0
ENDMDL
