MODEL 1
REMARK minimizedAffinity -0.523933709
REMARK minimizedRMSD -1
REMARK  0 active torsions:
REMARK  status: ('A' for Active; 'I' for Inactive)
ROOT
ATOM      1  C   UNL d   1      -3.989   1.504   2.962  0.00  0.00     0.078 C 
ATOM      2  C1  UNL d   1      -2.600   1.393   2.408  0.00  0.00    -0.077 A 
ATOM      3  C2  UNL d   1      -2.005   0.143   2.198  0.00  0.00    -0.001 A 
ATOM      4  C3  UNL d   1      -0.707   0.056   1.691  0.00  0.00     0.003 A 
ATOM      5  C4  UNL d   1       0.006   1.214   1.389  0.00  0.00    -0.005 A 
ATOM      6  C5  UNL d   1      -0.578   2.462   1.597  0.00  0.00     0.003 A 
ATOM      7  C6  UNL d   1      -1.875   2.552   2.104  0.00  0.00    -0.001 A 
ENDROOT
TORSDOF 0
ENDMDL
