MODEL 1
REMARK minimizedAffinity -4.26655436
REMARK minimizedRMSD -1
REMARK  0 active torsions:
REMARK  status: ('A' for Active; 'I' for Inactive)
ROOT
ATOM      1  C   UNL d   1      -4.264   1.140   3.662  0.00  0.00     0.078 C 
ATOM      2  C1  UNL d   1      -2.906   0.872   3.084  0.00  0.00    -0.077 A 
ATOM      3  C2  UNL d   1      -2.583  -0.383   2.554  0.00  0.00    -0.001 A 
ATOM      4  C3  UNL d   1      -1.312  -0.621   2.029  0.00  0.00     0.003 A 
ATOM      5  C4  UNL d   1      -0.354   0.391   2.029  0.00  0.00    -0.005 A 
ATOM      6  C5  UNL d   1      -0.666   1.643   2.556  0.00  0.00     0.003 A 
ATOM      7  C6  UNL d   1      -1.936   1.883   3.082  0.00  0.00    -0.001 A 
ENDROOT
TORSDOF 0
ENDMDL
