MODEL 1
REMARK minimizedAffinity -1.23091781
REMARK minimizedRMSD -1
REMARK  0 active torsions:
REMARK  status: ('A' for Active; 'I' for Inactive)
ROOT
ATOM      1  C   UNL d   1      -4.167   1.528   3.982  0.00  0.00     0.078 C 
ATOM      2  C1  UNL d   1      -2.997   1.466   3.046  0.00  0.00    -0.077 A 
ATOM      3  C2  UNL d   1      -2.607   0.256   2.458  0.00  0.00    -0.001 A 
ATOM      4  C3  UNL d   1      -1.510   0.211   1.596  0.00  0.00     0.003 A 
ATOM      5  C4  UNL d   1      -0.793   1.373   1.315  0.00  0.00    -0.005 A 
ATOM      6  C5  UNL d   1      -1.172   2.581   1.897  0.00  0.00     0.003 A 
ATOM      7  C6  UNL d   1      -2.269   2.627   2.759  0.00  0.00    -0.001 A 
ENDROOT
TORSDOF 0
ENDMDL
