MODEL 1
REMARK minimizedAffinity -1.00466418
REMARK minimizedRMSD -1
REMARK  0 active torsions:
REMARK  status: ('A' for Active; 'I' for Inactive)
ROOT
ATOM      1  C   UNL d   1       0.742   0.997   0.609  0.00  0.00     0.078 C 
ATOM      2  C1  UNL d   1      -0.495   0.988   1.457  0.00  0.00    -0.077 A 
ATOM      3  C2  UNL d   1      -0.976   2.164   2.045  0.00  0.00    -0.001 A 
ATOM      4  C3  UNL d   1      -2.123   2.139   2.839  0.00  0.00     0.003 A 
ATOM      5  C4  UNL d   1      -2.799   0.939   3.054  0.00  0.00    -0.005 A 
ATOM      6  C5  UNL d   1      -2.327  -0.237   2.475  0.00  0.00     0.003 A 
ATOM      7  C6  UNL d   1      -1.180  -0.214   1.681  0.00  0.00    -0.001 A 
ENDROOT
TORSDOF 0
ENDMDL
