MODEL 1
REMARK minimizedAffinity -4.4536643
REMARK minimizedRMSD -1
REMARK  0 active torsions:
REMARK  status: ('A' for Active; 'I' for Inactive)
ROOT
ATOM      1  C   UNL d   1      -2.991   2.018   3.337  0.00  0.00     0.078 C 
ATOM      2  C1  UNL d   1      -1.932   1.332   2.527  0.00  0.00    -0.077 A 
ATOM      3  C2  UNL d   1      -1.934  -0.059   2.367  0.00  0.00    -0.001 A 
ATOM      4  C3  UNL d   1      -0.936  -0.686   1.619  0.00  0.00     0.003 A 
ATOM      5  C4  UNL d   1       0.072   0.071   1.025  0.00  0.00    -0.005 A 
ATOM      6  C5  UNL d   1       0.084   1.456   1.180  0.00  0.00     0.003 A 
ATOM      7  C6  UNL d   1      -0.913   2.084   1.928  0.00  0.00    -0.001 A 
ENDROOT
TORSDOF 0
ENDMDL
