MODEL 1
REMARK minimizedAffinity -3.01636362
REMARK minimizedRMSD -1
REMARK  0 active torsions:
REMARK  status: ('A' for Active; 'I' for Inactive)
ROOT
ATOM      1  C   UNL d   1       0.663   1.555   0.720  0.00  0.00     0.078 C 
ATOM      2  C1  UNL d   1      -0.483   0.821   1.349  0.00  0.00    -0.077 A 
ATOM      3  C2  UNL d   1      -1.522   1.513   1.984  0.00  0.00    -0.001 A 
ATOM      4  C3  UNL d   1      -2.578   0.816   2.573  0.00  0.00     0.003 A 
ATOM      5  C4  UNL d   1      -2.606  -0.576   2.534  0.00  0.00    -0.005 A 
ATOM      6  C5  UNL d   1      -1.576  -1.274   1.906  0.00  0.00     0.003 A 
ATOM      7  C6  UNL d   1      -0.519  -0.579   1.316  0.00  0.00    -0.001 A 
ENDROOT
TORSDOF 0
ENDMDL
