MODEL 1
REMARK minimizedAffinity -3.52457094
REMARK minimizedRMSD -1
REMARK  0 active torsions:
REMARK  status: ('A' for Active; 'I' for Inactive)
ROOT
ATOM      1  C   UNL d   1      -2.755   2.446   3.123  0.00  0.00     0.078 C 
ATOM      2  C1  UNL d   1      -1.668   2.066   2.162  0.00  0.00    -0.077 A 
ATOM      3  C2  UNL d   1      -0.761   3.020   1.685  0.00  0.00    -0.001 A 
ATOM      4  C3  UNL d   1       0.240   2.654   0.783  0.00  0.00     0.003 A 
ATOM      5  C4  UNL d   1       0.342   1.333   0.350  0.00  0.00    -0.005 A 
ATOM      6  C5  UNL d   1      -0.557   0.378   0.818  0.00  0.00     0.003 A 
ATOM      7  C6  UNL d   1      -1.558   0.742   1.720  0.00  0.00    -0.001 A 
ENDROOT
TORSDOF 0
ENDMDL
