MODEL 1
REMARK minimizedAffinity -0.448637128
REMARK minimizedRMSD -1
REMARK  0 active torsions:
REMARK  status: ('A' for Active; 'I' for Inactive)
ROOT
ATOM      1  C   UNL d   1      -2.683   1.948   3.539  0.00  0.00     0.078 C 
ATOM      2  C1  UNL d   1      -1.654   1.390   2.602  0.00  0.00    -0.077 A 
ATOM      3  C2  UNL d   1      -0.990   2.214   1.685  0.00  0.00    -0.001 A 
ATOM      4  C3  UNL d   1      -0.042   1.679   0.812  0.00  0.00     0.003 A 
ATOM      5  C4  UNL d   1       0.251   0.318   0.846  0.00  0.00    -0.005 A 
ATOM      6  C5  UNL d   1      -0.406  -0.511   1.753  0.00  0.00     0.003 A 
ATOM      7  C6  UNL d   1      -1.355   0.022   2.627  0.00  0.00    -0.001 A 
ENDROOT
TORSDOF 0
ENDMDL
