MODEL 1
REMARK minimizedAffinity -3.12806273
REMARK minimizedRMSD -1
REMARK  0 active torsions:
REMARK  status: ('A' for Active; 'I' for Inactive)
ROOT
ATOM      1  C   UNL d   1      -2.664   2.134   3.047  0.00  0.00     0.078 C 
ATOM      2  C1  UNL d   1      -1.501   1.535   2.315  0.00  0.00    -0.077 A 
ATOM      3  C2  UNL d   1      -1.468   0.169   2.008  0.00  0.00    -0.001 A 
ATOM      4  C3  UNL d   1      -0.374  -0.377   1.335  0.00  0.00     0.003 A 
ATOM      5  C4  UNL d   1       0.695   0.435   0.964  0.00  0.00    -0.005 A 
ATOM      6  C5  UNL d   1       0.673   1.795   1.266  0.00  0.00     0.003 A 
ATOM      7  C6  UNL d   1      -0.420   2.343   1.940  0.00  0.00    -0.001 A 
ENDROOT
TORSDOF 0
ENDMDL
