MODEL 1
REMARK minimizedAffinity -3.98218226
REMARK minimizedRMSD -1
REMARK  0 active torsions:
REMARK  status: ('A' for Active; 'I' for Inactive)
ROOT
ATOM      1  C   UNL d   1      -2.596   2.298   3.047  0.00  0.00     0.078 C 
ATOM      2  C1  UNL d   1      -1.627   1.568   2.166  0.00  0.00    -0.077 A 
ATOM      3  C2  UNL d   1      -1.673   0.174   2.042  0.00  0.00    -0.001 A 
ATOM      4  C3  UNL d   1      -0.758  -0.492   1.225  0.00  0.00     0.003 A 
ATOM      5  C4  UNL d   1       0.211   0.226   0.527  0.00  0.00    -0.005 A 
ATOM      6  C5  UNL d   1       0.266   1.614   0.646  0.00  0.00     0.003 A 
ATOM      7  C6  UNL d   1      -0.648   2.282   1.462  0.00  0.00    -0.001 A 
ENDROOT
TORSDOF 0
ENDMDL
