MODEL 1
REMARK minimizedAffinity -2.80049777
REMARK minimizedRMSD -1
REMARK  0 active torsions:
REMARK  status: ('A' for Active; 'I' for Inactive)
ROOT
ATOM      1  C   UNL d   1      -1.848   2.110   3.416  0.00  0.00     0.078 C 
ATOM      2  C1  UNL d   1      -1.001   1.342   2.445  0.00  0.00    -0.077 A 
ATOM      3  C2  UNL d   1       0.307   1.747   2.151  0.00  0.00    -0.001 A 
ATOM      4  C3  UNL d   1       1.080   1.029   1.238  0.00  0.00     0.003 A 
ATOM      5  C4  UNL d   1       0.554  -0.098   0.610  0.00  0.00    -0.005 A 
ATOM      6  C5  UNL d   1      -0.747  -0.507   0.894  0.00  0.00     0.003 A 
ATOM      7  C6  UNL d   1      -1.522   0.210   1.807  0.00  0.00    -0.001 A 
ENDROOT
TORSDOF 0
ENDMDL
