MODEL 1
REMARK minimizedAffinity 0.415955395
REMARK minimizedRMSD -1
REMARK  0 active torsions:
REMARK  status: ('A' for Active; 'I' for Inactive)
ROOT
ATOM      1  C   UNL d   1       3.103  -0.650  -0.037  0.00  0.00     0.078 C 
ATOM      2  C1  UNL d   1       1.954   0.078   0.594  0.00  0.00    -0.077 A 
ATOM      3  C2  UNL d   1       1.157  -0.538   1.566  0.00  0.00    -0.001 A 
ATOM      4  C3  UNL d   1       0.085   0.148   2.139  0.00  0.00     0.003 A 
ATOM      5  C4  UNL d   1      -0.201   1.454   1.745  0.00  0.00    -0.005 A 
ATOM      6  C5  UNL d   1       0.586   2.075   0.777  0.00  0.00     0.003 A 
ATOM      7  C6  UNL d   1       1.659   1.390   0.203  0.00  0.00    -0.001 A 
ENDROOT
TORSDOF 0
ENDMDL
