MODEL 1
REMARK minimizedAffinity -4.59802008
REMARK minimizedRMSD -1
REMARK  0 active torsions:
REMARK  status: ('A' for Active; 'I' for Inactive)
ROOT
ATOM      1  C   UNL d   1      -3.295   2.116   3.463  0.00  0.00     0.078 C 
ATOM      2  C1  UNL d   1      -2.146   1.637   2.628  0.00  0.00    -0.077 A 
ATOM      3  C2  UNL d   1      -1.152   2.522   2.192  0.00  0.00    -0.001 A 
ATOM      4  C3  UNL d   1      -0.093   2.064   1.407  0.00  0.00     0.003 A 
ATOM      5  C4  UNL d   1      -0.018   0.719   1.049  0.00  0.00    -0.005 A 
ATOM      6  C5  UNL d   1      -1.003  -0.169   1.476  0.00  0.00     0.003 A 
ATOM      7  C6  UNL d   1      -2.063   0.288   2.261  0.00  0.00    -0.001 A 
ENDROOT
TORSDOF 0
ENDMDL
