MODEL 1
REMARK minimizedAffinity -2.38415742
REMARK minimizedRMSD -1
REMARK  0 active torsions:
REMARK  status: ('A' for Active; 'I' for Inactive)
ROOT
ATOM      1  C   UNL d   1      -1.727   2.118   2.221  0.00  0.00     0.078 C 
ATOM      2  C1  UNL d   1      -0.334   1.697   1.859  0.00  0.00    -0.077 A 
ATOM      3  C2  UNL d   1       0.345   2.292   0.789  0.00  0.00    -0.001 A 
ATOM      4  C3  UNL d   1       1.637   1.884   0.458  0.00  0.00     0.003 A 
ATOM      5  C4  UNL d   1       2.262   0.877   1.190  0.00  0.00    -0.005 A 
ATOM      6  C5  UNL d   1       1.594   0.276   2.255  0.00  0.00     0.003 A 
ATOM      7  C6  UNL d   1       0.301   0.684   2.588  0.00  0.00    -0.001 A 
ENDROOT
TORSDOF 0
ENDMDL
