MODEL 1
REMARK minimizedAffinity -2.09290338
REMARK minimizedRMSD -1
REMARK  0 active torsions:
REMARK  status: ('A' for Active; 'I' for Inactive)
ROOT
ATOM      1  C1  BNZ d   1      -0.009   2.551   0.362  0.00  0.00     0.000 A 
ATOM      2  C2  BNZ d   1      -1.345   2.618   0.654  0.00  0.00     0.000 A 
ATOM      3  C3  BNZ d   1      -1.838   2.072   1.806  0.00  0.00     0.000 A 
ATOM      4  C4  BNZ d   1      -1.002   1.425   2.644  0.00  0.00     0.000 A 
ATOM      5  C5  BNZ d   1       0.346   1.340   2.358  0.00  0.00     0.000 A 
ATOM      6  C6  BNZ d   1       0.845   1.925   1.217  0.00  0.00     0.000 A 
ENDROOT
TORSDOF 0
ENDMDL
