MODEL 1
REMARK minimizedAffinity 5.94238138
REMARK minimizedRMSD -1
REMARK  0 active torsions:
REMARK  status: ('A' for Active; 'I' for Inactive)
ROOT
ATOM      1  C1  BNZ d   1      -0.957   2.906   0.715  0.00  0.00     0.000 A 
ATOM      2  C2  BNZ d   1       0.313   3.105   0.242  0.00  0.00     0.000 A 
ATOM      3  C3  BNZ d   1       1.397   2.622   0.920  0.00  0.00     0.000 A 
ATOM      4  C4  BNZ d   1       1.213   1.977   2.091  0.00  0.00     0.000 A 
ATOM      5  C5  BNZ d   1      -0.060   1.777   2.586  0.00  0.00     0.000 A 
ATOM      6  C6  BNZ d   1      -1.151   2.230   1.880  0.00  0.00     0.000 A 
ENDROOT
TORSDOF 0
ENDMDL
