MODEL 1
REMARK minimizedAffinity 0.921687186
REMARK minimizedRMSD -1
REMARK  0 active torsions:
REMARK  status: ('A' for Active; 'I' for Inactive)
ROOT
ATOM      1  C1  BNZ d   1       2.452   2.468   1.086  0.00  0.00     0.000 A 
ATOM      2  C2  BNZ d   1       3.579   2.913   1.725  0.00  0.00     0.000 A 
ATOM      3  C3  BNZ d   1       3.816   2.592   3.032  0.00  0.00     0.000 A 
ATOM      4  C4  BNZ d   1       2.908   1.860   3.710  0.00  0.00     0.000 A 
ATOM      5  C5  BNZ d   1       1.763   1.411   3.083  0.00  0.00     0.000 A 
ATOM      6  C6  BNZ d   1       1.547   1.704   1.756  0.00  0.00     0.000 A 
ENDROOT
TORSDOF 0
ENDMDL
