MODEL 1
REMARK minimizedAffinity 3.47302079
REMARK minimizedRMSD -1
REMARK  0 active torsions:
REMARK  status: ('A' for Active; 'I' for Inactive)
ROOT
ATOM      1  C1  BNZ d   1       0.847  -0.157  -0.248  0.00  0.00     0.000 A 
ATOM      2  C2  BNZ d   1       0.474  -1.475  -0.262  0.00  0.00     0.000 A 
ATOM      3  C3  BNZ d   1       1.410  -2.468  -0.188  0.00  0.00     0.000 A 
ATOM      4  C4  BNZ d   1       2.719  -2.144  -0.142  0.00  0.00     0.000 A 
ATOM      5  C5  BNZ d   1       3.111  -0.820  -0.137  0.00  0.00     0.000 A 
ATOM      6  C6  BNZ d   1       2.164   0.178  -0.172  0.00  0.00     0.000 A 
ENDROOT
TORSDOF 0
ENDMDL
