MODEL 1
REMARK minimizedAffinity 2.07423973
REMARK minimizedRMSD -1
REMARK  0 active torsions:
REMARK  status: ('A' for Active; 'I' for Inactive)
ROOT
ATOM      1  C1  BNZ d   1       2.050  -2.253  -0.892  0.00  0.00     0.000 A 
ATOM      2  C2  BNZ d   1       2.779  -1.631   0.087  0.00  0.00     0.000 A 
ATOM      3  C3  BNZ d   1       2.514  -1.860   1.408  0.00  0.00     0.000 A 
ATOM      4  C4  BNZ d   1       1.497  -2.677   1.749  0.00  0.00     0.000 A 
ATOM      5  C5  BNZ d   1       0.747  -3.304   0.774  0.00  0.00     0.000 A 
ATOM      6  C6  BNZ d   1       1.041  -3.101  -0.555  0.00  0.00     0.000 A 
ENDROOT
TORSDOF 0
ENDMDL
