MODEL 1
REMARK minimizedAffinity 1.69162738
REMARK minimizedRMSD -1
REMARK  0 active torsions:
REMARK  status: ('A' for Active; 'I' for Inactive)
ROOT
ATOM      1  C1  BNZ d   1       0.354   1.919   2.011  0.00  0.00     0.000 A 
ATOM      2  C2  BNZ d   1      -0.833   2.144   2.656  0.00  0.00     0.000 A 
ATOM      3  C3  BNZ d   1      -1.964   2.455   1.954  0.00  0.00     0.000 A 
ATOM      4  C4  BNZ d   1      -1.898   2.580   0.613  0.00  0.00     0.000 A 
ATOM      5  C5  BNZ d   1      -0.707   2.365  -0.052  0.00  0.00     0.000 A 
ATOM      6  C6  BNZ d   1       0.421   2.014   0.655  0.00  0.00     0.000 A 
ENDROOT
TORSDOF 0
ENDMDL
