MODEL 1
REMARK minimizedAffinity 3.61263227
REMARK minimizedRMSD -1
REMARK  0 active torsions:
REMARK  status: ('A' for Active; 'I' for Inactive)
ROOT
ATOM      1  C1  BNZ d   1      -2.185   1.837   1.835  0.00  0.00     0.000 A 
ATOM      2  C2  BNZ d   1      -1.476   1.495   2.956  0.00  0.00     0.000 A 
ATOM      3  C3  BNZ d   1      -0.133   1.737   3.035  0.00  0.00     0.000 A 
ATOM      4  C4  BNZ d   1       0.506   2.282   1.980  0.00  0.00     0.000 A 
ATOM      5  C5  BNZ d   1      -0.193   2.622   0.839  0.00  0.00     0.000 A 
ATOM      6  C6  BNZ d   1      -1.551   2.414   0.778  0.00  0.00     0.000 A 
ENDROOT
TORSDOF 0
ENDMDL
