MODEL 1
REMARK minimizedAffinity -2.08148408
REMARK minimizedRMSD -1
REMARK  0 active torsions:
REMARK  status: ('A' for Active; 'I' for Inactive)
ROOT
ATOM      1  C1  DEN d   1      -0.772  -3.254  -1.716  0.00  0.00     0.130 A 
ATOM      2  C2  DEN d   1      -0.259  -2.673  -2.954  0.00  0.00    -0.031 A 
ATOM      3  C3  DEN d   1       0.181  -1.293  -2.663  0.00  0.00     0.027 A 
ATOM      4  C4  DEN d   1       0.123  -0.010  -0.426  0.00  0.00     0.027 A 
ATOM      5  C5  DEN d   1      -0.235  -0.084   0.902  0.00  0.00    -0.003 A 
ATOM      6  C6  DEN d   1      -0.824  -1.199   1.438  0.00  0.00     0.001 A 
ATOM      7  C7  DEN d   1      -1.031  -2.302   0.652  0.00  0.00     0.017 A 
ATOM      8  C8  DEN d   1      -0.679  -2.232  -0.689  0.00  0.00    -0.094 A 
ATOM      9  C9  DEN d   1      -0.074  -1.101  -1.210  0.00  0.00    -0.072 A 
ENDROOT
TORSDOF 0
ENDMDL
