MODEL 1
REMARK minimizedAffinity -2.05162525
REMARK minimizedRMSD -1
REMARK  0 active torsions:
REMARK  status: ('A' for Active; 'I' for Inactive)
ROOT
ATOM      1  C1  DEN d   1       0.199   0.141   2.587  0.00  0.00     0.130 A 
ATOM      2  C2  DEN d   1      -0.630  -0.694   1.723  0.00  0.00    -0.031 A 
ATOM      3  C3  DEN d   1      -0.595  -0.120   0.363  0.00  0.00     0.027 A 
ATOM      4  C4  DEN d   1       0.661   1.968  -0.484  0.00  0.00     0.027 A 
ATOM      5  C5  DEN d   1       1.485   3.008  -0.116  0.00  0.00    -0.003 A 
ATOM      6  C6  DEN d   1       1.908   3.184   1.175  0.00  0.00     0.001 A 
ATOM      7  C7  DEN d   1       1.543   2.279   2.137  0.00  0.00     0.017 A 
ATOM      8  C8  DEN d   1       0.706   1.232   1.775  0.00  0.00    -0.094 A 
ATOM      9  C9  DEN d   1       0.300   1.065   0.462  0.00  0.00    -0.072 A 
ENDROOT
TORSDOF 0
ENDMDL
