MODEL 1
REMARK minimizedAffinity -1.50066197
REMARK minimizedRMSD -1
REMARK  0 active torsions:
REMARK  status: ('A' for Active; 'I' for Inactive)
ROOT
ATOM      1  C1  DEN d   1      -0.038   0.336   2.131  0.00  0.00     0.130 A 
ATOM      2  C2  DEN d   1      -0.630  -0.808   1.442  0.00  0.00    -0.031 A 
ATOM      3  C3  DEN d   1      -0.723  -0.478   0.006  0.00  0.00     0.027 A 
ATOM      4  C4  DEN d   1      -0.006   1.679  -1.213  0.00  0.00     0.027 A 
ATOM      5  C5  DEN d   1       0.536   2.934  -1.048  0.00  0.00    -0.003 A 
ATOM      6  C6  DEN d   1       0.891   3.420   0.182  0.00  0.00     0.001 A 
ATOM      7  C7  DEN d   1       0.749   2.629   1.291  0.00  0.00     0.017 A 
ATOM      8  C8  DEN d   1       0.196   1.365   1.134  0.00  0.00    -0.094 A 
ATOM      9  C9  DEN d   1      -0.145   0.887  -0.120  0.00  0.00    -0.072 A 
ENDROOT
TORSDOF 0
ENDMDL
