MODEL 1
REMARK minimizedAffinity -2.96149969
REMARK minimizedRMSD -1
REMARK  0 active torsions:
REMARK  status: ('A' for Active; 'I' for Inactive)
ROOT
ATOM      1  C1  DEN d   1      -0.086   1.405  -0.647  0.00  0.00     0.130 A 
ATOM      2  C2  DEN d   1       0.958   2.217  -0.027  0.00  0.00    -0.031 A 
ATOM      3  C3  DEN d   1       1.423   1.514   1.185  0.00  0.00     0.027 A 
ATOM      4  C4  DEN d   1       0.635  -0.742   2.156  0.00  0.00     0.027 A 
ATOM      5  C5  DEN d   1      -0.239  -1.793   1.986  0.00  0.00    -0.003 A 
ATOM      6  C6  DEN d   1      -1.138  -1.836   0.954  0.00  0.00     0.001 A 
ATOM      7  C7  DEN d   1      -1.155  -0.828   0.026  0.00  0.00     0.017 A 
ATOM      8  C8  DEN d   1      -0.282   0.239   0.195  0.00  0.00    -0.094 A 
ATOM      9  C9  DEN d   1       0.629   0.257   1.237  0.00  0.00    -0.072 A 
ENDROOT
TORSDOF 0
ENDMDL
