MODEL 1
REMARK minimizedAffinity -4.90131235
REMARK minimizedRMSD -1
REMARK  0 active torsions:
REMARK  status: ('A' for Active; 'I' for Inactive)
ROOT
ATOM      1  C1  DEN d   1       0.968   3.973  -0.090  0.00  0.00     0.130 A 
ATOM      2  C2  DEN d   1       2.260   4.058   0.586  0.00  0.00    -0.031 A 
ATOM      3  C3  DEN d   1       2.618   2.704   1.055  0.00  0.00     0.027 A 
ATOM      4  C4  DEN d   1       1.308   0.498   0.799  0.00  0.00     0.027 A 
ATOM      5  C5  DEN d   1       0.154  -0.072   0.309  0.00  0.00    -0.003 A 
ATOM      6  C6  DEN d   1      -0.818   0.666  -0.313  0.00  0.00     0.001 A 
ATOM      7  C7  DEN d   1      -0.632   2.010  -0.502  0.00  0.00     0.017 A 
ATOM      8  C8  DEN d   1       0.526   2.593  -0.004  0.00  0.00    -0.094 A 
ATOM      9  C9  DEN d   1       1.502   1.828   0.611  0.00  0.00    -0.072 A 
ENDROOT
TORSDOF 0
ENDMDL
