MODEL 1
REMARK minimizedAffinity -1.45469391
REMARK minimizedRMSD -1
REMARK  0 active torsions:
REMARK  status: ('A' for Active; 'I' for Inactive)
ROOT
ATOM      1  C1  DEN d   1       1.000   1.787   1.001  0.00  0.00     0.130 A 
ATOM      2  C2  DEN d   1       0.881   2.196  -0.396  0.00  0.00    -0.031 A 
ATOM      3  C3  DEN d   1       0.028   1.210  -1.089  0.00  0.00     0.027 A 
ATOM      4  C4  DEN d   1      -1.119  -0.896  -0.139  0.00  0.00     0.027 A 
ATOM      5  C5  DEN d   1      -1.301  -1.662   0.991  0.00  0.00    -0.003 A 
ATOM      6  C6  DEN d   1      -0.706  -1.353   2.186  0.00  0.00     0.001 A 
ATOM      7  C7  DEN d   1       0.064  -0.225   2.289  0.00  0.00     0.017 A 
ATOM      8  C8  DEN d   1       0.257   0.549   1.152  0.00  0.00    -0.094 A 
ATOM      9  C9  DEN d   1      -0.363   0.227  -0.043  0.00  0.00    -0.072 A 
ENDROOT
TORSDOF 0
ENDMDL
