MODEL 1
REMARK minimizedAffinity -4.06736851
REMARK minimizedRMSD -1
REMARK  0 active torsions:
REMARK  status: ('A' for Active; 'I' for Inactive)
ROOT
ATOM      1  C1  DEN d   1       1.648   2.170   2.037  0.00  0.00     0.130 A 
ATOM      2  C2  DEN d   1       1.431   3.488   1.447  0.00  0.00    -0.031 A 
ATOM      3  C3  DEN d   1       0.494   3.334   0.316  0.00  0.00     0.027 A 
ATOM      4  C4  DEN d   1      -0.639   1.194  -0.572  0.00  0.00     0.027 A 
ATOM      5  C5  DEN d   1      -0.753  -0.168  -0.403  0.00  0.00    -0.003 A 
ATOM      6  C6  DEN d   1      -0.055  -0.846   0.561  0.00  0.00     0.001 A 
ATOM      7  C7  DEN d   1       0.755  -0.156   1.423  0.00  0.00     0.017 A 
ATOM      8  C8  DEN d   1       0.882   1.217   1.255  0.00  0.00    -0.094 A 
ATOM      9  C9  DEN d   1       0.158   1.885   0.282  0.00  0.00    -0.072 A 
ENDROOT
TORSDOF 0
ENDMDL
