MODEL 1
REMARK minimizedAffinity -2.31934786
REMARK minimizedRMSD -1
REMARK  0 active torsions:
REMARK  status: ('A' for Active; 'I' for Inactive)
ROOT
ATOM      1  C1  DEN d   1       0.171   0.987  -0.991  0.00  0.00     0.130 A 
ATOM      2  C2  DEN d   1      -0.025   1.593   0.323  0.00  0.00    -0.031 A 
ATOM      3  C3  DEN d   1      -0.444   0.531   1.258  0.00  0.00     0.027 A 
ATOM      4  C4  DEN d   1      -0.801  -1.983   0.804  0.00  0.00     0.027 A 
ATOM      5  C5  DEN d   1      -0.768  -2.965  -0.161  0.00  0.00    -0.003 A 
ATOM      6  C6  DEN d   1      -0.456  -2.695  -1.467  0.00  0.00     0.001 A 
ATOM      7  C7  DEN d   1      -0.119  -1.419  -1.835  0.00  0.00     0.017 A 
ATOM      8  C8  DEN d   1      -0.157  -0.422  -0.869  0.00  0.00    -0.094 A 
ATOM      9  C9  DEN d   1      -0.463  -0.717   0.449  0.00  0.00    -0.072 A 
ENDROOT
TORSDOF 0
ENDMDL
