MODEL 1
REMARK minimizedAffinity -4.24844074
REMARK minimizedRMSD -1
REMARK  0 active torsions:
REMARK  status: ('A' for Active; 'I' for Inactive)
ROOT
ATOM      1  C1  DEN d   1      -0.383   1.019  -0.979  0.00  0.00     0.130 A 
ATOM      2  C2  DEN d   1       0.492   2.003  -0.348  0.00  0.00    -0.031 A 
ATOM      3  C3  DEN d   1       1.021   1.411   0.897  0.00  0.00     0.027 A 
ATOM      4  C4  DEN d   1       0.575  -0.922   1.901  0.00  0.00     0.027 A 
ATOM      5  C5  DEN d   1      -0.109  -2.106   1.731  0.00  0.00    -0.003 A 
ATOM      6  C6  DEN d   1      -0.952  -2.316   0.672  0.00  0.00     0.001 A 
ATOM      7  C7  DEN d   1      -1.098  -1.344  -0.282  0.00  0.00     0.017 A 
ATOM      8  C8  DEN d   1      -0.417  -0.146  -0.114  0.00  0.00    -0.094 A 
ATOM      9  C9  DEN d   1       0.440   0.043   0.957  0.00  0.00    -0.072 A 
ENDROOT
TORSDOF 0
ENDMDL
