MODEL 1
REMARK minimizedAffinity -0.157461956
REMARK minimizedRMSD -1
REMARK  0 active torsions:
REMARK  status: ('A' for Active; 'I' for Inactive)
ROOT
ATOM      1  C1  DEN d   1      -0.037  -1.238  -2.515  0.00  0.00     0.130 A 
ATOM      2  C2  DEN d   1      -0.378  -2.546  -3.068  0.00  0.00    -0.031 A 
ATOM      3  C3  DEN d   1      -0.917  -3.377  -1.973  0.00  0.00     0.027 A 
ATOM      4  C4  DEN d   1      -1.260  -2.769   0.510  0.00  0.00     0.027 A 
ATOM      5  C5  DEN d   1      -1.107  -1.778   1.454  0.00  0.00    -0.003 A 
ATOM      6  C6  DEN d   1      -0.559  -0.559   1.152  0.00  0.00     0.001 A 
ATOM      7  C7  DEN d   1      -0.186  -0.284  -0.137  0.00  0.00     0.017 A 
ATOM      8  C8  DEN d   1      -0.331  -1.281  -1.093  0.00  0.00    -0.094 A 
ATOM      9  C9  DEN d   1      -0.898  -2.502  -0.770  0.00  0.00    -0.072 A 
ENDROOT
TORSDOF 0
ENDMDL
