MODEL 1
REMARK minimizedAffinity -2.71573853
REMARK minimizedRMSD -1
REMARK  0 active torsions:
REMARK  status: ('A' for Active; 'I' for Inactive)
ROOT
ATOM      1  C1  DEN d   1      -0.013  -1.135  -2.437  0.00  0.00     0.130 A 
ATOM      2  C2  DEN d   1      -0.301  -2.480  -2.928  0.00  0.00    -0.031 A 
ATOM      3  C3  DEN d   1      -0.802  -3.282  -1.794  0.00  0.00     0.027 A 
ATOM      4  C4  DEN d   1      -1.165  -2.574   0.660  0.00  0.00     0.027 A 
ATOM      5  C5  DEN d   1      -1.051  -1.535   1.557  0.00  0.00    -0.003 A 
ATOM      6  C6  DEN d   1      -0.555  -0.310   1.196  0.00  0.00     0.001 A 
ATOM      7  C7  DEN d   1      -0.197  -0.079  -0.106  0.00  0.00     0.017 A 
ATOM      8  C8  DEN d   1      -0.302  -1.124  -1.014  0.00  0.00    -0.094 A 
ATOM      9  C9  DEN d   1      -0.817  -2.351  -0.633  0.00  0.00    -0.072 A 
ENDROOT
TORSDOF 0
ENDMDL
