MODEL 1
REMARK minimizedAffinity -3.4258523
REMARK minimizedRMSD -1
REMARK  0 active torsions:
REMARK  status: ('A' for Active; 'I' for Inactive)
ROOT
ATOM      1  C   UNL d   1      -1.583   2.396   0.689  0.00  0.00     0.020 A 
ATOM      2  C1  UNL d   1      -1.178   2.441   2.022  0.00  0.00     0.020 A 
ATOM      3  C2  UNL d   1      -0.275   1.495   2.510  0.00  0.00     0.034 A 
ATOM      4  C3  UNL d   1       0.227   0.499   1.665  0.00  0.00     0.017 A 
ATOM      5  C4  UNL d   1      -0.180   0.454   0.326  0.00  0.00     0.017 A 
ATOM      6  C5  UNL d   1      -1.085   1.404  -0.157  0.00  0.00     0.034 A 
ATOM      7 Cl   UNL d   1       0.396  -0.745  -0.778  0.00  0.00    -0.070 Cl
ATOM      8 Cl1  UNL d   1       1.341  -0.639   2.335  0.00  0.00    -0.070 Cl
ENDROOT
TORSDOF 0
ENDMDL
