MODEL 1
REMARK minimizedAffinity -5.34420347
REMARK minimizedRMSD -1
REMARK  0 active torsions:
REMARK  status: ('A' for Active; 'I' for Inactive)
ROOT
ATOM      1  C   UNL d   1      -0.395   1.453   2.330  0.00  0.00     0.020 A 
ATOM      2  C1  UNL d   1       0.400   0.308   2.312  0.00  0.00     0.020 A 
ATOM      3  C2  UNL d   1       0.738  -0.289   1.096  0.00  0.00     0.034 A 
ATOM      4  C3  UNL d   1       0.281   0.259  -0.108  0.00  0.00     0.017 A 
ATOM      5  C4  UNL d   1      -0.518   1.408  -0.090  0.00  0.00     0.017 A 
ATOM      6  C5  UNL d   1      -0.853   2.002   1.131  0.00  0.00     0.034 A 
ATOM      7 Cl   UNL d   1      -1.120   2.141  -1.534  0.00  0.00    -0.070 Cl
ATOM      8 Cl1  UNL d   1       0.737  -0.532  -1.575  0.00  0.00    -0.070 Cl
ENDROOT
TORSDOF 0
ENDMDL
