MODEL 1
REMARK minimizedAffinity -2.38525128
REMARK minimizedRMSD -1
REMARK  0 active torsions:
REMARK  status: ('A' for Active; 'I' for Inactive)
ROOT
ATOM      1  C   UNL d   1       0.928  -0.534   0.823  0.00  0.00     0.020 A 
ATOM      2  C1  UNL d   1       0.894  -0.560  -0.571  0.00  0.00     0.020 A 
ATOM      3  C2  UNL d   1       0.121   0.371  -1.268  0.00  0.00     0.034 A 
ATOM      4  C3  UNL d   1      -0.623   1.331  -0.572  0.00  0.00     0.017 A 
ATOM      5  C4  UNL d   1      -0.588   1.356   0.827  0.00  0.00     0.017 A 
ATOM      6  C5  UNL d   1       0.188   0.422   1.520  0.00  0.00     0.034 A 
ATOM      7 Cl   UNL d   1      -1.478   2.511   1.755  0.00  0.00    -0.070 Cl
ATOM      8 Cl1  UNL d   1      -1.557   2.451  -1.499  0.00  0.00    -0.070 Cl
ENDROOT
TORSDOF 0
ENDMDL
