MODEL 1
REMARK minimizedAffinity -2.22461128
REMARK minimizedRMSD -1
REMARK  0 active torsions:
REMARK  status: ('A' for Active; 'I' for Inactive)
ROOT
ATOM      1  C   UNL d   1      -0.461  -2.474   1.486  0.00  0.00     0.020 A 
ATOM      2  C1  UNL d   1      -0.288  -2.570   0.106  0.00  0.00     0.020 A 
ATOM      3  C2  UNL d   1      -0.121  -1.413  -0.658  0.00  0.00     0.034 A 
ATOM      4  C3  UNL d   1      -0.126  -0.156  -0.043  0.00  0.00     0.017 A 
ATOM      5  C4  UNL d   1      -0.299  -0.061   1.342  0.00  0.00     0.017 A 
ATOM      6  C5  UNL d   1      -0.466  -1.222   2.103  0.00  0.00     0.034 A 
ATOM      7 Cl   UNL d   1      -0.316   1.455   2.172  0.00  0.00    -0.070 Cl
ATOM      8 Cl1  UNL d   1       0.087   1.232  -1.051  0.00  0.00    -0.070 Cl
ENDROOT
TORSDOF 0
ENDMDL
