MODEL 1
REMARK minimizedAffinity 3.08783698
REMARK minimizedRMSD -1
REMARK  0 active torsions:
REMARK  status: ('A' for Active; 'I' for Inactive)
ROOT
ATOM      1  C   UNL d   1       0.688  -0.945   1.571  0.00  0.00     0.020 A 
ATOM      2  C1  UNL d   1       0.639  -1.269   0.216  0.00  0.00     0.020 A 
ATOM      3  C2  UNL d   1       0.227  -0.314  -0.716  0.00  0.00     0.034 A 
ATOM      4  C3  UNL d   1      -0.138   0.970  -0.293  0.00  0.00     0.017 A 
ATOM      5  C4  UNL d   1      -0.088   1.294   1.067  0.00  0.00     0.017 A 
ATOM      6  C5  UNL d   1       0.325   0.334   1.996  0.00  0.00     0.034 A 
ATOM      7 Cl   UNL d   1      -0.523   2.857   1.664  0.00  0.00    -0.070 Cl
ATOM      8 Cl1  UNL d   1      -0.637   2.101  -1.500  0.00  0.00    -0.070 Cl
ENDROOT
TORSDOF 0
ENDMDL
