MODEL 1
REMARK minimizedAffinity 0.228676453
REMARK minimizedRMSD -1
REMARK  0 active torsions:
REMARK  status: ('A' for Active; 'I' for Inactive)
ROOT
ATOM      1  C   UNL d   1       0.097   0.713   1.843  0.00  0.00     0.020 A 
ATOM      2  C1  UNL d   1       0.043  -0.265   0.851  0.00  0.00     0.020 A 
ATOM      3  C2  UNL d   1      -0.020   0.107  -0.494  0.00  0.00     0.034 A 
ATOM      4  C3  UNL d   1      -0.029   1.460  -0.850  0.00  0.00     0.017 A 
ATOM      5  C4  UNL d   1       0.026   2.441   0.146  0.00  0.00     0.017 A 
ATOM      6  C5  UNL d   1       0.089   2.063   1.491  0.00  0.00     0.034 A 
ATOM      7 Cl   UNL d   1       0.019   4.131  -0.216  0.00  0.00    -0.070 Cl
ATOM      8 Cl1  UNL d   1      -0.107   1.848  -2.532  0.00  0.00    -0.070 Cl
ENDROOT
TORSDOF 0
ENDMDL
