MODEL 1
REMARK minimizedAffinity -3.8180542
REMARK minimizedRMSD -1
REMARK  0 active torsions:
REMARK  status: ('A' for Active; 'I' for Inactive)
ROOT
ATOM      1  C   UNL d   1       0.565   0.146   0.046  0.00  0.00     0.020 A 
ATOM      2  C1  UNL d   1      -0.826   0.095   0.129  0.00  0.00     0.020 A 
ATOM      3  C2  UNL d   1      -1.499  -1.093  -0.163  0.00  0.00     0.034 A 
ATOM      4  C3  UNL d   1      -0.782  -2.235  -0.540  0.00  0.00     0.017 A 
ATOM      5  C4  UNL d   1       0.615  -2.182  -0.623  0.00  0.00     0.017 A 
ATOM      6  C5  UNL d   1       1.284  -0.990  -0.329  0.00  0.00     0.034 A 
ATOM      7 Cl   UNL d   1       1.568  -3.549  -1.081  0.00  0.00    -0.070 Cl
ATOM      8 Cl1  UNL d   1      -1.679  -3.670  -0.886  0.00  0.00    -0.070 Cl
ENDROOT
TORSDOF 0
ENDMDL
