MODEL 1
REMARK minimizedAffinity 5.99192333
REMARK minimizedRMSD -1
REMARK  0 active torsions:
REMARK  status: ('A' for Active; 'I' for Inactive)
ROOT
ATOM      1  C   UNL d   1       1.063  -0.955   2.133  0.00  0.00     0.020 A 
ATOM      2  C1  UNL d   1       0.818  -0.104   3.209  0.00  0.00     0.020 A 
ATOM      3  C2  UNL d   1       0.527   1.243   2.982  0.00  0.00     0.034 A 
ATOM      4  C3  UNL d   1       0.482   1.743   1.676  0.00  0.00     0.017 A 
ATOM      5  C4  UNL d   1       0.728   0.888   0.596  0.00  0.00     0.017 A 
ATOM      6  C5  UNL d   1       1.019  -0.460   0.829  0.00  0.00     0.034 A 
ATOM      7 Cl   UNL d   1       0.689   1.431  -1.045  0.00  0.00    -0.070 Cl
ATOM      8 Cl1  UNL d   1       0.116   3.419   1.469  0.00  0.00    -0.070 Cl
ENDROOT
TORSDOF 0
ENDMDL
