MODEL 1
REMARK minimizedAffinity 4.64404297
REMARK minimizedRMSD -1
REMARK  0 active torsions:
REMARK  status: ('A' for Active; 'I' for Inactive)
ROOT
ATOM      1  C   UNL d   1       0.354  -1.281   1.630  0.00  0.00     0.020 A 
ATOM      2  C1  UNL d   1       0.584  -0.449   2.724  0.00  0.00     0.020 A 
ATOM      3  C2  UNL d   1       0.602   0.937   2.555  0.00  0.00     0.034 A 
ATOM      4  C3  UNL d   1       0.389   1.495   1.289  0.00  0.00     0.017 A 
ATOM      5  C4  UNL d   1       0.158   0.658   0.191  0.00  0.00     0.017 A 
ATOM      6  C5  UNL d   1       0.142  -0.729   0.366  0.00  0.00     0.034 A 
ATOM      7 Cl   UNL d   1      -0.113   1.273  -1.401  0.00  0.00    -0.070 Cl
ATOM      8 Cl1  UNL d   1       0.424   3.217   1.154  0.00  0.00    -0.070 Cl
ENDROOT
TORSDOF 0
ENDMDL
