MODEL 1
REMARK minimizedAffinity -5.21076345
REMARK minimizedRMSD -1
REMARK  0 active torsions:
REMARK  status: ('A' for Active; 'I' for Inactive)
ROOT
ATOM      1  C   UNL d   1      -1.697   1.311   1.920  0.00  0.00     0.020 A 
ATOM      2  C1  UNL d   1      -1.346   2.486   1.256  0.00  0.00     0.020 A 
ATOM      3  C2  UNL d   1      -0.744   2.424  -0.002  0.00  0.00     0.034 A 
ATOM      4  C3  UNL d   1      -0.490   1.185  -0.601  0.00  0.00     0.017 A 
ATOM      5  C4  UNL d   1      -0.843   0.006   0.066  0.00  0.00     0.017 A 
ATOM      6  C5  UNL d   1      -1.446   0.073   1.326  0.00  0.00     0.034 A 
ATOM      7 Cl   UNL d   1      -0.562  -1.560  -0.609  0.00  0.00    -0.070 Cl
ATOM      8 Cl1  UNL d   1       0.257   1.183  -2.159  0.00  0.00    -0.070 Cl
ENDROOT
TORSDOF 0
ENDMDL
