MODEL 1
REMARK minimizedAffinity 8.20112228
REMARK minimizedRMSD -1
REMARK  0 active torsions:
REMARK  status: ('A' for Active; 'I' for Inactive)
ROOT
ATOM      1  C   UNL d   1      -4.159   5.999  -5.617  0.00  0.00     0.020 A 
ATOM      2  C1  UNL d   1      -5.450   5.592  -5.953  0.00  0.00     0.020 A 
ATOM      3  C2  UNL d   1      -5.999   4.453  -5.362  0.00  0.00     0.034 A 
ATOM      4  C3  UNL d   1      -5.258   3.716  -4.431  0.00  0.00     0.017 A 
ATOM      5  C4  UNL d   1      -3.962   4.125  -4.094  0.00  0.00     0.017 A 
ATOM      6  C5  UNL d   1      -3.417   5.266  -4.690  0.00  0.00     0.034 A 
ATOM      7 Cl   UNL d   1      -2.986   3.266  -2.955  0.00  0.00    -0.070 Cl
ATOM      8 Cl1  UNL d   1      -6.000   2.318  -3.739  0.00  0.00    -0.070 Cl
ENDROOT
TORSDOF 0
ENDMDL
