MODEL 1
REMARK minimizedAffinity 4.31983232
REMARK minimizedRMSD -1
REMARK  0 active torsions:
REMARK  status: ('A' for Active; 'I' for Inactive)
ROOT
ATOM      1  C   UNL d   1      -0.361  -4.971  -1.925  0.00  0.00     0.020 A 
ATOM      2  C1  UNL d   1       0.631  -4.261  -1.249  0.00  0.00     0.020 A 
ATOM      3  C2  UNL d   1       0.610  -2.865  -1.244  0.00  0.00     0.034 A 
ATOM      4  C3  UNL d   1      -0.405  -2.174  -1.914  0.00  0.00     0.017 A 
ATOM      5  C4  UNL d   1      -1.401  -2.887  -2.592  0.00  0.00     0.017 A 
ATOM      6  C5  UNL d   1      -1.375  -4.285  -2.594  0.00  0.00     0.034 A 
ATOM      7 Cl   UNL d   1      -2.686  -2.104  -3.442  0.00  0.00    -0.070 Cl
ATOM      8 Cl1  UNL d   1      -0.370  -0.447  -1.865  0.00  0.00    -0.070 Cl
ENDROOT
TORSDOF 0
ENDMDL
