MODEL 1
REMARK minimizedAffinity 5.2268486
REMARK minimizedRMSD -1
REMARK  0 active torsions:
REMARK  status: ('A' for Active; 'I' for Inactive)
ROOT
ATOM      1  C   UNL d   1       0.595   0.907   1.908  0.00  0.00     0.020 A 
ATOM      2  C1  UNL d   1      -0.098   1.511   2.956  0.00  0.00     0.020 A 
ATOM      3  C2  UNL d   1      -1.010   2.536   2.691  0.00  0.00     0.034 A 
ATOM      4  C3  UNL d   1      -1.230   2.959   1.376  0.00  0.00     0.017 A 
ATOM      5  C4  UNL d   1      -0.534   2.351   0.324  0.00  0.00     0.017 A 
ATOM      6  C5  UNL d   1       0.377   1.326   0.595  0.00  0.00     0.034 A 
ATOM      7 Cl   UNL d   1      -0.753   2.819  -1.325  0.00  0.00    -0.070 Cl
ATOM      8 Cl1  UNL d   1      -2.372   4.230   1.121  0.00  0.00    -0.070 Cl
ENDROOT
TORSDOF 0
ENDMDL
