MODEL 1
REMARK minimizedAffinity -0.510630488
REMARK minimizedRMSD -1
REMARK  0 active torsions:
REMARK  status: ('A' for Active; 'I' for Inactive)
ROOT
ATOM      1  C1  BNZ d   1      -5.383   5.987   3.984  0.00  0.00     0.000 A 
ATOM      2  C2  BNZ d   1      -5.985   5.999   5.214  0.00  0.00     0.000 A 
ATOM      3  C3  BNZ d   1      -5.999   4.879   5.998  0.00  0.00     0.000 A 
ATOM      4  C4  BNZ d   1      -5.447   3.739   5.535  0.00  0.00     0.000 A 
ATOM      5  C5  BNZ d   1      -4.845   3.708   4.293  0.00  0.00     0.000 A 
ATOM      6  C6  BNZ d   1      -4.798   4.848   3.523  0.00  0.00     0.000 A 
ENDROOT
TORSDOF 0
ENDMDL
