MODEL 1
REMARK minimizedAffinity -2.66933608
REMARK minimizedRMSD -1
REMARK  0 active torsions:
REMARK  status: ('A' for Active; 'I' for Inactive)
ROOT
ATOM      1  C1  BNZ d   1      -6.000   5.677   3.389  0.00  0.00     0.000 A 
ATOM      2  C2  BNZ d   1      -5.979   5.993   2.056  0.00  0.00     0.000 A 
ATOM      3  C3  BNZ d   1      -5.208   5.281   1.181  0.00  0.00     0.000 A 
ATOM      4  C4  BNZ d   1      -4.429   4.282   1.644  0.00  0.00     0.000 A 
ATOM      5  C5  BNZ d   1      -4.431   3.958   2.986  0.00  0.00     0.000 A 
ATOM      6  C6  BNZ d   1      -5.239   4.652   3.858  0.00  0.00     0.000 A 
ENDROOT
TORSDOF 0
ENDMDL
