MODEL 1
REMARK minimizedAffinity 5.29830599
REMARK minimizedRMSD -1
REMARK  0 active torsions:
REMARK  status: ('A' for Active; 'I' for Inactive)
ROOT
ATOM      1  C1  BNZ d   1       1.520   1.746   4.956  0.00  0.00     0.000 A 
ATOM      2  C2  BNZ d   1       2.528   2.618   4.639  0.00  0.00     0.000 A 
ATOM      3  C3  BNZ d   1       3.369   2.364   3.592  0.00  0.00     0.000 A 
ATOM      4  C4  BNZ d   1       3.228   1.221   2.890  0.00  0.00     0.000 A 
ATOM      5  C5  BNZ d   1       2.223   0.328   3.204  0.00  0.00     0.000 A 
ATOM      6  C6  BNZ d   1       1.354   0.605   4.233  0.00  0.00     0.000 A 
ENDROOT
TORSDOF 0
ENDMDL
