MODEL 1
REMARK minimizedAffinity -2.50456142
REMARK minimizedRMSD -1
REMARK  0 active torsions:
REMARK  status: ('A' for Active; 'I' for Inactive)
ROOT
ATOM      1  C1  BNZ d   1      -6.000   3.835   5.431  0.00  0.00     0.000 A 
ATOM      2  C2  BNZ d   1      -5.997   4.200   4.111  0.00  0.00     0.000 A 
ATOM      3  C3  BNZ d   1      -4.874   4.048   3.346  0.00  0.00     0.000 A 
ATOM      4  C4  BNZ d   1      -3.747   3.569   3.910  0.00  0.00     0.000 A 
ATOM      5  C5  BNZ d   1      -3.732   3.205   5.241  0.00  0.00     0.000 A 
ATOM      6  C6  BNZ d   1      -4.874   3.323   5.999  0.00  0.00     0.000 A 
ENDROOT
TORSDOF 0
ENDMDL
