MODEL 1
REMARK minimizedAffinity -0.931116998
REMARK minimizedRMSD -1
REMARK  0 active torsions:
REMARK  status: ('A' for Active; 'I' for Inactive)
ROOT
ATOM      1  C1  BNZ d   1      -4.430   0.152   1.394  0.00  0.00     0.000 A 
ATOM      2  C2  BNZ d   1      -4.774   1.461   1.601  0.00  0.00     0.000 A 
ATOM      3  C3  BNZ d   1      -4.162   2.200   2.574  0.00  0.00     0.000 A 
ATOM      4  C4  BNZ d   1      -3.237   1.619   3.365  0.00  0.00     0.000 A 
ATOM      5  C5  BNZ d   1      -2.886   0.297   3.175  0.00  0.00     0.000 A 
ATOM      6  C6  BNZ d   1      -3.476  -0.433   2.169  0.00  0.00     0.000 A 
ENDROOT
TORSDOF 0
ENDMDL
