MODEL 1
REMARK minimizedAffinity 4.33777046
REMARK minimizedRMSD -1
REMARK  0 active torsions:
REMARK  status: ('A' for Active; 'I' for Inactive)
ROOT
ATOM      1  C1  BNZ d   1       1.611  -0.154   4.977  0.00  0.00     0.000 A 
ATOM      2  C2  BNZ d   1       1.981   1.162   5.061  0.00  0.00     0.000 A 
ATOM      3  C3  BNZ d   1       2.600   1.783   4.013  0.00  0.00     0.000 A 
ATOM      4  C4  BNZ d   1       2.883   1.079   2.898  0.00  0.00     0.000 A 
ATOM      5  C5  BNZ d   1       2.525  -0.251   2.801  0.00  0.00     0.000 A 
ATOM      6  C6  BNZ d   1       1.867  -0.863   3.844  0.00  0.00     0.000 A 
ENDROOT
TORSDOF 0
ENDMDL
