MODEL 1
REMARK minimizedAffinity -2.65522528
REMARK minimizedRMSD -1
REMARK  0 active torsions:
REMARK  status: ('A' for Active; 'I' for Inactive)
ROOT
ATOM      1  C1  BNZ d   1      -5.251   3.652   2.974  0.00  0.00     0.000 A 
ATOM      2  C2  BNZ d   1      -5.276   4.829   2.274  0.00  0.00     0.000 A 
ATOM      3  C3  BNZ d   1      -5.631   5.999   2.884  0.00  0.00     0.000 A 
ATOM      4  C4  BNZ d   1      -5.999   5.985   4.182  0.00  0.00     0.000 A 
ATOM      5  C5  BNZ d   1      -5.988   4.805   4.899  0.00  0.00     0.000 A 
ATOM      6  C6  BNZ d   1      -5.593   3.635   4.291  0.00  0.00     0.000 A 
ENDROOT
TORSDOF 0
ENDMDL
