MODEL 1
REMARK minimizedAffinity -0.440127045
REMARK minimizedRMSD -1
REMARK  0 active torsions:
REMARK  status: ('A' for Active; 'I' for Inactive)
ROOT
ATOM      1  C1  BNZ d   1      -4.690   4.885   1.344  0.00  0.00     0.000 A 
ATOM      2  C2  BNZ d   1      -5.362   5.994   1.787  0.00  0.00     0.000 A 
ATOM      3  C3  BNZ d   1      -6.000   5.988   2.996  0.00  0.00     0.000 A 
ATOM      4  C4  BNZ d   1      -6.000   4.864   3.740  0.00  0.00     0.000 A 
ATOM      5  C5  BNZ d   1      -5.335   3.736   3.303  0.00  0.00     0.000 A 
ATOM      6  C6  BNZ d   1      -4.661   3.757   2.104  0.00  0.00     0.000 A 
ENDROOT
TORSDOF 0
ENDMDL
