MODEL 1
REMARK minimizedAffinity -2.91407514
REMARK minimizedRMSD -1
REMARK  0 active torsions:
REMARK  status: ('A' for Active; 'I' for Inactive)
ROOT
ATOM      1  C1  BNZ d   1      -4.891   3.978   3.653  0.00  0.00     0.000 A 
ATOM      2  C2  BNZ d   1      -4.873   3.403   4.895  0.00  0.00     0.000 A 
ATOM      3  C3  BNZ d   1      -5.258   4.110   6.000  0.00  0.00     0.000 A 
ATOM      4  C4  BNZ d   1      -5.620   5.402   5.867  0.00  0.00     0.000 A 
ATOM      5  C5  BNZ d   1      -5.634   6.000   4.622  0.00  0.00     0.000 A 
ATOM      6  C6  BNZ d   1      -5.283   5.273   3.507  0.00  0.00     0.000 A 
ENDROOT
TORSDOF 0
ENDMDL
