MODEL 1
REMARK minimizedAffinity -3.25325727
REMARK minimizedRMSD -1
REMARK  0 active torsions:
REMARK  status: ('A' for Active; 'I' for Inactive)
ROOT
ATOM      1  C1  BNZ d   1      -5.700   3.983   2.237  0.00  0.00     0.000 A 
ATOM      2  C2  BNZ d   1      -5.166   5.239   2.119  0.00  0.00     0.000 A 
ATOM      3  C3  BNZ d   1      -4.790   5.946   3.226  0.00  0.00     0.000 A 
ATOM      4  C4  BNZ d   1      -4.986   5.415   4.450  0.00  0.00     0.000 A 
ATOM      5  C5  BNZ d   1      -5.532   4.154   4.586  0.00  0.00     0.000 A 
ATOM      6  C6  BNZ d   1      -5.873   3.429   3.467  0.00  0.00     0.000 A 
ENDROOT
TORSDOF 0
ENDMDL
