MODEL 1
REMARK minimizedAffinity -1.03300273
REMARK minimizedRMSD -1
REMARK  0 active torsions:
REMARK  status: ('A' for Active; 'I' for Inactive)
ROOT
ATOM      1  C1  BNZ d   1      -6.000   4.231   3.644  0.00  0.00     0.000 A 
ATOM      2  C2  BNZ d   1      -5.999   5.239   2.717  0.00  0.00     0.000 A 
ATOM      3  C3  BNZ d   1      -5.331   5.100   1.532  0.00  0.00     0.000 A 
ATOM      4  C4  BNZ d   1      -4.633   3.971   1.294  0.00  0.00     0.000 A 
ATOM      5  C5  BNZ d   1      -4.616   2.950   2.223  0.00  0.00     0.000 A 
ATOM      6  C6  BNZ d   1      -5.321   3.078   3.397  0.00  0.00     0.000 A 
ENDROOT
TORSDOF 0
ENDMDL
