MODEL 1
REMARK minimizedAffinity -3.48203444
REMARK minimizedRMSD -1
REMARK  0 active torsions:
REMARK  status: ('A' for Active; 'I' for Inactive)
ROOT
ATOM      1  C1  BNZ d   1      -5.277   5.998   3.391  0.00  0.00     0.000 A 
ATOM      2  C2  BNZ d   1      -5.645   5.618   4.655  0.00  0.00     0.000 A 
ATOM      3  C3  BNZ d   1      -5.674   4.298   5.008  0.00  0.00     0.000 A 
ATOM      4  C4  BNZ d   1      -5.375   3.359   4.087  0.00  0.00     0.000 A 
ATOM      5  C5  BNZ d   1      -5.012   3.726   2.807  0.00  0.00     0.000 A 
ATOM      6  C6  BNZ d   1      -4.945   5.057   2.466  0.00  0.00     0.000 A 
ENDROOT
TORSDOF 0
ENDMDL
