MODEL 1
REMARK minimizedAffinity -3.04313135
REMARK minimizedRMSD -1
REMARK  0 active torsions:
REMARK  status: ('A' for Active; 'I' for Inactive)
ROOT
ATOM      1  C1  BNZ d   1      -5.992   3.704   6.000  0.00  0.00     0.000 A 
ATOM      2  C2  BNZ d   1      -5.876   4.834   5.235  0.00  0.00     0.000 A 
ATOM      3  C3  BNZ d   1      -5.377   4.771   3.964  0.00  0.00     0.000 A 
ATOM      4  C4  BNZ d   1      -4.957   3.586   3.475  0.00  0.00     0.000 A 
ATOM      5  C5  BNZ d   1      -5.058   2.439   4.237  0.00  0.00     0.000 A 
ATOM      6  C6  BNZ d   1      -5.598   2.500   5.501  0.00  0.00     0.000 A 
ENDROOT
TORSDOF 0
ENDMDL
