MODEL 1
REMARK minimizedAffinity -2.53973699
REMARK minimizedRMSD -1
REMARK  0 active torsions:
REMARK  status: ('A' for Active; 'I' for Inactive)
ROOT
ATOM      1  C1  BNZ d   1      -5.324   2.284   5.296  0.00  0.00     0.000 A 
ATOM      2  C2  BNZ d   1      -6.000   2.694   4.178  0.00  0.00     0.000 A 
ATOM      3  C3  BNZ d   1      -5.919   3.988   3.746  0.00  0.00     0.000 A 
ATOM      4  C4  BNZ d   1      -5.195   4.879   4.454  0.00  0.00     0.000 A 
ATOM      5  C5  BNZ d   1      -4.515   4.483   5.589  0.00  0.00     0.000 A 
ATOM      6  C6  BNZ d   1      -4.568   3.171   5.998  0.00  0.00     0.000 A 
ENDROOT
TORSDOF 0
ENDMDL
