MODEL 1
REMARK minimizedAffinity -3.40141392
REMARK minimizedRMSD -1
REMARK  0 active torsions:
REMARK  status: ('A' for Active; 'I' for Inactive)
ROOT
ATOM      1  C1  BNZ d   1      -3.004   3.012   5.033  0.00  0.00     0.000 A 
ATOM      2  C2  BNZ d   1      -3.472   3.842   4.049  0.00  0.00     0.000 A 
ATOM      3  C3  BNZ d   1      -4.784   4.226   4.024  0.00  0.00     0.000 A 
ATOM      4  C4  BNZ d   1      -5.633   3.749   4.957  0.00  0.00     0.000 A 
ATOM      5  C5  BNZ d   1      -5.178   2.904   5.949  0.00  0.00     0.000 A 
ATOM      6  C6  BNZ d   1      -3.849   2.550   5.994  0.00  0.00     0.000 A 
ENDROOT
TORSDOF 0
ENDMDL
