MODEL 1
REMARK minimizedAffinity -3.53281903
REMARK minimizedRMSD -1
REMARK  0 active torsions:
REMARK  status: ('A' for Active; 'I' for Inactive)
ROOT
ATOM      1  C1  BNZ d   1      -5.999   5.242  -0.006  0.00  0.00     0.000 A 
ATOM      2  C2  BNZ d   1      -6.000   5.242   1.363  0.00  0.00     0.000 A 
ATOM      3  C3  BNZ d   1      -5.611   4.134   2.063  0.00  0.00     0.000 A 
ATOM      4  C4  BNZ d   1      -5.260   3.017   1.394  0.00  0.00     0.000 A 
ATOM      5  C5  BNZ d   1      -5.263   2.998   0.014  0.00  0.00     0.000 A 
ATOM      6  C6  BNZ d   1      -5.618   4.128  -0.688  0.00  0.00     0.000 A 
ENDROOT
TORSDOF 0
ENDMDL
