MODEL 1
REMARK minimizedAffinity -2.15536571
REMARK minimizedRMSD -1
REMARK  0 active torsions:
REMARK  status: ('A' for Active; 'I' for Inactive)
ROOT
ATOM      1  C1  BNZ d   1       0.298   0.132  -0.958  0.00  0.00     0.000 A 
ATOM      2  C2  BNZ d   1      -0.965   0.121  -1.487  0.00  0.00     0.000 A 
ATOM      3  C3  BNZ d   1      -2.030  -0.311  -0.747  0.00  0.00     0.000 A 
ATOM      4  C4  BNZ d   1      -1.825  -0.769   0.505  0.00  0.00     0.000 A 
ATOM      5  C5  BNZ d   1      -0.556  -0.773   1.049  0.00  0.00     0.000 A 
ATOM      6  C6  BNZ d   1       0.508  -0.301   0.315  0.00  0.00     0.000 A 
ENDROOT
TORSDOF 0
ENDMDL
