MODEL 1
REMARK minimizedAffinity -3.53517747
REMARK minimizedRMSD -1
REMARK  0 active torsions:
REMARK  status: ('A' for Active; 'I' for Inactive)
ROOT
ATOM      1  C1  BNZ d   1       1.408   2.441   0.935  0.00  0.00     0.000 A 
ATOM      2  C2  BNZ d   1       1.412   3.459   1.852  0.00  0.00     0.000 A 
ATOM      3  C3  BNZ d   1       2.159   3.370   2.993  0.00  0.00     0.000 A 
ATOM      4  C4  BNZ d   1       2.868   2.249   3.236  0.00  0.00     0.000 A 
ATOM      5  C5  BNZ d   1       2.867   1.211   2.326  0.00  0.00     0.000 A 
ATOM      6  C6  BNZ d   1       2.145   1.320   1.159  0.00  0.00     0.000 A 
ENDROOT
TORSDOF 0
ENDMDL
