MODEL 1
REMARK minimizedAffinity -3.34630656
REMARK minimizedRMSD -1
REMARK  0 active torsions:
REMARK  status: ('A' for Active; 'I' for Inactive)
ROOT
ATOM      1  C1  BNZ d   1      -1.159  -1.541   2.292  0.00  0.00     0.000 A 
ATOM      2  C2  BNZ d   1      -1.803  -0.423   1.835  0.00  0.00     0.000 A 
ATOM      3  C3  BNZ d   1      -1.281   0.316   0.810  0.00  0.00     0.000 A 
ATOM      4  C4  BNZ d   1      -0.097  -0.041   0.272  0.00  0.00     0.000 A 
ATOM      5  C5  BNZ d   1       0.569  -1.161   0.729  0.00  0.00     0.000 A 
ATOM      6  C6  BNZ d   1       0.021  -1.924   1.734  0.00  0.00     0.000 A 
ENDROOT
TORSDOF 0
ENDMDL
