MODEL 1
REMARK minimizedAffinity -3.4813962
REMARK minimizedRMSD -1
REMARK  0 active torsions:
REMARK  status: ('A' for Active; 'I' for Inactive)
ROOT
ATOM      1  C1  BNZ d   1      -2.370  -1.025  -1.601  0.00  0.00     0.000 A 
ATOM      2  C2  BNZ d   1      -3.127  -1.332  -0.502  0.00  0.00     0.000 A 
ATOM      3  C3  BNZ d   1      -2.747  -0.924   0.746  0.00  0.00     0.000 A 
ATOM      4  C4  BNZ d   1      -1.592  -0.245   0.898  0.00  0.00     0.000 A 
ATOM      5  C5  BNZ d   1      -0.813   0.064  -0.199  0.00  0.00     0.000 A 
ATOM      6  C6  BNZ d   1      -1.219  -0.315  -1.458  0.00  0.00     0.000 A 
ENDROOT
TORSDOF 0
ENDMDL
