MODEL 1
REMARK minimizedAffinity -3.14769435
REMARK minimizedRMSD -1
REMARK  0 active torsions:
REMARK  status: ('A' for Active; 'I' for Inactive)
ROOT
ATOM      1  C1  BNZ d   1       1.194  -0.076  -0.320  0.00  0.00     0.000 A 
ATOM      2  C2  BNZ d   1       0.033   0.203  -0.991  0.00  0.00     0.000 A 
ATOM      3  C3  BNZ d   1      -1.173  -0.230  -0.513  0.00  0.00     0.000 A 
ATOM      4  C4  BNZ d   1      -1.212  -0.974   0.612  0.00  0.00     0.000 A 
ATOM      5  C5  BNZ d   1      -0.049  -1.271   1.294  0.00  0.00     0.000 A 
ATOM      6  C6  BNZ d   1       1.159  -0.801   0.831  0.00  0.00     0.000 A 
ENDROOT
TORSDOF 0
ENDMDL
