MODEL 1
REMARK minimizedAffinity -4.21068382
REMARK minimizedRMSD -1
REMARK  0 active torsions:
REMARK  status: ('A' for Active; 'I' for Inactive)
ROOT
ATOM      1  C1  BNZ d   1      -1.201  -0.031   0.406  0.00  0.00     0.000 A 
ATOM      2  C2  BNZ d   1      -2.491  -0.491   0.445  0.00  0.00     0.000 A 
ATOM      3  C3  BNZ d   1      -3.126  -0.890  -0.697  0.00  0.00     0.000 A 
ATOM      4  C4  BNZ d   1      -2.487  -0.791  -1.881  0.00  0.00     0.000 A 
ATOM      5  C5  BNZ d   1      -1.190  -0.321  -1.938  0.00  0.00     0.000 A 
ATOM      6  C6  BNZ d   1      -0.540   0.043  -0.781  0.00  0.00     0.000 A 
ENDROOT
TORSDOF 0
ENDMDL
