MODEL 1
REMARK minimizedAffinity -2.94801521
REMARK minimizedRMSD -1
REMARK  0 active torsions:
REMARK  status: ('A' for Active; 'I' for Inactive)
ROOT
ATOM      1  C1  BNZ d   1       0.455   0.208  -0.992  0.00  0.00     0.000 A 
ATOM      2  C2  BNZ d   1      -0.771   0.209  -1.602  0.00  0.00     0.000 A 
ATOM      3  C3  BNZ d   1      -1.876  -0.265  -0.951  0.00  0.00     0.000 A 
ATOM      4  C4  BNZ d   1      -1.747  -0.776   0.290  0.00  0.00     0.000 A 
ATOM      5  C5  BNZ d   1      -0.515  -0.793   0.914  0.00  0.00     0.000 A 
ATOM      6  C6  BNZ d   1       0.588  -0.279   0.272  0.00  0.00     0.000 A 
ENDROOT
TORSDOF 0
ENDMDL
