MODEL 1
REMARK minimizedAffinity -3.80678105
REMARK minimizedRMSD -1
REMARK  0 active torsions:
REMARK  status: ('A' for Active; 'I' for Inactive)
ROOT
ATOM      1  C1  BNZ d   1      -2.564  -0.800  -0.630  0.00  0.00     0.000 A 
ATOM      2  C2  BNZ d   1      -1.379  -0.836  -1.315  0.00  0.00     0.000 A 
ATOM      3  C3  BNZ d   1      -0.287  -0.149  -0.863  0.00  0.00     0.000 A 
ATOM      4  C4  BNZ d   1      -0.393   0.604   0.251  0.00  0.00     0.000 A 
ATOM      5  C5  BNZ d   1      -1.583   0.658   0.948  0.00  0.00     0.000 A 
ATOM      6  C6  BNZ d   1      -2.669  -0.065   0.511  0.00  0.00     0.000 A 
ENDROOT
TORSDOF 0
ENDMDL
