MODEL 1
REMARK minimizedAffinity -4.03938627
REMARK minimizedRMSD -1
REMARK  0 active torsions:
REMARK  status: ('A' for Active; 'I' for Inactive)
ROOT
ATOM      1  C1  BNZ d   1      -0.087  -1.495   1.504  0.00  0.00     0.000 A 
ATOM      2  C2  BNZ d   1      -1.253  -2.201   1.634  0.00  0.00     0.000 A 
ATOM      3  C3  BNZ d   1      -2.350  -1.886   0.881  0.00  0.00     0.000 A 
ATOM      4  C4  BNZ d   1      -2.291  -0.842   0.029  0.00  0.00     0.000 A 
ATOM      5  C5  BNZ d   1      -1.126  -0.114  -0.106  0.00  0.00     0.000 A 
ATOM      6  C6  BNZ d   1      -0.012  -0.458   0.625  0.00  0.00     0.000 A 
ENDROOT
TORSDOF 0
ENDMDL
