MODEL 1
REMARK minimizedAffinity -4.38874626
REMARK minimizedRMSD -1
REMARK  0 active torsions:
REMARK  status: ('A' for Active; 'I' for Inactive)
ROOT
ATOM      1  C1  BNZ d   1      -0.492   0.310  -0.317  0.00  0.00     0.000 A 
ATOM      2  C2  BNZ d   1      -1.257   0.028   0.783  0.00  0.00     0.000 A 
ATOM      3  C3  BNZ d   1      -2.381  -0.742   0.675  0.00  0.00     0.000 A 
ATOM      4  C4  BNZ d   1      -2.760  -1.196  -0.537  0.00  0.00     0.000 A 
ATOM      5  C5  BNZ d   1      -2.005  -0.913  -1.657  0.00  0.00     0.000 A 
ATOM      6  C6  BNZ d   1      -0.853  -0.170  -1.539  0.00  0.00     0.000 A 
ENDROOT
TORSDOF 0
ENDMDL
