MODEL 1
REMARK minimizedAffinity -4.09485722
REMARK minimizedRMSD -1
REMARK  0 active torsions:
REMARK  status: ('A' for Active; 'I' for Inactive)
ROOT
ATOM      1  C1  BNZ d   1      -2.288  -0.932  -1.924  0.00  0.00     0.000 A 
ATOM      2  C2  BNZ d   1      -2.928  -1.347  -0.786  0.00  0.00     0.000 A 
ATOM      3  C3  BNZ d   1      -2.434  -1.033   0.449  0.00  0.00     0.000 A 
ATOM      4  C4  BNZ d   1      -1.282  -0.340   0.546  0.00  0.00     0.000 A 
ATOM      5  C5  BNZ d   1      -0.620   0.078  -0.592  0.00  0.00     0.000 A 
ATOM      6  C6  BNZ d   1      -1.141  -0.206  -1.833  0.00  0.00     0.000 A 
ENDROOT
TORSDOF 0
ENDMDL
