MODEL 1
REMARK minimizedAffinity -1.40846908
REMARK minimizedRMSD -1
REMARK  0 active torsions:
REMARK  status: ('A' for Active; 'I' for Inactive)
ROOT
ATOM      1  C   UNL d   1      -1.399  -0.491  -0.797  0.00  0.00    -0.002 A 
ATOM      2  C1  UNL d   1      -0.016  -0.509  -0.916  0.00  0.00     0.010 A 
ATOM      3  C2  UNL d   1       0.795  -0.227   0.185  0.00  0.00     0.041 A 
ATOM      4  C3  UNL d   1       0.187   0.075   1.420  0.00  0.00    -0.075 A 
ATOM      5  S   UNL d   1       0.980   0.452   2.904  0.00  0.00     0.015 SA
ATOM      6  C4  UNL d   1      -0.498   0.644   3.730  0.00  0.00     0.022 A 
ATOM      7  C5  UNL d   1      -1.580   0.430   2.909  0.00  0.00     0.026 A 
ATOM      8  C6  UNL d   1      -1.203   0.098   1.564  0.00  0.00    -0.082 A 
ATOM      9  C7  UNL d   1      -1.998  -0.192   0.429  0.00  0.00     0.045 A 
ENDROOT
TORSDOF 0
ENDMDL
