MODEL 1
REMARK minimizedAffinity -2.59328461
REMARK minimizedRMSD -1
REMARK  0 active torsions:
REMARK  status: ('A' for Active; 'I' for Inactive)
ROOT
ATOM      1  C   UNL d   1      -0.735   0.864   1.332  0.00  0.00    -0.002 A 
ATOM      2  C1  UNL d   1      -1.620   0.014   0.687  0.00  0.00     0.010 A 
ATOM      3  C2  UNL d   1      -1.360  -0.431  -0.611  0.00  0.00     0.041 A 
ATOM      4  C3  UNL d   1      -0.182  -0.003  -1.255  0.00  0.00    -0.075 A 
ATOM      5  S   UNL d   1       0.345  -0.419  -2.843  0.00  0.00     0.015 SA
ATOM      6  C4  UNL d   1       1.758   0.522  -2.701  0.00  0.00     0.022 A 
ATOM      7  C5  UNL d   1       1.842   1.146  -1.479  0.00  0.00     0.026 A 
ATOM      8  C6  UNL d   1       0.726   0.853  -0.625  0.00  0.00    -0.082 A 
ATOM      9  C7  UNL d   1       0.433   1.287   0.691  0.00  0.00     0.045 A 
ENDROOT
TORSDOF 0
ENDMDL
