MODEL 1
REMARK minimizedAffinity 0.246923283
REMARK minimizedRMSD -1
REMARK  0 active torsions:
REMARK  status: ('A' for Active; 'I' for Inactive)
ROOT
ATOM      1  C   UNL d   1      -1.743   0.281   2.942  0.00  0.00    -0.002 A 
ATOM      2  C1  UNL d   1      -2.047   0.168   1.593  0.00  0.00     0.010 A 
ATOM      3  C2  UNL d   1      -1.059  -0.173   0.668  0.00  0.00     0.041 A 
ATOM      4  C3  UNL d   1       0.253  -0.404   1.127  0.00  0.00    -0.075 A 
ATOM      5  S   UNL d   1       1.626  -0.834   0.177  0.00  0.00     0.015 SA
ATOM      6  C4  UNL d   1       2.648  -0.880   1.540  0.00  0.00     0.022 A 
ATOM      7  C5  UNL d   1       1.975  -0.577   2.700  0.00  0.00     0.026 A 
ATOM      8  C6  UNL d   1       0.584  -0.297   2.481  0.00  0.00    -0.082 A 
ATOM      9  C7  UNL d   1      -0.441   0.051   3.394  0.00  0.00     0.045 A 
ENDROOT
TORSDOF 0
ENDMDL
