MODEL 1
REMARK minimizedAffinity -3.02570558
REMARK minimizedRMSD -1
REMARK  0 active torsions:
REMARK  status: ('A' for Active; 'I' for Inactive)
ROOT
ATOM      1  C   UNL d   1       0.038  -0.484   3.503  0.00  0.00    -0.002 A 
ATOM      2  C1  UNL d   1       1.219  -0.818   2.855  0.00  0.00     0.010 A 
ATOM      3  C2  UNL d   1       1.298  -0.786   1.461  0.00  0.00     0.041 A 
ATOM      4  C3  UNL d   1       0.159  -0.407   0.723  0.00  0.00    -0.075 A 
ATOM      5  S   UNL d   1       0.023  -0.295  -0.992  0.00  0.00     0.015 SA
ATOM      6  C4  UNL d   1      -1.606   0.199  -0.905  0.00  0.00     0.022 A 
ATOM      7  C5  UNL d   1      -2.051   0.282   0.393  0.00  0.00     0.026 A 
ATOM      8  C6  UNL d   1      -1.041  -0.066   1.353  0.00  0.00    -0.082 A 
ATOM      9  C7  UNL d   1      -1.089  -0.109   2.767  0.00  0.00     0.045 A 
ENDROOT
TORSDOF 0
ENDMDL
