MODEL 1
REMARK minimizedAffinity 0.754215598
REMARK minimizedRMSD -1
REMARK  0 active torsions:
REMARK  status: ('A' for Active; 'I' for Inactive)
ROOT
ATOM      1  C   UNL d   1      -1.047   0.880   2.998  0.00  0.00    -0.002 A 
ATOM      2  C1  UNL d   1      -0.444   1.975   2.395  0.00  0.00     0.010 A 
ATOM      3  C2  UNL d   1      -0.112   1.946   1.039  0.00  0.00     0.041 A 
ATOM      4  C3  UNL d   1      -0.401   0.788   0.291  0.00  0.00    -0.075 A 
ATOM      5  S   UNL d   1      -0.085   0.527  -1.383  0.00  0.00     0.015 SA
ATOM      6  C4  UNL d   1      -0.745  -1.044  -1.339  0.00  0.00     0.022 A 
ATOM      7  C5  UNL d   1      -1.199  -1.378  -0.085  0.00  0.00     0.026 A 
ATOM      8  C6  UNL d   1      -1.009  -0.327   0.875  0.00  0.00    -0.082 A 
ATOM      9  C7  UNL d   1      -1.332  -0.267   2.252  0.00  0.00     0.045 A 
ENDROOT
TORSDOF 0
ENDMDL
