MODEL 1
REMARK minimizedAffinity -4.14823961
REMARK minimizedRMSD -1
REMARK  1 active torsions:
REMARK  status: ('A' for Active; 'I' for Inactive)
REMARK    1  A    between atoms: N_2  and  C1_3 
ROOT
ATOM      1  C1  UNL d   1       1.200   1.483   0.799  0.00  0.00     0.143 A 
ATOM      2  C2  UNL d   1       1.585   0.370   0.044  0.00  0.00    -0.057 A 
ATOM      3  C3  UNL d   1       0.726  -0.196  -0.906  0.00  0.00     0.033 A 
ATOM      4  C4  UNL d   1      -0.549   0.327  -1.098  0.00  0.00    -0.042 A 
ATOM      5  C5  UNL d   1      -0.962   1.418  -0.342  0.00  0.00     0.033 A 
ATOM      6  C6  UNL d   1      -0.097   1.982   0.601  0.00  0.00    -0.057 A 
ENDROOT
BRANCH   1   7
ATOM      7  N   UNL d   1       1.971   2.030   1.827  0.00  0.00    -0.732 N 
ATOM      8  C   UNL d   1       3.022   2.981   1.535  0.00  0.00     0.284 C 
ATOM      9  H3  UNL d   1       1.416   2.263   2.647  0.00  0.00     0.395 HD
ENDBRANCH   1   7
TORSDOF 1
ENDMDL
