MODEL 1
REMARK minimizedAffinity -1.21387708
REMARK minimizedRMSD -1
REMARK  1 active torsions:
REMARK  status: ('A' for Active; 'I' for Inactive)
REMARK    1  A    between atoms: N_2  and  C1_3 
ROOT
ATOM      1  C1  UNL d   1       1.102   0.945   0.214  0.00  0.00     0.143 A 
ATOM      2  C2  UNL d   1       0.529  -0.305   0.472  0.00  0.00    -0.057 A 
ATOM      3  C3  UNL d   1      -0.572  -0.764  -0.261  0.00  0.00     0.033 A 
ATOM      4  C4  UNL d   1      -1.140   0.034  -1.249  0.00  0.00    -0.042 A 
ATOM      5  C5  UNL d   1      -0.602   1.290  -1.506  0.00  0.00     0.033 A 
ATOM      6  C6  UNL d   1       0.502   1.740  -0.775  0.00  0.00    -0.057 A 
ENDROOT
BRANCH   1   7
ATOM      7  N   UNL d   1       2.135   1.498   0.974  0.00  0.00    -0.732 N 
ATOM      8  C   UNL d   1       3.087   2.407   0.372  0.00  0.00     0.284 C 
ATOM      9  H3  UNL d   1       1.828   1.774   1.904  0.00  0.00     0.395 HD
ENDBRANCH   1   7
TORSDOF 1
ENDMDL
