MODEL 1
REMARK minimizedAffinity -2.42066002
REMARK minimizedRMSD -1
REMARK  1 active torsions:
REMARK  status: ('A' for Active; 'I' for Inactive)
REMARK    1  A    between atoms: N_2  and  C1_3 
ROOT
ATOM      1  C1  UNL d   1       0.265  -0.235  -0.210  0.00  0.00     0.143 A 
ATOM      2  C2  UNL d   1      -0.341   0.057  -1.437  0.00  0.00    -0.057 A 
ATOM      3  C3  UNL d   1      -1.629  -0.400  -1.738  0.00  0.00     0.033 A 
ATOM      4  C4  UNL d   1      -2.326  -1.185  -0.826  0.00  0.00    -0.042 A 
ATOM      5  C5  UNL d   1      -1.734  -1.510   0.390  0.00  0.00     0.033 A 
ATOM      6  C6  UNL d   1      -0.449  -1.044   0.687  0.00  0.00    -0.057 A 
ENDROOT
BRANCH   1   7
ATOM      7  N   UNL d   1       1.581   0.107   0.109  0.00  0.00    -0.732 N 
ATOM      8  C   UNL d   1       1.907   1.444   0.558  0.00  0.00     0.284 C 
ATOM      9  H3  UNL d   1       2.062  -0.631   0.617  0.00  0.00     0.395 HD
ENDBRANCH   1   7
TORSDOF 1
ENDMDL
