MODEL 1
REMARK minimizedAffinity -2.50513887
REMARK minimizedRMSD -1
REMARK  1 active torsions:
REMARK  status: ('A' for Active; 'I' for Inactive)
REMARK    1  A    between atoms: N_2  and  C1_3 
ROOT
ATOM      1  C1  UNL d   1      -0.066   0.427  -0.034  0.00  0.00     0.143 A 
ATOM      2  C2  UNL d   1      -0.521  -0.862   0.264  0.00  0.00    -0.057 A 
ATOM      3  C3  UNL d   1      -1.624  -1.414  -0.400  0.00  0.00     0.033 A 
ATOM      4  C4  UNL d   1      -2.311  -0.673  -1.355  0.00  0.00    -0.042 A 
ATOM      5  C5  UNL d   1      -1.891   0.620  -1.650  0.00  0.00     0.033 A 
ATOM      6  C6  UNL d   1      -0.786   1.163  -0.989  0.00  0.00    -0.057 A 
ENDROOT
BRANCH   1   7
ATOM      7  N   UNL d   1       0.963   1.068   0.660  0.00  0.00    -0.732 N 
ATOM      8  C   UNL d   1       2.344   0.693   0.443  0.00  0.00     0.284 C 
ATOM      9  H3  UNL d   1       0.812   2.071   0.739  0.00  0.00     0.395 HD
ENDBRANCH   1   7
TORSDOF 1
ENDMDL
