MODEL 1
REMARK minimizedAffinity -3.21702123
REMARK minimizedRMSD -1
REMARK  1 active torsions:
REMARK  status: ('A' for Active; 'I' for Inactive)
REMARK    1  A    between atoms: N_2  and  C1_3 
ROOT
ATOM      1  C1  UNL d   1       0.288   0.080   0.018  0.00  0.00     0.143 A 
ATOM      2  C2  UNL d   1       1.621  -0.346   0.007  0.00  0.00    -0.057 A 
ATOM      3  C3  UNL d   1       2.629   0.408   0.622  0.00  0.00     0.033 A 
ATOM      4  C4  UNL d   1       2.324   1.619   1.234  0.00  0.00    -0.042 A 
ATOM      5  C5  UNL d   1       1.011   2.074   1.235  0.00  0.00     0.033 A 
ATOM      6  C6  UNL d   1       0.008   1.314   0.626  0.00  0.00    -0.057 A 
ENDROOT
BRANCH   1   7
ATOM      7  N   UNL d   1      -0.743  -0.574  -0.660  0.00  0.00    -0.732 N 
ATOM      8  C   UNL d   1      -1.504   0.111  -1.683  0.00  0.00     0.284 C 
ATOM      9  H3  UNL d   1      -0.506  -1.536  -0.893  0.00  0.00     0.395 HD
ENDBRANCH   1   7
TORSDOF 1
ENDMDL
