MODEL 1
REMARK minimizedAffinity -2.5202148
REMARK minimizedRMSD -1
REMARK  1 active torsions:
REMARK  status: ('A' for Active; 'I' for Inactive)
REMARK    1  A    between atoms: N_2  and  C1_3 
ROOT
ATOM      1  C1  UNL d   1       1.089   1.298   0.214  0.00  0.00     0.143 A 
ATOM      2  C2  UNL d   1       0.757  -0.046   0.419  0.00  0.00    -0.057 A 
ATOM      3  C3  UNL d   1      -0.168  -0.699  -0.405  0.00  0.00     0.033 A 
ATOM      4  C4  UNL d   1      -0.801  -0.010  -1.433  0.00  0.00    -0.042 A 
ATOM      5  C5  UNL d   1      -0.505   1.333  -1.639  0.00  0.00     0.033 A 
ATOM      6  C6  UNL d   1       0.424   1.978  -0.818  0.00  0.00    -0.057 A 
ENDROOT
BRANCH   1   7
ATOM      7  N   UNL d   1       1.926   2.030   1.060  0.00  0.00    -0.732 N 
ATOM      8  C   UNL d   1       2.938   2.909   0.514  0.00  0.00     0.284 C 
ATOM      9  H3  UNL d   1       1.430   2.413   1.861  0.00  0.00     0.395 HD
ENDBRANCH   1   7
TORSDOF 1
ENDMDL
