MODEL 1
REMARK minimizedAffinity -2.5690968
REMARK minimizedRMSD -1
REMARK  1 active torsions:
REMARK  status: ('A' for Active; 'I' for Inactive)
REMARK    1  A    between atoms: N_2  and  C1_3 
ROOT
ATOM      1  C1  UNL d   1      -1.271  -1.830  -0.092  0.00  0.00     0.143 A 
ATOM      2  C2  UNL d   1      -2.189  -1.162  -0.910  0.00  0.00    -0.057 A 
ATOM      3  C3  UNL d   1      -1.881   0.076  -1.488  0.00  0.00     0.033 A 
ATOM      4  C4  UNL d   1      -0.656   0.683  -1.233  0.00  0.00    -0.042 A 
ATOM      5  C5  UNL d   1       0.262   0.049  -0.403  0.00  0.00     0.033 A 
ATOM      6  C6  UNL d   1      -0.049  -1.189   0.165  0.00  0.00    -0.057 A 
ENDROOT
BRANCH   1   7
ATOM      7  N   UNL d   1      -1.556  -3.015   0.590  0.00  0.00    -0.732 N 
ATOM      8  C   UNL d   1      -0.902  -3.318   1.845  0.00  0.00     0.284 C 
ATOM      9  H3  UNL d   1      -2.547  -3.245   0.572  0.00  0.00     0.395 HD
ENDBRANCH   1   7
TORSDOF 1
ENDMDL
