MODEL 1
REMARK minimizedAffinity -2.7383256
REMARK minimizedRMSD -1
REMARK  1 active torsions:
REMARK  status: ('A' for Active; 'I' for Inactive)
REMARK    1  A    between atoms: N_2  and  C1_3 
ROOT
ATOM      1  C1  UNL d   1      -0.793   0.233  -0.894  0.00  0.00     0.143 A 
ATOM      2  C2  UNL d   1      -0.846   1.175   0.138  0.00  0.00    -0.057 A 
ATOM      3  C3  UNL d   1       0.279   1.455   0.924  0.00  0.00     0.033 A 
ATOM      4  C4  UNL d   1       1.472   0.772   0.710  0.00  0.00    -0.042 A 
ATOM      5  C5  UNL d   1       1.540  -0.187  -0.294  0.00  0.00     0.033 A 
ATOM      6  C6  UNL d   1       0.416  -0.456  -1.081  0.00  0.00    -0.057 A 
ENDROOT
BRANCH   1   7
ATOM      7  N   UNL d   1      -1.903  -0.160  -1.646  0.00  0.00    -0.732 N 
ATOM      8  C   UNL d   1      -2.583  -1.405  -1.361  0.00  0.00     0.284 C 
ATOM      9  H3  UNL d   1      -2.526   0.617  -1.853  0.00  0.00     0.395 HD
ENDBRANCH   1   7
TORSDOF 1
ENDMDL
