MODEL 1
REMARK minimizedAffinity -3.77031636
REMARK minimizedRMSD -1
REMARK  1 active torsions:
REMARK  status: ('A' for Active; 'I' for Inactive)
REMARK    1  A    between atoms: N_2  and  C1_3 
ROOT
ATOM      1  C1  UNL d   1       1.121   1.214   0.379  0.00  0.00     0.143 A 
ATOM      2  C2  UNL d   1      -0.223   1.602   0.359  0.00  0.00    -0.057 A 
ATOM      3  C3  UNL d   1      -1.138   1.003  -0.515  0.00  0.00     0.033 A 
ATOM      4  C4  UNL d   1      -0.718   0.023  -1.408  0.00  0.00    -0.042 A 
ATOM      5  C5  UNL d   1       0.619  -0.360  -1.423  0.00  0.00     0.033 A 
ATOM      6  C6  UNL d   1       1.527   0.237  -0.544  0.00  0.00    -0.057 A 
ENDROOT
BRANCH   1   7
ATOM      7  N   UNL d   1       2.100   1.840   1.155  0.00  0.00    -0.732 N 
ATOM      8  C   UNL d   1       2.826   2.983   0.644  0.00  0.00     0.284 C 
ATOM      9  H3  UNL d   1       1.827   1.924   2.131  0.00  0.00     0.395 HD
ENDBRANCH   1   7
TORSDOF 1
ENDMDL
