MODEL 1
REMARK minimizedAffinity -1.19332325
REMARK minimizedRMSD -1
REMARK  1 active torsions:
REMARK  status: ('A' for Active; 'I' for Inactive)
REMARK    1  A    between atoms: N_2  and  C1_3 
ROOT
ATOM      1  C1  UNL d   1      -0.082   0.039  -0.325  0.00  0.00     0.143 A 
ATOM      2  C2  UNL d   1      -0.100  -1.053   0.549  0.00  0.00    -0.057 A 
ATOM      3  C3  UNL d   1      -1.121  -2.010   0.497  0.00  0.00     0.033 A 
ATOM      4  C4  UNL d   1      -2.162  -1.875  -0.416  0.00  0.00    -0.042 A 
ATOM      5  C5  UNL d   1      -2.179  -0.784  -1.278  0.00  0.00     0.033 A 
ATOM      6  C6  UNL d   1      -1.153   0.164  -1.224  0.00  0.00    -0.057 A 
ENDROOT
BRANCH   1   7
ATOM      7  N   UNL d   1       0.851   1.075  -0.256  0.00  0.00    -0.732 N 
ATOM      8  C   UNL d   1       2.138   0.868   0.372  0.00  0.00     0.284 C 
ATOM      9  H3  UNL d   1       0.891   1.620  -1.115  0.00  0.00     0.395 HD
ENDBRANCH   1   7
TORSDOF 1
ENDMDL
