MODEL 1
REMARK minimizedAffinity -1.61648536
REMARK minimizedRMSD -1
REMARK  1 active torsions:
REMARK  status: ('A' for Active; 'I' for Inactive)
REMARK    1  A    between atoms: N_2  and  C1_3 
ROOT
ATOM      1  C1  UNL d   1       0.386   0.347  -0.192  0.00  0.00     0.143 A 
ATOM      2  C2  UNL d   1      -0.245   1.367  -0.911  0.00  0.00    -0.057 A 
ATOM      3  C3  UNL d   1      -1.539   1.203  -1.421  0.00  0.00     0.033 A 
ATOM      4  C4  UNL d   1      -2.215  -0.000  -1.244  0.00  0.00    -0.042 A 
ATOM      5  C5  UNL d   1      -1.598  -1.037  -0.553  0.00  0.00     0.033 A 
ATOM      6  C6  UNL d   1      -0.308  -0.864  -0.041  0.00  0.00    -0.057 A 
ENDROOT
BRANCH   1   7
ATOM      7  N   UNL d   1       1.708   0.413   0.255  0.00  0.00    -0.732 N 
ATOM      8  C   UNL d   1       2.367   1.691   0.418  0.00  0.00     0.284 C 
ATOM      9  H3  UNL d   1       1.900  -0.252   1.000  0.00  0.00     0.395 HD
ENDBRANCH   1   7
TORSDOF 1
ENDMDL
