MODEL 1
REMARK minimizedAffinity -1.00683665
REMARK minimizedRMSD -1
REMARK  1 active torsions:
REMARK  status: ('A' for Active; 'I' for Inactive)
REMARK    1  A    between atoms: N_2  and  C1_3 
ROOT
ATOM      1  C1  UNL d   1      -0.479  -1.231   0.719  0.00  0.00     0.143 A 
ATOM      2  C2  UNL d   1       0.799  -0.662   0.733  0.00  0.00    -0.057 A 
ATOM      3  C3  UNL d   1       1.122   0.417  -0.099  0.00  0.00     0.033 A 
ATOM      4  C4  UNL d   1       0.178   0.929  -0.983  0.00  0.00    -0.042 A 
ATOM      5  C5  UNL d   1      -1.091   0.363  -1.032  0.00  0.00     0.033 A 
ATOM      6  C6  UNL d   1      -1.410  -0.710  -0.194  0.00  0.00    -0.057 A 
ENDROOT
BRANCH   1   7
ATOM      7  N   UNL d   1      -0.832  -2.368   1.450  0.00  0.00    -0.732 N 
ATOM      8  C   UNL d   1      -1.803  -3.307   0.930  0.00  0.00     0.284 C 
ATOM      9  H3  UNL d   1      -0.031  -2.805   1.900  0.00  0.00     0.395 HD
ENDBRANCH   1   7
TORSDOF 1
ENDMDL
