MODEL 1
REMARK minimizedAffinity -2.23344016
REMARK minimizedRMSD -1
REMARK  1 active torsions:
REMARK  status: ('A' for Active; 'I' for Inactive)
REMARK    1  A    between atoms: N_2  and  C1_3 
ROOT
ATOM      1  C1  UNL d   1      -0.185  -0.396   0.080  0.00  0.00     0.143 A 
ATOM      2  C2  UNL d   1      -0.973  -0.115  -1.041  0.00  0.00    -0.057 A 
ATOM      3  C3  UNL d   1      -2.116  -0.869  -1.333  0.00  0.00     0.033 A 
ATOM      4  C4  UNL d   1      -2.477  -1.939  -0.521  0.00  0.00    -0.042 A 
ATOM      5  C5  UNL d   1      -1.695  -2.252   0.585  0.00  0.00     0.033 A 
ATOM      6  C6  UNL d   1      -0.558  -1.492   0.875  0.00  0.00    -0.057 A 
ENDROOT
BRANCH   1   7
ATOM      7  N   UNL d   1       1.017   0.253   0.369  0.00  0.00    -0.732 N 
ATOM      8  C   UNL d   1       1.020   1.526   1.057  0.00  0.00     0.284 C 
ATOM      9  H3  UNL d   1       1.741  -0.390   0.681  0.00  0.00     0.395 HD
ENDBRANCH   1   7
TORSDOF 1
ENDMDL
