MODEL 1
REMARK minimizedAffinity -3.30414581
REMARK minimizedRMSD -1
REMARK  1 active torsions:
REMARK  status: ('A' for Active; 'I' for Inactive)
REMARK    1  A    between atoms: N_2  and  C1_3 
ROOT
ATOM      1  C1  UNL d   1       1.412   1.415   0.721  0.00  0.00     0.143 A 
ATOM      2  C2  UNL d   1       1.467   0.154   0.118  0.00  0.00    -0.057 A 
ATOM      3  C3  UNL d   1       0.446  -0.289  -0.733  0.00  0.00     0.033 A 
ATOM      4  C4  UNL d   1      -0.664   0.514  -0.973  0.00  0.00    -0.042 A 
ATOM      5  C5  UNL d   1      -0.752   1.760  -0.364  0.00  0.00     0.033 A 
ATOM      6  C6  UNL d   1       0.274   2.199   0.479  0.00  0.00    -0.057 A 
ENDROOT
BRANCH   1   7
ATOM      7  N   UNL d   1       2.347   1.872   1.654  0.00  0.00    -0.732 N 
ATOM      8  C   UNL d   1       2.778   3.253   1.649  0.00  0.00     0.284 C 
ATOM      9  H3  UNL d   1       2.187   1.489   2.583  0.00  0.00     0.395 HD
ENDBRANCH   1   7
TORSDOF 1
ENDMDL
