MODEL 1
REMARK minimizedAffinity -2.26124287
REMARK minimizedRMSD -1
REMARK  1 active torsions:
REMARK  status: ('A' for Active; 'I' for Inactive)
REMARK    1  A    between atoms: N_2  and  C1_3 
ROOT
ATOM      1  C1  UNL d   1       1.427   1.444   0.526  0.00  0.00     0.143 A 
ATOM      2  C2  UNL d   1       0.074   1.796   0.463  0.00  0.00    -0.057 A 
ATOM      3  C3  UNL d   1      -0.843   1.027  -0.263  0.00  0.00     0.033 A 
ATOM      4  C4  UNL d   1      -0.417  -0.095  -0.966  0.00  0.00    -0.042 A 
ATOM      5  C5  UNL d   1       0.927  -0.450  -0.939  0.00  0.00     0.033 A 
ATOM      6  C6  UNL d   1       1.837   0.318  -0.206  0.00  0.00    -0.057 A 
ENDROOT
BRANCH   1   7
ATOM      7  N   UNL d   1       2.405   2.222   1.149  0.00  0.00    -0.732 N 
ATOM      8  C   UNL d   1       2.341   3.667   1.099  0.00  0.00     0.284 C 
ATOM      9  H3  UNL d   1       2.678   1.849   2.056  0.00  0.00     0.395 HD
ENDBRANCH   1   7
TORSDOF 1
ENDMDL
