MODEL 1
REMARK minimizedAffinity 0.0592186563
REMARK minimizedRMSD -1
REMARK  0 active torsions:
REMARK  status: ('A' for Active; 'I' for Inactive)
ROOT
ATOM      1  C1  BNZ d   1      -2.883  -1.464  -0.189  0.00  0.00     0.000 A 
ATOM      2  C2  BNZ d   1      -1.888  -1.448   0.751  0.00  0.00     0.000 A 
ATOM      3  C3  BNZ d   1      -2.039  -0.756   1.920  0.00  0.00     0.000 A 
ATOM      4  C4  BNZ d   1      -3.168  -0.048   2.129  0.00  0.00     0.000 A 
ATOM      5  C5  BNZ d   1      -4.177  -0.045   1.187  0.00  0.00     0.000 A 
ATOM      6  C6  BNZ d   1      -4.036  -0.775   0.028  0.00  0.00     0.000 A 
ENDROOT
TORSDOF 0
ENDMDL
