MODEL 1
REMARK minimizedAffinity 4.21321917
REMARK minimizedRMSD -1
REMARK  0 active torsions:
REMARK  status: ('A' for Active; 'I' for Inactive)
ROOT
ATOM      1  C1  BNZ d   1       1.881   3.788   4.059  0.00  0.00     0.000 A 
ATOM      2  C2  BNZ d   1       3.133   3.261   4.234  0.00  0.00     0.000 A 
ATOM      3  C3  BNZ d   1       3.337   1.910   4.178  0.00  0.00     0.000 A 
ATOM      4  C4  BNZ d   1       2.286   1.088   3.988  0.00  0.00     0.000 A 
ATOM      5  C5  BNZ d   1       1.016   1.603   3.818  0.00  0.00     0.000 A 
ATOM      6  C6  BNZ d   1       0.820   2.965   3.836  0.00  0.00     0.000 A 
ENDROOT
TORSDOF 0
ENDMDL
