MODEL 1
REMARK minimizedAffinity 6.3492341
REMARK minimizedRMSD -1
REMARK  0 active torsions:
REMARK  status: ('A' for Active; 'I' for Inactive)
ROOT
ATOM      1  C1  BNZ d   1      -2.141  -2.711   2.655  0.00  0.00     0.000 A 
ATOM      2  C2  BNZ d   1      -2.487  -1.426   2.980  0.00  0.00     0.000 A 
ATOM      3  C3  BNZ d   1      -2.577  -0.461   2.016  0.00  0.00     0.000 A 
ATOM      4  C4  BNZ d   1      -2.283  -0.771   0.737  0.00  0.00     0.000 A 
ATOM      5  C5  BNZ d   1      -1.924  -2.060   0.395  0.00  0.00     0.000 A 
ATOM      6  C6  BNZ d   1      -1.872  -3.038   1.362  0.00  0.00     0.000 A 
ENDROOT
TORSDOF 0
ENDMDL
