MODEL 1
REMARK minimizedAffinity -3.01251769
REMARK minimizedRMSD -1
REMARK  0 active torsions:
REMARK  status: ('A' for Active; 'I' for Inactive)
ROOT
ATOM      1  C1  BNZ d   1      -1.486  -5.671   3.798  0.00  0.00     0.000 A 
ATOM      2  C2  BNZ d   1      -0.554  -4.678   3.653  0.00  0.00     0.000 A 
ATOM      3  C3  BNZ d   1      -0.279  -3.821   4.681  0.00  0.00     0.000 A 
ATOM      4  C4  BNZ d   1      -0.964  -3.931   5.837  0.00  0.00     0.000 A 
ATOM      5  C5  BNZ d   1      -1.914  -4.920   5.996  0.00  0.00     0.000 A 
ATOM      6  C6  BNZ d   1      -2.160  -5.806   4.972  0.00  0.00     0.000 A 
ENDROOT
TORSDOF 0
ENDMDL
