MODEL 1
REMARK minimizedAffinity -1.57523739
REMARK minimizedRMSD -1
REMARK  0 active torsions:
REMARK  status: ('A' for Active; 'I' for Inactive)
ROOT
ATOM      1  C1  BNZ d   1      -1.814  -5.071  -0.355  0.00  0.00     0.000 A 
ATOM      2  C2  BNZ d   1      -1.114  -5.998   0.370  0.00  0.00     0.000 A 
ATOM      3  C3  BNZ d   1       0.253  -5.999   0.373  0.00  0.00     0.000 A 
ATOM      4  C4  BNZ d   1       0.917  -5.099  -0.381  0.00  0.00     0.000 A 
ATOM      5  C5  BNZ d   1       0.226  -4.164  -1.125  0.00  0.00     0.000 A 
ATOM      6  C6  BNZ d   1      -1.149  -4.141  -1.094  0.00  0.00     0.000 A 
ENDROOT
TORSDOF 0
ENDMDL
