MODEL 1
REMARK minimizedAffinity 0.839220107
REMARK minimizedRMSD -1
REMARK  0 active torsions:
REMARK  status: ('A' for Active; 'I' for Inactive)
ROOT
ATOM      1  C1  BNZ d   1      -1.874  -4.622   5.999  0.00  0.00     0.000 A 
ATOM      2  C2  BNZ d   1      -1.497  -3.305   6.000  0.00  0.00     0.000 A 
ATOM      3  C3  BNZ d   1      -0.176  -2.956   5.974  0.00  0.00     0.000 A 
ATOM      4  C4  BNZ d   1       0.766  -3.921   5.987  0.00  0.00     0.000 A 
ATOM      5  C5  BNZ d   1       0.402  -5.253   5.996  0.00  0.00     0.000 A 
ATOM      6  C6  BNZ d   1      -0.929  -5.601   5.983  0.00  0.00     0.000 A 
ENDROOT
TORSDOF 0
ENDMDL
