MODEL 1
REMARK minimizedAffinity -3.47562408
REMARK minimizedRMSD -1
REMARK  3 active torsions:
REMARK  status: ('A' for Active; 'I' for Inactive)
REMARK    1  A    between atoms: C3'_2  and  C2'_3 
REMARK    2  A    between atoms: C2'_3  and  C1'_4 
REMARK    3  A    between atoms: C1'_4  and  C1_5 
ROOT
ATOM      1  C1  N4B d   1       0.773  -1.866   1.604  0.00  0.00    -0.075 A 
ATOM      2  C2  N4B d   1      -0.227  -0.907   1.329  0.00  0.00     0.002 A 
ATOM      3  C3  N4B d   1      -1.320  -0.799   2.153  0.00  0.00     0.002 A 
ATOM      4  C4  N4B d   1      -1.444  -1.647   3.243  0.00  0.00    -0.004 A 
ATOM      5  C5  N4B d   1      -0.462  -2.554   3.517  0.00  0.00     0.002 A 
ATOM      6  C6  N4B d   1       0.644  -2.671   2.699  0.00  0.00     0.002 A 
ENDROOT
BRANCH   1   7
ATOM      7  C1' N4B d   1       1.943  -2.080   0.684  0.00  0.00     0.057 C 
BRANCH   7   8
ATOM      8  C2' N4B d   1       1.586  -1.567  -0.708  0.00  0.00     0.009 C 
BRANCH   8   9
ATOM      9  C3' N4B d   1       2.352  -0.304  -1.062  0.00  0.00     0.004 C 
ATOM     10  C4' N4B d   1       1.732   0.933  -0.484  0.00  0.00     0.003 C 
ENDBRANCH   8   9
ENDBRANCH   7   8
ENDBRANCH   1   7
TORSDOF 3
ENDMDL
