MODEL 1
REMARK minimizedAffinity -5.75472498
REMARK minimizedRMSD -1
REMARK  3 active torsions:
REMARK  status: ('A' for Active; 'I' for Inactive)
REMARK    1  A    between atoms: C3'_2  and  C2'_3 
REMARK    2  A    between atoms: C2'_3  and  C1'_4 
REMARK    3  A    between atoms: C1'_4  and  C1_5 
ROOT
ATOM      1  C1  N4B d   1       0.589   0.152   0.282  0.00  0.00    -0.075 A 
ATOM      2  C2  N4B d   1       1.997   0.169   0.178  0.00  0.00     0.002 A 
ATOM      3  C3  N4B d   1       2.730  -0.908   0.612  0.00  0.00     0.002 A 
ATOM      4  C4  N4B d   1       2.082  -2.000   1.169  0.00  0.00    -0.004 A 
ATOM      5  C5  N4B d   1       0.720  -2.019   1.243  0.00  0.00     0.002 A 
ATOM      6  C6  N4B d   1      -0.030  -0.945   0.806  0.00  0.00     0.002 A 
ENDROOT
BRANCH   1   7
ATOM      7  C1' N4B d   1      -0.250   1.341  -0.100  0.00  0.00     0.057 C 
BRANCH   7   8
ATOM      8  C2' N4B d   1      -0.283   1.463  -1.621  0.00  0.00     0.009 C 
BRANCH   8   9
ATOM      9  C3' N4B d   1      -1.117   0.366  -2.260  0.00  0.00     0.004 C 
ATOM     10  C4' N4B d   1      -1.524   0.691  -3.666  0.00  0.00     0.003 C 
ENDBRANCH   8   9
ENDBRANCH   7   8
ENDBRANCH   1   7
TORSDOF 3
ENDMDL
