MODEL 1
REMARK minimizedAffinity -4.16823626
REMARK minimizedRMSD -1
REMARK  3 active torsions:
REMARK  status: ('A' for Active; 'I' for Inactive)
REMARK    1  A    between atoms: C3'_2  and  C2'_3 
REMARK    2  A    between atoms: C2'_3  and  C1'_4 
REMARK    3  A    between atoms: C1'_4  and  C1_5 
ROOT
ATOM      1  C1  N4B d   1       0.245  -0.940   0.093  0.00  0.00    -0.075 A 
ATOM      2  C2  N4B d   1       1.577  -0.533   0.324  0.00  0.00     0.002 A 
ATOM      3  C3  N4B d   1       2.491  -1.427   0.827  0.00  0.00     0.002 A 
ATOM      4  C4  N4B d   1       2.092  -2.722   1.123  0.00  0.00    -0.004 A 
ATOM      5  C5  N4B d   1       0.809  -3.114   0.873  0.00  0.00     0.002 A 
ATOM      6  C6  N4B d   1      -0.119  -2.227   0.364  0.00  0.00     0.002 A 
ENDROOT
BRANCH   1   7
ATOM      7  C1' N4B d   1      -0.810   0.025  -0.375  0.00  0.00     0.057 C 
BRANCH   7   8
ATOM      8  C2' N4B d   1      -0.165   1.381  -0.642  0.00  0.00     0.009 C 
BRANCH   8   9
ATOM      9  C3' N4B d   1      -1.044   2.268  -1.507  0.00  0.00     0.004 C 
ATOM     10  C4' N4B d   1      -0.262   3.062  -2.510  0.00  0.00     0.003 C 
ENDBRANCH   8   9
ENDBRANCH   7   8
ENDBRANCH   1   7
TORSDOF 3
ENDMDL
