MODEL 1
REMARK minimizedAffinity -4.9002862
REMARK minimizedRMSD -1
REMARK  3 active torsions:
REMARK  status: ('A' for Active; 'I' for Inactive)
REMARK    1  A    between atoms: C3'_2  and  C2'_3 
REMARK    2  A    between atoms: C2'_3  and  C1'_4 
REMARK    3  A    between atoms: C1'_4  and  C1_5 
ROOT
ATOM      1  C1  N4B d   1       0.105   0.131  -0.071  0.00  0.00    -0.075 A 
ATOM      2  C2  N4B d   1      -0.503  -0.922   0.648  0.00  0.00     0.002 A 
ATOM      3  C3  N4B d   1       0.252  -1.987   1.074  0.00  0.00     0.002 A 
ATOM      4  C4  N4B d   1       1.606  -2.030   0.778  0.00  0.00    -0.004 A 
ATOM      5  C5  N4B d   1       2.190  -0.996   0.106  0.00  0.00     0.002 A 
ATOM      6  C6  N4B d   1       1.445   0.082  -0.325  0.00  0.00     0.002 A 
ENDROOT
BRANCH   1   7
ATOM      7  C1' N4B d   1      -0.696   1.275  -0.631  0.00  0.00     0.057 C 
BRANCH   7   8
ATOM      8  C2' N4B d   1      -1.858   0.720  -1.448  0.00  0.00     0.009 C 
BRANCH   8   9
ATOM      9  C3' N4B d   1      -2.105   1.530  -2.709  0.00  0.00     0.004 C 
ATOM     10  C4' N4B d   1      -1.375   2.840  -2.710  0.00  0.00     0.003 C 
ENDBRANCH   8   9
ENDBRANCH   7   8
ENDBRANCH   1   7
TORSDOF 3
ENDMDL
