MODEL 1
REMARK minimizedAffinity -4.20998526
REMARK minimizedRMSD -1
REMARK  3 active torsions:
REMARK  status: ('A' for Active; 'I' for Inactive)
REMARK    1  A    between atoms: C3'_2  and  C2'_3 
REMARK    2  A    between atoms: C2'_3  and  C1'_4 
REMARK    3  A    between atoms: C1'_4  and  C1_5 
ROOT
ATOM      1  C1  N4B d   1       0.263  -0.827  -0.210  0.00  0.00    -0.075 A 
ATOM      2  C2  N4B d   1       0.572  -1.977   0.548  0.00  0.00     0.002 A 
ATOM      3  C3  N4B d   1       1.773  -2.062   1.210  0.00  0.00     0.002 A 
ATOM      4  C4  N4B d   1       2.684  -1.021   1.113  0.00  0.00    -0.004 A 
ATOM      5  C5  N4B d   1       2.367   0.098   0.399  0.00  0.00     0.002 A 
ATOM      6  C6  N4B d   1       1.163   0.198  -0.268  0.00  0.00     0.002 A 
ENDROOT
BRANCH   1   7
ATOM      7  C1' N4B d   1      -1.000  -0.725  -1.021  0.00  0.00     0.057 C 
BRANCH   7   8
ATOM      8  C2' N4B d   1      -1.170   0.712  -1.505  0.00  0.00     0.009 C 
BRANCH   8   9
ATOM      9  C3' N4B d   1      -2.195   0.817  -2.621  0.00  0.00     0.004 C 
ATOM     10  C4' N4B d   1      -1.570   1.053  -3.964  0.00  0.00     0.003 C 
ENDBRANCH   8   9
ENDBRANCH   7   8
ENDBRANCH   1   7
TORSDOF 3
ENDMDL
