MODEL 1
REMARK minimizedAffinity -5.73936844
REMARK minimizedRMSD -1
REMARK  3 active torsions:
REMARK  status: ('A' for Active; 'I' for Inactive)
REMARK    1  A    between atoms: C3'_2  and  C2'_3 
REMARK    2  A    between atoms: C2'_3  and  C1'_4 
REMARK    3  A    between atoms: C1'_4  and  C1_5 
ROOT
ATOM      1  C1  N4B d   1       0.612  -0.480   0.354  0.00  0.00    -0.075 A 
ATOM      2  C2  N4B d   1      -0.063  -1.587   0.914  0.00  0.00     0.002 A 
ATOM      3  C3  N4B d   1       0.593  -2.783   1.071  0.00  0.00     0.002 A 
ATOM      4  C4  N4B d   1       1.913  -2.901   0.661  0.00  0.00    -0.004 A 
ATOM      5  C5  N4B d   1       2.565  -1.820   0.145  0.00  0.00     0.002 A 
ATOM      6  C6  N4B d   1       1.919  -0.610  -0.015  0.00  0.00     0.002 A 
ENDROOT
BRANCH   1   7
ATOM      7  C1' N4B d   1      -0.089   0.823   0.083  0.00  0.00     0.057 C 
BRANCH   7   8
ATOM      8  C2' N4B d   1      -1.231   0.582  -0.900  0.00  0.00     0.009 C 
BRANCH   8   9
ATOM      9  C3' N4B d   1      -1.268   1.632  -1.997  0.00  0.00     0.004 C 
ATOM     10  C4' N4B d   1      -1.989   1.163  -3.225  0.00  0.00     0.003 C 
ENDBRANCH   8   9
ENDBRANCH   7   8
ENDBRANCH   1   7
TORSDOF 3
ENDMDL
