MODEL 1
REMARK minimizedAffinity -5.90964603
REMARK minimizedRMSD -1
REMARK  3 active torsions:
REMARK  status: ('A' for Active; 'I' for Inactive)
REMARK    1  A    between atoms: C3'_2  and  C2'_3 
REMARK    2  A    between atoms: C2'_3  and  C1'_4 
REMARK    3  A    between atoms: C1'_4  and  C1_5 
ROOT
ATOM      1  C1  N4B d   1       0.945   0.043  -0.251  0.00  0.00    -0.075 A 
ATOM      2  C2  N4B d   1       2.283  -0.391  -0.124  0.00  0.00     0.002 A 
ATOM      3  C3  N4B d   1       2.563  -1.574   0.514  0.00  0.00     0.002 A 
ATOM      4  C4  N4B d   1       1.528  -2.328   1.047  0.00  0.00    -0.004 A 
ATOM      5  C5  N4B d   1       0.237  -1.915   0.897  0.00  0.00     0.002 A 
ATOM      6  C6  N4B d   1      -0.060  -0.730   0.255  0.00  0.00     0.002 A 
ENDROOT
BRANCH   1   7
ATOM      7  C1' N4B d   1       0.595   1.371  -0.865  0.00  0.00     0.057 C 
BRANCH   7   8
ATOM      8  C2' N4B d   1      -0.903   1.616  -0.710  0.00  0.00     0.009 C 
BRANCH   8   9
ATOM      9  C3' N4B d   1      -1.516   2.205  -1.969  0.00  0.00     0.004 C 
ATOM     10  C4' N4B d   1      -2.574   1.326  -2.566  0.00  0.00     0.003 C 
ENDBRANCH   8   9
ENDBRANCH   7   8
ENDBRANCH   1   7
TORSDOF 3
ENDMDL
