MODEL 1
REMARK minimizedAffinity -6.07845211
REMARK minimizedRMSD -1
REMARK  3 active torsions:
REMARK  status: ('A' for Active; 'I' for Inactive)
REMARK    1  A    between atoms: C3'_2  and  C2'_3 
REMARK    2  A    between atoms: C2'_3  and  C1'_4 
REMARK    3  A    between atoms: C1'_4  and  C1_5 
ROOT
ATOM      1  C1  N4B d   1       0.890  -0.243   0.113  0.00  0.00    -0.075 A 
ATOM      2  C2  N4B d   1       2.090  -0.776  -0.406  0.00  0.00     0.002 A 
ATOM      3  C3  N4B d   1       2.500  -2.032  -0.035  0.00  0.00     0.002 A 
ATOM      4  C4  N4B d   1       1.740  -2.764   0.866  0.00  0.00    -0.004 A 
ATOM      5  C5  N4B d   1       0.570  -2.252   1.344  0.00  0.00     0.002 A 
ATOM      6  C6  N4B d   1       0.143  -0.992   0.976  0.00  0.00     0.002 A 
ENDROOT
BRANCH   1   7
ATOM      7  C1' N4B d   1       0.444   1.160  -0.197  0.00  0.00     0.057 C 
BRANCH   7   8
ATOM      8  C2' N4B d   1      -0.396   1.149  -1.471  0.00  0.00     0.009 C 
BRANCH   8   9
ATOM      9  C3' N4B d   1      -0.278   2.453  -2.241  0.00  0.00     0.004 C 
ATOM     10  C4' N4B d   1      -0.351   2.258  -3.726  0.00  0.00     0.003 C 
ENDBRANCH   8   9
ENDBRANCH   7   8
ENDBRANCH   1   7
TORSDOF 3
ENDMDL
