MODEL 1
REMARK minimizedAffinity -3.88552475
REMARK minimizedRMSD -1
REMARK  1 active torsions:
REMARK  status: ('A' for Active; 'I' for Inactive)
REMARK    1  A    between atoms: C1_2  and  C2_3 
ROOT
ATOM      1  C2  UNL d   1      -1.212   0.312  -0.167  0.00  0.00    -0.081 A 
ATOM      2  C3  UNL d   1      -0.456   1.481  -0.313  0.00  0.00     0.006 A 
ATOM      3  C4  UNL d   1       0.871   1.526   0.123  0.00  0.00     0.002 A 
ATOM      4  C5  UNL d   1       1.465   0.401   0.705  0.00  0.00    -0.080 A 
ATOM      5  C6  UNL d   1       2.897   0.426   1.150  0.00  0.00     0.076 C 
ATOM      6  C7  UNL d   1       0.704  -0.762   0.867  0.00  0.00     0.002 A 
ATOM      7  C8  UNL d   1      -0.622  -0.807   0.431  0.00  0.00     0.006 A 
ENDROOT
BRANCH   1   8
ATOM      8  C1  UNL d   1      -2.622   0.240  -0.695  0.00  0.00     0.054 C 
ATOM      9  C   UNL d   1      -2.639  -0.027  -2.193  0.00  0.00     0.018 C 
ENDBRANCH   1   8
TORSDOF 1
ENDMDL
