MODEL 1
REMARK minimizedAffinity -2.65437388
REMARK minimizedRMSD -1
REMARK  1 active torsions:
REMARK  status: ('A' for Active; 'I' for Inactive)
REMARK    1  A    between atoms: C1_2  and  C2_3 
ROOT
ATOM      1  C2  UNL d   1      -1.101  -0.486  -1.161  0.00  0.00    -0.081 A 
ATOM      2  C3  UNL d   1      -1.414  -0.035   0.127  0.00  0.00     0.006 A 
ATOM      3  C4  UNL d   1      -0.400   0.231   1.050  0.00  0.00     0.002 A 
ATOM      4  C5  UNL d   1       0.943   0.060   0.699  0.00  0.00    -0.080 A 
ATOM      5  C6  UNL d   1       2.042   0.372   1.670  0.00  0.00     0.076 C 
ATOM      6  C7  UNL d   1       1.255  -0.407  -0.583  0.00  0.00     0.002 A 
ATOM      7  C8  UNL d   1       0.242  -0.675  -1.506  0.00  0.00     0.006 A 
ENDROOT
BRANCH   1   8
ATOM      8  C1  UNL d   1      -2.189  -0.713  -2.180  0.00  0.00     0.054 C 
ATOM      9  C   UNL d   1      -2.109   0.303  -3.310  0.00  0.00     0.018 C 
ENDBRANCH   1   8
TORSDOF 1
ENDMDL
