MODEL 1
REMARK minimizedAffinity -1.5901432
REMARK minimizedRMSD -1
REMARK  1 active torsions:
REMARK  status: ('A' for Active; 'I' for Inactive)
REMARK    1  A    between atoms: C1_2  and  C2_3 
ROOT
ATOM      1  C2  UNL d   1      -1.180   0.420  -0.840  0.00  0.00    -0.081 A 
ATOM      2  C3  UNL d   1      -0.108   1.320  -0.890  0.00  0.00     0.006 A 
ATOM      3  C4  UNL d   1       0.986   1.166  -0.036  0.00  0.00     0.002 A 
ATOM      4  C5  UNL d   1       1.031   0.106   0.877  0.00  0.00    -0.080 A 
ATOM      5  C6  UNL d   1       2.213  -0.088   1.779  0.00  0.00     0.076 C 
ATOM      6  C7  UNL d   1      -0.048  -0.782   0.939  0.00  0.00     0.002 A 
ATOM      7  C8  UNL d   1      -1.143  -0.628   0.086  0.00  0.00     0.006 A 
ENDROOT
BRANCH   1   8
ATOM      8  C1  UNL d   1      -2.332   0.546  -1.804  0.00  0.00     0.054 C 
ATOM      9  C   UNL d   1      -2.182  -0.418  -2.973  0.00  0.00     0.018 C 
ENDBRANCH   1   8
TORSDOF 1
ENDMDL
