MODEL 1
REMARK minimizedAffinity -5.06788635
REMARK minimizedRMSD -1
REMARK  1 active torsions:
REMARK  status: ('A' for Active; 'I' for Inactive)
REMARK    1  A    between atoms: C1_2  and  C2_3 
ROOT
ATOM      1  C2  UNL d   1      -0.728   0.472  -0.467  0.00  0.00    -0.081 A 
ATOM      2  C3  UNL d   1       0.150   1.559  -0.384  0.00  0.00     0.006 A 
ATOM      3  C4  UNL d   1       1.452   1.382   0.091  0.00  0.00     0.002 A 
ATOM      4  C5  UNL d   1       1.899   0.116   0.483  0.00  0.00    -0.080 A 
ATOM      5  C6  UNL d   1       3.304  -0.093   0.966  0.00  0.00     0.076 C 
ATOM      6  C7  UNL d   1       1.016  -0.967   0.416  0.00  0.00     0.002 A 
ATOM      7  C8  UNL d   1      -0.286  -0.791  -0.057  0.00  0.00     0.006 A 
ENDROOT
BRANCH   1   8
ATOM      8  C1  UNL d   1      -2.112   0.647  -1.039  0.00  0.00     0.054 C 
ATOM      9  C   UNL d   1      -2.156   0.257  -2.510  0.00  0.00     0.018 C 
ENDBRANCH   1   8
TORSDOF 1
ENDMDL
