MODEL 1
REMARK minimizedAffinity -2.06046557
REMARK minimizedRMSD -1
REMARK  1 active torsions:
REMARK  status: ('A' for Active; 'I' for Inactive)
REMARK    1  A    between atoms: C1_2  and  C2_3 
ROOT
ATOM      1  C2  UNL d   1      -0.781   0.723  -0.346  0.00  0.00    -0.081 A 
ATOM      2  C3  UNL d   1       0.305   1.601  -0.245  0.00  0.00     0.006 A 
ATOM      3  C4  UNL d   1       1.508   1.177   0.324  0.00  0.00     0.002 A 
ATOM      4  C5  UNL d   1       1.649  -0.133   0.793  0.00  0.00    -0.080 A 
ATOM      5  C6  UNL d   1       2.945  -0.610   1.378  0.00  0.00     0.076 C 
ATOM      6  C7  UNL d   1       0.558  -1.006   0.708  0.00  0.00     0.002 A 
ATOM      7  C8  UNL d   1      -0.646  -0.582   0.140  0.00  0.00     0.006 A 
ENDROOT
BRANCH   1   8
ATOM      8  C1  UNL d   1      -2.059   1.158  -1.017  0.00  0.00     0.054 C 
ATOM      9  C   UNL d   1      -2.343   0.326  -2.259  0.00  0.00     0.018 C 
ENDBRANCH   1   8
TORSDOF 1
ENDMDL
