MODEL 1
REMARK minimizedAffinity -5.31143188
REMARK minimizedRMSD -1
REMARK  1 active torsions:
REMARK  status: ('A' for Active; 'I' for Inactive)
REMARK    1  A    between atoms: C1_2  and  C2_3 
ROOT
ATOM      1  C2  UNL d   1       1.557   1.223   1.296  0.00  0.00    -0.081 A 
ATOM      2  C3  UNL d   1       1.659   0.088   0.483  0.00  0.00     0.006 A 
ATOM      3  C4  UNL d   1       0.610  -0.270  -0.368  0.00  0.00     0.002 A 
ATOM      4  C5  UNL d   1      -0.553   0.505  -0.426  0.00  0.00    -0.080 A 
ATOM      5  C6  UNL d   1      -1.674   0.149  -1.357  0.00  0.00     0.076 C 
ATOM      6  C7  UNL d   1      -0.662   1.630   0.400  0.00  0.00     0.002 A 
ATOM      7  C8  UNL d   1       0.386   1.987   1.251  0.00  0.00     0.006 A 
ENDROOT
BRANCH   1   8
ATOM      8  C1  UNL d   1       2.712   1.648   2.167  0.00  0.00     0.054 C 
ATOM      9  C   UNL d   1       2.263   2.626   3.243  0.00  0.00     0.018 C 
ENDBRANCH   1   8
TORSDOF 1
ENDMDL
