MODEL 1
REMARK minimizedAffinity -4.60030365
REMARK minimizedRMSD -1
REMARK  1 active torsions:
REMARK  status: ('A' for Active; 'I' for Inactive)
REMARK    1  A    between atoms: C1_2  and  C2_3 
ROOT
ATOM      1  C2  UNL d   1      -0.784   0.215   0.029  0.00  0.00    -0.081 A 
ATOM      2  C3  UNL d   1       0.119   1.277  -0.104  0.00  0.00     0.006 A 
ATOM      3  C4  UNL d   1       1.464   1.109   0.232  0.00  0.00     0.002 A 
ATOM      4  C5  UNL d   1       1.931  -0.125   0.699  0.00  0.00    -0.080 A 
ATOM      5  C6  UNL d   1       3.379  -0.327   1.034  0.00  0.00     0.076 C 
ATOM      6  C7  UNL d   1       1.026  -1.181   0.849  0.00  0.00     0.002 A 
ATOM      7  C8  UNL d   1      -0.320  -1.013   0.513  0.00  0.00     0.006 A 
ENDROOT
BRANCH   1   8
ATOM      8  C1  UNL d   1      -2.222   0.374  -0.393  0.00  0.00     0.054 C 
ATOM      9  C   UNL d   1      -2.376   0.225  -1.900  0.00  0.00     0.018 C 
ENDBRANCH   1   8
TORSDOF 1
ENDMDL
