MODEL 1
REMARK minimizedAffinity -4.95403433
REMARK minimizedRMSD -1
REMARK  1 active torsions:
REMARK  status: ('A' for Active; 'I' for Inactive)
REMARK    1  A    between atoms: C1_2  and  C2_3 
ROOT
ATOM      1  C2  UNL d   1       0.083   0.269   0.008  0.00  0.00    -0.081 A 
ATOM      2  C3  UNL d   1       1.177   1.142  -0.019  0.00  0.00     0.006 A 
ATOM      3  C4  UNL d   1       2.442   0.705   0.383  0.00  0.00     0.002 A 
ATOM      4  C5  UNL d   1       2.634  -0.613   0.810  0.00  0.00    -0.080 A 
ATOM      5  C6  UNL d   1       3.993  -1.104   1.215  0.00  0.00     0.076 C 
ATOM      6  C7  UNL d   1       1.538  -1.481   0.853  0.00  0.00     0.002 A 
ATOM      7  C8  UNL d   1       0.273  -1.044   0.452  0.00  0.00     0.006 A 
ENDROOT
BRANCH   1   8
ATOM      8  C1  UNL d   1      -1.269   0.719  -0.486  0.00  0.00     0.054 C 
ATOM      9  C   UNL d   1      -1.622   0.058  -1.811  0.00  0.00     0.018 C 
ENDBRANCH   1   8
TORSDOF 1
ENDMDL
