MODEL 1
REMARK minimizedAffinity 7.83453131
REMARK minimizedRMSD -1
REMARK  1 active torsions:
REMARK  status: ('A' for Active; 'I' for Inactive)
REMARK    1  A    between atoms: C1_2  and  C2_3 
ROOT
ATOM      1  C2  UNL d   1      -4.235   2.225  -2.411  0.00  0.00    -0.081 A 
ATOM      2  C3  UNL d   1      -5.522   1.908  -1.959  0.00  0.00     0.006 A 
ATOM      3  C4  UNL d   1      -6.000   2.433  -0.756  0.00  0.00     0.002 A 
ATOM      4  C5  UNL d   1      -5.203   3.289   0.011  0.00  0.00    -0.080 A 
ATOM      5  C6  UNL d   1      -5.715   3.883   1.290  0.00  0.00     0.076 C 
ATOM      6  C7  UNL d   1      -3.910   3.592  -0.431  0.00  0.00     0.002 A 
ATOM      7  C8  UNL d   1      -3.432   3.067  -1.634  0.00  0.00     0.006 A 
ENDROOT
BRANCH   1   8
ATOM      8  C1  UNL d   1      -3.741   1.713  -3.740  0.00  0.00     0.054 C 
ATOM      9  C   UNL d   1      -3.460   0.218  -3.687  0.00  0.00     0.018 C 
ENDBRANCH   1   8
TORSDOF 1
ENDMDL
