MODEL 1
REMARK minimizedAffinity -4.09771299
REMARK minimizedRMSD -1
REMARK  0 active torsions:
REMARK  status: ('A' for Active; 'I' for Inactive)
ROOT
ATOM      1  C   UNL d   1      -0.045   0.790  -1.263  0.00  0.00     0.078 C 
ATOM      2  C1  UNL d   1      -0.113   0.089   0.061  0.00  0.00    -0.077 A 
ATOM      3  C2  UNL d   1       1.024  -0.038   0.869  0.00  0.00    -0.001 A 
ATOM      4  C3  UNL d   1       0.948  -0.701   2.095  0.00  0.00     0.003 A 
ATOM      5  C4  UNL d   1      -0.262  -1.243   2.524  0.00  0.00    -0.005 A 
ATOM      6  C5  UNL d   1      -1.398  -1.124   1.726  0.00  0.00     0.003 A 
ATOM      7  C6  UNL d   1      -1.324  -0.461   0.499  0.00  0.00    -0.001 A 
ENDROOT
TORSDOF 0
ENDMDL
