MODEL 1
REMARK minimizedAffinity -4.64318132
REMARK minimizedRMSD -1
REMARK  0 active torsions:
REMARK  status: ('A' for Active; 'I' for Inactive)
ROOT
ATOM      1  C   UNL d   1       2.576  -2.084  -0.077  0.00  0.00     0.078 C 
ATOM      2  C1  UNL d   1       1.355  -1.408   0.472  0.00  0.00    -0.077 A 
ATOM      3  C2  UNL d   1       1.050  -1.468   1.837  0.00  0.00    -0.001 A 
ATOM      4  C3  UNL d   1      -0.095  -0.842   2.333  0.00  0.00     0.003 A 
ATOM      5  C4  UNL d   1      -0.945  -0.154   1.469  0.00  0.00    -0.005 A 
ATOM      6  C5  UNL d   1      -0.651  -0.091   0.109  0.00  0.00     0.003 A 
ATOM      7  C6  UNL d   1       0.494  -0.716  -0.388  0.00  0.00    -0.001 A 
ENDROOT
TORSDOF 0
ENDMDL
