MODEL 1
REMARK minimizedAffinity -5.08656216
REMARK minimizedRMSD -1
REMARK  0 active torsions:
REMARK  status: ('A' for Active; 'I' for Inactive)
ROOT
ATOM      1  C   UNL d   1       0.379   0.015  -1.002  0.00  0.00     0.078 C 
ATOM      2  C1  UNL d   1       0.869  -0.491   0.322  0.00  0.00    -0.077 A 
ATOM      3  C2  UNL d   1       2.018  -1.286   0.411  0.00  0.00    -0.001 A 
ATOM      4  C3  UNL d   1       2.457  -1.758   1.649  0.00  0.00     0.003 A 
ATOM      5  C4  UNL d   1       1.751  -1.442   2.808  0.00  0.00    -0.005 A 
ATOM      6  C5  UNL d   1       0.605  -0.653   2.730  0.00  0.00     0.003 A 
ATOM      7  C6  UNL d   1       0.165  -0.180   1.493  0.00  0.00    -0.001 A 
ENDROOT
TORSDOF 0
ENDMDL
