MODEL 1
REMARK minimizedAffinity -4.98525715
REMARK minimizedRMSD -1
REMARK  0 active torsions:
REMARK  status: ('A' for Active; 'I' for Inactive)
ROOT
ATOM      1  C   UNL d   1      -0.095   0.304  -1.229  0.00  0.00     0.078 C 
ATOM      2  C1  UNL d   1       0.420  -0.275   0.054  0.00  0.00    -0.077 A 
ATOM      3  C2  UNL d   1       1.403  -1.272   0.051  0.00  0.00    -0.001 A 
ATOM      4  C3  UNL d   1       1.867  -1.810   1.253  0.00  0.00     0.003 A 
ATOM      5  C4  UNL d   1       1.353  -1.357   2.467  0.00  0.00    -0.005 A 
ATOM      6  C5  UNL d   1       0.373  -0.367   2.479  0.00  0.00     0.003 A 
ATOM      7  C6  UNL d   1      -0.092   0.172   1.278  0.00  0.00    -0.001 A 
ENDROOT
TORSDOF 0
ENDMDL
