MODEL 1
REMARK minimizedAffinity -3.56448722
REMARK minimizedRMSD -1
REMARK  0 active torsions:
REMARK  status: ('A' for Active; 'I' for Inactive)
ROOT
ATOM      1  C   UNL d   1       0.004   0.168  -0.734  0.00  0.00     0.078 C 
ATOM      2  C1  UNL d   1      -0.705   1.388  -1.243  0.00  0.00    -0.077 A 
ATOM      3  C2  UNL d   1      -1.923   1.798  -0.686  0.00  0.00    -0.001 A 
ATOM      4  C3  UNL d   1      -2.577   2.930  -1.176  0.00  0.00     0.003 A 
ATOM      5  C4  UNL d   1      -2.022   3.660  -2.225  0.00  0.00    -0.005 A 
ATOM      6  C5  UNL d   1      -0.812   3.258  -2.786  0.00  0.00     0.003 A 
ATOM      7  C6  UNL d   1      -0.156   2.126  -2.298  0.00  0.00    -0.001 A 
ENDROOT
TORSDOF 0
ENDMDL
