MODEL 1
REMARK minimizedAffinity -1.23250735
REMARK minimizedRMSD -1
REMARK  0 active torsions:
REMARK  status: ('A' for Active; 'I' for Inactive)
ROOT
ATOM      1  C   UNL d   1      -1.000   0.876  -0.772  0.00  0.00     0.078 C 
ATOM      2  C1  UNL d   1      -0.718   0.048   0.446  0.00  0.00    -0.077 A 
ATOM      3  C2  UNL d   1      -0.927   0.562   1.732  0.00  0.00    -0.001 A 
ATOM      4  C3  UNL d   1      -0.651  -0.216   2.857  0.00  0.00     0.003 A 
ATOM      5  C4  UNL d   1      -0.163  -1.513   2.708  0.00  0.00    -0.005 A 
ATOM      6  C5  UNL d   1       0.050  -2.032   1.433  0.00  0.00     0.003 A 
ATOM      7  C6  UNL d   1      -0.225  -1.255   0.306  0.00  0.00    -0.001 A 
ENDROOT
TORSDOF 0
ENDMDL
