MODEL 1
REMARK minimizedAffinity 13.5512238
REMARK minimizedRMSD -1
REMARK  0 active torsions:
REMARK  status: ('A' for Active; 'I' for Inactive)
ROOT
ATOM      1  N1  IND d   1      -4.953  -3.393  -2.959  0.00  0.00    -0.196 N 
ATOM      2  C2  IND d   1      -5.854  -3.248  -1.942  0.00  0.00     0.054 A 
ATOM      3  C3  IND d   1      -5.477  -3.982  -0.871  0.00  0.00    -0.031 A 
ATOM      4  C4  IND d   1      -3.365  -5.414  -0.532  0.00  0.00     0.051 A 
ATOM      5  C5  IND d   1      -2.264  -5.882  -1.192  0.00  0.00    -0.031 A 
ATOM      6  C6  IND d   1      -1.995  -5.535  -2.500  0.00  0.00     0.015 A 
ATOM      7  C7  IND d   1      -2.816  -4.694  -3.197  0.00  0.00    -0.016 A 
ATOM      8  C8  IND d   1      -3.939  -4.223  -2.532  0.00  0.00    -0.047 A 
ATOM      9  C9  IND d   1      -4.239  -4.605  -1.218  0.00  0.00    -0.096 A 
ATOM     10  HN1 IND d   1      -5.009  -3.027  -3.735  0.00  0.00     0.298 HD
ENDROOT
TORSDOF 0
ENDMDL
