MODEL 1
REMARK minimizedAffinity 18.6739025
REMARK minimizedRMSD -1
REMARK  0 active torsions:
REMARK  status: ('A' for Active; 'I' for Inactive)
ROOT
ATOM      1  N1  IND d   1      -0.721   4.948  -6.000  0.00  0.00    -0.196 N 
ATOM      2  C2  IND d   1      -1.830   4.346  -5.475  0.00  0.00     0.054 A 
ATOM      3  C3  IND d   1      -1.489   3.200  -4.844  0.00  0.00    -0.031 A 
ATOM      4  C4  IND d   1       0.840   2.174  -4.462  0.00  0.00     0.051 A 
ATOM      5  C5  IND d   1       2.158   2.341  -4.786  0.00  0.00    -0.031 A 
ATOM      6  C6  IND d   1       2.592   3.410  -5.544  0.00  0.00     0.015 A 
ATOM      7  C7  IND d   1       1.722   4.360  -5.999  0.00  0.00    -0.016 A 
ATOM      8  C8  IND d   1       0.383   4.189  -5.678  0.00  0.00    -0.047 A 
ATOM      9  C9  IND d   1      -0.069   3.085  -4.945  0.00  0.00    -0.096 A 
ATOM     10  HN1 IND d   1      -0.714   5.678  -6.455  0.00  0.00     0.298 HD
ENDROOT
TORSDOF 0
ENDMDL
