MODEL 1
REMARK minimizedAffinity 10.0437813
REMARK minimizedRMSD -1
REMARK  0 active torsions:
REMARK  status: ('A' for Active; 'I' for Inactive)
ROOT
ATOM      1  N1  IND d   1       5.878   5.997   0.054  0.00  0.00    -0.196 N 
ATOM      2  C2  IND d   1       5.947   5.011  -0.890  0.00  0.00     0.054 A 
ATOM      3  C3  IND d   1       5.665   3.810  -0.337  0.00  0.00    -0.031 A 
ATOM      4  C4  IND d   1       4.964   3.244   2.075  0.00  0.00     0.051 A 
ATOM      5  C5  IND d   1       4.799   3.808   3.309  0.00  0.00    -0.031 A 
ATOM      6  C6  IND d   1       4.986   5.158   3.525  0.00  0.00     0.015 A 
ATOM      7  C7  IND d   1       5.336   6.000   2.507  0.00  0.00    -0.016 A 
ATOM      8  C8  IND d   1       5.512   5.430   1.255  0.00  0.00    -0.047 A 
ATOM      9  C9  IND d   1       5.365   4.054   1.038  0.00  0.00    -0.096 A 
ATOM     10  HN1 IND d   1       6.038   6.831  -0.080  0.00  0.00     0.298 HD
ENDROOT
TORSDOF 0
ENDMDL
