MODEL 1
REMARK minimizedAffinity -3.09313345
REMARK minimizedRMSD -1
REMARK  0 active torsions:
REMARK  status: ('A' for Active; 'I' for Inactive)
ROOT
ATOM      1  N1  IND d   1      -6.000   3.752  -2.894  0.00  0.00    -0.196 N 
ATOM      2  C2  IND d   1      -5.988   4.996  -2.327  0.00  0.00     0.054 A 
ATOM      3  C3  IND d   1      -5.153   5.814  -3.005  0.00  0.00    -0.031 A 
ATOM      4  C4  IND d   1      -3.782   5.351  -5.135  0.00  0.00     0.051 A 
ATOM      5  C5  IND d   1      -3.440   4.349  -5.999  0.00  0.00    -0.031 A 
ATOM      6  C6  IND d   1      -3.947   3.072  -5.872  0.00  0.00     0.015 A 
ATOM      7  C7  IND d   1      -4.826   2.750  -4.877  0.00  0.00    -0.016 A 
ATOM      8  C8  IND d   1      -5.170   3.763  -3.993  0.00  0.00    -0.047 A 
ATOM      9  C9  IND d   1      -4.627   5.050  -4.092  0.00  0.00    -0.096 A 
ATOM     10  HN1 IND d   1      -6.449   3.075  -2.611  0.00  0.00     0.298 HD
ENDROOT
TORSDOF 0
ENDMDL
