MODEL 1
REMARK minimizedAffinity -0.692242682
REMARK minimizedRMSD -1
REMARK  0 active torsions:
REMARK  status: ('A' for Active; 'I' for Inactive)
ROOT
ATOM      1  N1  IND d   1       1.864   2.757  -4.015  0.00  0.00    -0.196 N 
ATOM      2  C2  IND d   1       1.875   2.625  -2.655  0.00  0.00     0.054 A 
ATOM      3  C3  IND d   1       3.014   2.019  -2.250  0.00  0.00    -0.031 A 
ATOM      4  C4  IND d   1       5.040   1.251  -3.639  0.00  0.00     0.051 A 
ATOM      5  C5  IND d   1       5.478   1.127  -4.928  0.00  0.00    -0.031 A 
ATOM      6  C6  IND d   1       4.720   1.551  -6.000  0.00  0.00     0.015 A 
ATOM      7  C7  IND d   1       3.494   2.128  -5.821  0.00  0.00    -0.016 A 
ATOM      8  C8  IND d   1       3.043   2.249  -4.514  0.00  0.00    -0.047 A 
ATOM      9  C9  IND d   1       3.790   1.782  -3.425  0.00  0.00    -0.096 A 
ATOM     10  HN1 IND d   1       1.227   3.099  -4.481  0.00  0.00     0.298 HD
ENDROOT
TORSDOF 0
ENDMDL
