MODEL 1
REMARK minimizedAffinity -0.0573077835
REMARK minimizedRMSD -1
REMARK  0 active torsions:
REMARK  status: ('A' for Active; 'I' for Inactive)
ROOT
ATOM      1  N1  IND d   1      -5.924   3.442  -2.699  0.00  0.00    -0.196 N 
ATOM      2  C2  IND d   1      -5.941   4.768  -2.367  0.00  0.00     0.054 A 
ATOM      3  C3  IND d   1      -5.999   4.916  -1.024  0.00  0.00    -0.031 A 
ATOM      4  C4  IND d   1      -5.972   3.122   0.822  0.00  0.00     0.051 A 
ATOM      5  C5  IND d   1      -5.999   1.769   1.009  0.00  0.00    -0.031 A 
ATOM      6  C6  IND d   1      -6.000   0.886  -0.052  0.00  0.00     0.015 A 
ATOM      7  C7  IND d   1      -5.962   1.326  -1.345  0.00  0.00    -0.016 A 
ATOM      8  C8  IND d   1      -5.941   2.700  -1.538  0.00  0.00    -0.047 A 
ATOM      9  C9  IND d   1      -5.983   3.601  -0.467  0.00  0.00    -0.096 A 
ATOM     10  HN1 IND d   1      -5.906   3.125  -3.498  0.00  0.00     0.298 HD
ENDROOT
TORSDOF 0
ENDMDL
