MODEL 1
REMARK minimizedAffinity 17.4941578
REMARK minimizedRMSD -1
REMARK  0 active torsions:
REMARK  status: ('A' for Active; 'I' for Inactive)
ROOT
ATOM      1  N1  IND d   1      -2.478  -4.059  -4.263  0.00  0.00    -0.196 N 
ATOM      2  C2  IND d   1      -1.739  -5.187  -4.487  0.00  0.00     0.054 A 
ATOM      3  C3  IND d   1      -1.782  -6.000  -3.408  0.00  0.00    -0.031 A 
ATOM      4  C4  IND d   1      -3.085  -5.726  -1.205  0.00  0.00     0.051 A 
ATOM      5  C5  IND d   1      -3.872  -4.841  -0.521  0.00  0.00    -0.031 A 
ATOM      6  C6  IND d   1      -4.244  -3.628  -1.063  0.00  0.00     0.015 A 
ATOM      7  C7  IND d   1      -3.851  -3.256  -2.317  0.00  0.00    -0.016 A 
ATOM      8  C8  IND d   1      -3.046  -4.149  -3.011  0.00  0.00    -0.047 A 
ATOM      9  C9  IND d   1      -2.630  -5.363  -2.450  0.00  0.00    -0.096 A 
ATOM     10  HN1 IND d   1      -2.572  -3.403  -4.811  0.00  0.00     0.298 HD
ENDROOT
TORSDOF 0
ENDMDL
