MODEL 1
REMARK minimizedAffinity 7.59514475
REMARK minimizedRMSD -1
REMARK  0 active torsions:
REMARK  status: ('A' for Active; 'I' for Inactive)
ROOT
ATOM      1  N1  IND d   1       5.004   5.889  -5.947  0.00  0.00    -0.196 N 
ATOM      2  C2  IND d   1       5.922   4.877  -5.900  0.00  0.00     0.054 A 
ATOM      3  C3  IND d   1       5.298   3.678  -5.867  0.00  0.00    -0.031 A 
ATOM      4  C4  IND d   1       2.784   3.138  -5.984  0.00  0.00     0.051 A 
ATOM      5  C5  IND d   1       1.554   3.733  -5.999  0.00  0.00    -0.031 A 
ATOM      6  C6  IND d   1       1.408   5.105  -6.000  0.00  0.00     0.015 A 
ATOM      7  C7  IND d   1       2.492   5.937  -5.997  0.00  0.00    -0.016 A 
ATOM      8  C8  IND d   1       3.743   5.336  -5.976  0.00  0.00    -0.047 A 
ATOM      9  C9  IND d   1       3.896   3.944  -5.932  0.00  0.00    -0.096 A 
ATOM     10  HN1 IND d   1       5.184   6.730  -5.957  0.00  0.00     0.298 HD
ENDROOT
TORSDOF 0
ENDMDL
