MODEL 1
REMARK minimizedAffinity 1.04809904
REMARK minimizedRMSD -1
REMARK  0 active torsions:
REMARK  status: ('A' for Active; 'I' for Inactive)
ROOT
ATOM      1  N1  IND d   1      -2.393   5.998  -5.942  0.00  0.00    -0.196 N 
ATOM      2  C2  IND d   1      -1.478   5.809  -4.944  0.00  0.00     0.054 A 
ATOM      3  C3  IND d   1      -2.105   5.588  -3.767  0.00  0.00    -0.031 A 
ATOM      4  C4  IND d   1      -4.622   5.390  -3.265  0.00  0.00     0.051 A 
ATOM      5  C5  IND d   1      -5.850   5.524  -3.850  0.00  0.00    -0.031 A 
ATOM      6  C6  IND d   1      -5.992   5.826  -5.189  0.00  0.00     0.015 A 
ATOM      7  C7  IND d   1      -4.905   5.995  -5.999  0.00  0.00    -0.016 A 
ATOM      8  C8  IND d   1      -3.657   5.867  -5.408  0.00  0.00    -0.047 A 
ATOM      9  C9  IND d   1      -3.507   5.603  -4.041  0.00  0.00    -0.096 A 
ATOM     10  HN1 IND d   1      -2.211   6.170  -6.764  0.00  0.00     0.298 HD
ENDROOT
TORSDOF 0
ENDMDL
