MODEL 1
REMARK minimizedAffinity 9.88418388
REMARK minimizedRMSD -1
REMARK  0 active torsions:
REMARK  status: ('A' for Active; 'I' for Inactive)
ROOT
ATOM      1  N1  IND d   1       0.316  -0.138  -0.249  0.00  0.00    -0.196 N 
ATOM      2  C2  IND d   1       0.411  -0.186   1.114  0.00  0.00     0.054 A 
ATOM      3  C3  IND d   1       1.464  -0.948   1.486  0.00  0.00    -0.031 A 
ATOM      4  C4  IND d   1       3.226  -2.127   0.026  0.00  0.00     0.051 A 
ATOM      5  C5  IND d   1       3.537  -2.401  -1.276  0.00  0.00    -0.031 A 
ATOM      6  C6  IND d   1       2.776  -1.923  -2.324  0.00  0.00     0.015 A 
ATOM      7  C7  IND d   1       1.678  -1.140  -2.107  0.00  0.00    -0.016 A 
ATOM      8  C8  IND d   1       1.355  -0.866  -0.786  0.00  0.00    -0.047 A 
ATOM      9  C9  IND d   1       2.098  -1.383   0.283  0.00  0.00    -0.096 A 
ATOM     10  HN1 IND d   1      -0.291   0.276  -0.695  0.00  0.00     0.298 HD
ENDROOT
TORSDOF 0
ENDMDL
