MODEL 1
REMARK minimizedAffinity 4.19858027
REMARK minimizedRMSD -1
REMARK  0 active torsions:
REMARK  status: ('A' for Active; 'I' for Inactive)
ROOT
ATOM      1  N1  IND d   1      -5.556   4.612  -5.990  0.00  0.00    -0.196 N 
ATOM      2  C2  IND d   1      -5.798   3.267  -5.964  0.00  0.00     0.054 A 
ATOM      3  C3  IND d   1      -4.634   2.580  -5.943  0.00  0.00    -0.031 A 
ATOM      4  C4  IND d   1      -2.216   3.460  -5.844  0.00  0.00     0.051 A 
ATOM      5  C5  IND d   1      -1.488   4.616  -5.885  0.00  0.00    -0.031 A 
ATOM      6  C6  IND d   1      -2.091   5.855  -5.961  0.00  0.00     0.015 A 
ATOM      7  C7  IND d   1      -3.451   5.985  -5.989  0.00  0.00    -0.016 A 
ATOM      8  C8  IND d   1      -4.193   4.813  -5.955  0.00  0.00    -0.047 A 
ATOM      9  C9  IND d   1      -3.586   3.551  -5.920  0.00  0.00    -0.096 A 
ATOM     10  HN1 IND d   1      -6.154   5.229  -6.023  0.00  0.00     0.298 HD
ENDROOT
TORSDOF 0
ENDMDL
