MODEL 1
REMARK minimizedAffinity 7.10207319
REMARK minimizedRMSD -1
REMARK  0 active torsions:
REMARK  status: ('A' for Active; 'I' for Inactive)
ROOT
ATOM      1  C2' OXE d   1      -3.932   4.129   2.177  0.00  0.00     0.078 C 
ATOM      2  C1' OXE d   1      -5.998   5.313   3.664  0.00  0.00     0.078 C 
ATOM      3  C1  OXE d   1      -4.605   5.356   4.238  0.00  0.00    -0.078 A 
ATOM      4  C2  OXE d   1      -3.608   4.734   3.527  0.00  0.00    -0.078 A 
ATOM      5  C3  OXE d   1      -2.295   4.791   3.985  0.00  0.00     0.003 A 
ATOM      6  C4  OXE d   1      -2.005   5.343   5.239  0.00  0.00    -0.002 A 
ATOM      7  C5  OXE d   1      -3.012   5.947   5.998  0.00  0.00    -0.002 A 
ATOM      8  C6  OXE d   1      -4.307   6.000   5.494  0.00  0.00     0.003 A 
ENDROOT
TORSDOF 0
ENDMDL
