MODEL 1
REMARK minimizedAffinity 10.8292952
REMARK minimizedRMSD -1
REMARK  0 active torsions:
REMARK  status: ('A' for Active; 'I' for Inactive)
ROOT
ATOM      1  C2' OXE d   1       4.609   0.143  -2.914  0.00  0.00     0.078 C 
ATOM      2  C1' OXE d   1       3.570  -1.243  -0.706  0.00  0.00     0.078 C 
ATOM      3  C1  OXE d   1       2.603  -0.481  -1.577  0.00  0.00    -0.078 A 
ATOM      4  C2  OXE d   1       3.126   0.233  -2.628  0.00  0.00    -0.078 A 
ATOM      5  C3  OXE d   1       2.272   0.909  -3.495  0.00  0.00     0.003 A 
ATOM      6  C4  OXE d   1       0.903   0.995  -3.217  0.00  0.00    -0.002 A 
ATOM      7  C5  OXE d   1       0.354   0.308  -2.129  0.00  0.00    -0.002 A 
ATOM      8  C6  OXE d   1       1.183  -0.468  -1.325  0.00  0.00     0.003 A 
ENDROOT
TORSDOF 0
ENDMDL
