MODEL 1
REMARK minimizedAffinity 11.7583847
REMARK minimizedRMSD -1
REMARK  0 active torsions:
REMARK  status: ('A' for Active; 'I' for Inactive)
ROOT
ATOM      1  C2' OXE d   1      -2.929   4.561   3.608  0.00  0.00     0.078 C 
ATOM      2  C1' OXE d   1      -4.921   4.144   1.674  0.00  0.00     0.078 C 
ATOM      3  C1  OXE d   1      -4.097   2.955   2.103  0.00  0.00    -0.078 A 
ATOM      4  C2  OXE d   1      -3.093   3.178   3.015  0.00  0.00    -0.078 A 
ATOM      5  C3  OXE d   1      -2.340   2.107   3.486  0.00  0.00     0.003 A 
ATOM      6  C4  OXE d   1      -2.492   0.833   2.926  0.00  0.00    -0.002 A 
ATOM      7  C5  OXE d   1      -3.481   0.592   1.967  0.00  0.00    -0.002 A 
ATOM      8  C6  OXE d   1      -4.319   1.631   1.577  0.00  0.00     0.003 A 
ENDROOT
TORSDOF 0
ENDMDL
