MODEL 1
REMARK minimizedAffinity 2.50080109
REMARK minimizedRMSD -1
REMARK  0 active torsions:
REMARK  status: ('A' for Active; 'I' for Inactive)
ROOT
ATOM      1  C2' OXE d   1      -5.039   4.584   1.876  0.00  0.00     0.078 C 
ATOM      2  C1' OXE d   1      -2.628   3.262   2.440  0.00  0.00     0.078 C 
ATOM      3  C1  OXE d   1      -3.175   4.204   3.484  0.00  0.00    -0.078 A 
ATOM      4  C2  OXE d   1      -4.331   4.881   3.180  0.00  0.00    -0.078 A 
ATOM      5  C3  OXE d   1      -4.907   5.720   4.130  0.00  0.00     0.003 A 
ATOM      6  C4  OXE d   1      -4.240   5.998   5.329  0.00  0.00    -0.002 A 
ATOM      7  C5  OXE d   1      -3.041   5.349   5.641  0.00  0.00    -0.002 A 
ATOM      8  C6  OXE d   1      -2.518   4.418   4.750  0.00  0.00     0.003 A 
ENDROOT
TORSDOF 0
ENDMDL
