MODEL 1
REMARK minimizedAffinity 10.0284691
REMARK minimizedRMSD -1
REMARK  0 active torsions:
REMARK  status: ('A' for Active; 'I' for Inactive)
ROOT
ATOM      1  C2' OXE d   1      -3.697   3.478   2.358  0.00  0.00     0.078 C 
ATOM      2  C1' OXE d   1      -5.908   4.912   3.325  0.00  0.00     0.078 C 
ATOM      3  C1  OXE d   1      -4.595   5.072   4.049  0.00  0.00    -0.078 A 
ATOM      4  C2  OXE d   1      -3.529   4.331   3.597  0.00  0.00    -0.078 A 
ATOM      5  C3  OXE d   1      -2.281   4.483   4.195  0.00  0.00     0.003 A 
ATOM      6  C4  OXE d   1      -2.137   5.266   5.347  0.00  0.00    -0.002 A 
ATOM      7  C5  OXE d   1      -3.219   5.998   5.847  0.00  0.00    -0.002 A 
ATOM      8  C6  OXE d   1      -4.441   5.946   5.186  0.00  0.00     0.003 A 
ENDROOT
TORSDOF 0
ENDMDL
