MODEL 1
REMARK minimizedAffinity -3.5333426
REMARK minimizedRMSD -1
REMARK  0 active torsions:
REMARK  status: ('A' for Active; 'I' for Inactive)
ROOT
ATOM      1  C2' OXE d   1       5.961  -0.500   5.017  0.00  0.00     0.078 C 
ATOM      2  C1' OXE d   1       3.675  -1.163   3.529  0.00  0.00     0.078 C 
ATOM      3  C1  OXE d   1       4.283  -2.234   4.399  0.00  0.00    -0.078 A 
ATOM      4  C2  OXE d   1       5.428  -1.914   5.088  0.00  0.00    -0.078 A 
ATOM      5  C3  OXE d   1       5.999  -2.849   5.948  0.00  0.00     0.003 A 
ATOM      6  C4  OXE d   1       5.506  -4.158   6.000  0.00  0.00    -0.002 A 
ATOM      7  C5  OXE d   1       4.364  -4.516   5.276  0.00  0.00    -0.002 A 
ATOM      8  C6  OXE d   1       3.717  -3.556   4.506  0.00  0.00     0.003 A 
ENDROOT
TORSDOF 0
ENDMDL
