MODEL 1
REMARK minimizedAffinity 13.4276838
REMARK minimizedRMSD -1
REMARK  0 active torsions:
REMARK  status: ('A' for Active; 'I' for Inactive)
ROOT
ATOM      1  C2' OXE d   1       3.290   0.656  -3.269  0.00  0.00     0.078 C 
ATOM      2  C1' OXE d   1       2.607  -1.118  -1.203  0.00  0.00     0.078 C 
ATOM      3  C1  OXE d   1       1.555  -0.143  -1.670  0.00  0.00    -0.078 A 
ATOM      4  C2  OXE d   1       1.912   0.752  -2.649  0.00  0.00    -0.078 A 
ATOM      5  C3  OXE d   1       0.964   1.637  -3.154  0.00  0.00     0.003 A 
ATOM      6  C4  OXE d   1      -0.305   1.726  -2.568  0.00  0.00    -0.002 A 
ATOM      7  C5  OXE d   1      -0.676   0.850  -1.542  0.00  0.00    -0.002 A 
ATOM      8  C6  OXE d   1       0.226  -0.117  -1.112  0.00  0.00     0.003 A 
ENDROOT
TORSDOF 0
ENDMDL
