MODEL 1
REMARK minimizedAffinity 11.8468599
REMARK minimizedRMSD -1
REMARK  0 active torsions:
REMARK  status: ('A' for Active; 'I' for Inactive)
ROOT
ATOM      1  C2' OXE d   1       0.754   1.930  -5.107  0.00  0.00     0.078 C 
ATOM      2  C1' OXE d   1       2.184   3.084  -2.984  0.00  0.00     0.078 C 
ATOM      3  C1  OXE d   1       1.669   1.677  -2.804  0.00  0.00    -0.078 A 
ATOM      4  C2  OXE d   1       0.931   1.138  -3.829  0.00  0.00    -0.078 A 
ATOM      5  C3  OXE d   1       0.480  -0.176  -3.737  0.00  0.00     0.003 A 
ATOM      6  C4  OXE d   1       0.639  -0.898  -2.548  0.00  0.00    -0.002 A 
ATOM      7  C5  OXE d   1       1.353  -0.352  -1.476  0.00  0.00    -0.002 A 
ATOM      8  C6  OXE d   1       1.910   0.915  -1.603  0.00  0.00     0.003 A 
ENDROOT
TORSDOF 0
ENDMDL
