MODEL 1
REMARK minimizedAffinity 14.8938103
REMARK minimizedRMSD -1
REMARK  0 active torsions:
REMARK  status: ('A' for Active; 'I' for Inactive)
ROOT
ATOM      1  C2' OXE d   1      -2.737   1.480   2.847  0.00  0.00     0.078 C 
ATOM      2  C1' OXE d   1      -4.166  -0.628   4.027  0.00  0.00     0.078 C 
ATOM      3  C1  OXE d   1      -3.647  -0.828   2.624  0.00  0.00    -0.078 A 
ATOM      4  C2  OXE d   1      -2.990   0.227   2.038  0.00  0.00    -0.078 A 
ATOM      5  C3  OXE d   1      -2.444   0.077   0.766  0.00  0.00     0.003 A 
ATOM      6  C4  OXE d   1      -2.691  -1.083   0.021  0.00  0.00    -0.002 A 
ATOM      7  C5  OXE d   1      -3.392  -2.153   0.585  0.00  0.00    -0.002 A 
ATOM      8  C6  OXE d   1      -3.840  -2.059   1.898  0.00  0.00     0.003 A 
ENDROOT
TORSDOF 0
ENDMDL
