MODEL 1
REMARK minimizedAffinity -0.287201136
REMARK minimizedRMSD -1
REMARK  0 active torsions:
REMARK  status: ('A' for Active; 'I' for Inactive)
ROOT
ATOM      1  C2' OXE d   1      -2.857   4.769   0.870  0.00  0.00     0.078 C 
ATOM      2  C1' OXE d   1      -5.586   5.178   1.385  0.00  0.00     0.078 C 
ATOM      3  C1  OXE d   1      -4.627   5.296   2.543  0.00  0.00    -0.078 A 
ATOM      4  C2  OXE d   1      -3.299   5.048   2.291  0.00  0.00    -0.078 A 
ATOM      5  C3  OXE d   1      -2.364   5.196   3.311  0.00  0.00     0.003 A 
ATOM      6  C4  OXE d   1      -2.782   5.445   4.624  0.00  0.00    -0.002 A 
ATOM      7  C5  OXE d   1      -4.134   5.662   4.910  0.00  0.00    -0.002 A 
ATOM      8  C6  OXE d   1      -5.062   5.633   3.875  0.00  0.00     0.003 A 
ENDROOT
TORSDOF 0
ENDMDL
