MODEL 1
REMARK minimizedAffinity 10.4201765
REMARK minimizedRMSD -1
REMARK  0 active torsions:
REMARK  status: ('A' for Active; 'I' for Inactive)
ROOT
ATOM      1  C2' OXE d   1      -2.988   2.869   3.039  0.00  0.00     0.078 C 
ATOM      2  C1' OXE d   1      -5.019   4.788   3.312  0.00  0.00     0.078 C 
ATOM      3  C1  OXE d   1      -3.811   4.911   4.206  0.00  0.00    -0.078 A 
ATOM      4  C2  OXE d   1      -2.843   3.941   4.098  0.00  0.00    -0.078 A 
ATOM      5  C3  OXE d   1      -1.683   4.037   4.861  0.00  0.00     0.003 A 
ATOM      6  C4  OXE d   1      -1.561   5.026   5.845  0.00  0.00    -0.002 A 
ATOM      7  C5  OXE d   1      -2.553   6.000   5.999  0.00  0.00    -0.002 A 
ATOM      8  C6  OXE d   1      -3.662   5.982   5.160  0.00  0.00     0.003 A 
ENDROOT
TORSDOF 0
ENDMDL
