MODEL 1
REMARK minimizedAffinity 12.3976746
REMARK minimizedRMSD -1
REMARK  0 active torsions:
REMARK  status: ('A' for Active; 'I' for Inactive)
ROOT
ATOM      1  C2' OXE d   1      -2.314   1.700   3.121  0.00  0.00     0.078 C 
ATOM      2  C1' OXE d   1      -3.941  -0.472   3.839  0.00  0.00     0.078 C 
ATOM      3  C1  OXE d   1      -3.232  -0.534   2.510  0.00  0.00    -0.078 A 
ATOM      4  C2  OXE d   1      -2.475   0.554   2.146  0.00  0.00    -0.078 A 
ATOM      5  C3  OXE d   1      -1.755   0.525   0.955  0.00  0.00     0.003 A 
ATOM      6  C4  OXE d   1      -1.917  -0.534   0.054  0.00  0.00    -0.002 A 
ATOM      7  C5  OXE d   1      -2.715  -1.634   0.387  0.00  0.00    -0.002 A 
ATOM      8  C6  OXE d   1      -3.344  -1.669   1.627  0.00  0.00     0.003 A 
ENDROOT
TORSDOF 0
ENDMDL
