MODEL 1
REMARK minimizedAffinity 14.3414497
REMARK minimizedRMSD -1
REMARK  0 active torsions:
REMARK  status: ('A' for Active; 'I' for Inactive)
ROOT
ATOM      1  C2' OXE d   1       3.350  -5.659   4.754  0.00  0.00     0.078 C 
ATOM      2  C1' OXE d   1       5.929  -5.611   5.861  0.00  0.00     0.078 C 
ATOM      3  C1  OXE d   1       5.318  -4.297   5.445  0.00  0.00    -0.078 A 
ATOM      4  C2  OXE d   1       4.075  -4.334   4.861  0.00  0.00    -0.078 A 
ATOM      5  C3  OXE d   1       3.443  -3.145   4.508  0.00  0.00     0.003 A 
ATOM      6  C4  OXE d   1       4.124  -1.926   4.601  0.00  0.00    -0.002 A 
ATOM      7  C5  OXE d   1       5.407  -1.870   5.156  0.00  0.00    -0.002 A 
ATOM      8  C6  OXE d   1       6.000  -3.038   5.621  0.00  0.00     0.003 A 
ENDROOT
TORSDOF 0
ENDMDL
