MODEL 1
REMARK minimizedAffinity 15.9063473
REMARK minimizedRMSD -1
REMARK  0 active torsions:
REMARK  status: ('A' for Active; 'I' for Inactive)
ROOT
ATOM      1  C2' OXE d   1      -3.259  -1.182   1.076  0.00  0.00     0.078 C 
ATOM      2  C1' OXE d   1      -5.901  -2.029   1.505  0.00  0.00     0.078 C 
ATOM      3  C1  OXE d   1      -5.279  -1.119   2.534  0.00  0.00    -0.078 A 
ATOM      4  C2  OXE d   1      -3.970  -0.747   2.340  0.00  0.00    -0.078 A 
ATOM      5  C3  OXE d   1      -3.365   0.135   3.230  0.00  0.00     0.003 A 
ATOM      6  C4  OXE d   1      -4.026   0.525   4.402  0.00  0.00    -0.002 A 
ATOM      7  C5  OXE d   1      -5.345   0.125   4.639  0.00  0.00    -0.002 A 
ATOM      8  C6  OXE d   1      -5.999  -0.660   3.696  0.00  0.00     0.003 A 
ENDROOT
TORSDOF 0
ENDMDL
