MODEL 1
REMARK minimizedAffinity 6.69482327
REMARK minimizedRMSD -1
REMARK  0 active torsions:
REMARK  status: ('A' for Active; 'I' for Inactive)
ROOT
ATOM      1  C2' OXE d   1       2.050  -2.726  -2.843  0.00  0.00     0.078 C 
ATOM      2  C1' OXE d   1       3.113  -1.139  -0.786  0.00  0.00     0.078 C 
ATOM      3  C1  OXE d   1       2.363  -0.444  -1.895  0.00  0.00    -0.078 A 
ATOM      4  C2  OXE d   1       1.887  -1.223  -2.921  0.00  0.00    -0.078 A 
ATOM      5  C3  OXE d   1       1.141  -0.639  -3.941  0.00  0.00     0.003 A 
ATOM      6  C4  OXE d   1       1.003   0.752  -4.011  0.00  0.00    -0.002 A 
ATOM      7  C5  OXE d   1       1.515   1.568  -2.997  0.00  0.00    -0.002 A 
ATOM      8  C6  OXE d   1       2.159   0.984  -1.912  0.00  0.00     0.003 A 
ENDROOT
TORSDOF 0
ENDMDL
