MODEL 1
REMARK minimizedAffinity 4.51350069
REMARK minimizedRMSD -1
REMARK  0 active torsions:
REMARK  status: ('A' for Active; 'I' for Inactive)
ROOT
ATOM      1  C2' OXE d   1      -3.246   0.497   2.942  0.00  0.00     0.078 C 
ATOM      2  C1' OXE d   1      -5.956   0.748   3.630  0.00  0.00     0.078 C 
ATOM      3  C1  OXE d   1      -5.039   1.902   3.949  0.00  0.00    -0.078 A 
ATOM      4  C2  OXE d   1      -3.706   1.752   3.651  0.00  0.00    -0.078 A 
ATOM      5  C3  OXE d   1      -2.827   2.807   3.875  0.00  0.00     0.003 A 
ATOM      6  C4  OXE d   1      -3.258   3.961   4.540  0.00  0.00    -0.002 A 
ATOM      7  C5  OXE d   1      -4.604   4.118   4.888  0.00  0.00    -0.002 A 
ATOM      8  C6  OXE d   1      -5.513   3.118   4.562  0.00  0.00     0.003 A 
ENDROOT
TORSDOF 0
ENDMDL
