MODEL 1
REMARK minimizedAffinity 9.17685318
REMARK minimizedRMSD -1
REMARK  0 active torsions:
REMARK  status: ('A' for Active; 'I' for Inactive)
ROOT
ATOM      1  C2' OXE d   1       1.296   1.098  -5.093  0.00  0.00     0.078 C 
ATOM      2  C1' OXE d   1       0.753  -1.654  -4.989  0.00  0.00     0.078 C 
ATOM      3  C1  OXE d   1       1.289  -0.995  -3.743  0.00  0.00    -0.078 A 
ATOM      4  C2  OXE d   1       1.596   0.342  -3.817  0.00  0.00    -0.078 A 
ATOM      5  C3  OXE d   1       2.042   1.011  -2.681  0.00  0.00     0.003 A 
ATOM      6  C4  OXE d   1       2.327   0.302  -1.507  0.00  0.00    -0.002 A 
ATOM      7  C5  OXE d   1       2.059  -1.068  -1.422  0.00  0.00    -0.002 A 
ATOM      8  C6  OXE d   1       1.501  -1.722  -2.515  0.00  0.00     0.003 A 
ENDROOT
TORSDOF 0
ENDMDL
