MODEL 1
REMARK minimizedAffinity 4.362463
REMARK minimizedRMSD -1
REMARK  0 active torsions:
REMARK  status: ('A' for Active; 'I' for Inactive)
ROOT
ATOM      1  C2' OXE d   1       2.605   3.980  -0.553  0.00  0.00     0.078 C 
ATOM      2  C1' OXE d   1       3.273   4.276  -3.264  0.00  0.00     0.078 C 
ATOM      3  C1  OXE d   1       2.515   3.037  -2.857  0.00  0.00    -0.078 A 
ATOM      4  C2  OXE d   1       2.233   2.878  -1.522  0.00  0.00    -0.078 A 
ATOM      5  C3  OXE d   1       1.489   1.780  -1.101  0.00  0.00     0.003 A 
ATOM      6  C4  OXE d   1       1.158   0.760  -2.001  0.00  0.00    -0.002 A 
ATOM      7  C5  OXE d   1       1.470   0.884  -3.359  0.00  0.00    -0.002 A 
ATOM      8  C6  OXE d   1       2.109   2.033  -3.810  0.00  0.00     0.003 A 
ENDROOT
TORSDOF 0
ENDMDL
