MODEL 1
REMARK minimizedAffinity 10.8383293
REMARK minimizedRMSD -1
REMARK  0 active torsions:
REMARK  status: ('A' for Active; 'I' for Inactive)
ROOT
ATOM      1  C2' OXE d   1       2.708   3.314  -3.712  0.00  0.00     0.078 C 
ATOM      2  C1' OXE d   1       0.720   1.809  -5.001  0.00  0.00     0.078 C 
ATOM      3  C1  OXE d   1       1.278   1.275  -3.706  0.00  0.00    -0.078 A 
ATOM      4  C2  OXE d   1       2.284   1.994  -3.106  0.00  0.00    -0.078 A 
ATOM      5  C3  OXE d   1       2.795   1.575  -1.881  0.00  0.00     0.003 A 
ATOM      6  C4  OXE d   1       2.404   0.347  -1.333  0.00  0.00    -0.002 A 
ATOM      7  C5  OXE d   1       1.410  -0.421  -1.948  0.00  0.00    -0.002 A 
ATOM      8  C6  OXE d   1       0.808   0.049  -3.110  0.00  0.00     0.003 A 
ENDROOT
TORSDOF 0
ENDMDL
