MODEL 1
REMARK minimizedAffinity -1.28098404
REMARK minimizedRMSD -1
REMARK  0 active torsions:
REMARK  status: ('A' for Active; 'I' for Inactive)
ROOT
ATOM      1  C2' OXE d   1       0.380   1.237  -0.810  0.00  0.00     0.078 C 
ATOM      2  C1' OXE d   1      -1.819   1.258   0.934  0.00  0.00     0.078 C 
ATOM      3  C1  OXE d   1      -0.954   0.022   0.907  0.00  0.00    -0.078 A 
ATOM      4  C2  OXE d   1       0.092   0.002   0.017  0.00  0.00    -0.078 A 
ATOM      5  C3  OXE d   1       0.954  -1.091  -0.009  0.00  0.00     0.003 A 
ATOM      6  C4  OXE d   1       0.674  -2.232   0.752  0.00  0.00    -0.002 A 
ATOM      7  C5  OXE d   1      -0.410  -2.248   1.636  0.00  0.00    -0.002 A 
ATOM      8  C6  OXE d   1      -1.207  -1.115   1.757  0.00  0.00     0.003 A 
ENDROOT
TORSDOF 0
ENDMDL
