MODEL 1
REMARK minimizedAffinity -1.57522416
REMARK minimizedRMSD -1
REMARK  0 active torsions:
REMARK  status: ('A' for Active; 'I' for Inactive)
ROOT
ATOM      1  C2' OXE d   1       0.827   1.337  -1.193  0.00  0.00     0.078 C 
ATOM      2  C1' OXE d   1      -1.143   1.359   0.806  0.00  0.00     0.078 C 
ATOM      3  C1  OXE d   1      -0.323   0.105   0.641  0.00  0.00    -0.078 A 
ATOM      4  C2  OXE d   1       0.607   0.086  -0.370  0.00  0.00    -0.078 A 
ATOM      5  C3  OXE d   1       1.428  -1.027  -0.531  0.00  0.00     0.003 A 
ATOM      6  C4  OXE d   1       1.211  -2.183   0.228  0.00  0.00    -0.002 A 
ATOM      7  C5  OXE d   1       0.242  -2.199   1.237  0.00  0.00    -0.002 A 
ATOM      8  C6  OXE d   1      -0.503  -1.052   1.484  0.00  0.00     0.003 A 
ENDROOT
TORSDOF 0
ENDMDL
