MODEL 1
REMARK minimizedAffinity -2.38780022
REMARK minimizedRMSD -1
REMARK  0 active torsions:
REMARK  status: ('A' for Active; 'I' for Inactive)
ROOT
ATOM      1  C2' OXE d   1       0.476  -2.099   0.442  0.00  0.00     0.078 C 
ATOM      2  C1' OXE d   1       0.123   0.581  -0.313  0.00  0.00     0.078 C 
ATOM      3  C1  OXE d   1      -0.711   0.057   0.829  0.00  0.00    -0.078 A 
ATOM      4  C2  OXE d   1      -0.566  -1.269   1.161  0.00  0.00    -0.078 A 
ATOM      5  C3  OXE d   1      -1.271  -1.789   2.243  0.00  0.00     0.003 A 
ATOM      6  C4  OXE d   1      -2.239  -1.017   2.896  0.00  0.00    -0.002 A 
ATOM      7  C5  OXE d   1      -2.432   0.324   2.547  0.00  0.00    -0.002 A 
ATOM      8  C6  OXE d   1      -1.647   0.887   1.546  0.00  0.00     0.003 A 
ENDROOT
TORSDOF 0
ENDMDL
