MODEL 1
REMARK minimizedAffinity -2.54090476
REMARK minimizedRMSD -1
REMARK  0 active torsions:
REMARK  status: ('A' for Active; 'I' for Inactive)
ROOT
ATOM      1  C2' OXE d   1       0.959   1.256  -0.707  0.00  0.00     0.078 C 
ATOM      2  C1' OXE d   1       1.980  -1.328  -0.308  0.00  0.00     0.078 C 
ATOM      3  C1  OXE d   1       0.686  -0.969   0.378  0.00  0.00    -0.078 A 
ATOM      4  C2  OXE d   1       0.217   0.312   0.215  0.00  0.00    -0.078 A 
ATOM      5  C3  OXE d   1      -1.000   0.679   0.781  0.00  0.00     0.003 A 
ATOM      6  C4  OXE d   1      -1.675  -0.197   1.640  0.00  0.00    -0.002 A 
ATOM      7  C5  OXE d   1      -1.194  -1.494   1.852  0.00  0.00    -0.002 A 
ATOM      8  C6  OXE d   1      -0.041  -1.909   1.196  0.00  0.00     0.003 A 
ENDROOT
TORSDOF 0
ENDMDL
