MODEL 1
REMARK minimizedAffinity -3.773242
REMARK minimizedRMSD -1
REMARK  0 active torsions:
REMARK  status: ('A' for Active; 'I' for Inactive)
ROOT
ATOM      1  C2' OXE d   1      -0.158   1.525   0.742  0.00  0.00     0.078 C 
ATOM      2  C1' OXE d   1      -2.034  -0.118   2.033  0.00  0.00     0.078 C 
ATOM      3  C1  OXE d   1      -0.920  -0.788   1.268  0.00  0.00    -0.078 A 
ATOM      4  C2  OXE d   1      -0.033   0.023   0.601  0.00  0.00    -0.078 A 
ATOM      5  C3  OXE d   1       1.045  -0.542  -0.074  0.00  0.00     0.003 A 
ATOM      6  C4  OXE d   1       1.147  -1.932  -0.209  0.00  0.00    -0.002 A 
ATOM      7  C5  OXE d   1       0.232  -2.776   0.430  0.00  0.00    -0.002 A 
ATOM      8  C6  OXE d   1      -0.780  -2.222   1.206  0.00  0.00     0.003 A 
ENDROOT
TORSDOF 0
ENDMDL
