MODEL 1
REMARK minimizedAffinity -4.57473278
REMARK minimizedRMSD -1
REMARK  0 active torsions:
REMARK  status: ('A' for Active; 'I' for Inactive)
ROOT
ATOM      1  C2' OXE d   1       0.528   1.162  -0.346  0.00  0.00     0.078 C 
ATOM      2  C1' OXE d   1      -1.827   1.235   1.180  0.00  0.00     0.078 C 
ATOM      3  C1  OXE d   1      -1.100  -0.082   1.071  0.00  0.00    -0.078 A 
ATOM      4  C2  OXE d   1       0.026  -0.119   0.284  0.00  0.00    -0.078 A 
ATOM      5  C3  OXE d   1       0.765  -1.295   0.193  0.00  0.00     0.003 A 
ATOM      6  C4  OXE d   1       0.288  -2.479   0.770  0.00  0.00    -0.002 A 
ATOM      7  C5  OXE d   1      -0.878  -2.472   1.543  0.00  0.00    -0.002 A 
ATOM      8  C6  OXE d   1      -1.559  -1.276   1.738  0.00  0.00     0.003 A 
ENDROOT
TORSDOF 0
ENDMDL
