MODEL 1
REMARK minimizedAffinity -3.86394644
REMARK minimizedRMSD -1
REMARK  0 active torsions:
REMARK  status: ('A' for Active; 'I' for Inactive)
ROOT
ATOM      1  C2' OXE d   1       0.545   0.607  -0.587  0.00  0.00     0.078 C 
ATOM      2  C1' OXE d   1       1.386  -2.009  -0.013  0.00  0.00     0.078 C 
ATOM      3  C1  OXE d   1       0.269  -1.431   0.819  0.00  0.00    -0.078 A 
ATOM      4  C2  OXE d   1      -0.105  -0.133   0.562  0.00  0.00    -0.078 A 
ATOM      5  C3  OXE d   1      -1.167   0.430   1.264  0.00  0.00     0.003 A 
ATOM      6  C4  OXE d   1      -1.756  -0.258   2.332  0.00  0.00    -0.002 A 
ATOM      7  C5  OXE d   1      -1.363  -1.566   2.636  0.00  0.00    -0.002 A 
ATOM      8  C6  OXE d   1      -0.384  -2.181   1.864  0.00  0.00     0.003 A 
ENDROOT
TORSDOF 0
ENDMDL
