MODEL 1
REMARK minimizedAffinity -2.19869733
REMARK minimizedRMSD -1
REMARK  0 active torsions:
REMARK  status: ('A' for Active; 'I' for Inactive)
ROOT
ATOM      1  C2' OXE d   1      -2.604  -0.680   2.724  0.00  0.00     0.078 C 
ATOM      2  C1' OXE d   1      -1.677   1.381   1.059  0.00  0.00     0.078 C 
ATOM      3  C1  OXE d   1      -0.957   0.056   1.007  0.00  0.00    -0.078 A 
ATOM      4  C2  OXE d   1      -1.389  -0.932   1.859  0.00  0.00    -0.078 A 
ATOM      5  C3  OXE d   1      -0.795  -2.190   1.812  0.00  0.00     0.003 A 
ATOM      6  C4  OXE d   1       0.335  -2.412   1.015  0.00  0.00    -0.002 A 
ATOM      7  C5  OXE d   1       0.815  -1.406   0.169  0.00  0.00    -0.002 A 
ATOM      8  C6  OXE d   1       0.156  -0.183   0.122  0.00  0.00     0.003 A 
ENDROOT
TORSDOF 0
ENDMDL
