MODEL 1
REMARK minimizedAffinity -1.3448931
REMARK minimizedRMSD -1
REMARK  0 active torsions:
REMARK  status: ('A' for Active; 'I' for Inactive)
ROOT
ATOM      1  C2' OXE d   1      -0.535  -2.224   1.834  0.00  0.00     0.078 C 
ATOM      2  C1' OXE d   1      -2.027   0.152   1.741  0.00  0.00     0.078 C 
ATOM      3  C1  OXE d   1      -0.716   0.115   0.996  0.00  0.00    -0.078 A 
ATOM      4  C2  OXE d   1       0.030  -1.036   1.086  0.00  0.00    -0.078 A 
ATOM      5  C3  OXE d   1       1.221  -1.143   0.373  0.00  0.00     0.003 A 
ATOM      6  C4  OXE d   1       1.741  -0.036  -0.308  0.00  0.00    -0.002 A 
ATOM      7  C5  OXE d   1       1.016   1.159  -0.379  0.00  0.00    -0.002 A 
ATOM      8  C6  OXE d   1      -0.231   1.237   0.231  0.00  0.00     0.003 A 
ENDROOT
TORSDOF 0
ENDMDL
