MODEL 1
REMARK minimizedAffinity 0.341675907
REMARK minimizedRMSD -1
REMARK  0 active torsions:
REMARK  status: ('A' for Active; 'I' for Inactive)
ROOT
ATOM      1  C2' OXE d   1       1.274  -0.022   0.835  0.00  0.00     0.078 C 
ATOM      2  C1' OXE d   1      -1.118   1.417   0.537  0.00  0.00     0.078 C 
ATOM      3  C1  OXE d   1      -0.047   1.608  -0.508  0.00  0.00    -0.078 A 
ATOM      4  C2  OXE d   1       1.137   0.935  -0.329  0.00  0.00    -0.078 A 
ATOM      5  C3  OXE d   1       2.138   1.032  -1.293  0.00  0.00     0.003 A 
ATOM      6  C4  OXE d   1       2.007   1.927  -2.361  0.00  0.00    -0.002 A 
ATOM      7  C5  OXE d   1       0.824   2.652  -2.541  0.00  0.00    -0.002 A 
ATOM      8  C6  OXE d   1      -0.227   2.472  -1.648  0.00  0.00     0.003 A 
ENDROOT
TORSDOF 0
ENDMDL
