MODEL 1
REMARK minimizedAffinity -1.75676799
REMARK minimizedRMSD -1
REMARK  0 active torsions:
REMARK  status: ('A' for Active; 'I' for Inactive)
ROOT
ATOM      1  C2' OXE d   1       0.650   1.628  -0.900  0.00  0.00     0.078 C 
ATOM      2  C1' OXE d   1      -1.624   1.006   0.624  0.00  0.00     0.078 C 
ATOM      3  C1  OXE d   1      -0.569  -0.060   0.468  0.00  0.00    -0.078 A 
ATOM      4  C2  OXE d   1       0.518   0.237  -0.318  0.00  0.00    -0.078 A 
ATOM      5  C3  OXE d   1       1.547  -0.691  -0.451  0.00  0.00     0.003 A 
ATOM      6  C4  OXE d   1       1.413  -1.979   0.083  0.00  0.00    -0.002 A 
ATOM      7  C5  OXE d   1       0.295  -2.315   0.853  0.00  0.00    -0.002 A 
ATOM      8  C6  OXE d   1      -0.683  -1.356   1.091  0.00  0.00     0.003 A 
ENDROOT
TORSDOF 0
ENDMDL
