MODEL 1
REMARK minimizedAffinity -3.35476184
REMARK minimizedRMSD -1
REMARK  0 active torsions:
REMARK  status: ('A' for Active; 'I' for Inactive)
ROOT
ATOM      1  C2' OXE d   1      -0.305  -2.292   1.552  0.00  0.00     0.078 C 
ATOM      2  C1' OXE d   1       1.431  -0.663   0.063  0.00  0.00     0.078 C 
ATOM      3  C1  OXE d   1       0.087  -0.095   0.445  0.00  0.00    -0.078 A 
ATOM      4  C2  OXE d   1      -0.774  -0.915   1.133  0.00  0.00    -0.078 A 
ATOM      5  C3  OXE d   1      -2.004  -0.422   1.558  0.00  0.00     0.003 A 
ATOM      6  C4  OXE d   1      -2.435   0.849   1.158  0.00  0.00    -0.002 A 
ATOM      7  C5  OXE d   1      -1.589   1.687   0.423  0.00  0.00    -0.002 A 
ATOM      8  C6  OXE d   1      -0.311   1.247   0.096  0.00  0.00     0.003 A 
ENDROOT
TORSDOF 0
ENDMDL
