MODEL 1
REMARK minimizedAffinity -3.88777447
REMARK minimizedRMSD -1
REMARK  0 active torsions:
REMARK  status: ('A' for Active; 'I' for Inactive)
ROOT
ATOM      1  C2' OXE d   1       1.427  -1.161  -0.169  0.00  0.00     0.078 C 
ATOM      2  C1' OXE d   1       0.158   1.342  -0.194  0.00  0.00     0.078 C 
ATOM      3  C1  OXE d   1      -0.465   0.246   0.633  0.00  0.00    -0.078 A 
ATOM      4  C2  OXE d   1       0.137  -0.989   0.602  0.00  0.00    -0.078 A 
ATOM      5  C3  OXE d   1      -0.366  -2.021   1.390  0.00  0.00     0.003 A 
ATOM      6  C4  OXE d   1      -1.566  -1.856   2.093  0.00  0.00    -0.002 A 
ATOM      7  C5  OXE d   1      -2.217  -0.618   2.105  0.00  0.00    -0.002 A 
ATOM      8  C6  OXE d   1      -1.658   0.453   1.417  0.00  0.00     0.003 A 
ENDROOT
TORSDOF 0
ENDMDL
