MODEL 1
REMARK minimizedAffinity -1.3326273
REMARK minimizedRMSD -1
REMARK  0 active torsions:
REMARK  status: ('A' for Active; 'I' for Inactive)
ROOT
ATOM      1  C2' OXE d   1      -2.806   0.802   1.591  0.00  0.00     0.078 C 
ATOM      2  C1' OXE d   1      -1.576  -1.696   1.233  0.00  0.00     0.078 C 
ATOM      3  C1  OXE d   1      -0.877  -0.482   0.675  0.00  0.00    -0.078 A 
ATOM      4  C2  OXE d   1      -1.509   0.731   0.814  0.00  0.00    -0.078 A 
ATOM      5  C3  OXE d   1      -0.882   1.890   0.366  0.00  0.00     0.003 A 
ATOM      6  C4  OXE d   1       0.313   1.814  -0.361  0.00  0.00    -0.002 A 
ATOM      7  C5  OXE d   1       0.953   0.585  -0.548  0.00  0.00    -0.002 A 
ATOM      8  C6  OXE d   1       0.394  -0.565  -0.001  0.00  0.00     0.003 A 
ENDROOT
TORSDOF 0
ENDMDL
