MODEL 1
REMARK minimizedAffinity 2.9814465
REMARK minimizedRMSD -1
REMARK  0 active torsions:
REMARK  status: ('A' for Active; 'I' for Inactive)
ROOT
ATOM      1  C2' OXE d   1      -4.768  -2.705  -6.000  0.00  0.00     0.078 C 
ATOM      2  C1' OXE d   1      -3.874  -1.684  -3.542  0.00  0.00     0.078 C 
ATOM      3  C1  OXE d   1      -3.080  -2.802  -4.171  0.00  0.00    -0.078 A 
ATOM      4  C2  OXE d   1      -3.551  -3.327  -5.350  0.00  0.00    -0.078 A 
ATOM      5  C3  OXE d   1      -2.826  -4.322  -6.000  0.00  0.00     0.003 A 
ATOM      6  C4  OXE d   1      -1.707  -4.899  -5.387  0.00  0.00    -0.002 A 
ATOM      7  C5  OXE d   1      -1.233  -4.406  -4.166  0.00  0.00    -0.002 A 
ATOM      8  C6  OXE d   1      -1.882  -3.332  -3.567  0.00  0.00     0.003 A 
ENDROOT
TORSDOF 0
ENDMDL
