MODEL 1
REMARK minimizedAffinity -1.92462003
REMARK minimizedRMSD -1
REMARK  0 active torsions:
REMARK  status: ('A' for Active; 'I' for Inactive)
ROOT
ATOM      1  C2' OXE d   1       0.385   1.696   0.232  0.00  0.00     0.078 C 
ATOM      2  C1' OXE d   1      -1.744   0.457   1.578  0.00  0.00     0.078 C 
ATOM      3  C1  OXE d   1      -0.625  -0.420   1.075  0.00  0.00    -0.078 A 
ATOM      4  C2  OXE d   1       0.390   0.189   0.377  0.00  0.00    -0.078 A 
ATOM      5  C3  OXE d   1       1.475  -0.565  -0.061  0.00  0.00     0.003 A 
ATOM      6  C4  OXE d   1       1.467  -1.960   0.068  0.00  0.00    -0.002 A 
ATOM      7  C5  OXE d   1       0.424  -2.604   0.741  0.00  0.00    -0.002 A 
ATOM      8  C6  OXE d   1      -0.606  -1.846   1.287  0.00  0.00     0.003 A 
ENDROOT
TORSDOF 0
ENDMDL
