MODEL 1
REMARK minimizedAffinity -2.03910136
REMARK minimizedRMSD -1
REMARK  0 active torsions:
REMARK  status: ('A' for Active; 'I' for Inactive)
ROOT
ATOM      1  C2' OXE d   1      -1.210  -1.925   1.693  0.00  0.00     0.078 C 
ATOM      2  C1' OXE d   1      -2.401   0.609   1.889  0.00  0.00     0.078 C 
ATOM      3  C1  OXE d   1      -1.053   0.515   1.219  0.00  0.00    -0.078 A 
ATOM      4  C2  OXE d   1      -0.456  -0.722   1.169  0.00  0.00    -0.078 A 
ATOM      5  C3  OXE d   1       0.762  -0.873   0.513  0.00  0.00     0.003 A 
ATOM      6  C4  OXE d   1       1.457   0.247   0.040  0.00  0.00    -0.002 A 
ATOM      7  C5  OXE d   1       0.885   1.521   0.117  0.00  0.00    -0.002 A 
ATOM      8  C6  OXE d   1      -0.385   1.667   0.664  0.00  0.00     0.003 A 
ENDROOT
TORSDOF 0
ENDMDL
