MODEL 1
REMARK minimizedAffinity -2.53812885
REMARK minimizedRMSD -1
REMARK  0 active torsions:
REMARK  status: ('A' for Active; 'I' for Inactive)
ROOT
ATOM      1  C   UNL d   1       0.708  -1.054  -0.640  0.00  0.00     0.172 C 
ATOM      2  N   UNL d   1      -0.077  -0.259   0.274  0.00  0.00    -0.070 N 
ATOM      3  C1  UNL d   1      -0.326  -0.563   1.585  0.00  0.00    -0.004 A 
ATOM      4  C2  UNL d   1      -1.110   0.442   2.110  0.00  0.00    -0.047 A 
ATOM      5  C3  UNL d   1      -1.340   1.382   1.078  0.00  0.00    -0.047 A 
ATOM      6  C4  UNL d   1      -0.690   0.923  -0.048  0.00  0.00    -0.004 A 
ENDROOT
TORSDOF 0
ENDMDL
