MODEL 1
REMARK minimizedAffinity -3.43808913
REMARK minimizedRMSD -1
REMARK  0 active torsions:
REMARK  status: ('A' for Active; 'I' for Inactive)
ROOT
ATOM      1  C   UNL d   1      -2.155   2.014   1.230  0.00  0.00     0.172 C 
ATOM      2  N   UNL d   1      -1.254   1.353   0.316  0.00  0.00    -0.070 N 
ATOM      3  C1  UNL d   1      -0.542   1.961  -0.683  0.00  0.00    -0.004 A 
ATOM      4  C2  UNL d   1       0.196   0.990  -1.326  0.00  0.00    -0.047 A 
ATOM      5  C3  UNL d   1      -0.083  -0.244  -0.692  0.00  0.00    -0.047 A 
ATOM      6  C4  UNL d   1      -0.984   0.010   0.321  0.00  0.00    -0.004 A 
ENDROOT
TORSDOF 0
ENDMDL
