MODEL 1
REMARK minimizedAffinity -1.3251332
REMARK minimizedRMSD -1
REMARK  0 active torsions:
REMARK  status: ('A' for Active; 'I' for Inactive)
ROOT
ATOM      1  C   UNL d   1       0.510   0.170  -1.029  0.00  0.00     0.172 C 
ATOM      2  N   UNL d   1       0.171  -0.221   0.319  0.00  0.00    -0.070 N 
ATOM      3  C1  UNL d   1      -0.849   0.301   1.069  0.00  0.00    -0.004 A 
ATOM      4  C2  UNL d   1      -0.841  -0.334   2.292  0.00  0.00    -0.047 A 
ATOM      5  C3  UNL d   1       0.221  -1.269   2.277  0.00  0.00    -0.047 A 
ATOM      6  C4  UNL d   1       0.831  -1.178   1.044  0.00  0.00    -0.004 A 
ENDROOT
TORSDOF 0
ENDMDL
