MODEL 1
REMARK minimizedAffinity -3.58886814
REMARK minimizedRMSD -1
REMARK  0 active torsions:
REMARK  status: ('A' for Active; 'I' for Inactive)
ROOT
ATOM      1  C   UNL d   1       0.806  -0.684  -0.700  0.00  0.00     0.172 C 
ATOM      2  N   UNL d   1      -0.081   0.035   0.184  0.00  0.00    -0.070 N 
ATOM      3  C1  UNL d   1      -0.412  -0.338   1.459  0.00  0.00    -0.004 A 
ATOM      4  C2  UNL d   1      -1.278   0.608   1.964  0.00  0.00    -0.047 A 
ATOM      5  C3  UNL d   1      -1.475   1.582   0.958  0.00  0.00    -0.047 A 
ATOM      6  C4  UNL d   1      -0.723   1.203  -0.134  0.00  0.00    -0.004 A 
ENDROOT
TORSDOF 0
ENDMDL
