MODEL 1
REMARK minimizedAffinity -1.78204072
REMARK minimizedRMSD -1
REMARK  0 active torsions:
REMARK  status: ('A' for Active; 'I' for Inactive)
ROOT
ATOM      1  C   UNL d   1       1.129  -0.316  -1.114  0.00  0.00     0.172 C 
ATOM      2  N   UNL d   1       0.763  -1.585  -1.697  0.00  0.00    -0.070 N 
ATOM      3  C1  UNL d   1       0.234  -1.766  -2.947  0.00  0.00    -0.004 A 
ATOM      4  C2  UNL d   1       0.026  -3.117  -3.126  0.00  0.00    -0.047 A 
ATOM      5  C3  UNL d   1       0.445  -3.770  -1.942  0.00  0.00    -0.047 A 
ATOM      6  C4  UNL d   1       0.896  -2.798  -1.075  0.00  0.00    -0.004 A 
ENDROOT
TORSDOF 0
ENDMDL
