MODEL 1
REMARK minimizedAffinity -3.31003952
REMARK minimizedRMSD -1
REMARK  0 active torsions:
REMARK  status: ('A' for Active; 'I' for Inactive)
ROOT
ATOM      1  C   UNL d   1       0.160  -1.113   0.080  0.00  0.00     0.172 C 
ATOM      2  N   UNL d   1      -0.577   0.060   0.488  0.00  0.00    -0.070 N 
ATOM      3  C1  UNL d   1      -0.722   0.504   1.776  0.00  0.00    -0.004 A 
ATOM      4  C2  UNL d   1      -1.490   1.648   1.744  0.00  0.00    -0.047 A 
ATOM      5  C3  UNL d   1      -1.820   1.899   0.391  0.00  0.00    -0.047 A 
ATOM      6  C4  UNL d   1      -1.242   0.901  -0.365  0.00  0.00    -0.004 A 
ENDROOT
TORSDOF 0
ENDMDL
