MODEL 1
REMARK minimizedAffinity -2.87886071
REMARK minimizedRMSD -1
REMARK  0 active torsions:
REMARK  status: ('A' for Active; 'I' for Inactive)
ROOT
ATOM      1  C   UNL d   1       1.774  -1.096  -0.459  0.00  0.00     0.172 C 
ATOM      2  N   UNL d   1       0.776  -0.072  -0.254  0.00  0.00    -0.070 N 
ATOM      3  C1  UNL d   1      -0.148  -0.050   0.756  0.00  0.00    -0.004 A 
ATOM      4  C2  UNL d   1      -0.913   1.087   0.602  0.00  0.00    -0.047 A 
ATOM      5  C3  UNL d   1      -0.432   1.770  -0.540  0.00  0.00    -0.047 A 
ATOM      6  C4  UNL d   1       0.614   1.030  -1.051  0.00  0.00    -0.004 A 
ENDROOT
TORSDOF 0
ENDMDL
