MODEL 1
REMARK minimizedAffinity -3.16025209
REMARK minimizedRMSD -1
REMARK  0 active torsions:
REMARK  status: ('A' for Active; 'I' for Inactive)
ROOT
ATOM      1  C   UNL d   1       1.265  -0.895  -0.699  0.00  0.00     0.172 C 
ATOM      2  N   UNL d   1       0.071  -0.622   0.066  0.00  0.00    -0.070 N 
ATOM      3  C1  UNL d   1       0.036  -0.217   1.374  0.00  0.00    -0.004 A 
ATOM      4  C2  UNL d   1      -1.286  -0.064   1.733  0.00  0.00    -0.047 A 
ATOM      5  C3  UNL d   1      -2.072  -0.390   0.603  0.00  0.00    -0.047 A 
ATOM      6  C4  UNL d   1      -1.207  -0.731  -0.415  0.00  0.00    -0.004 A 
ENDROOT
TORSDOF 0
ENDMDL
