MODEL 1
REMARK minimizedAffinity -3.30700278
REMARK minimizedRMSD -1
REMARK  0 active torsions:
REMARK  status: ('A' for Active; 'I' for Inactive)
ROOT
ATOM      1  C   UNL d   1      -2.185   0.919   0.575  0.00  0.00     0.172 C 
ATOM      2  N   UNL d   1      -0.915   0.366   0.167  0.00  0.00    -0.070 N 
ATOM      3  C1  UNL d   1      -0.099  -0.415   0.942  0.00  0.00    -0.004 A 
ATOM      4  C2  UNL d   1       1.012  -0.738   0.193  0.00  0.00    -0.047 A 
ATOM      5  C3  UNL d   1       0.859  -0.130  -1.076  0.00  0.00    -0.047 A 
ATOM      6  C4  UNL d   1      -0.343   0.547  -1.064  0.00  0.00    -0.004 A 
ENDROOT
TORSDOF 0
ENDMDL
