MODEL 1
REMARK minimizedAffinity -2.10342073
REMARK minimizedRMSD -1
REMARK  0 active torsions:
REMARK  status: ('A' for Active; 'I' for Inactive)
ROOT
ATOM      1  C   UNL d   1       0.628  -0.597  -0.818  0.00  0.00     0.172 C 
ATOM      2  N   UNL d   1      -0.189   0.039   0.189  0.00  0.00    -0.070 N 
ATOM      3  C1  UNL d   1      -0.446  -0.456   1.439  0.00  0.00    -0.004 A 
ATOM      4  C2  UNL d   1      -1.262   0.444   2.090  0.00  0.00    -0.047 A 
ATOM      5  C3  UNL d   1      -1.505   1.516   1.200  0.00  0.00    -0.047 A 
ATOM      6  C4  UNL d   1      -0.829   1.240   0.030  0.00  0.00    -0.004 A 
ENDROOT
TORSDOF 0
ENDMDL
