MODEL 1
REMARK minimizedAffinity -3.56161213
REMARK minimizedRMSD -1
REMARK  0 active torsions:
REMARK  status: ('A' for Active; 'I' for Inactive)
ROOT
ATOM      1  C   UNL d   1       0.622  -0.487  -0.416  0.00  0.00     0.172 C 
ATOM      2  N   UNL d   1      -0.353   0.337   0.259  0.00  0.00    -0.070 N 
ATOM      3  C1  UNL d   1      -0.570   0.373   1.611  0.00  0.00    -0.004 A 
ATOM      4  C2  UNL d   1      -1.577   1.281   1.853  0.00  0.00    -0.047 A 
ATOM      5  C3  UNL d   1      -1.980   1.810   0.604  0.00  0.00    -0.047 A 
ATOM      6  C4  UNL d   1      -1.206   1.208  -0.366  0.00  0.00    -0.004 A 
ENDROOT
TORSDOF 0
ENDMDL
