MODEL 1
REMARK minimizedAffinity -3.26183891
REMARK minimizedRMSD -1
REMARK  0 active torsions:
REMARK  status: ('A' for Active; 'I' for Inactive)
ROOT
ATOM      1  C   UNL d   1      -2.026   1.140   1.499  0.00  0.00     0.172 C 
ATOM      2  N   UNL d   1      -0.926   0.434   0.885  0.00  0.00    -0.070 N 
ATOM      3  C1  UNL d   1      -0.291   0.796  -0.272  0.00  0.00    -0.004 A 
ATOM      4  C2  UNL d   1       0.698  -0.131  -0.520  0.00  0.00    -0.047 A 
ATOM      5  C3  UNL d   1       0.654  -1.085   0.524  0.00  0.00    -0.047 A 
ATOM      6  C4  UNL d   1      -0.360  -0.712   1.380  0.00  0.00    -0.004 A 
ENDROOT
TORSDOF 0
ENDMDL
