MODEL 1
REMARK minimizedAffinity -3.33612728
REMARK minimizedRMSD -1
REMARK  0 active torsions:
REMARK  status: ('A' for Active; 'I' for Inactive)
ROOT
ATOM      1  C   UNL d   1      -2.074   1.726   1.735  0.00  0.00     0.172 C 
ATOM      2  N   UNL d   1      -1.085   0.895   1.089  0.00  0.00    -0.070 N 
ATOM      3  C1  UNL d   1      -0.573   1.092  -0.165  0.00  0.00    -0.004 A 
ATOM      4  C2  UNL d   1       0.339   0.089  -0.411  0.00  0.00    -0.047 A 
ATOM      5  C3  UNL d   1       0.376  -0.740   0.735  0.00  0.00    -0.047 A 
ATOM      6  C4  UNL d   1      -0.515  -0.219   1.648  0.00  0.00    -0.004 A 
ENDROOT
TORSDOF 0
ENDMDL
