MODEL 1
REMARK minimizedAffinity -3.54591393
REMARK minimizedRMSD -1
REMARK  0 active torsions:
REMARK  status: ('A' for Active; 'I' for Inactive)
ROOT
ATOM      1  C   UNL d   1       0.834  -0.509  -0.552  0.00  0.00     0.172 C 
ATOM      2  N   UNL d   1      -0.106   0.279   0.210  0.00  0.00    -0.070 N 
ATOM      3  C1  UNL d   1      -0.241   0.262   1.572  0.00  0.00    -0.004 A 
ATOM      4  C2  UNL d   1      -1.240   1.150   1.908  0.00  0.00    -0.047 A 
ATOM      5  C3  UNL d   1      -1.722   1.720   0.706  0.00  0.00    -0.047 A 
ATOM      6  C4  UNL d   1      -1.002   1.163  -0.330  0.00  0.00    -0.004 A 
ENDROOT
TORSDOF 0
ENDMDL
