MODEL 1
REMARK minimizedAffinity -3.86205769
REMARK minimizedRMSD -1
REMARK  0 active torsions:
REMARK  status: ('A' for Active; 'I' for Inactive)
ROOT
ATOM      1  C   UNL d   1       0.778  -0.050  -0.722  0.00  0.00     0.172 C 
ATOM      2  N   UNL d   1      -0.181   0.495   0.209  0.00  0.00    -0.070 N 
ATOM      3  C1  UNL d   1      -1.091   1.480  -0.066  0.00  0.00    -0.004 A 
ATOM      4  C2  UNL d   1      -1.819   1.715   1.080  0.00  0.00    -0.047 A 
ATOM      5  C3  UNL d   1      -1.330   0.840   2.079  0.00  0.00    -0.047 A 
ATOM      6  C4  UNL d   1      -0.317   0.096   1.513  0.00  0.00    -0.004 A 
ENDROOT
TORSDOF 0
ENDMDL
