MODEL 1
REMARK minimizedAffinity -3.71081066
REMARK minimizedRMSD -1
REMARK  0 active torsions:
REMARK  status: ('A' for Active; 'I' for Inactive)
ROOT
ATOM      1  C   UNL d   1       0.789  -0.033  -0.534  0.00  0.00     0.172 C 
ATOM      2  N   UNL d   1      -0.254   0.527   0.294  0.00  0.00    -0.070 N 
ATOM      3  C1  UNL d   1      -1.018   1.620  -0.015  0.00  0.00    -0.004 A 
ATOM      4  C2  UNL d   1      -1.894   1.831   1.028  0.00  0.00    -0.047 A 
ATOM      5  C3  UNL d   1      -1.646   0.831   1.998  0.00  0.00    -0.047 A 
ATOM      6  C4  UNL d   1      -0.626   0.037   1.518  0.00  0.00    -0.004 A 
ENDROOT
TORSDOF 0
ENDMDL
