MODEL 1
REMARK minimizedAffinity -3.55068898
REMARK minimizedRMSD -1
REMARK  0 active torsions:
REMARK  status: ('A' for Active; 'I' for Inactive)
ROOT
ATOM      1  C   UNL d   1       0.389  -0.942  -0.442  0.00  0.00     0.172 C 
ATOM      2  N   UNL d   1      -0.379  -0.070   0.415  0.00  0.00    -0.070 N 
ATOM      3  C1  UNL d   1      -0.726  -0.331   1.714  0.00  0.00    -0.004 A 
ATOM      4  C2  UNL d   1      -1.453   0.743   2.181  0.00  0.00    -0.047 A 
ATOM      5  C3  UNL d   1      -1.547   1.681   1.125  0.00  0.00    -0.047 A 
ATOM      6  C4  UNL d   1      -0.873   1.152   0.045  0.00  0.00    -0.004 A 
ENDROOT
TORSDOF 0
ENDMDL
