MODEL 1
REMARK minimizedAffinity -3.88223457
REMARK minimizedRMSD -1
REMARK  0 active torsions:
REMARK  status: ('A' for Active; 'I' for Inactive)
ROOT
ATOM      1  C   UNL d   1       0.583  -0.537  -0.419  0.00  0.00     0.172 C 
ATOM      2  N   UNL d   1      -0.356   0.283   0.309  0.00  0.00    -0.070 N 
ATOM      3  C1  UNL d   1      -1.320   1.080  -0.248  0.00  0.00    -0.004 A 
ATOM      4  C2  UNL d   1      -2.005   1.694   0.778  0.00  0.00    -0.047 A 
ATOM      5  C3  UNL d   1      -1.432   1.253   1.994  0.00  0.00    -0.047 A 
ATOM      6  C4  UNL d   1      -0.413   0.380   1.675  0.00  0.00    -0.004 A 
ENDROOT
TORSDOF 0
ENDMDL
