MODEL 1
REMARK minimizedAffinity -2.59055877
REMARK minimizedRMSD -1
REMARK  0 active torsions:
REMARK  status: ('A' for Active; 'I' for Inactive)
ROOT
ATOM      1  C   UNL d   1       0.804  -0.547  -0.858  0.00  0.00     0.172 C 
ATOM      2  N   UNL d   1       0.085   0.697  -0.713  0.00  0.00    -0.070 N 
ATOM      3  C1  UNL d   1      -0.945   0.927   0.159  0.00  0.00    -0.004 A 
ATOM      4  C2  UNL d   1      -1.357   2.231  -0.009  0.00  0.00    -0.047 A 
ATOM      5  C3  UNL d   1      -0.547   2.805  -1.018  0.00  0.00    -0.047 A 
ATOM      6  C4  UNL d   1       0.337   1.833  -1.437  0.00  0.00    -0.004 A 
ENDROOT
TORSDOF 0
ENDMDL
