MODEL 1
REMARK minimizedAffinity -4.89313078
REMARK minimizedRMSD -1
REMARK  3 active torsions:
REMARK  status: ('A' for Active; 'I' for Inactive)
REMARK    1  A    between atoms: C3'_2  and  C2'_3 
REMARK    2  A    between atoms: C2'_3  and  C1'_4 
REMARK    3  A    between atoms: C1'_4  and  C1_5 
ROOT
ATOM      1  C1  N4B d   1       0.169  -0.599  -0.360  0.00  0.00    -0.075 A 
ATOM      2  C2  N4B d   1      -1.031  -1.144   0.146  0.00  0.00     0.002 A 
ATOM      3  C3  N4B d   1      -1.024  -2.378   0.748  0.00  0.00     0.002 A 
ATOM      4  C4  N4B d   1       0.162  -3.090   0.839  0.00  0.00    -0.004 A 
ATOM      5  C5  N4B d   1       1.322  -2.545   0.371  0.00  0.00     0.002 A 
ATOM      6  C6  N4B d   1       1.330  -1.304  -0.233  0.00  0.00     0.002 A 
ENDROOT
BRANCH   1   7
ATOM      7  C1' N4B d   1       0.196   0.709  -1.104  0.00  0.00     0.057 C 
BRANCH   7   8
ATOM      8  C2' N4B d   1       0.466   1.841  -0.117  0.00  0.00     0.009 C 
BRANCH   8   9
ATOM      9  C3' N4B d   1       1.861   2.419  -0.283  0.00  0.00     0.004 C 
ATOM     10  C4' N4B d   1       2.083   3.648   0.546  0.00  0.00     0.003 C 
ENDBRANCH   8   9
ENDBRANCH   7   8
ENDBRANCH   1   7
TORSDOF 3
ENDMDL
