MODEL 1
REMARK minimizedAffinity -5.68723345
REMARK minimizedRMSD -1
REMARK  3 active torsions:
REMARK  status: ('A' for Active; 'I' for Inactive)
REMARK    1  A    between atoms: C3'_2  and  C2'_3 
REMARK    2  A    between atoms: C2'_3  and  C1'_4 
REMARK    3  A    between atoms: C1'_4  and  C1_5 
ROOT
ATOM      1  C1  N4B d   1       0.459  -0.232   0.099  0.00  0.00    -0.075 A 
ATOM      2  C2  N4B d   1      -0.444  -0.225   1.185  0.00  0.00     0.002 A 
ATOM      3  C3  N4B d   1      -1.005  -1.401   1.619  0.00  0.00     0.002 A 
ATOM      4  C4  N4B d   1      -0.694  -2.588   0.974  0.00  0.00    -0.004 A 
ATOM      5  C5  N4B d   1       0.199  -2.590  -0.058  0.00  0.00     0.002 A 
ATOM      6  C6  N4B d   1       0.773  -1.416  -0.502  0.00  0.00     0.002 A 
ENDROOT
BRANCH   1   7
ATOM      7  C1' N4B d   1       1.032   1.039  -0.466  0.00  0.00     0.057 C 
BRANCH   7   8
ATOM      8  C2' N4B d   1       0.686   2.200   0.462  0.00  0.00     0.009 C 
BRANCH   8   9
ATOM      9  C3' N4B d   1       1.904   3.048   0.789  0.00  0.00     0.004 C 
ATOM     10  C4' N4B d   1       3.091   2.712  -0.063  0.00  0.00     0.003 C 
ENDBRANCH   8   9
ENDBRANCH   7   8
ENDBRANCH   1   7
TORSDOF 3
ENDMDL
