MODEL 1
REMARK minimizedAffinity -5.27613878
REMARK minimizedRMSD -1
REMARK  3 active torsions:
REMARK  status: ('A' for Active; 'I' for Inactive)
REMARK    1  A    between atoms: C3'_2  and  C2'_3 
REMARK    2  A    between atoms: C2'_3  and  C1'_4 
REMARK    3  A    between atoms: C1'_4  and  C1_5 
ROOT
ATOM      1  C1  N4B d   1       0.028  -0.089  -0.272  0.00  0.00    -0.075 A 
ATOM      2  C2  N4B d   1      -0.888  -0.327   0.776  0.00  0.00     0.002 A 
ATOM      3  C3  N4B d   1      -1.052  -1.599   1.268  0.00  0.00     0.002 A 
ATOM      4  C4  N4B d   1      -0.329  -2.646   0.717  0.00  0.00    -0.004 A 
ATOM      5  C5  N4B d   1       0.572  -2.403  -0.279  0.00  0.00     0.002 A 
ATOM      6  C6  N4B d   1       0.750  -1.129  -0.780  0.00  0.00     0.002 A 
ENDROOT
BRANCH   1   7
ATOM      7  C1' N4B d   1       0.179   1.270  -0.900  0.00  0.00     0.057 C 
BRANCH   7   8
ATOM      8  C2' N4B d   1       0.523   2.287   0.184  0.00  0.00     0.009 C 
BRANCH   8   9
ATOM      9  C3' N4B d   1       1.921   2.854   0.008  0.00  0.00     0.004 C 
ATOM     10  C4' N4B d   1       2.354   3.703   1.165  0.00  0.00     0.003 C 
ENDBRANCH   8   9
ENDBRANCH   7   8
ENDBRANCH   1   7
TORSDOF 3
ENDMDL
