MODEL 1
REMARK minimizedAffinity -2.9187026
REMARK minimizedRMSD -1
REMARK  3 active torsions:
REMARK  status: ('A' for Active; 'I' for Inactive)
REMARK    1  A    between atoms: C3'_2  and  C2'_3 
REMARK    2  A    between atoms: C2'_3  and  C1'_4 
REMARK    3  A    between atoms: C1'_4  and  C1_5 
ROOT
ATOM      1  C1  N4B d   1      -0.278   0.989  -0.002  0.00  0.00    -0.075 A 
ATOM      2  C2  N4B d   1      -1.002   0.637   1.158  0.00  0.00     0.002 A 
ATOM      3  C3  N4B d   1      -1.085  -0.679   1.543  0.00  0.00     0.002 A 
ATOM      4  C4  N4B d   1      -0.469  -1.658   0.777  0.00  0.00    -0.004 A 
ATOM      5  C5  N4B d   1       0.250  -1.307  -0.328  0.00  0.00     0.002 A 
ATOM      6  C6  N4B d   1       0.344   0.012  -0.724  0.00  0.00     0.002 A 
ENDROOT
BRANCH   1   7
ATOM      7  C1' N4B d   1      -0.231   2.404  -0.510  0.00  0.00     0.057 C 
BRANCH   7   8
ATOM      8  C2' N4B d   1       0.495   3.278   0.508  0.00  0.00     0.009 C 
BRANCH   8   9
ATOM      9  C3' N4B d   1       1.971   3.425   0.179  0.00  0.00     0.004 C 
ATOM     10  C4' N4B d   1       2.792   3.836   1.365  0.00  0.00     0.003 C 
ENDBRANCH   8   9
ENDBRANCH   7   8
ENDBRANCH   1   7
TORSDOF 3
ENDMDL
