MODEL 1
REMARK minimizedAffinity -5.36296034
REMARK minimizedRMSD -1
REMARK  1 active torsions:
REMARK  status: ('A' for Active; 'I' for Inactive)
REMARK    1  A    between atoms: C1_2  and  C2_3 
ROOT
ATOM      1  C2  UNL d   1      -0.133   0.570   0.906  0.00  0.00    -0.077 A 
ATOM      2  C3  UNL d   1      -0.834   1.172  -0.149  0.00  0.00     0.002 A 
ATOM      3  C4  UNL d   1      -1.356   2.459  -0.007  0.00  0.00     0.002 A 
ATOM      4  C5  UNL d   1      -1.180   3.156   1.186  0.00  0.00    -0.004 A 
ATOM      5  C6  UNL d   1      -0.487   2.566   2.242  0.00  0.00     0.002 A 
ATOM      6  C7  UNL d   1       0.035   1.279   2.102  0.00  0.00     0.002 A 
ENDROOT
BRANCH   1   7
ATOM      7  C1  UNL d   1       0.474  -0.798   0.738  0.00  0.00     0.055 C 
ATOM      8  C   UNL d   1       0.379  -1.272  -0.705  0.00  0.00     0.019 C 
ENDBRANCH   1   7
TORSDOF 1
ENDMDL
