MODEL 1
REMARK minimizedAffinity -1.91176188
REMARK minimizedRMSD -1
REMARK  1 active torsions:
REMARK  status: ('A' for Active; 'I' for Inactive)
REMARK    1  A    between atoms: C1_2  and  C2_3 
ROOT
ATOM      1  C2  UNL d   1      -0.055   0.354  -0.606  0.00  0.00    -0.077 A 
ATOM      2  C3  UNL d   1       0.017   1.176  -1.740  0.00  0.00     0.002 A 
ATOM      3  C4  UNL d   1      -0.792   2.309  -1.843  0.00  0.00     0.002 A 
ATOM      4  C5  UNL d   1      -1.674   2.634  -0.815  0.00  0.00    -0.004 A 
ATOM      5  C6  UNL d   1      -1.754   1.822   0.316  0.00  0.00     0.002 A 
ATOM      6  C7  UNL d   1      -0.948   0.688   0.420  0.00  0.00     0.002 A 
ENDROOT
BRANCH   1   7
ATOM      7  C1  UNL d   1       0.852  -0.841  -0.471  0.00  0.00     0.055 C 
ATOM      8  C   UNL d   1       0.160  -2.116  -0.934  0.00  0.00     0.019 C 
ENDBRANCH   1   7
TORSDOF 1
ENDMDL
