MODEL 1
REMARK minimizedAffinity -0.488339186
REMARK minimizedRMSD -1
REMARK  1 active torsions:
REMARK  status: ('A' for Active; 'I' for Inactive)
REMARK    1  A    between atoms: C1_2  and  C2_3 
ROOT
ATOM      1  C2  UNL d   1       0.177   1.122   0.616  0.00  0.00    -0.077 A 
ATOM      2  C3  UNL d   1      -0.119   1.570  -0.679  0.00  0.00     0.002 A 
ATOM      3  C4  UNL d   1      -0.181   0.667  -1.742  0.00  0.00     0.002 A 
ATOM      4  C5  UNL d   1       0.048  -0.689  -1.521  0.00  0.00    -0.004 A 
ATOM      5  C6  UNL d   1       0.346  -1.144  -0.237  0.00  0.00     0.002 A 
ATOM      6  C7  UNL d   1       0.409  -0.243   0.827  0.00  0.00     0.002 A 
ENDROOT
BRANCH   1   7
ATOM      7  C1  UNL d   1       0.196   2.087   1.772  0.00  0.00     0.055 C 
ATOM      8  C   UNL d   1      -1.063   2.941   1.801  0.00  0.00     0.019 C 
ENDBRANCH   1   7
TORSDOF 1
ENDMDL
