MODEL 1
REMARK minimizedAffinity -5.11692429
REMARK minimizedRMSD -1
REMARK  1 active torsions:
REMARK  status: ('A' for Active; 'I' for Inactive)
REMARK    1  A    between atoms: C1_2  and  C2_3 
ROOT
ATOM      1  C2  UNL d   1       0.638   0.348  -0.276  0.00  0.00    -0.077 A 
ATOM      2  C3  UNL d   1      -0.253   1.394  -0.551  0.00  0.00     0.002 A 
ATOM      3  C4  UNL d   1      -0.717   2.216   0.478  0.00  0.00     0.002 A 
ATOM      4  C5  UNL d   1      -0.293   2.002   1.788  0.00  0.00    -0.004 A 
ATOM      5  C6  UNL d   1       0.592   0.962   2.072  0.00  0.00     0.002 A 
ATOM      6  C7  UNL d   1       1.056   0.139   1.045  0.00  0.00     0.002 A 
ENDROOT
BRANCH   1   7
ATOM      7  C1  UNL d   1       1.178  -0.509  -1.391  0.00  0.00     0.055 C 
ATOM      8  C   UNL d   1       0.903  -1.984  -1.140  0.00  0.00     0.019 C 
ENDBRANCH   1   7
TORSDOF 1
ENDMDL
