MODEL 1
REMARK minimizedAffinity -0.10126356
REMARK minimizedRMSD -1
REMARK  1 active torsions:
REMARK  status: ('A' for Active; 'I' for Inactive)
REMARK    1  A    between atoms: C1_2  and  C2_3 
ROOT
ATOM      1  C2  UNL d   1       0.162  -4.751  -1.247  0.00  0.00    -0.077 A 
ATOM      2  C3  UNL d   1      -0.541  -3.757  -0.551  0.00  0.00     0.002 A 
ATOM      3  C4  UNL d   1      -1.551  -3.031  -1.185  0.00  0.00     0.002 A 
ATOM      4  C5  UNL d   1      -1.870  -3.294  -2.516  0.00  0.00    -0.004 A 
ATOM      5  C6  UNL d   1      -1.176  -4.278  -3.217  0.00  0.00     0.002 A 
ATOM      6  C7  UNL d   1      -0.165  -5.005  -2.585  0.00  0.00     0.002 A 
ENDROOT
BRANCH   1   7
ATOM      7  C1  UNL d   1       1.218  -5.569  -0.551  0.00  0.00     0.055 C 
ATOM      8  C   UNL d   1       2.591  -4.927  -0.682  0.00  0.00     0.019 C 
ENDBRANCH   1   7
TORSDOF 1
ENDMDL
