MODEL 1
REMARK minimizedAffinity -3.02308989
REMARK minimizedRMSD -1
REMARK  0 active torsions:
REMARK  status: ('A' for Active; 'I' for Inactive)
ROOT
ATOM      1  C2' OXE d   1      -1.868   2.102   1.933  0.00  0.00     0.078 C 
ATOM      2  C1' OXE d   1      -1.610  -0.688   2.110  0.00  0.00     0.078 C 
ATOM      3  C1  OXE d   1      -0.415   0.100   1.635  0.00  0.00    -0.078 A 
ATOM      4  C2  OXE d   1      -0.565   1.460   1.507  0.00  0.00    -0.078 A 
ATOM      5  C3  OXE d   1       0.522   2.241   1.125  0.00  0.00     0.003 A 
ATOM      6  C4  OXE d   1       1.721   1.639   0.723  0.00  0.00    -0.002 A 
ATOM      7  C5  OXE d   1       1.882   0.252   0.808  0.00  0.00    -0.002 A 
ATOM      8  C6  OXE d   1       0.840  -0.526   1.301  0.00  0.00     0.003 A 
ENDROOT
TORSDOF 0
ENDMDL
