MODEL 1
REMARK minimizedAffinity 2.24196076
REMARK minimizedRMSD -1
REMARK  0 active torsions:
REMARK  status: ('A' for Active; 'I' for Inactive)
ROOT
ATOM      1  C2' OXE d   1      -2.551   2.412   3.007  0.00  0.00     0.078 C 
ATOM      2  C1' OXE d   1      -0.667   3.887   1.539  0.00  0.00     0.078 C 
ATOM      3  C1  OXE d   1      -0.596   2.383   1.463  0.00  0.00    -0.078 A 
ATOM      4  C2  OXE d   1      -1.492   1.668   2.222  0.00  0.00    -0.078 A 
ATOM      5  C3  OXE d   1      -1.505   0.279   2.146  0.00  0.00     0.003 A 
ATOM      6  C4  OXE d   1      -0.516  -0.402   1.425  0.00  0.00    -0.002 A 
ATOM      7  C5  OXE d   1       0.431   0.306   0.678  0.00  0.00    -0.002 A 
ATOM      8  C6  OXE d   1       0.378   1.696   0.652  0.00  0.00     0.003 A 
ENDROOT
TORSDOF 0
ENDMDL
