MODEL 1
REMARK minimizedAffinity 6.96438026
REMARK minimizedRMSD -1
REMARK  0 active torsions:
REMARK  status: ('A' for Active; 'I' for Inactive)
ROOT
ATOM      1  C2' OXE d   1      -2.992   2.305   3.892  0.00  0.00     0.078 C 
ATOM      2  C1' OXE d   1      -2.322   3.913   1.691  0.00  0.00     0.078 C 
ATOM      3  C1  OXE d   1      -1.758   2.516   1.738  0.00  0.00    -0.078 A 
ATOM      4  C2  OXE d   1      -2.053   1.752   2.842  0.00  0.00    -0.078 A 
ATOM      5  C3  OXE d   1      -1.603   0.436   2.910  0.00  0.00     0.003 A 
ATOM      6  C4  OXE d   1      -0.727  -0.065   1.939  0.00  0.00    -0.002 A 
ATOM      7  C5  OXE d   1      -0.381   0.711   0.827  0.00  0.00    -0.002 A 
ATOM      8  C6  OXE d   1      -0.921   1.985   0.691  0.00  0.00     0.003 A 
ENDROOT
TORSDOF 0
ENDMDL
