MODEL 1
REMARK minimizedAffinity -1.66631734
REMARK minimizedRMSD -1
REMARK  0 active torsions:
REMARK  status: ('A' for Active; 'I' for Inactive)
ROOT
ATOM      1  C2' OXE d   1       0.740   2.280   1.107  0.00  0.00     0.078 C 
ATOM      2  C1' OXE d   1      -1.714   3.484   1.746  0.00  0.00     0.078 C 
ATOM      3  C1  OXE d   1      -1.548   2.017   2.055  0.00  0.00    -0.078 A 
ATOM      4  C2  OXE d   1      -0.361   1.425   1.696  0.00  0.00    -0.078 A 
ATOM      5  C3  OXE d   1      -0.136   0.087   2.008  0.00  0.00     0.003 A 
ATOM      6  C4  OXE d   1      -1.163  -0.699   2.543  0.00  0.00    -0.002 A 
ATOM      7  C5  OXE d   1      -2.394  -0.125   2.880  0.00  0.00    -0.002 A 
ATOM      8  C6  OXE d   1      -2.588   1.238   2.682  0.00  0.00     0.003 A 
ENDROOT
TORSDOF 0
ENDMDL
