MODEL 1
REMARK minimizedAffinity 9.84027481
REMARK minimizedRMSD -1
REMARK  0 active torsions:
REMARK  status: ('A' for Active; 'I' for Inactive)
ROOT
ATOM      1  C2' OXE d   1      -3.761  -0.671   4.048  0.00  0.00     0.078 C 
ATOM      2  C1' OXE d   1      -5.325   1.628   4.432  0.00  0.00     0.078 C 
ATOM      3  C1  OXE d   1      -4.125   1.737   3.526  0.00  0.00    -0.078 A 
ATOM      4  C2  OXE d   1      -3.339   0.619   3.380  0.00  0.00    -0.078 A 
ATOM      5  C3  OXE d   1      -2.251   0.650   2.512  0.00  0.00     0.003 A 
ATOM      6  C4  OXE d   1      -1.861   1.851   1.906  0.00  0.00    -0.002 A 
ATOM      7  C5  OXE d   1      -2.626   3.011   2.072  0.00  0.00    -0.002 A 
ATOM      8  C6  OXE d   1      -3.782   2.960   2.843  0.00  0.00     0.003 A 
ENDROOT
TORSDOF 0
ENDMDL
