MODEL 1
REMARK minimizedAffinity 8.24281502
REMARK minimizedRMSD -1
REMARK  0 active torsions:
REMARK  status: ('A' for Active; 'I' for Inactive)
ROOT
ATOM      1  C2' OXE d   1      -2.373   3.206   0.478  0.00  0.00     0.078 C 
ATOM      2  C1' OXE d   1      -2.672   1.343   2.556  0.00  0.00     0.078 C 
ATOM      3  C1  OXE d   1      -1.318   1.455   1.901  0.00  0.00    -0.078 A 
ATOM      4  C2  OXE d   1      -1.193   2.336   0.854  0.00  0.00    -0.078 A 
ATOM      5  C3  OXE d   1       0.048   2.517   0.251  0.00  0.00     0.003 A 
ATOM      6  C4  OXE d   1       1.131   1.701   0.598  0.00  0.00    -0.002 A 
ATOM      7  C5  OXE d   1       1.014   0.769   1.635  0.00  0.00    -0.002 A 
ATOM      8  C6  OXE d   1      -0.189   0.664   2.324  0.00  0.00     0.003 A 
ENDROOT
TORSDOF 0
ENDMDL
