MODEL 1
REMARK minimizedAffinity -5.44166517
REMARK minimizedRMSD -1
REMARK  0 active torsions:
REMARK  status: ('A' for Active; 'I' for Inactive)
ROOT
ATOM      1  C2' OXE d   1      -3.645   1.495   3.022  0.00  0.00     0.078 C 
ATOM      2  C1' OXE d   1      -1.624  -0.437   2.775  0.00  0.00     0.078 C 
ATOM      3  C1  OXE d   1      -1.361   0.933   2.202  0.00  0.00    -0.078 A 
ATOM      4  C2  OXE d   1      -2.374   1.858   2.286  0.00  0.00    -0.078 A 
ATOM      5  C3  OXE d   1      -2.164   3.154   1.821  0.00  0.00     0.003 A 
ATOM      6  C4  OXE d   1      -0.990   3.479   1.132  0.00  0.00    -0.002 A 
ATOM      7  C5  OXE d   1       0.039   2.539   1.000  0.00  0.00    -0.002 A 
ATOM      8  C6  OXE d   1      -0.114   1.278   1.565  0.00  0.00     0.003 A 
ENDROOT
TORSDOF 0
ENDMDL
