MODEL 1
REMARK minimizedAffinity 5.50583887
REMARK minimizedRMSD -1
REMARK  0 active torsions:
REMARK  status: ('A' for Active; 'I' for Inactive)
ROOT
ATOM      1  C2' OXE d   1      -3.893  -4.078  -1.213  0.00  0.00     0.078 C 
ATOM      2  C1' OXE d   1      -4.898  -1.866   0.191  0.00  0.00     0.078 C 
ATOM      3  C1  OXE d   1      -4.407  -1.641  -1.217  0.00  0.00    -0.078 A 
ATOM      4  C2  OXE d   1      -3.873  -2.720  -1.880  0.00  0.00    -0.078 A 
ATOM      5  C3  OXE d   1      -3.456  -2.580  -3.201  0.00  0.00     0.003 A 
ATOM      6  C4  OXE d   1      -3.432  -1.318  -3.807  0.00  0.00    -0.002 A 
ATOM      7  C5  OXE d   1      -3.934  -0.198  -3.135  0.00  0.00    -0.002 A 
ATOM      8  C6  OXE d   1      -4.463  -0.350  -1.858  0.00  0.00     0.003 A 
ENDROOT
TORSDOF 0
ENDMDL
