MODEL 1
REMARK minimizedAffinity -3.01517105
REMARK minimizedRMSD -1
REMARK  0 active torsions:
REMARK  status: ('A' for Active; 'I' for Inactive)
ROOT
ATOM      1  C2' OXE d   1      -2.571   1.926   2.866  0.00  0.00     0.078 C 
ATOM      2  C1' OXE d   1      -2.191  -0.803   2.331  0.00  0.00     0.078 C 
ATOM      3  C1  OXE d   1      -1.096   0.152   1.928  0.00  0.00    -0.078 A 
ATOM      4  C2  OXE d   1      -1.310   1.491   2.151  0.00  0.00    -0.078 A 
ATOM      5  C3  OXE d   1      -0.309   2.409   1.849  0.00  0.00     0.003 A 
ATOM      6  C4  OXE d   1       0.850   2.000   1.179  0.00  0.00    -0.002 A 
ATOM      7  C5  OXE d   1       1.071   0.646   0.906  0.00  0.00    -0.002 A 
ATOM      8  C6  OXE d   1       0.129  -0.294   1.311  0.00  0.00     0.003 A 
ENDROOT
TORSDOF 0
ENDMDL
