MODEL 1
REMARK minimizedAffinity 0.470453531
REMARK minimizedRMSD -1
REMARK  0 active torsions:
REMARK  status: ('A' for Active; 'I' for Inactive)
ROOT
ATOM      1  C2' OXE d   1      -2.273   2.296   1.978  0.00  0.00     0.078 C 
ATOM      2  C1' OXE d   1      -2.340  -0.460   1.449  0.00  0.00     0.078 C 
ATOM      3  C1  OXE d   1      -1.020   0.254   1.297  0.00  0.00    -0.078 A 
ATOM      4  C2  OXE d   1      -1.007   1.611   1.512  0.00  0.00    -0.078 A 
ATOM      5  C3  OXE d   1       0.196   2.308   1.438  0.00  0.00     0.003 A 
ATOM      6  C4  OXE d   1       1.360   1.669   0.997  0.00  0.00    -0.002 A 
ATOM      7  C5  OXE d   1       1.360   0.295   0.734  0.00  0.00    -0.002 A 
ATOM      8  C6  OXE d   1       0.190  -0.434   0.920  0.00  0.00     0.003 A 
ENDROOT
TORSDOF 0
ENDMDL
