MODEL 1
REMARK minimizedAffinity -1.01529109
REMARK minimizedRMSD -1
REMARK  0 active torsions:
REMARK  status: ('A' for Active; 'I' for Inactive)
ROOT
ATOM      1  C2' OXE d   1      -3.036   2.300   2.691  0.00  0.00     0.078 C 
ATOM      2  C1' OXE d   1      -2.879  -0.484   2.370  0.00  0.00     0.078 C 
ATOM      3  C1  OXE d   1      -1.648   0.331   2.060  0.00  0.00    -0.078 A 
ATOM      4  C2  OXE d   1      -1.748   1.696   2.175  0.00  0.00    -0.078 A 
ATOM      5  C3  OXE d   1      -0.627   2.491   1.953  0.00  0.00     0.003 A 
ATOM      6  C4  OXE d   1       0.558   1.925   1.466  0.00  0.00    -0.002 A 
ATOM      7  C5  OXE d   1       0.669   0.540   1.304  0.00  0.00    -0.002 A 
ATOM      8  C6  OXE d   1      -0.409  -0.274   1.636  0.00  0.00     0.003 A 
ENDROOT
TORSDOF 0
ENDMDL
