MODEL 1
REMARK minimizedAffinity 3.75204277
REMARK minimizedRMSD -1
REMARK  0 active torsions:
REMARK  status: ('A' for Active; 'I' for Inactive)
ROOT
ATOM      1  C2' OXE d   1       0.693   1.974   0.958  0.00  0.00     0.078 C 
ATOM      2  C1' OXE d   1       0.455  -0.483   2.296  0.00  0.00     0.078 C 
ATOM      3  C1  OXE d   1      -0.725   0.456   2.333  0.00  0.00    -0.078 A 
ATOM      4  C2  OXE d   1      -0.583   1.675   1.716  0.00  0.00    -0.078 A 
ATOM      5  C3  OXE d   1      -1.659   2.557   1.673  0.00  0.00     0.003 A 
ATOM      6  C4  OXE d   1      -2.832   2.278   2.385  0.00  0.00    -0.002 A 
ATOM      7  C5  OXE d   1      -2.983   1.058   3.054  0.00  0.00    -0.002 A 
ATOM      8  C6  OXE d   1      -1.957   0.121   3.003  0.00  0.00     0.003 A 
ENDROOT
TORSDOF 0
ENDMDL
