MODEL 1
REMARK minimizedAffinity 7.24776268
REMARK minimizedRMSD -1
REMARK  0 active torsions:
REMARK  status: ('A' for Active; 'I' for Inactive)
ROOT
ATOM      1  C2' OXE d   1       1.397  -1.085   2.650  0.00  0.00     0.078 C 
ATOM      2  C1' OXE d   1      -1.386  -1.178   3.008  0.00  0.00     0.078 C 
ATOM      3  C1  OXE d   1      -0.796   0.068   2.395  0.00  0.00    -0.078 A 
ATOM      4  C2  OXE d   1       0.571   0.123   2.267  0.00  0.00    -0.078 A 
ATOM      5  C3  OXE d   1       1.162   1.227   1.658  0.00  0.00     0.003 A 
ATOM      6  C4  OXE d   1       0.391   2.344   1.315  0.00  0.00    -0.002 A 
ATOM      7  C5  OXE d   1      -0.998   2.325   1.474  0.00  0.00    -0.002 A 
ATOM      8  C6  OXE d   1      -1.611   1.180   1.972  0.00  0.00     0.003 A 
ENDROOT
TORSDOF 0
ENDMDL
