MODEL 1
REMARK minimizedAffinity 4.76770544
REMARK minimizedRMSD -1
REMARK  0 active torsions:
REMARK  status: ('A' for Active; 'I' for Inactive)
ROOT
ATOM      1  C2' OXE d   1      -2.544   2.320   2.193  0.00  0.00     0.078 C 
ATOM      2  C1' OXE d   1      -2.586  -0.475   2.456  0.00  0.00     0.078 C 
ATOM      3  C1  OXE d   1      -1.283   0.175   2.060  0.00  0.00    -0.078 A 
ATOM      4  C2  OXE d   1      -1.284   1.538   1.888  0.00  0.00    -0.078 A 
ATOM      5  C3  OXE d   1      -0.096   2.194   1.577  0.00  0.00     0.003 A 
ATOM      6  C4  OXE d   1       1.062   1.463   1.288  0.00  0.00    -0.002 A 
ATOM      7  C5  OXE d   1       1.074   0.071   1.418  0.00  0.00    -0.002 A 
ATOM      8  C6  OXE d   1      -0.076  -0.584   1.844  0.00  0.00     0.003 A 
ENDROOT
TORSDOF 0
ENDMDL
