MODEL 1
REMARK minimizedAffinity 4.64336967
REMARK minimizedRMSD -1
REMARK  0 active torsions:
REMARK  status: ('A' for Active; 'I' for Inactive)
ROOT
ATOM      1  C2' OXE d   1      -2.312   2.326   1.997  0.00  0.00     0.078 C 
ATOM      2  C1' OXE d   1      -2.014  -0.464   2.096  0.00  0.00     0.078 C 
ATOM      3  C1  OXE d   1      -0.812   0.359   1.702  0.00  0.00    -0.078 A 
ATOM      4  C2  OXE d   1      -0.980   1.720   1.611  0.00  0.00    -0.078 A 
ATOM      5  C3  OXE d   1       0.109   2.530   1.304  0.00  0.00     0.003 A 
ATOM      6  C4  OXE d   1       1.335   1.960   0.939  0.00  0.00    -0.002 A 
ATOM      7  C5  OXE d   1       1.517   0.574   0.987  0.00  0.00    -0.002 A 
ATOM      8  C6  OXE d   1       0.468  -0.236   1.407  0.00  0.00     0.003 A 
ENDROOT
TORSDOF 0
ENDMDL
