MODEL 1
REMARK minimizedAffinity -2.19435263
REMARK minimizedRMSD -1
REMARK  0 active torsions:
REMARK  status: ('A' for Active; 'I' for Inactive)
ROOT
ATOM      1  C2' OXE d   1       0.858   0.818   0.969  0.00  0.00     0.078 C 
ATOM      2  C1' OXE d   1       0.003  -1.305   2.594  0.00  0.00     0.078 C 
ATOM      3  C1  OXE d   1      -1.021  -0.276   2.184  0.00  0.00    -0.078 A 
ATOM      4  C2  OXE d   1      -0.584   0.784   1.427  0.00  0.00    -0.078 A 
ATOM      5  C3  OXE d   1      -1.497   1.732   0.976  0.00  0.00     0.003 A 
ATOM      6  C4  OXE d   1      -2.827   1.699   1.413  0.00  0.00    -0.002 A 
ATOM      7  C5  OXE d   1      -3.285   0.649   2.216  0.00  0.00    -0.002 A 
ATOM      8  C6  OXE d   1      -2.406  -0.367   2.575  0.00  0.00     0.003 A 
ENDROOT
TORSDOF 0
ENDMDL
