MODEL 1
REMARK minimizedAffinity 2.72092366
REMARK minimizedRMSD -1
REMARK  0 active torsions:
REMARK  status: ('A' for Active; 'I' for Inactive)
ROOT
ATOM      1  C2' OXE d   1      -2.774   3.746   1.154  0.00  0.00     0.078 C 
ATOM      2  C1' OXE d   1      -3.320   2.039   3.315  0.00  0.00     0.078 C 
ATOM      3  C1  OXE d   1      -1.892   2.141   2.843  0.00  0.00    -0.078 A 
ATOM      4  C2  OXE d   1      -1.641   2.942   1.755  0.00  0.00    -0.078 A 
ATOM      5  C3  OXE d   1      -0.332   3.114   1.313  0.00  0.00     0.003 A 
ATOM      6  C4  OXE d   1       0.709   2.359   1.868  0.00  0.00    -0.002 A 
ATOM      7  C5  OXE d   1       0.468   1.507   2.951  0.00  0.00    -0.002 A 
ATOM      8  C6  OXE d   1      -0.816   1.419   3.477  0.00  0.00     0.003 A 
ENDROOT
TORSDOF 0
ENDMDL
