MODEL 1
REMARK minimizedAffinity 0.352689654
REMARK minimizedRMSD -1
REMARK  0 active torsions:
REMARK  status: ('A' for Active; 'I' for Inactive)
ROOT
ATOM      1  C4' PXY d   1       5.750   5.998  -6.000  0.00  0.00     0.077 C 
ATOM      2  C1' PXY d   1       1.492   3.460  -3.025  0.00  0.00     0.077 C 
ATOM      3  C1  PXY d   1       2.600   4.133  -3.812  0.00  0.00    -0.082 A 
ATOM      4  C2  PXY d   1       3.748   3.502  -3.995  0.00  0.00     0.003 A 
ATOM      5  C3  PXY d   1       4.772   4.109  -4.676  0.00  0.00     0.003 A 
ATOM      6  C4  PXY d   1       4.600   5.353  -5.221  0.00  0.00    -0.082 A 
ATOM      7  C5  PXY d   1       3.428   6.000  -5.047  0.00  0.00     0.003 A 
ATOM      8  C6  PXY d   1       2.415   5.383  -4.317  0.00  0.00     0.003 A 
ENDROOT
TORSDOF 0
ENDMDL
