MODEL 1
REMARK minimizedAffinity 6.60580969
REMARK minimizedRMSD -1
REMARK  0 active torsions:
REMARK  status: ('A' for Active; 'I' for Inactive)
ROOT
ATOM      1  C4' PXY d   1      -0.537  -3.078   1.123  0.00  0.00     0.077 C 
ATOM      2  C1' PXY d   1      -3.928  -5.170  -3.066  0.00  0.00     0.077 C 
ATOM      3  C1  PXY d   1      -3.040  -4.610  -1.972  0.00  0.00    -0.082 A 
ATOM      4  C2  PXY d   1      -2.192  -5.409  -1.344  0.00  0.00     0.003 A 
ATOM      5  C3  PXY d   1      -1.405  -4.925  -0.331  0.00  0.00     0.003 A 
ATOM      6  C4  PXY d   1      -1.447  -3.599   0.006  0.00  0.00    -0.082 A 
ATOM      7  C5  PXY d   1      -2.301  -2.775  -0.637  0.00  0.00     0.003 A 
ATOM      8  C6  PXY d   1      -3.121  -3.294  -1.634  0.00  0.00     0.003 A 
ENDROOT
TORSDOF 0
ENDMDL
