MODEL 1
REMARK minimizedAffinity 6.38539696
REMARK minimizedRMSD -1
REMARK  0 active torsions:
REMARK  status: ('A' for Active; 'I' for Inactive)
ROOT
ATOM      1  C4' PXY d   1       0.904  -2.011   0.010  0.00  0.00     0.077 C 
ATOM      2  C1' PXY d   1       0.418   3.052  -2.737  0.00  0.00     0.077 C 
ATOM      3  C1  PXY d   1       0.557   1.728  -2.012  0.00  0.00    -0.082 A 
ATOM      4  C2  PXY d   1      -0.149   0.684  -2.415  0.00  0.00     0.003 A 
ATOM      5  C3  PXY d   1      -0.059  -0.512  -1.751  0.00  0.00     0.003 A 
ATOM      6  C4  PXY d   1       0.803  -0.657  -0.697  0.00  0.00    -0.082 A 
ATOM      7  C5  PXY d   1       1.535   0.400  -0.287  0.00  0.00     0.003 A 
ATOM      8  C6  PXY d   1       1.399   1.617  -0.949  0.00  0.00     0.003 A 
ENDROOT
TORSDOF 0
ENDMDL
