MODEL 1
REMARK minimizedAffinity 10.2852964
REMARK minimizedRMSD -1
REMARK  0 active torsions:
REMARK  status: ('A' for Active; 'I' for Inactive)
ROOT
ATOM      1  C4' PXY d   1      -2.637   1.836   3.318  0.00  0.00     0.077 C 
ATOM      2  C1' PXY d   1       2.285   3.071   0.550  0.00  0.00     0.077 C 
ATOM      3  C1  PXY d   1       0.999   2.735   1.277  0.00  0.00    -0.082 A 
ATOM      4  C2  PXY d   1      -0.078   3.479   1.081  0.00  0.00     0.003 A 
ATOM      5  C3  PXY d   1      -1.241   3.209   1.755  0.00  0.00     0.003 A 
ATOM      6  C4  PXY d   1      -1.318   2.133   2.598  0.00  0.00    -0.082 A 
ATOM      7  C5  PXY d   1      -0.228   1.362   2.796  0.00  0.00     0.003 A 
ATOM      8  C6  PXY d   1       0.955   1.678   2.134  0.00  0.00     0.003 A 
ENDROOT
TORSDOF 0
ENDMDL
