MODEL 1
REMARK minimizedAffinity 2.93364787
REMARK minimizedRMSD -1
REMARK  0 active torsions:
REMARK  status: ('A' for Active; 'I' for Inactive)
ROOT
ATOM      1  C4' PXY d   1       4.554  -0.692  -1.096  0.00  0.00     0.077 C 
ATOM      2  C1' PXY d   1       0.807   2.765   1.628  0.00  0.00     0.077 C 
ATOM      3  C1  PXY d   1       1.782   1.858   0.903  0.00  0.00    -0.082 A 
ATOM      4  C2  PXY d   1       2.614   1.101   1.600  0.00  0.00     0.003 A 
ATOM      5  C3  PXY d   1       3.524   0.300   0.961  0.00  0.00     0.003 A 
ATOM      6  C4  PXY d   1       3.546   0.231  -0.407  0.00  0.00    -0.082 A 
ATOM      7  C5  PXY d   1       2.694   0.992  -1.125  0.00  0.00     0.003 A 
ATOM      8  C6  PXY d   1       1.806   1.830  -0.457  0.00  0.00     0.003 A 
ENDROOT
TORSDOF 0
ENDMDL
