MODEL 1
REMARK minimizedAffinity 1.98623753
REMARK minimizedRMSD -1
REMARK  0 active torsions:
REMARK  status: ('A' for Active; 'I' for Inactive)
ROOT
ATOM      1  C4' PXY d   1      -2.243  -5.621  -2.365  0.00  0.00     0.077 C 
ATOM      2  C1' PXY d   1      -0.167  -1.556   1.181  0.00  0.00     0.077 C 
ATOM      3  C1  PXY d   1      -0.723  -2.617   0.253  0.00  0.00    -0.082 A 
ATOM      4  C2  PXY d   1      -0.086  -3.769   0.119  0.00  0.00     0.003 A 
ATOM      5  C3  PXY d   1      -0.557  -4.727  -0.741  0.00  0.00     0.003 A 
ATOM      6  C4  PXY d   1      -1.723  -4.525  -1.431  0.00  0.00    -0.082 A 
ATOM      7  C5  PXY d   1      -2.385  -3.357  -1.292  0.00  0.00     0.003 A 
ATOM      8  C6  PXY d   1      -1.867  -2.381  -0.445  0.00  0.00     0.003 A 
ENDROOT
TORSDOF 0
ENDMDL
