MODEL 1
REMARK minimizedAffinity -0.822267592
REMARK minimizedRMSD -1
REMARK  0 active torsions:
REMARK  status: ('A' for Active; 'I' for Inactive)
ROOT
ATOM      1  C4' PXY d   1      -5.992  -1.169   5.975  0.00  0.00     0.077 C 
ATOM      2  C1' PXY d   1      -3.732   3.242   3.000  0.00  0.00     0.077 C 
ATOM      3  C1  PXY d   1      -4.318   2.089   3.791  0.00  0.00    -0.082 A 
ATOM      4  C2  PXY d   1      -4.740   1.008   3.155  0.00  0.00     0.003 A 
ATOM      5  C3  PXY d   1      -5.302  -0.031   3.852  0.00  0.00     0.003 A 
ATOM      6  C4  PXY d   1      -5.385   0.015   5.218  0.00  0.00    -0.082 A 
ATOM      7  C5  PXY d   1      -4.947   1.111   5.874  0.00  0.00     0.003 A 
ATOM      8  C6  PXY d   1      -4.417   2.172   5.145  0.00  0.00     0.003 A 
ENDROOT
TORSDOF 0
ENDMDL
