MODEL 1
REMARK minimizedAffinity 8.86656666
REMARK minimizedRMSD -1
REMARK  0 active torsions:
REMARK  status: ('A' for Active; 'I' for Inactive)
ROOT
ATOM      1  C4' PXY d   1       4.098   1.876  -1.610  0.00  0.00     0.077 C 
ATOM      2  C1' PXY d   1      -1.012  -0.245  -3.285  0.00  0.00     0.077 C 
ATOM      3  C1  PXY d   1       0.328   0.304  -2.835  0.00  0.00    -0.082 A 
ATOM      4  C2  PXY d   1       0.730   1.487  -3.271  0.00  0.00     0.003 A 
ATOM      5  C3  PXY d   1       1.952   1.984  -2.900  0.00  0.00     0.003 A 
ATOM      6  C4  PXY d   1       2.749   1.287  -2.031  0.00  0.00    -0.082 A 
ATOM      7  C5  PXY d   1       2.341   0.084  -1.573  0.00  0.00     0.003 A 
ATOM      8  C6  PXY d   1       1.114  -0.421  -1.995  0.00  0.00     0.003 A 
ENDROOT
TORSDOF 0
ENDMDL
