MODEL 1
REMARK minimizedAffinity -0.583019137
REMARK minimizedRMSD -1
REMARK  0 active torsions:
REMARK  status: ('A' for Active; 'I' for Inactive)
ROOT
ATOM      1  C4' PXY d   1       0.078  -3.052   1.105  0.00  0.00     0.077 C 
ATOM      2  C1' PXY d   1       1.470   2.540   1.560  0.00  0.00     0.077 C 
ATOM      3  C1  PXY d   1       1.107   1.074   1.428  0.00  0.00    -0.082 A 
ATOM      4  C2  PXY d   1       0.283   0.522   2.303  0.00  0.00     0.003 A 
ATOM      5  C3  PXY d   1      -0.030  -0.810   2.217  0.00  0.00     0.003 A 
ATOM      6  C4  PXY d   1       0.464  -1.573   1.194  0.00  0.00    -0.082 A 
ATOM      7  C5  PXY d   1       1.298  -1.015   0.290  0.00  0.00     0.003 A 
ATOM      8  C6  PXY d   1       1.636   0.329   0.419  0.00  0.00     0.003 A 
ENDROOT
TORSDOF 0
ENDMDL
