MODEL 1
REMARK minimizedAffinity 12.3296137
REMARK minimizedRMSD -1
REMARK  0 active torsions:
REMARK  status: ('A' for Active; 'I' for Inactive)
ROOT
ATOM      1  C4' PXY d   1      -5.999  -5.245  -2.251  0.00  0.00     0.077 C 
ATOM      2  C1' PXY d   1      -0.763  -5.538  -4.683  0.00  0.00     0.077 C 
ATOM      3  C1  PXY d   1      -2.140  -5.454  -4.055  0.00  0.00    -0.082 A 
ATOM      4  C2  PXY d   1      -2.278  -5.641  -2.753  0.00  0.00     0.003 A 
ATOM      5  C3  PXY d   1      -3.520  -5.600  -2.173  0.00  0.00     0.003 A 
ATOM      6  C4  PXY d   1      -4.626  -5.311  -2.927  0.00  0.00    -0.082 A 
ATOM      7  C5  PXY d   1      -4.493  -5.109  -4.255  0.00  0.00     0.003 A 
ATOM      8  C6  PXY d   1      -3.228  -5.196  -4.830  0.00  0.00     0.003 A 
ENDROOT
TORSDOF 0
ENDMDL
