MODEL 1
REMARK minimizedAffinity 7.40904808
REMARK minimizedRMSD -1
REMARK  0 active torsions:
REMARK  status: ('A' for Active; 'I' for Inactive)
ROOT
ATOM      1  C4' PXY d   1       2.529   4.146   1.323  0.00  0.00     0.077 C 
ATOM      2  C1' PXY d   1       2.060  -1.109  -1.039  0.00  0.00     0.077 C 
ATOM      3  C1  PXY d   1       2.173   0.266  -0.412  0.00  0.00    -0.082 A 
ATOM      4  C2  PXY d   1       2.795   1.234  -1.066  0.00  0.00     0.003 A 
ATOM      5  C3  PXY d   1       2.934   2.475  -0.500  0.00  0.00     0.003 A 
ATOM      6  C4  PXY d   1       2.384   2.744   0.724  0.00  0.00    -0.082 A 
ATOM      7  C5  PXY d   1       1.738   1.765   1.393  0.00  0.00     0.003 A 
ATOM      8  C6  PXY d   1       1.644   0.500   0.819  0.00  0.00     0.003 A 
ENDROOT
TORSDOF 0
ENDMDL
