MODEL 1
REMARK minimizedAffinity 6.10794735
REMARK minimizedRMSD -1
REMARK  0 active torsions:
REMARK  status: ('A' for Active; 'I' for Inactive)
ROOT
ATOM      1  C4' PXY d   1       0.576  -1.128  -3.363  0.00  0.00     0.077 C 
ATOM      2  C1' PXY d   1       2.874   2.521   0.486  0.00  0.00     0.077 C 
ATOM      3  C1  PXY d   1       2.261   1.573  -0.525  0.00  0.00    -0.082 A 
ATOM      4  C2  PXY d   1       2.559   0.284  -0.477  0.00  0.00     0.003 A 
ATOM      5  C3  PXY d   1       2.039  -0.583  -1.403  0.00  0.00     0.003 A 
ATOM      6  C4  PXY d   1       1.164  -0.135  -2.356  0.00  0.00    -0.082 A 
ATOM      7  C5  PXY d   1       0.847   1.176  -2.405  0.00  0.00     0.003 A 
ATOM      8  C6  PXY d   1       1.418   2.047  -1.481  0.00  0.00     0.003 A 
ENDROOT
TORSDOF 0
ENDMDL
