MODEL 1
REMARK minimizedAffinity 8.52005768
REMARK minimizedRMSD -1
REMARK  0 active torsions:
REMARK  status: ('A' for Active; 'I' for Inactive)
ROOT
ATOM      1  C4' PXY d   1       0.767  -1.492  -2.795  0.00  0.00     0.077 C 
ATOM      2  C1' PXY d   1       2.037   2.748   0.923  0.00  0.00     0.077 C 
ATOM      3  C1  PXY d   1       1.694   1.643  -0.057  0.00  0.00    -0.082 A 
ATOM      4  C2  PXY d   1       2.032   0.395   0.221  0.00  0.00     0.003 A 
ATOM      5  C3  PXY d   1       1.758  -0.612  -0.669  0.00  0.00     0.003 A 
ATOM      6  C4  PXY d   1       1.084  -0.346  -1.831  0.00  0.00    -0.082 A 
ATOM      7  C5  PXY d   1       0.727   0.924  -2.116  0.00  0.00     0.003 A 
ATOM      8  C6  PXY d   1       1.051   1.938  -1.219  0.00  0.00     0.003 A 
ENDROOT
TORSDOF 0
ENDMDL
