MODEL 1
REMARK minimizedAffinity 4.2918067
REMARK minimizedRMSD -1
REMARK  0 active torsions:
REMARK  status: ('A' for Active; 'I' for Inactive)
ROOT
ATOM      1  C4' PXY d   1      -0.632  -1.645   0.423  0.00  0.00     0.077 C 
ATOM      2  C1' PXY d   1       2.940   2.897   0.593  0.00  0.00     0.077 C 
ATOM      3  C1  PXY d   1       2.001   1.708   0.536  0.00  0.00    -0.082 A 
ATOM      4  C2  PXY d   1       1.396   1.299   1.639  0.00  0.00     0.003 A 
ATOM      5  C3  PXY d   1       0.568   0.206   1.611  0.00  0.00     0.003 A 
ATOM      6  C4  PXY d   1       0.316  -0.443   0.432  0.00  0.00    -0.082 A 
ATOM      7  C5  PXY d   1       0.922  -0.025  -0.700  0.00  0.00     0.003 A 
ATOM      8  C6  PXY d   1       1.790   1.062  -0.643  0.00  0.00     0.003 A 
ENDROOT
TORSDOF 0
ENDMDL
