MODEL 1
REMARK minimizedAffinity 4.0846324
REMARK minimizedRMSD -1
REMARK  0 active torsions:
REMARK  status: ('A' for Active; 'I' for Inactive)
ROOT
ATOM      1  C4' PXY d   1      -2.692   1.630   1.932  0.00  0.00     0.077 C 
ATOM      2  C1' PXY d   1       3.086   1.510   2.081  0.00  0.00     0.077 C 
ATOM      3  C1  PXY d   1       1.571   1.533   2.032  0.00  0.00    -0.082 A 
ATOM      4  C2  PXY d   1       0.916   2.577   2.514  0.00  0.00     0.003 A 
ATOM      5  C3  PXY d   1      -0.455   2.600   2.507  0.00  0.00     0.003 A 
ATOM      6  C4  PXY d   1      -1.162   1.567   1.952  0.00  0.00    -0.082 A 
ATOM      7  C5  PXY d   1      -0.501   0.504   1.448  0.00  0.00     0.003 A 
ATOM      8  C6  PXY d   1       0.889   0.481   1.502  0.00  0.00     0.003 A 
ENDROOT
TORSDOF 0
ENDMDL
