MODEL 1
REMARK minimizedAffinity 0.253860265
REMARK minimizedRMSD -1
REMARK  0 active torsions:
REMARK  status: ('A' for Active; 'I' for Inactive)
ROOT
ATOM      1  C4' PXY d   1      -4.521  -5.099  -3.132  0.00  0.00     0.077 C 
ATOM      2  C1' PXY d   1      -0.489  -5.194   1.008  0.00  0.00     0.077 C 
ATOM      3  C1  PXY d   1      -1.537  -5.165  -0.086  0.00  0.00    -0.082 A 
ATOM      4  C2  PXY d   1      -2.817  -5.071   0.237  0.00  0.00     0.003 A 
ATOM      5  C3  PXY d   1      -3.781  -5.075  -0.739  0.00  0.00     0.003 A 
ATOM      6  C4  PXY d   1      -3.428  -5.122  -2.061  0.00  0.00    -0.082 A 
ATOM      7  C5  PXY d   1      -2.123  -5.208  -2.399  0.00  0.00     0.003 A 
ATOM      8  C6  PXY d   1      -1.163  -5.243  -1.392  0.00  0.00     0.003 A 
ENDROOT
TORSDOF 0
ENDMDL
