MODEL 1
REMARK minimizedAffinity 4.44865227
REMARK minimizedRMSD -1
REMARK  0 active torsions:
REMARK  status: ('A' for Active; 'I' for Inactive)
ROOT
ATOM      1  C4' PXY d   1      -0.050  -1.162   2.410  0.00  0.00     0.077 C 
ATOM      2  C1' PXY d   1       0.595   0.834  -2.977  0.00  0.00     0.077 C 
ATOM      3  C1  PXY d   1       0.436   0.317  -1.560  0.00  0.00    -0.082 A 
ATOM      4  C2  PXY d   1      -0.249  -0.794  -1.342  0.00  0.00     0.003 A 
ATOM      5  C3  PXY d   1      -0.428  -1.259  -0.064  0.00  0.00     0.003 A 
ATOM      6  C4  PXY d   1       0.143  -0.608   0.996  0.00  0.00    -0.082 A 
ATOM      7  C5  PXY d   1       0.853   0.520   0.781  0.00  0.00     0.003 A 
ATOM      8  C6  PXY d   1       0.989   0.998  -0.520  0.00  0.00     0.003 A 
ENDROOT
TORSDOF 0
ENDMDL
