MODEL 1
REMARK minimizedAffinity 8.63110447
REMARK minimizedRMSD -1
REMARK  0 active torsions:
REMARK  status: ('A' for Active; 'I' for Inactive)
ROOT
ATOM      1  C4' PXY d   1      -1.435  -1.258  -3.005  0.00  0.00     0.077 C 
ATOM      2  C1' PXY d   1       3.059   1.970  -1.334  0.00  0.00     0.077 C 
ATOM      3  C1  PXY d   1       1.875   1.134  -1.777  0.00  0.00    -0.082 A 
ATOM      4  C2  PXY d   1       1.587   0.014  -1.134  0.00  0.00     0.003 A 
ATOM      5  C3  PXY d   1       0.539  -0.770  -1.542  0.00  0.00     0.003 A 
ATOM      6  C4  PXY d   1      -0.255  -0.378  -2.586  0.00  0.00    -0.082 A 
ATOM      7  C5  PXY d   1       0.026   0.769  -3.241  0.00  0.00     0.003 A 
ATOM      8  C6  PXY d   1       1.119   1.530  -2.837  0.00  0.00     0.003 A 
ENDROOT
TORSDOF 0
ENDMDL
