MODEL 1
REMARK minimizedAffinity 3.2230649
REMARK minimizedRMSD -1
REMARK  0 active torsions:
REMARK  status: ('A' for Active; 'I' for Inactive)
ROOT
ATOM      1  C4' PXY d   1      -2.929   1.395   2.409  0.00  0.00     0.077 C 
ATOM      2  C1' PXY d   1       2.839   1.336   2.031  0.00  0.00     0.077 C 
ATOM      3  C1  PXY d   1       1.326   1.339   2.125  0.00  0.00    -0.082 A 
ATOM      4  C2  PXY d   1       0.673   2.490   2.128  0.00  0.00     0.003 A 
ATOM      5  C3  PXY d   1      -0.693   2.513   2.245  0.00  0.00     0.003 A 
ATOM      6  C4  PXY d   1      -1.402   1.343   2.306  0.00  0.00    -0.082 A 
ATOM      7  C5  PXY d   1      -0.744   0.164   2.292  0.00  0.00     0.003 A 
ATOM      8  C6  PXY d   1       0.645   0.164   2.215  0.00  0.00     0.003 A 
ENDROOT
TORSDOF 0
ENDMDL
