MODEL 1
REMARK minimizedAffinity -5.112782
REMARK minimizedRMSD -1
REMARK  1 active torsions:
REMARK  status: ('A' for Active; 'I' for Inactive)
REMARK    1  A    between atoms: C3_4  and  O_7 
ROOT
ATOM      1  C   UNL d   1      -0.083  -0.269  -0.373  0.00  0.00    -0.033 A 
ATOM      2  C1  UNL d   1       1.246  -0.588  -0.088  0.00  0.00     0.039 A 
ATOM      3  C2  UNL d   1       1.687  -0.635   1.236  0.00  0.00    -0.080 A 
ATOM      4  C3  UNL d   1       0.789  -0.363   2.265  0.00  0.00     0.150 A 
ATOM      5  C4  UNL d   1      -0.537  -0.048   1.989  0.00  0.00    -0.007 A 
ATOM      6  C5  UNL d   1      -0.975  -0.000   0.666  0.00  0.00     0.039 A 
ENDROOT
BRANCH   4   7
ATOM      7  O   UNL d   1       1.174  -0.392   3.572  0.00  0.00    -0.526 OA
ATOM      8  H5  UNL d   1       2.123  -0.595   3.609  0.00  0.00     0.418 HD
ENDBRANCH   4   7
TORSDOF 1
ENDMDL
