MODEL 1
REMARK minimizedAffinity -4.11350632
REMARK minimizedRMSD -1
REMARK  1 active torsions:
REMARK  status: ('A' for Active; 'I' for Inactive)
REMARK    1  A    between atoms: C3_4  and  O_7 
ROOT
ATOM      1  C   UNL d   1       0.097  -0.386  -0.432  0.00  0.00    -0.033 A 
ATOM      2  C1  UNL d   1       1.426  -0.747  -0.201  0.00  0.00     0.039 A 
ATOM      3  C2  UNL d   1       1.891  -0.906   1.106  0.00  0.00    -0.080 A 
ATOM      4  C3  UNL d   1       1.018  -0.703   2.171  0.00  0.00     0.150 A 
ATOM      5  C4  UNL d   1      -0.308  -0.347   1.948  0.00  0.00    -0.007 A 
ATOM      6  C5  UNL d   1      -0.770  -0.188   0.642  0.00  0.00     0.039 A 
ENDROOT
BRANCH   4   7
ATOM      7  O   UNL d   1       1.427  -0.843   3.464  0.00  0.00    -0.526 OA
ATOM      8  H5  UNL d   1       2.373  -1.063   3.466  0.00  0.00     0.418 HD
ENDBRANCH   4   7
TORSDOF 1
ENDMDL
