MODEL 1
REMARK minimizedAffinity -4.12994194
REMARK minimizedRMSD -1
REMARK  1 active torsions:
REMARK  status: ('A' for Active; 'I' for Inactive)
REMARK    1  A    between atoms: C3_4  and  O_7 
ROOT
ATOM      1  C   UNL d   1      -0.172  -0.334  -0.477  0.00  0.00    -0.033 A 
ATOM      2  C1  UNL d   1      -1.087  -0.313   0.577  0.00  0.00     0.039 A 
ATOM      3  C2  UNL d   1      -0.634  -0.250   1.896  0.00  0.00    -0.080 A 
ATOM      4  C3  UNL d   1       0.734  -0.208   2.148  0.00  0.00     0.150 A 
ATOM      5  C4  UNL d   1       1.652  -0.225   1.102  0.00  0.00    -0.007 A 
ATOM      6  C5  UNL d   1       1.198  -0.288  -0.214  0.00  0.00     0.039 A 
ENDROOT
BRANCH   4   7
ATOM      7  O   UNL d   1       1.224  -0.151   3.419  0.00  0.00    -0.526 OA
ATOM      8  H5  UNL d   1       0.475  -0.175   4.038  0.00  0.00     0.418 HD
ENDBRANCH   4   7
TORSDOF 1
ENDMDL
