MODEL 1
REMARK minimizedAffinity -5.2367897
REMARK minimizedRMSD -1
REMARK  1 active torsions:
REMARK  status: ('A' for Active; 'I' for Inactive)
REMARK    1  A    between atoms: C3_4  and  O_7 
ROOT
ATOM      1  C   UNL d   1      -0.678  -0.139   0.021  0.00  0.00    -0.033 A 
ATOM      2  C1  UNL d   1      -1.280  -0.411   1.251  0.00  0.00     0.039 A 
ATOM      3  C2  UNL d   1      -0.506  -0.461   2.413  0.00  0.00    -0.080 A 
ATOM      4  C3  UNL d   1       0.865  -0.237   2.330  0.00  0.00     0.150 A 
ATOM      5  C4  UNL d   1       1.471   0.038   1.108  0.00  0.00    -0.007 A 
ATOM      6  C5  UNL d   1       0.697   0.086  -0.050  0.00  0.00     0.039 A 
ENDROOT
BRANCH   4   7
ATOM      7  O   UNL d   1       1.662  -0.281   3.435  0.00  0.00    -0.526 OA
ATOM      8  H5  UNL d   1       1.111  -0.509   4.203  0.00  0.00     0.418 HD
ENDBRANCH   4   7
TORSDOF 1
ENDMDL
