MODEL 1
REMARK minimizedAffinity -4.32194042
REMARK minimizedRMSD -1
REMARK  1 active torsions:
REMARK  status: ('A' for Active; 'I' for Inactive)
REMARK    1  A    between atoms: C3_4  and  O_7 
ROOT
ATOM      1  C   UNL d   1      -0.543   0.167  -0.139  0.00  0.00    -0.033 A 
ATOM      2  C1  UNL d   1       0.853   0.150  -0.128  0.00  0.00     0.039 A 
ATOM      3  C2  UNL d   1       1.541  -0.099   1.062  0.00  0.00    -0.080 A 
ATOM      4  C3  UNL d   1       0.821  -0.331   2.231  0.00  0.00     0.150 A 
ATOM      5  C4  UNL d   1      -0.570  -0.320   2.226  0.00  0.00    -0.007 A 
ATOM      6  C5  UNL d   1      -1.254  -0.070   1.038  0.00  0.00     0.039 A 
ENDROOT
BRANCH   4   7
ATOM      7  O   UNL d   1       1.448  -0.575   3.417  0.00  0.00    -0.526 OA
ATOM      8  H5  UNL d   1       2.408  -0.523   3.274  0.00  0.00     0.418 HD
ENDBRANCH   4   7
TORSDOF 1
ENDMDL
