MODEL 1
REMARK minimizedAffinity -5.25349236
REMARK minimizedRMSD -1
REMARK  1 active torsions:
REMARK  status: ('A' for Active; 'I' for Inactive)
REMARK    1  A    between atoms: C3_4  and  O_7 
ROOT
ATOM      1  C   UNL d   1       1.240  -0.724   2.326  0.00  0.00    -0.033 A 
ATOM      2  C1  UNL d   1      -0.094  -0.331   2.450  0.00  0.00     0.039 A 
ATOM      3  C2  UNL d   1      -0.852  -0.056   1.310  0.00  0.00    -0.080 A 
ATOM      4  C3  UNL d   1      -0.266  -0.179   0.054  0.00  0.00     0.150 A 
ATOM      5  C4  UNL d   1       1.062  -0.574  -0.078  0.00  0.00    -0.007 A 
ATOM      6  C5  UNL d   1       1.817  -0.847   1.062  0.00  0.00     0.039 A 
ENDROOT
BRANCH   4   7
ATOM      7  O   UNL d   1      -0.964   0.084  -1.088  0.00  0.00    -0.526 OA
ATOM      8  H5  UNL d   1      -1.858   0.373  -0.841  0.00  0.00     0.418 HD
ENDBRANCH   4   7
TORSDOF 1
ENDMDL
