MODEL 1
REMARK minimizedAffinity -3.43514919
REMARK minimizedRMSD -1
REMARK  1 active torsions:
REMARK  status: ('A' for Active; 'I' for Inactive)
REMARK    1  A    between atoms: C3_4  and  O_7 
ROOT
ATOM      1  C   UNL d   1       0.022  -0.129  -0.878  0.00  0.00    -0.033 A 
ATOM      2  C1  UNL d   1       1.265  -0.653  -0.518  0.00  0.00     0.039 A 
ATOM      3  C2  UNL d   1       1.521  -0.996   0.811  0.00  0.00    -0.080 A 
ATOM      4  C3  UNL d   1       0.526  -0.812   1.768  0.00  0.00     0.150 A 
ATOM      5  C4  UNL d   1      -0.716  -0.295   1.415  0.00  0.00    -0.007 A 
ATOM      6  C5  UNL d   1      -0.969   0.048   0.088  0.00  0.00     0.039 A 
ENDROOT
BRANCH   4   7
ATOM      7  O   UNL d   1       0.731  -1.128   3.078  0.00  0.00    -0.526 OA
ATOM      8  H5  UNL d   1       1.644  -1.447   3.179  0.00  0.00     0.418 HD
ENDBRANCH   4   7
TORSDOF 1
ENDMDL
