MODEL 1
REMARK minimizedAffinity -5.18069601
REMARK minimizedRMSD -1
REMARK  1 active torsions:
REMARK  status: ('A' for Active; 'I' for Inactive)
REMARK    1  A    between atoms: C3_4  and  O_7 
ROOT
ATOM      1  C   UNL d   1       0.020  -0.779   2.060  0.00  0.00    -0.033 A 
ATOM      2  C1  UNL d   1       1.141  -1.565   1.785  0.00  0.00     0.039 A 
ATOM      3  C2  UNL d   1       1.549  -1.764   0.464  0.00  0.00    -0.080 A 
ATOM      4  C3  UNL d   1       0.829  -1.172  -0.570  0.00  0.00     0.150 A 
ATOM      5  C4  UNL d   1      -0.286  -0.385  -0.302  0.00  0.00    -0.007 A 
ATOM      6  C5  UNL d   1      -0.693  -0.188   1.017  0.00  0.00     0.039 A 
ENDROOT
BRANCH   4   7
ATOM      7  O   UNL d   1       1.186  -1.341  -1.875  0.00  0.00    -0.526 OA
ATOM      8  H5  UNL d   1       1.957  -1.932  -1.908  0.00  0.00     0.418 HD
ENDBRANCH   4   7
TORSDOF 1
ENDMDL
