MODEL 1
REMARK minimizedAffinity 11.9343529
REMARK minimizedRMSD -1
REMARK  2 active torsions:
REMARK  status: ('A' for Active; 'I' for Inactive)
REMARK    1  A    between atoms: C1_2  and  C2_3 
REMARK    2  A    between atoms: C2_3  and  C3_4 
ROOT
ATOM      1  C3  UNL d   1      -2.636   0.032   1.509  0.00  0.00    -0.075 A 
ATOM      2  C4  UNL d   1      -1.674  -0.979   1.370  0.00  0.00     0.002 A 
ATOM      3  C5  UNL d   1      -0.826  -1.301   2.429  0.00  0.00     0.002 A 
ATOM      4  C6  UNL d   1      -0.921  -0.612   3.636  0.00  0.00    -0.004 A 
ATOM      5  C7  UNL d   1      -1.861   0.406   3.781  0.00  0.00     0.002 A 
ATOM      6  C8  UNL d   1      -2.715   0.727   2.723  0.00  0.00     0.002 A 
ENDROOT
BRANCH   1   7
ATOM      7  C2  UNL d   1      -3.577   0.365   0.376  0.00  0.00     0.056 C 
BRANCH   7   8
ATOM      8  C1  UNL d   1      -5.001   0.703   0.828  0.00  0.00     0.007 C 
ATOM      9  C   UNL d   1      -6.000  -0.413   0.553  0.00  0.00     0.009 C 
ENDBRANCH   7   8
ENDBRANCH   1   7
TORSDOF 2
ENDMDL
