MODEL 1
REMARK minimizedAffinity 13.3050413
REMARK minimizedRMSD -1
REMARK  2 active torsions:
REMARK  status: ('A' for Active; 'I' for Inactive)
REMARK    1  A    between atoms: C1_2  and  C2_3 
REMARK    2  A    between atoms: C2_3  and  C3_4 
ROOT
ATOM      1  C3  UNL d   1      -3.578   1.862   5.295  0.00  0.00    -0.075 A 
ATOM      2  C4  UNL d   1      -2.893   0.861   6.000  0.00  0.00     0.002 A 
ATOM      3  C5  UNL d   1      -1.967   0.045   5.350  0.00  0.00     0.002 A 
ATOM      4  C6  UNL d   1      -1.723   0.210   3.988  0.00  0.00    -0.004 A 
ATOM      5  C7  UNL d   1      -2.410   1.190   3.275  0.00  0.00     0.002 A 
ATOM      6  C8  UNL d   1      -3.333   2.011   3.924  0.00  0.00     0.002 A 
ENDROOT
BRANCH   1   7
ATOM      7  C2  UNL d   1      -4.559   2.768   5.999  0.00  0.00     0.056 C 
BRANCH   7   8
ATOM      8  C1  UNL d   1      -4.514   4.225   5.525  0.00  0.00     0.007 C 
ATOM      9  C   UNL d   1      -5.794   4.993   5.823  0.00  0.00     0.009 C 
ENDBRANCH   7   8
ENDBRANCH   1   7
TORSDOF 2
ENDMDL
