MODEL 1
REMARK minimizedAffinity 3.30780458
REMARK minimizedRMSD -1
REMARK  2 active torsions:
REMARK  status: ('A' for Active; 'I' for Inactive)
REMARK    1  A    between atoms: C1_2  and  C2_3 
REMARK    2  A    between atoms: C2_3  and  C3_4 
ROOT
ATOM      1  C3  UNL d   1       5.211   5.318  -1.057  0.00  0.00    -0.075 A 
ATOM      2  C4  UNL d   1       6.000   4.229  -0.658  0.00  0.00     0.002 A 
ATOM      3  C5  UNL d   1       5.814   3.641   0.593  0.00  0.00     0.002 A 
ATOM      4  C6  UNL d   1       4.848   4.140   1.464  0.00  0.00    -0.004 A 
ATOM      5  C7  UNL d   1       4.070   5.232   1.085  0.00  0.00     0.002 A 
ATOM      6  C8  UNL d   1       4.251   5.819  -0.168  0.00  0.00     0.002 A 
ENDROOT
BRANCH   1   7
ATOM      7  C2  UNL d   1       5.387   5.941  -2.422  0.00  0.00     0.056 C 
BRANCH   7   8
ATOM      8  C1  UNL d   1       5.854   4.957  -3.500  0.00  0.00     0.007 C 
ATOM      9  C   UNL d   1       4.706   4.221  -4.178  0.00  0.00     0.009 C 
ENDBRANCH   7   8
ENDBRANCH   1   7
TORSDOF 2
ENDMDL
