MODEL 1
REMARK minimizedAffinity 13.351737
REMARK minimizedRMSD -1
REMARK  2 active torsions:
REMARK  status: ('A' for Active; 'I' for Inactive)
REMARK    1  A    between atoms: C1_2  and  C2_3 
REMARK    2  A    between atoms: C2_3  and  C3_4 
ROOT
ATOM      1  C3  UNL d   1      -3.692   1.925   5.211  0.00  0.00    -0.075 A 
ATOM      2  C4  UNL d   1      -2.833   1.127   5.981  0.00  0.00     0.002 A 
ATOM      3  C5  UNL d   1      -1.894   0.300   5.365  0.00  0.00     0.002 A 
ATOM      4  C6  UNL d   1      -1.808   0.250   3.976  0.00  0.00    -0.004 A 
ATOM      5  C7  UNL d   1      -2.668   1.025   3.201  0.00  0.00     0.002 A 
ATOM      6  C8  UNL d   1      -3.606   1.858   3.814  0.00  0.00     0.002 A 
ENDROOT
BRANCH   1   7
ATOM      7  C2  UNL d   1      -4.691   2.845   5.871  0.00  0.00     0.056 C 
BRANCH   7   8
ATOM      8  C1  UNL d   1      -4.213   4.295   5.999  0.00  0.00     0.007 C 
ATOM      9  C   UNL d   1      -5.353   5.305   5.999  0.00  0.00     0.009 C 
ENDBRANCH   7   8
ENDBRANCH   1   7
TORSDOF 2
ENDMDL
