MODEL 1
REMARK minimizedAffinity 20.3800259
REMARK minimizedRMSD -1
REMARK  2 active torsions:
REMARK  status: ('A' for Active; 'I' for Inactive)
REMARK    1  A    between atoms: C1_2  and  C2_3 
REMARK    2  A    between atoms: C2_3  and  C3_4 
ROOT
ATOM      1  C3  UNL d   1      -3.518   2.151   5.270  0.00  0.00    -0.075 A 
ATOM      2  C4  UNL d   1      -3.392   2.243   3.876  0.00  0.00     0.002 A 
ATOM      3  C5  UNL d   1      -2.404   1.522   3.206  0.00  0.00     0.002 A 
ATOM      4  C6  UNL d   1      -1.524   0.710   3.919  0.00  0.00    -0.004 A 
ATOM      5  C7  UNL d   1      -1.630   0.625   5.305  0.00  0.00     0.002 A 
ATOM      6  C8  UNL d   1      -2.620   1.342   5.979  0.00  0.00     0.002 A 
ENDROOT
BRANCH   1   7
ATOM      7  C2  UNL d   1      -4.604   2.906   5.999  0.00  0.00     0.056 C 
BRANCH   7   8
ATOM      8  C1  UNL d   1      -4.414   4.427   6.000  0.00  0.00     0.007 C 
ATOM      9  C   UNL d   1      -5.625   5.184   5.472  0.00  0.00     0.009 C 
ENDBRANCH   7   8
ENDBRANCH   1   7
TORSDOF 2
ENDMDL
