MODEL 1
REMARK minimizedAffinity 8.31567287
REMARK minimizedRMSD -1
REMARK  2 active torsions:
REMARK  status: ('A' for Active; 'I' for Inactive)
REMARK    1  A    between atoms: C1_2  and  C2_3 
REMARK    2  A    between atoms: C2_3  and  C3_4 
ROOT
ATOM      1  C3  UNL d   1      -2.796   1.173   3.401  0.00  0.00    -0.075 A 
ATOM      2  C4  UNL d   1      -3.961   0.976   2.645  0.00  0.00     0.002 A 
ATOM      3  C5  UNL d   1      -3.990   0.028   1.622  0.00  0.00     0.002 A 
ATOM      4  C6  UNL d   1      -2.855  -0.725   1.334  0.00  0.00    -0.004 A 
ATOM      5  C7  UNL d   1      -1.687  -0.527   2.067  0.00  0.00     0.002 A 
ATOM      6  C8  UNL d   1      -1.656   0.418   3.095  0.00  0.00     0.002 A 
ENDROOT
BRANCH   1   7
ATOM      7  C2  UNL d   1      -2.767   2.176   4.530  0.00  0.00     0.056 C 
BRANCH   7   8
ATOM      8  C1  UNL d   1      -4.120   2.376   5.221  0.00  0.00     0.007 C 
ATOM      9  C   UNL d   1      -4.211   3.683   5.996  0.00  0.00     0.009 C 
ENDBRANCH   7   8
ENDBRANCH   1   7
TORSDOF 2
ENDMDL
