MODEL 1
REMARK minimizedAffinity 4.47862577
REMARK minimizedRMSD -1
REMARK  2 active torsions:
REMARK  status: ('A' for Active; 'I' for Inactive)
REMARK    1  A    between atoms: C1_2  and  C2_3 
REMARK    2  A    between atoms: C2_3  and  C3_4 
ROOT
ATOM      1  C3  UNL d   1      -0.712  -0.089   3.995  0.00  0.00    -0.075 A 
ATOM      2  C4  UNL d   1      -1.275  -0.643   2.836  0.00  0.00     0.002 A 
ATOM      3  C5  UNL d   1      -0.606  -1.644   2.132  0.00  0.00     0.002 A 
ATOM      4  C6  UNL d   1       0.637  -2.096   2.571  0.00  0.00    -0.004 A 
ATOM      5  C7  UNL d   1       1.213  -1.541   3.711  0.00  0.00     0.002 A 
ATOM      6  C8  UNL d   1       0.544  -0.542   4.420  0.00  0.00     0.002 A 
ENDROOT
BRANCH   1   7
ATOM      7  C2  UNL d   1      -1.445   0.975   4.777  0.00  0.00     0.056 C 
BRANCH   7   8
ATOM      8  C1  UNL d   1      -2.373   1.847   3.926  0.00  0.00     0.007 C 
ATOM      9  C   UNL d   1      -3.276   2.751   4.756  0.00  0.00     0.009 C 
ENDBRANCH   7   8
ENDBRANCH   1   7
TORSDOF 2
ENDMDL
