MODEL 1
REMARK minimizedAffinity 8.65489388
REMARK minimizedRMSD -1
REMARK  2 active torsions:
REMARK  status: ('A' for Active; 'I' for Inactive)
REMARK    1  A    between atoms: C1_2  and  C2_3 
REMARK    2  A    between atoms: C2_3  and  C3_4 
ROOT
ATOM      1  C3  UNL d   1      -3.483   0.843   3.553  0.00  0.00    -0.075 A 
ATOM      2  C4  UNL d   1      -4.614   0.393   2.856  0.00  0.00     0.002 A 
ATOM      3  C5  UNL d   1      -4.495  -0.585   1.868  0.00  0.00     0.002 A 
ATOM      4  C6  UNL d   1      -3.246  -1.117   1.557  0.00  0.00    -0.004 A 
ATOM      5  C7  UNL d   1      -2.113  -0.665   2.231  0.00  0.00     0.002 A 
ATOM      6  C8  UNL d   1      -2.230   0.309   3.224  0.00  0.00     0.002 A 
ENDROOT
BRANCH   1   7
ATOM      7  C2  UNL d   1      -3.609   1.879   4.644  0.00  0.00     0.056 C 
BRANCH   7   8
ATOM      8  C1  UNL d   1      -5.013   1.980   5.249  0.00  0.00     0.007 C 
ATOM      9  C   UNL d   1      -5.251   3.283   6.000  0.00  0.00     0.009 C 
ENDBRANCH   7   8
ENDBRANCH   1   7
TORSDOF 2
ENDMDL
