MODEL 1
REMARK minimizedAffinity 4.09360504
REMARK minimizedRMSD -1
REMARK  2 active torsions:
REMARK  status: ('A' for Active; 'I' for Inactive)
REMARK    1  A    between atoms: C1_2  and  C2_3 
REMARK    2  A    between atoms: C2_3  and  C3_4 
ROOT
ATOM      1  C3  UNL d   1       3.557  -3.607  -0.162  0.00  0.00    -0.075 A 
ATOM      2  C4  UNL d   1       3.664  -4.996  -0.328  0.00  0.00     0.002 A 
ATOM      3  C5  UNL d   1       4.880  -5.574  -0.693  0.00  0.00     0.002 A 
ATOM      4  C6  UNL d   1       6.000  -4.773  -0.906  0.00  0.00    -0.004 A 
ATOM      5  C7  UNL d   1       5.901  -3.391  -0.760  0.00  0.00     0.002 A 
ATOM      6  C8  UNL d   1       4.687  -2.810  -0.391  0.00  0.00     0.002 A 
ENDROOT
BRANCH   1   7
ATOM      7  C2  UNL d   1       2.252  -2.978   0.262  0.00  0.00     0.056 C 
BRANCH   7   8
ATOM      8  C1  UNL d   1       2.372  -2.048   1.473  0.00  0.00     0.007 C 
ATOM      9  C   UNL d   1       1.174  -2.125   2.410  0.00  0.00     0.009 C 
ENDBRANCH   7   8
ENDBRANCH   1   7
TORSDOF 2
ENDMDL
