MODEL 1
REMARK minimizedAffinity 16.5133438
REMARK minimizedRMSD -1
REMARK  2 active torsions:
REMARK  status: ('A' for Active; 'I' for Inactive)
REMARK    1  A    between atoms: C1_2  and  C2_3 
REMARK    2  A    between atoms: C2_3  and  C3_4 
ROOT
ATOM      1  C3  UNL d   1      -3.443  -0.141   1.559  0.00  0.00    -0.075 A 
ATOM      2  C4  UNL d   1      -2.793   0.679   2.492  0.00  0.00     0.002 A 
ATOM      3  C5  UNL d   1      -1.454   0.461   2.815  0.00  0.00     0.002 A 
ATOM      4  C6  UNL d   1      -0.751  -0.583   2.218  0.00  0.00    -0.004 A 
ATOM      5  C7  UNL d   1      -1.391  -1.414   1.302  0.00  0.00     0.002 A 
ATOM      6  C8  UNL d   1      -2.730  -1.196   0.973  0.00  0.00     0.002 A 
ENDROOT
BRANCH   1   7
ATOM      7  C2  UNL d   1      -4.884   0.107   1.183  0.00  0.00     0.056 C 
BRANCH   7   8
ATOM      8  C1  UNL d   1      -5.105   0.353  -0.314  0.00  0.00     0.007 C 
ATOM      9  C   UNL d   1      -5.542   1.777  -0.630  0.00  0.00     0.009 C 
ENDBRANCH   7   8
ENDBRANCH   1   7
TORSDOF 2
ENDMDL
