MODEL 1
REMARK minimizedAffinity 7.89379835
REMARK minimizedRMSD -1
REMARK  2 active torsions:
REMARK  status: ('A' for Active; 'I' for Inactive)
REMARK    1  A    between atoms: C1_2  and  C2_3 
REMARK    2  A    between atoms: C2_3  and  C3_4 
ROOT
ATOM      1  C3  UNL d   1      -2.672  -1.778   0.484  0.00  0.00    -0.075 A 
ATOM      2  C4  UNL d   1      -4.040  -1.472   0.543  0.00  0.00     0.002 A 
ATOM      3  C5  UNL d   1      -4.756  -1.202  -0.623  0.00  0.00     0.002 A 
ATOM      4  C6  UNL d   1      -4.114  -1.224  -1.860  0.00  0.00    -0.004 A 
ATOM      5  C7  UNL d   1      -2.752  -1.511  -1.928  0.00  0.00     0.002 A 
ATOM      6  C8  UNL d   1      -2.034  -1.786  -0.764  0.00  0.00     0.002 A 
ENDROOT
BRANCH   1   7
ATOM      7  C2  UNL d   1      -1.898  -2.101   1.740  0.00  0.00     0.056 C 
BRANCH   7   8
ATOM      8  C1  UNL d   1      -0.690  -1.189   1.978  0.00  0.00     0.007 C 
ATOM      9  C   UNL d   1      -0.775  -0.409   3.283  0.00  0.00     0.009 C 
ENDBRANCH   7   8
ENDBRANCH   1   7
TORSDOF 2
ENDMDL
