MODEL 1
REMARK minimizedAffinity 5.08174086
REMARK minimizedRMSD -1
REMARK  2 active torsions:
REMARK  status: ('A' for Active; 'I' for Inactive)
REMARK    1  A    between atoms: C1_2  and  C2_3 
REMARK    2  A    between atoms: C2_3  and  C3_4 
ROOT
ATOM      1  C3  UNL d   1      -3.056   0.974   3.687  0.00  0.00    -0.075 A 
ATOM      2  C4  UNL d   1      -4.231   0.739   2.959  0.00  0.00     0.002 A 
ATOM      3  C5  UNL d   1      -4.241  -0.173   1.904  0.00  0.00     0.002 A 
ATOM      4  C6  UNL d   1      -3.077  -0.854   1.557  0.00  0.00    -0.004 A 
ATOM      5  C7  UNL d   1      -1.899  -0.617   2.262  0.00  0.00     0.002 A 
ATOM      6  C8  UNL d   1      -1.887   0.292   3.321  0.00  0.00     0.002 A 
ENDROOT
BRANCH   1   7
ATOM      7  C2  UNL d   1      -3.045   1.938   4.849  0.00  0.00     0.056 C 
BRANCH   7   8
ATOM      8  C1  UNL d   1      -4.098   1.636   5.920  0.00  0.00     0.007 C 
ATOM      9  C   UNL d   1      -5.195   2.689   5.998  0.00  0.00     0.009 C 
ENDBRANCH   7   8
ENDBRANCH   1   7
TORSDOF 2
ENDMDL
