MODEL 1
REMARK minimizedAffinity 9.35284901
REMARK minimizedRMSD -1
REMARK  2 active torsions:
REMARK  status: ('A' for Active; 'I' for Inactive)
REMARK    1  A    between atoms: C1_2  and  C2_3 
REMARK    2  A    between atoms: C2_3  and  C3_4 
ROOT
ATOM      1  C3  UNL d   1       1.764   2.828  -0.780  0.00  0.00    -0.075 A 
ATOM      2  C4  UNL d   1       1.387   4.175  -0.881  0.00  0.00     0.002 A 
ATOM      3  C5  UNL d   1       1.234   4.776  -2.131  0.00  0.00     0.002 A 
ATOM      4  C6  UNL d   1       1.465   4.043  -3.292  0.00  0.00    -0.004 A 
ATOM      5  C7  UNL d   1       1.856   2.708  -3.204  0.00  0.00     0.002 A 
ATOM      6  C8  UNL d   1       2.006   2.103  -1.954  0.00  0.00     0.002 A 
ENDROOT
BRANCH   1   7
ATOM      7  C2  UNL d   1       1.902   2.164   0.569  0.00  0.00     0.056 C 
BRANCH   7   8
ATOM      8  C1  UNL d   1       3.283   1.551   0.824  0.00  0.00     0.007 C 
ATOM      9  C   UNL d   1       3.976   2.120   2.055  0.00  0.00     0.009 C 
ENDBRANCH   7   8
ENDBRANCH   1   7
TORSDOF 2
ENDMDL
