MODEL 1
REMARK minimizedAffinity -0.715081751
REMARK minimizedRMSD -1
REMARK  2 active torsions:
REMARK  status: ('A' for Active; 'I' for Inactive)
REMARK    1  A    between atoms: C1_2  and  C2_3 
REMARK    2  A    between atoms: C2_3  and  C3_4 
ROOT
ATOM      1  C3  UNL d   1      -4.632   1.126   4.621  0.00  0.00    -0.075 A 
ATOM      2  C4  UNL d   1      -3.278   0.998   4.278  0.00  0.00     0.002 A 
ATOM      3  C5  UNL d   1      -2.907   0.598   2.994  0.00  0.00     0.002 A 
ATOM      4  C6  UNL d   1      -3.883   0.311   2.042  0.00  0.00    -0.004 A 
ATOM      5  C7  UNL d   1      -5.231   0.419   2.376  0.00  0.00     0.002 A 
ATOM      6  C8  UNL d   1      -5.605   0.823   3.659  0.00  0.00     0.002 A 
ENDROOT
BRANCH   1   7
ATOM      7  C2  UNL d   1      -5.040   1.587   6.000  0.00  0.00     0.056 C 
BRANCH   7   8
ATOM      8  C1  UNL d   1      -6.000   2.781   6.000  0.00  0.00     0.007 C 
ATOM      9  C   UNL d   1      -5.286   4.126   5.992  0.00  0.00     0.009 C 
ENDBRANCH   7   8
ENDBRANCH   1   7
TORSDOF 2
ENDMDL
