MODEL 1
REMARK minimizedAffinity 9.31957626
REMARK minimizedRMSD -1
REMARK  2 active torsions:
REMARK  status: ('A' for Active; 'I' for Inactive)
REMARK    1  A    between atoms: C1_2  and  C2_3 
REMARK    2  A    between atoms: C2_3  and  C3_4 
ROOT
ATOM      1  C3  UNL d   1       0.222   3.737  -2.777  0.00  0.00    -0.075 A 
ATOM      2  C4  UNL d   1      -0.026   2.385  -3.056  0.00  0.00     0.002 A 
ATOM      3  C5  UNL d   1       0.507   1.385  -2.242  0.00  0.00     0.002 A 
ATOM      4  C6  UNL d   1       1.300   1.722  -1.148  0.00  0.00    -0.004 A 
ATOM      5  C7  UNL d   1       1.567   3.061  -0.871  0.00  0.00     0.002 A 
ATOM      6  C8  UNL d   1       1.032   4.064  -1.681  0.00  0.00     0.002 A 
ENDROOT
BRANCH   1   7
ATOM      7  C2  UNL d   1      -0.376   4.825  -3.637  0.00  0.00     0.056 C 
BRANCH   7   8
ATOM      8  C1  UNL d   1      -1.641   4.401  -4.389  0.00  0.00     0.007 C 
ATOM      9  C   UNL d   1      -1.665   4.873  -5.837  0.00  0.00     0.009 C 
ENDBRANCH   7   8
ENDBRANCH   1   7
TORSDOF 2
ENDMDL
