MODEL 1
REMARK minimizedAffinity 7.04688835
REMARK minimizedRMSD -1
REMARK  2 active torsions:
REMARK  status: ('A' for Active; 'I' for Inactive)
REMARK    1  A    between atoms: C1_2  and  C2_3 
REMARK    2  A    between atoms: C2_3  and  C3_4 
ROOT
ATOM      1  C3  UNL d   1       3.732   1.982  -0.311  0.00  0.00    -0.075 A 
ATOM      2  C4  UNL d   1       2.917   1.986   0.829  0.00  0.00     0.002 A 
ATOM      3  C5  UNL d   1       3.306   2.678   1.977  0.00  0.00     0.002 A 
ATOM      4  C6  UNL d   1       4.518   3.365   2.002  0.00  0.00    -0.004 A 
ATOM      5  C7  UNL d   1       5.344   3.354   0.880  0.00  0.00     0.002 A 
ATOM      6  C8  UNL d   1       4.955   2.666  -0.271  0.00  0.00     0.002 A 
ENDROOT
BRANCH   1   7
ATOM      7  C2  UNL d   1       3.303   1.260  -1.566  0.00  0.00     0.056 C 
BRANCH   7   8
ATOM      8  C1  UNL d   1       2.393   2.086  -2.481  0.00  0.00     0.007 C 
ATOM      9  C   UNL d   1       3.157   2.871  -3.539  0.00  0.00     0.009 C 
ENDBRANCH   7   8
ENDBRANCH   1   7
TORSDOF 2
ENDMDL
