MODEL 1
REMARK minimizedAffinity 10.8219891
REMARK minimizedRMSD -1
REMARK  2 active torsions:
REMARK  status: ('A' for Active; 'I' for Inactive)
REMARK    1  A    between atoms: C1_2  and  C2_3 
REMARK    2  A    between atoms: C2_3  and  C3_4 
ROOT
ATOM      1  C3  UNL d   1       4.517   2.582   1.124  0.00  0.00    -0.075 A 
ATOM      2  C4  UNL d   1       4.774   1.422   0.379  0.00  0.00     0.002 A 
ATOM      3  C5  UNL d   1       3.726   0.703  -0.195  0.00  0.00     0.002 A 
ATOM      4  C6  UNL d   1       2.410   1.127  -0.024  0.00  0.00    -0.004 A 
ATOM      5  C7  UNL d   1       2.142   2.268   0.728  0.00  0.00     0.002 A 
ATOM      6  C8  UNL d   1       3.189   2.993   1.300  0.00  0.00     0.002 A 
ENDROOT
BRANCH   1   7
ATOM      7  C2  UNL d   1       5.649   3.382   1.724  0.00  0.00     0.056 C 
BRANCH   7   8
ATOM      8  C1  UNL d   1       5.996   4.654   0.943  0.00  0.00     0.007 C 
ATOM      9  C   UNL d   1       6.000   4.450  -0.566  0.00  0.00     0.009 C 
ENDBRANCH   7   8
ENDBRANCH   1   7
TORSDOF 2
ENDMDL
