MODEL 1
REMARK minimizedAffinity -3.59299016
REMARK minimizedRMSD -1
REMARK  1 active torsions:
REMARK  status: ('A' for Active; 'I' for Inactive)
REMARK    1  A    between atoms: C3_4  and  O_7 
ROOT
ATOM      1  C   UNL d   1      -5.596   3.987   5.034  0.00  0.00    -0.033 A 
ATOM      2  C1  UNL d   1      -6.000   5.304   4.809  0.00  0.00     0.039 A 
ATOM      3  C2  UNL d   1      -5.536   5.997   3.689  0.00  0.00    -0.080 A 
ATOM      4  C3  UNL d   1      -4.670   5.362   2.803  0.00  0.00     0.150 A 
ATOM      5  C4  UNL d   1      -4.266   4.048   3.019  0.00  0.00    -0.007 A 
ATOM      6  C5  UNL d   1      -4.730   3.358   4.139  0.00  0.00     0.039 A 
ENDROOT
BRANCH   4   7
ATOM      7  O   UNL d   1      -4.186   5.999   1.699  0.00  0.00    -0.526 OA
ATOM      8  H5  UNL d   1      -4.527   6.909   1.695  0.00  0.00     0.418 HD
ENDBRANCH   4   7
TORSDOF 1
ENDMDL
