MODEL 1
REMARK minimizedAffinity -3.09875584
REMARK minimizedRMSD -1
REMARK  1 active torsions:
REMARK  status: ('A' for Active; 'I' for Inactive)
REMARK    1  A    between atoms: C3_4  and  O_7 
ROOT
ATOM      1  C   UNL d   1      -5.009   3.009   4.910  0.00  0.00    -0.033 A 
ATOM      2  C1  UNL d   1      -5.999   3.378   3.998  0.00  0.00     0.039 A 
ATOM      3  C2  UNL d   1      -5.722   4.322   3.007  0.00  0.00    -0.080 A 
ATOM      4  C3  UNL d   1      -4.452   4.888   2.939  0.00  0.00     0.150 A 
ATOM      5  C4  UNL d   1      -3.459   4.522   3.842  0.00  0.00    -0.007 A 
ATOM      6  C5  UNL d   1      -3.738   3.580   4.831  0.00  0.00     0.039 A 
ENDROOT
BRANCH   4   7
ATOM      7  O   UNL d   1      -4.136   5.817   1.992  0.00  0.00    -0.526 OA
ATOM      8  H5  UNL d   1      -4.928   5.992   1.457  0.00  0.00     0.418 HD
ENDBRANCH   4   7
TORSDOF 1
ENDMDL
