MODEL 1
REMARK minimizedAffinity -3.48298168
REMARK minimizedRMSD -1
REMARK  1 active torsions:
REMARK  status: ('A' for Active; 'I' for Inactive)
REMARK    1  A    between atoms: C3_4  and  O_7 
ROOT
ATOM      1  C   UNL d   1      -5.455   4.124   2.223  0.00  0.00    -0.033 A 
ATOM      2  C1  UNL d   1      -5.078   5.336   2.804  0.00  0.00     0.039 A 
ATOM      3  C2  UNL d   1      -4.503   5.354   4.076  0.00  0.00    -0.080 A 
ATOM      4  C3  UNL d   1      -4.308   4.154   4.754  0.00  0.00     0.150 A 
ATOM      5  C4  UNL d   1      -4.677   2.942   4.180  0.00  0.00    -0.007 A 
ATOM      6  C5  UNL d   1      -5.253   2.927   2.910  0.00  0.00     0.039 A 
ENDROOT
BRANCH   4   7
ATOM      7  O   UNL d   1      -3.755   4.121   6.000  0.00  0.00    -0.526 OA
ATOM      8  H5  UNL d   1      -3.577   5.034   6.281  0.00  0.00     0.418 HD
ENDBRANCH   4   7
TORSDOF 1
ENDMDL
