MODEL 1
REMARK minimizedAffinity -4.13712358
REMARK minimizedRMSD -1
REMARK  1 active torsions:
REMARK  status: ('A' for Active; 'I' for Inactive)
REMARK    1  A    between atoms: C3_4  and  O_7 
ROOT
ATOM      1  C   UNL d   1      -4.882   3.902   4.925  0.00  0.00    -0.033 A 
ATOM      2  C1  UNL d   1      -5.135   5.275   4.904  0.00  0.00     0.039 A 
ATOM      3  C2  UNL d   1      -4.976   5.998   3.719  0.00  0.00    -0.080 A 
ATOM      4  C3  UNL d   1      -4.567   5.336   2.565  0.00  0.00     0.150 A 
ATOM      5  C4  UNL d   1      -4.317   3.967   2.578  0.00  0.00    -0.007 A 
ATOM      6  C5  UNL d   1      -4.475   3.248   3.762  0.00  0.00     0.039 A 
ENDROOT
BRANCH   4   7
ATOM      7  O   UNL d   1      -4.394   5.999   1.386  0.00  0.00    -0.526 OA
ATOM      8  H5  UNL d   1      -4.575   6.942   1.535  0.00  0.00     0.418 HD
ENDBRANCH   4   7
TORSDOF 1
ENDMDL
