MODEL 1
REMARK minimizedAffinity -3.14721131
REMARK minimizedRMSD -1
REMARK  1 active torsions:
REMARK  status: ('A' for Active; 'I' for Inactive)
REMARK    1  A    between atoms: C3_4  and  O_7 
ROOT
ATOM      1  C   UNL d   1      -5.313   4.191   4.746  0.00  0.00    -0.033 A 
ATOM      2  C1  UNL d   1      -5.997   5.356   4.391  0.00  0.00     0.039 A 
ATOM      3  C2  UNL d   1      -5.733   5.978   3.169  0.00  0.00    -0.080 A 
ATOM      4  C3  UNL d   1      -4.786   5.425   2.312  0.00  0.00     0.150 A 
ATOM      5  C4  UNL d   1      -4.104   4.263   2.657  0.00  0.00    -0.007 A 
ATOM      6  C5  UNL d   1      -4.368   3.644   3.878  0.00  0.00     0.039 A 
ENDROOT
BRANCH   4   7
ATOM      7  O   UNL d   1      -4.491   5.999   1.111  0.00  0.00    -0.526 OA
ATOM      8  H5  UNL d   1      -5.018   6.811   1.020  0.00  0.00     0.418 HD
ENDBRANCH   4   7
TORSDOF 1
ENDMDL
