MODEL 1
REMARK minimizedAffinity -3.45143366
REMARK minimizedRMSD -1
REMARK  1 active torsions:
REMARK  status: ('A' for Active; 'I' for Inactive)
REMARK    1  A    between atoms: C3_4  and  O_7 
ROOT
ATOM      1  C   UNL d   1      -4.815   4.272   5.248  0.00  0.00    -0.033 A 
ATOM      2  C1  UNL d   1      -5.476   3.706   4.156  0.00  0.00     0.039 A 
ATOM      3  C2  UNL d   1      -5.344   4.275   2.887  0.00  0.00    -0.080 A 
ATOM      4  C3  UNL d   1      -4.549   5.406   2.724  0.00  0.00     0.150 A 
ATOM      5  C4  UNL d   1      -3.884   5.972   3.807  0.00  0.00    -0.007 A 
ATOM      6  C5  UNL d   1      -4.018   5.403   5.073  0.00  0.00     0.039 A 
ENDROOT
BRANCH   4   7
ATOM      7  O   UNL d   1      -4.393   5.998   1.506  0.00  0.00    -0.526 OA
ATOM      8  H5  UNL d   1      -4.933   5.516   0.858  0.00  0.00     0.418 HD
ENDBRANCH   4   7
TORSDOF 1
ENDMDL
