MODEL 1
REMARK minimizedAffinity -2.5878737
REMARK minimizedRMSD -1
REMARK  1 active torsions:
REMARK  status: ('A' for Active; 'I' for Inactive)
REMARK    1  A    between atoms: C3_4  and  O_7 
ROOT
ATOM      1  C   UNL d   1      -5.784   2.773   5.981  0.00  0.00    -0.033 A 
ATOM      2  C1  UNL d   1      -5.969   4.157   5.949  0.00  0.00     0.039 A 
ATOM      3  C2  UNL d   1      -6.000   4.831   4.727  0.00  0.00    -0.080 A 
ATOM      4  C3  UNL d   1      -5.845   4.111   3.546  0.00  0.00     0.150 A 
ATOM      5  C4  UNL d   1      -5.664   2.732   3.570  0.00  0.00    -0.007 A 
ATOM      6  C5  UNL d   1      -5.633   2.061   4.792  0.00  0.00     0.039 A 
ENDROOT
BRANCH   4   7
ATOM      7  O   UNL d   1      -5.862   4.725   2.329  0.00  0.00    -0.526 OA
ATOM      8  H5  UNL d   1      -5.967   5.681   2.468  0.00  0.00     0.418 HD
ENDBRANCH   4   7
TORSDOF 1
ENDMDL
