MODEL 1
REMARK minimizedAffinity -3.16333318
REMARK minimizedRMSD -1
REMARK  1 active torsions:
REMARK  status: ('A' for Active; 'I' for Inactive)
REMARK    1  A    between atoms: C3_4  and  O_7 
ROOT
ATOM      1  C   UNL d   1      -5.261   3.398   5.228  0.00  0.00    -0.033 A 
ATOM      2  C1  UNL d   1      -4.124   3.048   4.497  0.00  0.00     0.039 A 
ATOM      3  C2  UNL d   1      -3.722   3.829   3.412  0.00  0.00    -0.080 A 
ATOM      4  C3  UNL d   1      -4.463   4.956   3.069  0.00  0.00     0.150 A 
ATOM      5  C4  UNL d   1      -5.595   5.313   3.795  0.00  0.00    -0.007 A 
ATOM      6  C5  UNL d   1      -5.996   4.532   4.878  0.00  0.00     0.039 A 
ENDROOT
BRANCH   4   7
ATOM      7  O   UNL d   1      -4.113   5.746   2.015  0.00  0.00    -0.526 OA
ATOM      8  H5  UNL d   1      -3.328   5.361   1.589  0.00  0.00     0.418 HD
ENDBRANCH   4   7
TORSDOF 1
ENDMDL
