MODEL 1
REMARK minimizedAffinity -3.44699311
REMARK minimizedRMSD -1
REMARK  1 active torsions:
REMARK  status: ('A' for Active; 'I' for Inactive)
REMARK    1  A    between atoms: C3_4  and  O_7 
ROOT
ATOM      1  C   UNL d   1      -5.171   5.354   2.135  0.00  0.00    -0.033 A 
ATOM      2  C1  UNL d   1      -6.000   4.237   2.256  0.00  0.00     0.039 A 
ATOM      3  C2  UNL d   1      -5.779   3.310   3.277  0.00  0.00    -0.080 A 
ATOM      4  C3  UNL d   1      -4.730   3.512   4.169  0.00  0.00     0.150 A 
ATOM      5  C4  UNL d   1      -3.903   4.626   4.056  0.00  0.00    -0.007 A 
ATOM      6  C5  UNL d   1      -4.124   5.549   3.035  0.00  0.00     0.039 A 
ENDROOT
BRANCH   4   7
ATOM      7  O   UNL d   1      -4.473   2.633   5.178  0.00  0.00    -0.526 OA
ATOM      8  H5  UNL d   1      -5.106   1.898   5.115  0.00  0.00     0.418 HD
ENDBRANCH   4   7
TORSDOF 1
ENDMDL
