MODEL 1
REMARK minimizedAffinity -4.19766808
REMARK minimizedRMSD -1
REMARK  1 active torsions:
REMARK  status: ('A' for Active; 'I' for Inactive)
REMARK    1  A    between atoms: C3_4  and  O_7 
ROOT
ATOM      1  C   UNL d   1      -4.306   3.975   4.796  0.00  0.00    -0.033 A 
ATOM      2  C1  UNL d   1      -3.802   5.264   4.609  0.00  0.00     0.039 A 
ATOM      3  C2  UNL d   1      -3.996   5.921   3.393  0.00  0.00    -0.080 A 
ATOM      4  C3  UNL d   1      -4.696   5.281   2.374  0.00  0.00     0.150 A 
ATOM      5  C4  UNL d   1      -5.204   3.999   2.555  0.00  0.00    -0.007 A 
ATOM      6  C5  UNL d   1      -5.008   3.343   3.770  0.00  0.00     0.039 A 
ENDROOT
BRANCH   4   7
ATOM      7  O   UNL d   1      -4.906   5.880   1.168  0.00  0.00    -0.526 OA
ATOM      8  H5  UNL d   1      -4.474   6.751   1.177  0.00  0.00     0.418 HD
ENDBRANCH   4   7
TORSDOF 1
ENDMDL
