MODEL 1
REMARK minimizedAffinity -3.51637483
REMARK minimizedRMSD -1
REMARK  1 active torsions:
REMARK  status: ('A' for Active; 'I' for Inactive)
REMARK    1  A    between atoms: N_2  and  C1_3 
ROOT
ATOM      1  C1  UNL d   1       1.144  -3.553   0.136  0.00  0.00     0.143 A 
ATOM      2  C2  UNL d   1      -0.217  -3.240   0.216  0.00  0.00    -0.057 A 
ATOM      3  C3  UNL d   1      -0.686  -1.954  -0.081  0.00  0.00     0.033 A 
ATOM      4  C4  UNL d   1       0.206  -0.947  -0.436  0.00  0.00    -0.042 A 
ATOM      5  C5  UNL d   1       1.566  -1.229  -0.498  0.00  0.00     0.033 A 
ATOM      6  C6  UNL d   1       2.027  -2.517  -0.207  0.00  0.00    -0.057 A 
ENDROOT
BRANCH   1   7
ATOM      7  N   UNL d   1       1.682  -4.785   0.514  0.00  0.00    -0.732 N 
ATOM      8  C   UNL d   1       0.824  -5.853   0.980  0.00  0.00     0.284 C 
ATOM      9  H3  UNL d   1       2.426  -5.092  -0.110  0.00  0.00     0.395 HD
ENDBRANCH   1   7
TORSDOF 1
ENDMDL
