MODEL 1
REMARK minimizedAffinity -2.86572504
REMARK minimizedRMSD -1
REMARK  1 active torsions:
REMARK  status: ('A' for Active; 'I' for Inactive)
REMARK    1  A    between atoms: N_2  and  C1_3 
ROOT
ATOM      1  C1  UNL d   1       0.780  -2.090  -0.745  0.00  0.00     0.143 A 
ATOM      2  C2  UNL d   1      -0.414  -2.717  -0.376  0.00  0.00    -0.057 A 
ATOM      3  C3  UNL d   1      -0.411  -3.940   0.306  0.00  0.00     0.033 A 
ATOM      4  C4  UNL d   1       0.791  -4.573   0.606  0.00  0.00    -0.042 A 
ATOM      5  C5  UNL d   1       1.989  -3.980   0.226  0.00  0.00     0.033 A 
ATOM      6  C6  UNL d   1       1.980  -2.755  -0.449  0.00  0.00    -0.057 A 
ENDROOT
BRANCH   1   7
ATOM      7  N   UNL d   1       0.841  -0.923  -1.511  0.00  0.00    -0.732 N 
ATOM      8  C   UNL d   1       1.979  -0.035  -1.413  0.00  0.00     0.284 C 
ATOM      9  H3  UNL d   1       0.504  -1.064  -2.461  0.00  0.00     0.395 HD
ENDBRANCH   1   7
TORSDOF 1
ENDMDL
