MODEL 1
REMARK minimizedAffinity -3.24468541
REMARK minimizedRMSD -1
REMARK  1 active torsions:
REMARK  status: ('A' for Active; 'I' for Inactive)
REMARK    1  A    between atoms: N_2  and  C1_3 
ROOT
ATOM      1  C1  UNL d   1       0.770  -3.385   0.542  0.00  0.00     0.143 A 
ATOM      2  C2  UNL d   1       1.886  -3.112  -0.257  0.00  0.00    -0.057 A 
ATOM      3  C3  UNL d   1       1.922  -1.991  -1.095  0.00  0.00     0.033 A 
ATOM      4  C4  UNL d   1       0.828  -1.136  -1.171  0.00  0.00    -0.042 A 
ATOM      5  C5  UNL d   1      -0.302  -1.401  -0.405  0.00  0.00     0.033 A 
ATOM      6  C6  UNL d   1      -0.330  -2.518   0.435  0.00  0.00    -0.057 A 
ENDROOT
BRANCH   1   7
ATOM      7  N   UNL d   1       0.634  -4.536   1.321  0.00  0.00    -0.732 N 
ATOM      8  C   UNL d   1       1.312  -5.760   0.952  0.00  0.00     0.284 C 
ATOM      9  H3  UNL d   1       0.652  -4.335   2.318  0.00  0.00     0.395 HD
ENDBRANCH   1   7
TORSDOF 1
ENDMDL
