MODEL 1
REMARK minimizedAffinity -5.90642881
REMARK minimizedRMSD -1
REMARK  1 active torsions:
REMARK  status: ('A' for Active; 'I' for Inactive)
REMARK    1  A    between atoms: N_2  and  C1_3 
ROOT
ATOM      1  C1  UNL d   1       1.307  -3.171   0.016  0.00  0.00     0.143 A 
ATOM      2  C2  UNL d   1       2.109  -2.089  -0.363  0.00  0.00    -0.057 A 
ATOM      3  C3  UNL d   1       1.560  -0.822  -0.592  0.00  0.00     0.033 A 
ATOM      4  C4  UNL d   1       0.188  -0.621  -0.475  0.00  0.00    -0.042 A 
ATOM      5  C5  UNL d   1      -0.632  -1.687  -0.125  0.00  0.00     0.033 A 
ATOM      6  C6  UNL d   1      -0.076  -2.949   0.110  0.00  0.00    -0.057 A 
ENDROOT
BRANCH   1   7
ATOM      7  N   UNL d   1       1.780  -4.477   0.162  0.00  0.00    -0.732 N 
ATOM      8  C   UNL d   1       0.987  -5.476   0.846  0.00  0.00     0.284 C 
ATOM      9  H3  UNL d   1       2.245  -4.818  -0.676  0.00  0.00     0.395 HD
ENDBRANCH   1   7
TORSDOF 1
ENDMDL
