MODEL 1
REMARK minimizedAffinity 5.60701036
REMARK minimizedRMSD -1
REMARK  1 active torsions:
REMARK  status: ('A' for Active; 'I' for Inactive)
REMARK    1  A    between atoms: N_2  and  C1_3 
ROOT
ATOM      1  C1  UNL d   1      -4.861  -0.449   3.157  0.00  0.00     0.143 A 
ATOM      2  C2  UNL d   1      -4.092  -1.610   3.295  0.00  0.00    -0.057 A 
ATOM      3  C3  UNL d   1      -2.905  -1.610   4.037  0.00  0.00     0.033 A 
ATOM      4  C4  UNL d   1      -2.449  -0.439   4.631  0.00  0.00    -0.042 A 
ATOM      5  C5  UNL d   1      -3.184   0.733   4.487  0.00  0.00     0.033 A 
ATOM      6  C6  UNL d   1      -4.372   0.725   3.750  0.00  0.00    -0.057 A 
ENDROOT
BRANCH   1   7
ATOM      7  N   UNL d   1      -5.999  -0.361   2.351  0.00  0.00    -0.732 N 
ATOM      8  C   UNL d   1      -5.896   0.075   0.975  0.00  0.00     0.284 C 
ATOM      9  H3  UNL d   1      -6.637  -1.141   2.493  0.00  0.00     0.395 HD
ENDBRANCH   1   7
TORSDOF 1
ENDMDL
