MODEL 1
REMARK minimizedAffinity -2.59233761
REMARK minimizedRMSD -1
REMARK  1 active torsions:
REMARK  status: ('A' for Active; 'I' for Inactive)
REMARK    1  A    between atoms: N_2  and  C1_3 
ROOT
ATOM      1  C1  UNL d   1       1.050  -2.891   0.282  0.00  0.00     0.143 A 
ATOM      2  C2  UNL d   1       1.866  -1.956  -0.362  0.00  0.00    -0.057 A 
ATOM      3  C3  UNL d   1       1.323  -0.830  -0.993  0.00  0.00     0.033 A 
ATOM      4  C4  UNL d   1      -0.054  -0.635  -1.015  0.00  0.00    -0.042 A 
ATOM      5  C5  UNL d   1      -0.887  -1.564  -0.402  0.00  0.00     0.033 A 
ATOM      6  C6  UNL d   1      -0.338  -2.683   0.232  0.00  0.00    -0.057 A 
ENDROOT
BRANCH   1   7
ATOM      7  N   UNL d   1       1.522  -4.081   0.842  0.00  0.00    -0.732 N 
ATOM      8  C   UNL d   1       0.660  -5.239   0.946  0.00  0.00     0.284 C 
ATOM      9  H3  UNL d   1       2.473  -4.295   0.553  0.00  0.00     0.395 HD
ENDBRANCH   1   7
TORSDOF 1
ENDMDL
