MODEL 1
REMARK minimizedAffinity -2.13481474
REMARK minimizedRMSD -1
REMARK  1 active torsions:
REMARK  status: ('A' for Active; 'I' for Inactive)
REMARK    1  A    between atoms: N_2  and  C1_3 
ROOT
ATOM      1  C1  UNL d   1      -4.791  -0.377   3.618  0.00  0.00     0.143 A 
ATOM      2  C2  UNL d   1      -3.533  -0.929   3.356  0.00  0.00    -0.057 A 
ATOM      3  C3  UNL d   1      -2.387  -0.474   4.019  0.00  0.00     0.033 A 
ATOM      4  C4  UNL d   1      -2.476   0.565   4.939  0.00  0.00    -0.042 A 
ATOM      5  C5  UNL d   1      -3.712   1.147   5.198  0.00  0.00     0.033 A 
ATOM      6  C6  UNL d   1      -4.854   0.683   4.536  0.00  0.00    -0.057 A 
ENDROOT
BRANCH   1   7
ATOM      7  N   UNL d   1      -5.952  -0.718   2.920  0.00  0.00    -0.732 N 
ATOM      8  C   UNL d   1      -5.999  -0.621   1.477  0.00  0.00     0.284 C 
ATOM      9  H3  UNL d   1      -6.400  -1.551   3.295  0.00  0.00     0.395 HD
ENDBRANCH   1   7
TORSDOF 1
ENDMDL
