MODEL 1
REMARK minimizedAffinity 2.91799092
REMARK minimizedRMSD -1
REMARK  1 active torsions:
REMARK  status: ('A' for Active; 'I' for Inactive)
REMARK    1  A    between atoms: N_2  and  C1_3 
ROOT
ATOM      1  C1  UNL d   1       1.661  -2.284  -0.549  0.00  0.00     0.143 A 
ATOM      2  C2  UNL d   1       0.276  -2.433  -0.416  0.00  0.00    -0.057 A 
ATOM      3  C3  UNL d   1      -0.601  -1.387  -0.729  0.00  0.00     0.033 A 
ATOM      4  C4  UNL d   1      -0.105  -0.160  -1.156  0.00  0.00    -0.042 A 
ATOM      5  C5  UNL d   1       1.269   0.019  -1.272  0.00  0.00     0.033 A 
ATOM      6  C6  UNL d   1       2.139  -1.031  -0.964  0.00  0.00    -0.057 A 
ENDROOT
BRANCH   1   7
ATOM      7  N   UNL d   1       2.589  -3.253  -0.160  0.00  0.00    -0.732 N 
ATOM      8  C   UNL d   1       2.148  -4.542   0.329  0.00  0.00     0.284 C 
ATOM      9  H3  UNL d   1       3.390  -3.297  -0.785  0.00  0.00     0.395 HD
ENDBRANCH   1   7
TORSDOF 1
ENDMDL
