MODEL 1
REMARK minimizedAffinity 1.13928068
REMARK minimizedRMSD -1
REMARK  1 active torsions:
REMARK  status: ('A' for Active; 'I' for Inactive)
REMARK    1  A    between atoms: N_2  and  C1_3 
ROOT
ATOM      1  C1  UNL d   1       1.562  -2.585  -0.024  0.00  0.00     0.143 A 
ATOM      2  C2  UNL d   1       2.073  -1.531  -0.789  0.00  0.00    -0.057 A 
ATOM      3  C3  UNL d   1       1.231  -0.552  -1.330  0.00  0.00     0.033 A 
ATOM      4  C4  UNL d   1      -0.145  -0.626  -1.139  0.00  0.00    -0.042 A 
ATOM      5  C5  UNL d   1      -0.677  -1.679  -0.403  0.00  0.00     0.033 A 
ATOM      6  C6  UNL d   1       0.170  -2.650   0.140  0.00  0.00    -0.057 A 
ENDROOT
BRANCH   1   7
ATOM      7  N   UNL d   1       2.337  -3.643   0.458  0.00  0.00    -0.732 N 
ATOM      8  C   UNL d   1       1.711  -4.852   0.947  0.00  0.00     0.284 C 
ATOM      9  H3  UNL d   1       3.168  -3.804  -0.107  0.00  0.00     0.395 HD
ENDBRANCH   1   7
TORSDOF 1
ENDMDL
