MODEL 1
REMARK minimizedAffinity -3.18605471
REMARK minimizedRMSD -1
REMARK  1 active torsions:
REMARK  status: ('A' for Active; 'I' for Inactive)
REMARK    1  A    between atoms: N_2  and  C1_3 
ROOT
ATOM      1  C1  UNL d   1       0.869  -2.908   0.132  0.00  0.00     0.143 A 
ATOM      2  C2  UNL d   1      -0.455  -2.688  -0.262  0.00  0.00    -0.057 A 
ATOM      3  C3  UNL d   1      -0.861  -1.455  -0.787  0.00  0.00     0.033 A 
ATOM      4  C4  UNL d   1       0.047  -0.407  -0.900  0.00  0.00    -0.042 A 
ATOM      5  C5  UNL d   1       1.363  -0.596  -0.492  0.00  0.00     0.033 A 
ATOM      6  C6  UNL d   1       1.764  -1.831   0.026  0.00  0.00    -0.057 A 
ENDROOT
BRANCH   1   7
ATOM      7  N   UNL d   1       1.311  -4.079   0.753  0.00  0.00    -0.732 N 
ATOM      8  C   UNL d   1       0.537  -5.298   0.665  0.00  0.00     0.284 C 
ATOM      9  H3  UNL d   1       2.315  -4.216   0.654  0.00  0.00     0.395 HD
ENDBRANCH   1   7
TORSDOF 1
ENDMDL
