MODEL 1
REMARK minimizedAffinity 1.09479022
REMARK minimizedRMSD -1
REMARK  1 active torsions:
REMARK  status: ('A' for Active; 'I' for Inactive)
REMARK    1  A    between atoms: N_2  and  C1_3 
ROOT
ATOM      1  C1  UNL d   1       3.012  -3.002   1.318  0.00  0.00     0.143 A 
ATOM      2  C2  UNL d   1       2.664  -2.314   0.150  0.00  0.00    -0.057 A 
ATOM      3  C3  UNL d   1       1.761  -2.859  -0.771  0.00  0.00     0.033 A 
ATOM      4  C4  UNL d   1       1.210  -4.117  -0.554  0.00  0.00    -0.042 A 
ATOM      5  C5  UNL d   1       1.561  -4.830   0.588  0.00  0.00     0.033 A 
ATOM      6  C6  UNL d   1       2.459  -4.278   1.507  0.00  0.00    -0.057 A 
ENDROOT
BRANCH   1   7
ATOM      7  N   UNL d   1       3.979  -2.558   2.223  0.00  0.00    -0.732 N 
ATOM      8  C   UNL d   1       3.836  -2.816   3.640  0.00  0.00     0.284 C 
ATOM      9  H3  UNL d   1       4.926  -2.681   1.871  0.00  0.00     0.395 HD
ENDBRANCH   1   7
TORSDOF 1
ENDMDL
