MODEL 1
REMARK minimizedAffinity -4.07843447
REMARK minimizedRMSD -1
REMARK  1 active torsions:
REMARK  status: ('A' for Active; 'I' for Inactive)
REMARK    1  A    between atoms: N_2  and  C1_3 
ROOT
ATOM      1  C1  UNL d   1       0.510  -1.584  -0.329  0.00  0.00     0.143 A 
ATOM      2  C2  UNL d   1      -0.556  -2.140   0.387  0.00  0.00    -0.057 A 
ATOM      3  C3  UNL d   1      -0.426  -3.368   1.046  0.00  0.00     0.033 A 
ATOM      4  C4  UNL d   1       0.768  -4.080   0.975  0.00  0.00    -0.042 A 
ATOM      5  C5  UNL d   1       1.832  -3.559   0.248  0.00  0.00     0.033 A 
ATOM      6  C6  UNL d   1       1.698  -2.328  -0.402  0.00  0.00    -0.057 A 
ENDROOT
BRANCH   1   7
ATOM      7  N   UNL d   1       0.412  -0.415  -1.087  0.00  0.00    -0.732 N 
ATOM      8  C   UNL d   1       1.517   0.518  -1.149  0.00  0.00     0.284 C 
ATOM      9  H3  UNL d   1      -0.054  -0.567  -1.978  0.00  0.00     0.395 HD
ENDBRANCH   1   7
TORSDOF 1
ENDMDL
