MODEL 1
REMARK minimizedAffinity -0.78575182
REMARK minimizedRMSD -1
REMARK  2 active torsions:
REMARK  status: ('A' for Active; 'I' for Inactive)
REMARK    1  A    between atoms: C1_2  and  C2_3 
REMARK    2  A    between atoms: C2_3  and  C3_4 
ROOT
ATOM      1  C3  UNL d   1      -2.473  -0.135   1.717  0.00  0.00    -0.075 A 
ATOM      2  C4  UNL d   1      -3.822   0.161   1.962  0.00  0.00     0.002 A 
ATOM      3  C5  UNL d   1      -4.650  -0.772   2.586  0.00  0.00     0.002 A 
ATOM      4  C6  UNL d   1      -4.144  -2.014   2.965  0.00  0.00    -0.004 A 
ATOM      5  C7  UNL d   1      -2.810  -2.325   2.712  0.00  0.00     0.002 A 
ATOM      6  C8  UNL d   1      -1.978  -1.392   2.091  0.00  0.00     0.002 A 
ENDROOT
BRANCH   1   7
ATOM      7  C2  UNL d   1      -1.564   0.881   1.069  0.00  0.00     0.056 C 
BRANCH   7   8
ATOM      8  C1  UNL d   1      -0.195   1.014   1.743  0.00  0.00     0.007 C 
ATOM      9  C   UNL d   1       0.015   2.364   2.416  0.00  0.00     0.009 C 
ENDBRANCH   7   8
ENDBRANCH   1   7
TORSDOF 2
ENDMDL
