MODEL 1
REMARK minimizedAffinity 9.27392292
REMARK minimizedRMSD -1
REMARK  2 active torsions:
REMARK  status: ('A' for Active; 'I' for Inactive)
REMARK    1  A    between atoms: C1_2  and  C2_3 
REMARK    2  A    between atoms: C2_3  and  C3_4 
ROOT
ATOM      1  C3  UNL d   1       0.927   2.164   2.237  0.00  0.00    -0.075 A 
ATOM      2  C4  UNL d   1      -0.233   2.197   3.024  0.00  0.00     0.002 A 
ATOM      3  C5  UNL d   1      -0.308   3.028   4.142  0.00  0.00     0.002 A 
ATOM      4  C6  UNL d   1       0.778   3.827   4.493  0.00  0.00    -0.004 A 
ATOM      5  C7  UNL d   1       1.942   3.790   3.728  0.00  0.00     0.002 A 
ATOM      6  C8  UNL d   1       2.018   2.963   2.607  0.00  0.00     0.002 A 
ENDROOT
BRANCH   1   7
ATOM      7  C2  UNL d   1       1.003   1.289   1.009  0.00  0.00     0.056 C 
BRANCH   7   8
ATOM      8  C1  UNL d   1      -0.161   0.301   0.874  0.00  0.00     0.007 C 
ATOM      9  C   UNL d   1       0.207  -1.120   1.280  0.00  0.00     0.009 C 
ENDBRANCH   7   8
ENDBRANCH   1   7
TORSDOF 2
ENDMDL
