MODEL 1
REMARK minimizedAffinity 3.93746495
REMARK minimizedRMSD -1
REMARK  2 active torsions:
REMARK  status: ('A' for Active; 'I' for Inactive)
REMARK    1  A    between atoms: C1_2  and  C2_3 
REMARK    2  A    between atoms: C2_3  and  C3_4 
ROOT
ATOM      1  C3  UNL d   1       0.212   1.453   2.004  0.00  0.00    -0.075 A 
ATOM      2  C4  UNL d   1       1.525   1.946   2.039  0.00  0.00     0.002 A 
ATOM      3  C5  UNL d   1       1.926   2.821   3.048  0.00  0.00     0.002 A 
ATOM      4  C6  UNL d   1       1.020   3.222   4.027  0.00  0.00    -0.004 A 
ATOM      5  C7  UNL d   1      -0.291   2.752   3.993  0.00  0.00     0.002 A 
ATOM      6  C8  UNL d   1      -0.694   1.872   2.987  0.00  0.00     0.002 A 
ENDROOT
BRANCH   1   7
ATOM      7  C2  UNL d   1      -0.220   0.482   0.932  0.00  0.00     0.056 C 
BRANCH   7   8
ATOM      8  C1  UNL d   1       0.001  -0.990   1.297  0.00  0.00     0.007 C 
ATOM      9  C   UNL d   1       1.441  -1.446   1.106  0.00  0.00     0.009 C 
ENDBRANCH   7   8
ENDBRANCH   1   7
TORSDOF 2
ENDMDL
