MODEL 1
REMARK minimizedAffinity 8.74580288
REMARK minimizedRMSD -1
REMARK  2 active torsions:
REMARK  status: ('A' for Active; 'I' for Inactive)
REMARK    1  A    between atoms: C1_2  and  C2_3 
REMARK    2  A    between atoms: C2_3  and  C3_4 
ROOT
ATOM      1  C3  UNL d   1       1.037   2.523   1.690  0.00  0.00    -0.075 A 
ATOM      2  C4  UNL d   1       2.402   2.696   1.961  0.00  0.00     0.002 A 
ATOM      3  C5  UNL d   1       2.817   3.326   3.134  0.00  0.00     0.002 A 
ATOM      4  C6  UNL d   1       1.875   3.799   4.045  0.00  0.00    -0.004 A 
ATOM      5  C7  UNL d   1       0.516   3.647   3.778  0.00  0.00     0.002 A 
ATOM      6  C8  UNL d   1       0.098   3.014   2.607  0.00  0.00     0.002 A 
ENDROOT
BRANCH   1   7
ATOM      7  C2  UNL d   1       0.581   1.816   0.435  0.00  0.00     0.056 C 
BRANCH   7   8
ATOM      8  C1  UNL d   1      -0.480   0.737   0.678  0.00  0.00     0.007 C 
ATOM      9  C   UNL d   1       0.101  -0.568   1.206  0.00  0.00     0.009 C 
ENDBRANCH   7   8
ENDBRANCH   1   7
TORSDOF 2
ENDMDL
