MODEL 1
REMARK minimizedAffinity -2.69442248
REMARK minimizedRMSD -1
REMARK  2 active torsions:
REMARK  status: ('A' for Active; 'I' for Inactive)
REMARK    1  A    between atoms: C1_2  and  C2_3 
REMARK    2  A    between atoms: C2_3  and  C3_4 
ROOT
ATOM      1  C3  UNL d   1       0.307   2.862   1.972  0.00  0.00    -0.075 A 
ATOM      2  C4  UNL d   1       1.135   3.978   2.159  0.00  0.00     0.002 A 
ATOM      3  C5  UNL d   1       0.964   4.809   3.267  0.00  0.00     0.002 A 
ATOM      4  C6  UNL d   1      -0.040   4.541   4.194  0.00  0.00    -0.004 A 
ATOM      5  C7  UNL d   1      -0.880   3.445   4.009  0.00  0.00     0.002 A 
ATOM      6  C8  UNL d   1      -0.708   2.609   2.904  0.00  0.00     0.002 A 
ENDROOT
BRANCH   1   7
ATOM      7  C2  UNL d   1       0.506   1.943   0.791  0.00  0.00     0.056 C 
BRANCH   7   8
ATOM      8  C1  UNL d   1      -0.154   0.569   0.952  0.00  0.00     0.007 C 
ATOM      9  C   UNL d   1      -1.384   0.387   0.073  0.00  0.00     0.009 C 
ENDBRANCH   7   8
ENDBRANCH   1   7
TORSDOF 2
ENDMDL
