MODEL 1
REMARK minimizedAffinity 1.61459374
REMARK minimizedRMSD -1
REMARK  2 active torsions:
REMARK  status: ('A' for Active; 'I' for Inactive)
REMARK    1  A    between atoms: C1_2  and  C2_3 
REMARK    2  A    between atoms: C2_3  and  C3_4 
ROOT
ATOM      1  C3  UNL d   1       0.196   2.968   2.337  0.00  0.00    -0.075 A 
ATOM      2  C4  UNL d   1       1.487   2.443   2.179  0.00  0.00     0.002 A 
ATOM      3  C5  UNL d   1       1.680   1.222   1.531  0.00  0.00     0.002 A 
ATOM      4  C6  UNL d   1       0.588   0.507   1.045  0.00  0.00    -0.004 A 
ATOM      5  C7  UNL d   1      -0.700   1.012   1.211  0.00  0.00     0.002 A 
ATOM      6  C8  UNL d   1      -0.896   2.235   1.854  0.00  0.00     0.002 A 
ENDROOT
BRANCH   1   7
ATOM      7  C2  UNL d   1      -0.018   4.302   3.011  0.00  0.00     0.056 C 
BRANCH   7   8
ATOM      8  C1  UNL d   1      -1.083   4.282   4.112  0.00  0.00     0.007 C 
ATOM      9  C   UNL d   1      -0.834   3.212   5.168  0.00  0.00     0.009 C 
ENDBRANCH   7   8
ENDBRANCH   1   7
TORSDOF 2
ENDMDL
