MODEL 1
REMARK minimizedAffinity 7.49973965
REMARK minimizedRMSD -1
REMARK  2 active torsions:
REMARK  status: ('A' for Active; 'I' for Inactive)
REMARK    1  A    between atoms: C1_2  and  C2_3 
REMARK    2  A    between atoms: C2_3  and  C3_4 
ROOT
ATOM      1  C3  UNL d   1       4.174   3.632  -4.868  0.00  0.00    -0.075 A 
ATOM      2  C4  UNL d   1       3.780   4.196  -3.645  0.00  0.00     0.002 A 
ATOM      3  C5  UNL d   1       3.358   3.383  -2.594  0.00  0.00     0.002 A 
ATOM      4  C6  UNL d   1       3.313   2.000  -2.753  0.00  0.00    -0.004 A 
ATOM      5  C7  UNL d   1       3.686   1.430  -3.968  0.00  0.00     0.002 A 
ATOM      6  C8  UNL d   1       4.114   2.241  -5.021  0.00  0.00     0.002 A 
ENDROOT
BRANCH   1   7
ATOM      7  C2  UNL d   1       4.661   4.505  -6.000  0.00  0.00     0.056 C 
BRANCH   7   8
ATOM      8  C1  UNL d   1       4.107   5.934  -5.969  0.00  0.00     0.007 C 
ATOM      9  C   UNL d   1       2.586   5.989  -5.997  0.00  0.00     0.009 C 
ENDBRANCH   7   8
ENDBRANCH   1   7
TORSDOF 2
ENDMDL
