MODEL 1
REMARK minimizedAffinity -2.21409249
REMARK minimizedRMSD -1
REMARK  2 active torsions:
REMARK  status: ('A' for Active; 'I' for Inactive)
REMARK    1  A    between atoms: C1_2  and  C2_3 
REMARK    2  A    between atoms: C2_3  and  C3_4 
ROOT
ATOM      1  C3  UNL d   1      -0.513   2.215   3.049  0.00  0.00    -0.075 A 
ATOM      2  C4  UNL d   1       0.767   2.768   2.894  0.00  0.00     0.002 A 
ATOM      3  C5  UNL d   1       1.369   2.817   1.636  0.00  0.00     0.002 A 
ATOM      4  C6  UNL d   1       0.706   2.307   0.522  0.00  0.00    -0.004 A 
ATOM      5  C7  UNL d   1      -0.558   1.741   0.667  0.00  0.00     0.002 A 
ATOM      6  C8  UNL d   1      -1.165   1.694   1.923  0.00  0.00     0.002 A 
ENDROOT
BRANCH   1   7
ATOM      7  C2  UNL d   1      -1.183   2.185   4.402  0.00  0.00     0.056 C 
BRANCH   7   8
ATOM      8  C1  UNL d   1      -1.871   3.499   4.786  0.00  0.00     0.007 C 
ATOM      9  C   UNL d   1      -0.937   4.701   4.740  0.00  0.00     0.009 C 
ENDBRANCH   7   8
ENDBRANCH   1   7
TORSDOF 2
ENDMDL
