MODEL 1
REMARK minimizedAffinity 7.31588221
REMARK minimizedRMSD -1
REMARK  2 active torsions:
REMARK  status: ('A' for Active; 'I' for Inactive)
REMARK    1  A    between atoms: C1_2  and  C2_3 
REMARK    2  A    between atoms: C2_3  and  C3_4 
ROOT
ATOM      1  C3  UNL d   1       3.596  -4.657  -4.393  0.00  0.00    -0.075 A 
ATOM      2  C4  UNL d   1       4.675  -3.773  -4.247  0.00  0.00     0.002 A 
ATOM      3  C5  UNL d   1       5.867  -3.992  -4.938  0.00  0.00     0.002 A 
ATOM      4  C6  UNL d   1       6.000  -5.099  -5.772  0.00  0.00    -0.004 A 
ATOM      5  C7  UNL d   1       4.940  -5.993  -5.912  0.00  0.00     0.002 A 
ATOM      6  C8  UNL d   1       3.744  -5.774  -5.226  0.00  0.00     0.002 A 
ENDROOT
BRANCH   1   7
ATOM      7  C2  UNL d   1       2.292  -4.410  -3.671  0.00  0.00     0.056 C 
BRANCH   7   8
ATOM      8  C1  UNL d   1       2.015  -2.933  -3.373  0.00  0.00     0.007 C 
ATOM      9  C   UNL d   1       1.096  -2.724  -2.176  0.00  0.00     0.009 C 
ENDBRANCH   7   8
ENDBRANCH   1   7
TORSDOF 2
ENDMDL
