MODEL 1
REMARK minimizedAffinity 3.82926083
REMARK minimizedRMSD -1
REMARK  2 active torsions:
REMARK  status: ('A' for Active; 'I' for Inactive)
REMARK    1  A    between atoms: C1_2  and  C2_3 
REMARK    2  A    between atoms: C2_3  and  C3_4 
ROOT
ATOM      1  C3  UNL d   1       2.504   4.390   4.332  0.00  0.00    -0.075 A 
ATOM      2  C4  UNL d   1       2.563   5.594   5.047  0.00  0.00     0.002 A 
ATOM      3  C5  UNL d   1       3.655   5.877   5.869  0.00  0.00     0.002 A 
ATOM      4  C6  UNL d   1       4.693   4.957   5.994  0.00  0.00    -0.004 A 
ATOM      5  C7  UNL d   1       4.637   3.750   5.301  0.00  0.00     0.002 A 
ATOM      6  C8  UNL d   1       3.548   3.466   4.475  0.00  0.00     0.002 A 
ENDROOT
BRANCH   1   7
ATOM      7  C2  UNL d   1       1.340   4.090   3.418  0.00  0.00     0.056 C 
BRANCH   7   8
ATOM      8  C1  UNL d   1       0.390   3.012   3.950  0.00  0.00     0.007 C 
ATOM      9  C   UNL d   1      -0.306   2.227   2.847  0.00  0.00     0.009 C 
ENDBRANCH   7   8
ENDBRANCH   1   7
TORSDOF 2
ENDMDL
