MODEL 1
REMARK minimizedAffinity -3.5509882
REMARK minimizedRMSD -1
REMARK  2 active torsions:
REMARK  status: ('A' for Active; 'I' for Inactive)
REMARK    1  A    between atoms: C1_2  and  C2_3 
REMARK    2  A    between atoms: C2_3  and  C3_4 
ROOT
ATOM      1  C3  UNL d   1       1.173   3.147   2.291  0.00  0.00    -0.075 A 
ATOM      2  C4  UNL d   1       0.099   2.638   3.035  0.00  0.00     0.002 A 
ATOM      3  C5  UNL d   1      -0.776   1.709   2.471  0.00  0.00     0.002 A 
ATOM      4  C6  UNL d   1      -0.595   1.287   1.156  0.00  0.00    -0.004 A 
ATOM      5  C7  UNL d   1       0.459   1.800   0.402  0.00  0.00     0.002 A 
ATOM      6  C8  UNL d   1       1.338   2.725   0.966  0.00  0.00     0.002 A 
ENDROOT
BRANCH   1   7
ATOM      7  C2  UNL d   1       2.142   4.130   2.906  0.00  0.00     0.056 C 
BRANCH   7   8
ATOM      8  C1  UNL d   1       3.399   3.481   3.494  0.00  0.00     0.007 C 
ATOM      9  C   UNL d   1       4.651   4.331   3.318  0.00  0.00     0.009 C 
ENDBRANCH   7   8
ENDBRANCH   1   7
TORSDOF 2
ENDMDL
