MODEL 1
REMARK minimizedAffinity 6.91807508
REMARK minimizedRMSD -1
REMARK  2 active torsions:
REMARK  status: ('A' for Active; 'I' for Inactive)
REMARK    1  A    between atoms: C1_2  and  C2_3 
REMARK    2  A    between atoms: C2_3  and  C3_4 
ROOT
ATOM      1  C3  UNL d   1       0.374  -3.462  -0.975  0.00  0.00    -0.075 A 
ATOM      2  C4  UNL d   1       0.737  -2.839   0.228  0.00  0.00     0.002 A 
ATOM      3  C5  UNL d   1       1.900  -2.073   0.307  0.00  0.00     0.002 A 
ATOM      4  C6  UNL d   1       2.719  -1.928  -0.811  0.00  0.00    -0.004 A 
ATOM      5  C7  UNL d   1       2.377  -2.555  -2.007  0.00  0.00     0.002 A 
ATOM      6  C8  UNL d   1       1.211  -3.319  -2.090  0.00  0.00     0.002 A 
ENDROOT
BRANCH   1   7
ATOM      7  C2  UNL d   1      -0.899  -4.268  -1.074  0.00  0.00     0.056 C 
BRANCH   7   8
ATOM      8  C1  UNL d   1      -2.116  -3.593  -0.433  0.00  0.00     0.007 C 
ATOM      9  C   UNL d   1      -3.288  -4.543  -0.223  0.00  0.00     0.009 C 
ENDBRANCH   7   8
ENDBRANCH   1   7
TORSDOF 2
ENDMDL
