MODEL 1
REMARK minimizedAffinity 11.643405
REMARK minimizedRMSD -1
REMARK  2 active torsions:
REMARK  status: ('A' for Active; 'I' for Inactive)
REMARK    1  A    between atoms: C1_2  and  C2_3 
REMARK    2  A    between atoms: C2_3  and  C3_4 
ROOT
ATOM      1  C3  UNL d   1      -1.161   2.420   2.976  0.00  0.00    -0.075 A 
ATOM      2  C4  UNL d   1      -0.039   3.032   3.556  0.00  0.00     0.002 A 
ATOM      3  C5  UNL d   1      -0.108   3.560   4.846  0.00  0.00     0.002 A 
ATOM      4  C6  UNL d   1      -1.299   3.494   5.566  0.00  0.00    -0.004 A 
ATOM      5  C7  UNL d   1      -2.424   2.904   4.993  0.00  0.00     0.002 A 
ATOM      6  C8  UNL d   1      -2.356   2.370   3.705  0.00  0.00     0.002 A 
ENDROOT
BRANCH   1   7
ATOM      7  C2  UNL d   1      -1.084   1.820   1.593  0.00  0.00     0.056 C 
BRANCH   7   8
ATOM      8  C1  UNL d   1      -0.945   0.294   1.582  0.00  0.00     0.007 C 
ATOM      9  C   UNL d   1       0.498  -0.176   1.455  0.00  0.00     0.009 C 
ENDBRANCH   7   8
ENDBRANCH   1   7
TORSDOF 2
ENDMDL
