MODEL 1
REMARK minimizedAffinity 10.4475441
REMARK minimizedRMSD -1
REMARK  2 active torsions:
REMARK  status: ('A' for Active; 'I' for Inactive)
REMARK    1  A    between atoms: C1_2  and  C2_3 
REMARK    2  A    between atoms: C2_3  and  C3_4 
ROOT
ATOM      1  C3  UNL d   1      -0.110   2.826   3.365  0.00  0.00    -0.075 A 
ATOM      2  C4  UNL d   1       0.759   3.495   2.491  0.00  0.00     0.002 A 
ATOM      3  C5  UNL d   1       1.005   2.992   1.213  0.00  0.00     0.002 A 
ATOM      4  C6  UNL d   1       0.395   1.811   0.797  0.00  0.00    -0.004 A 
ATOM      5  C7  UNL d   1      -0.457   1.129   1.662  0.00  0.00     0.002 A 
ATOM      6  C8  UNL d   1      -0.709   1.632   2.940  0.00  0.00     0.002 A 
ENDROOT
BRANCH   1   7
ATOM      7  C2  UNL d   1      -0.404   3.381   4.738  0.00  0.00     0.056 C 
BRANCH   7   8
ATOM      8  C1  UNL d   1      -1.779   2.987   5.289  0.00  0.00     0.007 C 
ATOM      9  C   UNL d   1      -2.490   4.131   5.999  0.00  0.00     0.009 C 
ENDBRANCH   7   8
ENDBRANCH   1   7
TORSDOF 2
ENDMDL
