MODEL 1
REMARK minimizedAffinity 3.19937444
REMARK minimizedRMSD -1
REMARK  2 active torsions:
REMARK  status: ('A' for Active; 'I' for Inactive)
REMARK    1  A    between atoms: C1_2  and  C2_3 
REMARK    2  A    between atoms: C2_3  and  C3_4 
ROOT
ATOM      1  C3  UNL d   1       2.835   4.560   3.407  0.00  0.00    -0.075 A 
ATOM      2  C4  UNL d   1       3.859   5.325   2.829  0.00  0.00     0.002 A 
ATOM      3  C5  UNL d   1       5.154   5.280   3.346  0.00  0.00     0.002 A 
ATOM      4  C6  UNL d   1       5.439   4.479   4.450  0.00  0.00    -0.004 A 
ATOM      5  C7  UNL d   1       4.426   3.729   5.042  0.00  0.00     0.002 A 
ATOM      6  C8  UNL d   1       3.130   3.769   4.524  0.00  0.00     0.002 A 
ENDROOT
BRANCH   1   7
ATOM      7  C2  UNL d   1       1.438   4.582   2.834  0.00  0.00     0.056 C 
BRANCH   7   8
ATOM      8  C1  UNL d   1       0.423   3.757   3.632  0.00  0.00     0.007 C 
ATOM      9  C   UNL d   1      -0.444   2.861   2.757  0.00  0.00     0.009 C 
ENDBRANCH   7   8
ENDBRANCH   1   7
TORSDOF 2
ENDMDL
