MODEL 1
REMARK minimizedAffinity -0.951323211
REMARK minimizedRMSD -1
REMARK  0 active torsions:
REMARK  status: ('A' for Active; 'I' for Inactive)
ROOT
ATOM      1  C1  BNZ d   1      -5.254  -4.067  -5.988  0.00  0.00     0.000 A 
ATOM      2  C2  BNZ d   1      -4.596  -3.669  -4.855  0.00  0.00     0.000 A 
ATOM      3  C3  BNZ d   1      -4.614  -4.441  -3.727  0.00  0.00     0.000 A 
ATOM      4  C4  BNZ d   1      -5.322  -5.589  -3.721  0.00  0.00     0.000 A 
ATOM      5  C5  BNZ d   1      -5.998  -5.999  -4.852  0.00  0.00     0.000 A 
ATOM      6  C6  BNZ d   1      -5.946  -5.239  -5.998  0.00  0.00     0.000 A 
ENDROOT
TORSDOF 0
ENDMDL
