MODEL 1
REMARK minimizedAffinity -3.80388451
REMARK minimizedRMSD -1
REMARK  0 active torsions:
REMARK  status: ('A' for Active; 'I' for Inactive)
ROOT
ATOM      1  C1  BNZ d   1      -5.162  -6.000  -4.984  0.00  0.00     0.000 A 
ATOM      2  C2  BNZ d   1      -5.185  -5.998  -3.615  0.00  0.00     0.000 A 
ATOM      3  C3  BNZ d   1      -5.512  -4.866  -2.922  0.00  0.00     0.000 A 
ATOM      4  C4  BNZ d   1      -5.775  -3.728  -3.597  0.00  0.00     0.000 A 
ATOM      5  C5  BNZ d   1      -5.747  -3.712  -4.977  0.00  0.00     0.000 A 
ATOM      6  C6  BNZ d   1      -5.456  -4.863  -5.672  0.00  0.00     0.000 A 
ENDROOT
TORSDOF 0
ENDMDL
