MODEL 1
REMARK minimizedAffinity -3.41604328
REMARK minimizedRMSD -1
REMARK  0 active torsions:
REMARK  status: ('A' for Active; 'I' for Inactive)
ROOT
ATOM      1  C1  BNZ d   1      -6.000  -3.493  -3.845  0.00  0.00     0.000 A 
ATOM      2  C2  BNZ d   1      -6.000  -3.778  -2.505  0.00  0.00     0.000 A 
ATOM      3  C3  BNZ d   1      -5.600  -5.004  -2.051  0.00  0.00     0.000 A 
ATOM      4  C4  BNZ d   1      -5.239  -5.954  -2.938  0.00  0.00     0.000 A 
ATOM      5  C5  BNZ d   1      -5.243  -5.684  -4.292  0.00  0.00     0.000 A 
ATOM      6  C6  BNZ d   1      -5.609  -4.437  -4.743  0.00  0.00     0.000 A 
ENDROOT
TORSDOF 0
ENDMDL
