MODEL 1
REMARK minimizedAffinity -3.73435926
REMARK minimizedRMSD -1
REMARK  0 active torsions:
REMARK  status: ('A' for Active; 'I' for Inactive)
ROOT
ATOM      1  C1  BNZ d   1      -5.670  -3.757  -4.169  0.00  0.00     0.000 A 
ATOM      2  C2  BNZ d   1      -5.903  -4.137  -2.875  0.00  0.00     0.000 A 
ATOM      3  C3  BNZ d   1      -5.302  -5.248  -2.352  0.00  0.00     0.000 A 
ATOM      4  C4  BNZ d   1      -4.502  -5.999  -3.136  0.00  0.00     0.000 A 
ATOM      5  C5  BNZ d   1      -4.264  -5.635  -4.446  0.00  0.00     0.000 A 
ATOM      6  C6  BNZ d   1      -4.840  -4.494  -4.957  0.00  0.00     0.000 A 
ENDROOT
TORSDOF 0
ENDMDL
