MODEL 1
REMARK minimizedAffinity -4.49680614
REMARK minimizedRMSD -1
REMARK  0 active torsions:
REMARK  status: ('A' for Active; 'I' for Inactive)
ROOT
ATOM      1  O1  BZF d   1       0.750  -0.645   0.386  0.00  0.00    -0.204 OA
ATOM      2  C2  BZF d   1      -0.144  -0.261  -0.595  0.00  0.00     0.174 A 
ATOM      3  C3  BZF d   1      -1.198   0.384  -0.056  0.00  0.00    -0.012 A 
ATOM      4  C3A BZF d   1      -0.903   0.485   1.341  0.00  0.00    -0.107 A 
ATOM      5  C4  BZF d   1      -1.563   1.036   2.402  0.00  0.00     0.055 A 
ATOM      6  C5  BZF d   1      -1.038   0.900   3.648  0.00  0.00    -0.016 A 
ATOM      7  C6  BZF d   1       0.139   0.216   3.870  0.00  0.00     0.022 A 
ATOM      8  C7  BZF d   1       0.831  -0.344   2.848  0.00  0.00     0.029 A 
ATOM      9  C7A BZF d   1       0.321  -0.180   1.583  0.00  0.00     0.058 A 
ENDROOT
TORSDOF 0
ENDMDL
