MODEL 1
REMARK minimizedAffinity -4.67364883
REMARK minimizedRMSD -1
REMARK  0 active torsions:
REMARK  status: ('A' for Active; 'I' for Inactive)
ROOT
ATOM      1  O1  BZF d   1       0.547   1.083  -0.540  0.00  0.00    -0.204 OA
ATOM      2  C2  BZF d   1       0.334  -0.087   0.163  0.00  0.00     0.174 A 
ATOM      3  C3  BZF d   1       0.297  -1.146  -0.671  0.00  0.00    -0.012 A 
ATOM      4  C3A BZF d   1       0.591  -0.616  -1.966  0.00  0.00    -0.107 A 
ATOM      5  C4  BZF d   1       0.715  -1.178  -3.205  0.00  0.00     0.055 A 
ATOM      6  C5  BZF d   1       0.937  -0.372  -4.277  0.00  0.00    -0.016 A 
ATOM      7  C6  BZF d   1       1.034   0.998  -4.147  0.00  0.00     0.022 A 
ATOM      8  C7  BZF d   1       0.923   1.601  -2.938  0.00  0.00     0.029 A 
ATOM      9  C7A BZF d   1       0.732   0.786  -1.849  0.00  0.00     0.058 A 
ENDROOT
TORSDOF 0
ENDMDL
