MODEL 1
REMARK minimizedAffinity -5.35693789
REMARK minimizedRMSD -1
REMARK  0 active torsions:
REMARK  status: ('A' for Active; 'I' for Inactive)
ROOT
ATOM      1  O1  BZF d   1       1.853   0.249  -0.232  0.00  0.00    -0.204 OA
ATOM      2  C2  BZF d   1       1.484  -0.166  -1.497  0.00  0.00     0.174 A 
ATOM      3  C3  BZF d   1       0.143  -0.265  -1.596  0.00  0.00    -0.012 A 
ATOM      4  C3A BZF d   1      -0.363   0.200  -0.341  0.00  0.00    -0.107 A 
ATOM      5  C4  BZF d   1      -1.622   0.356   0.165  0.00  0.00     0.055 A 
ATOM      6  C5  BZF d   1      -1.770   0.765   1.453  0.00  0.00    -0.016 A 
ATOM      7  C6  BZF d   1      -0.684   1.022   2.263  0.00  0.00     0.022 A 
ATOM      8  C7  BZF d   1       0.584   0.886   1.804  0.00  0.00     0.029 A 
ATOM      9  C7A BZF d   1       0.738   0.505   0.494  0.00  0.00     0.058 A 
ENDROOT
TORSDOF 0
ENDMDL
