MODEL 1
REMARK minimizedAffinity -2.70664954
REMARK minimizedRMSD -1
REMARK  0 active torsions:
REMARK  status: ('A' for Active; 'I' for Inactive)
ROOT
ATOM      1  O1  BZF d   1      -0.082   1.501  -3.222  0.00  0.00    -0.204 OA
ATOM      2  C2  BZF d   1       0.656   0.738  -4.106  0.00  0.00     0.174 A 
ATOM      3  C3  BZF d   1       1.099  -0.389  -3.511  0.00  0.00    -0.012 A 
ATOM      4  C3A BZF d   1       0.530  -0.370  -2.198  0.00  0.00    -0.107 A 
ATOM      5  C4  BZF d   1       0.591  -1.226  -1.136  0.00  0.00     0.055 A 
ATOM      6  C5  BZF d   1      -0.018  -0.879   0.028  0.00  0.00    -0.016 A 
ATOM      7  C6  BZF d   1      -0.691   0.317   0.167  0.00  0.00     0.022 A 
ATOM      8  C7  BZF d   1      -0.783   1.197  -0.860  0.00  0.00     0.029 A 
ATOM      9  C7A BZF d   1      -0.196   0.834  -2.048  0.00  0.00     0.058 A 
ENDROOT
TORSDOF 0
ENDMDL
