MODEL 1
REMARK minimizedAffinity -3.21431756
REMARK minimizedRMSD -1
REMARK  0 active torsions:
REMARK  status: ('A' for Active; 'I' for Inactive)
ROOT
ATOM      1  O1  BZF d   1      -0.041   1.830  -3.082  0.00  0.00    -0.204 OA
ATOM      2  C2  BZF d   1       0.470   0.888  -3.953  0.00  0.00     0.174 A 
ATOM      3  C3  BZF d   1       0.618  -0.302  -3.337  0.00  0.00    -0.012 A 
ATOM      4  C3A BZF d   1       0.086  -0.115  -2.023  0.00  0.00    -0.107 A 
ATOM      5  C4  BZF d   1      -0.064  -0.939  -0.944  0.00  0.00     0.055 A 
ATOM      6  C5  BZF d   1      -0.554  -0.426   0.216  0.00  0.00    -0.016 A 
ATOM      7  C6  BZF d   1      -0.899   0.904   0.333  0.00  0.00     0.022 A 
ATOM      8  C7  BZF d   1      -0.773   1.759  -0.711  0.00  0.00     0.029 A 
ATOM      9  C7A BZF d   1      -0.309   1.237  -1.894  0.00  0.00     0.058 A 
ENDROOT
TORSDOF 0
ENDMDL
