MODEL 1
REMARK minimizedAffinity -3.35231328
REMARK minimizedRMSD -1
REMARK  0 active torsions:
REMARK  status: ('A' for Active; 'I' for Inactive)
ROOT
ATOM      1  O1  BZF d   1       1.108  -0.296  -0.675  0.00  0.00    -0.204 OA
ATOM      2  C2  BZF d   1       0.126   0.129  -1.549  0.00  0.00     0.174 A 
ATOM      3  C3  BZF d   1      -0.986   0.494  -0.879  0.00  0.00    -0.012 A 
ATOM      4  C3A BZF d   1      -0.648   0.371   0.506  0.00  0.00    -0.107 A 
ATOM      5  C4  BZF d   1      -1.333   0.606   1.663  0.00  0.00     0.055 A 
ATOM      6  C5  BZF d   1      -0.741   0.317   2.852  0.00  0.00    -0.016 A 
ATOM      7  C6  BZF d   1       0.532  -0.213   2.919  0.00  0.00     0.022 A 
ATOM      8  C7  BZF d   1       1.252  -0.458   1.797  0.00  0.00     0.029 A 
ATOM      9  C7A BZF d   1       0.669  -0.136   0.596  0.00  0.00     0.058 A 
ENDROOT
TORSDOF 0
ENDMDL
