MODEL 1
REMARK minimizedAffinity -1.35443902
REMARK minimizedRMSD -1
REMARK  0 active torsions:
REMARK  status: ('A' for Active; 'I' for Inactive)
ROOT
ATOM      1  O1  BZF d   1      -1.864   0.532   1.721  0.00  0.00    -0.204 OA
ATOM      2  C2  BZF d   1      -2.890   0.306   0.824  0.00  0.00     0.174 A 
ATOM      3  C3  BZF d   1      -2.430  -0.317  -0.281  0.00  0.00    -0.012 A 
ATOM      4  C3A BZF d   1      -1.047  -0.574  -0.019  0.00  0.00    -0.107 A 
ATOM      5  C4  BZF d   1      -0.054  -1.183  -0.733  0.00  0.00     0.055 A 
ATOM      6  C5  BZF d   1       1.206  -1.205  -0.224  0.00  0.00    -0.016 A 
ATOM      7  C6  BZF d   1       1.509  -0.625   0.990  0.00  0.00     0.022 A 
ATOM      8  C7  BZF d   1       0.557  -0.015   1.737  0.00  0.00     0.029 A 
ATOM      9  C7A BZF d   1      -0.724  -0.019   1.241  0.00  0.00     0.058 A 
ENDROOT
TORSDOF 0
ENDMDL
