MODEL 1
REMARK minimizedAffinity -1.73560584
REMARK minimizedRMSD -1
REMARK  0 active torsions:
REMARK  status: ('A' for Active; 'I' for Inactive)
ROOT
ATOM      1  O1  BZF d   1       1.497   0.000  -3.100  0.00  0.00    -0.204 OA
ATOM      2  C2  BZF d   1       1.698   1.330  -3.418  0.00  0.00     0.174 A 
ATOM      3  C3  BZF d   1       1.124   2.133  -2.498  0.00  0.00    -0.012 A 
ATOM      4  C3A BZF d   1       0.607   1.250  -1.498  0.00  0.00    -0.107 A 
ATOM      5  C4  BZF d   1      -0.059   1.451  -0.323  0.00  0.00     0.055 A 
ATOM      6  C5  BZF d   1      -0.489   0.374   0.385  0.00  0.00    -0.016 A 
ATOM      7  C6  BZF d   1      -0.276  -0.916  -0.055  0.00  0.00     0.022 A 
ATOM      8  C7  BZF d   1       0.385  -1.166  -1.212  0.00  0.00     0.029 A 
ATOM      9  C7A BZF d   1       0.849  -0.080  -1.913  0.00  0.00     0.058 A 
ENDROOT
TORSDOF 0
ENDMDL
