MODEL 1
REMARK minimizedAffinity 3.76063347
REMARK minimizedRMSD -1
REMARK  1 active torsions:
REMARK  status: ('A' for Active; 'I' for Inactive)
REMARK    1  A    between atoms: C1_2  and  C2_3 
ROOT
ATOM      1  C2  UNL d   1       2.809  -4.513   4.907  0.00  0.00    -0.073 A 
ATOM      2  C3  UNL d   1       1.875  -4.040   3.979  0.00  0.00    -0.002 A 
ATOM      3  C4  UNL d   1       2.269  -3.164   2.966  0.00  0.00     0.004 A 
ATOM      4  C5  UNL d   1       3.600  -2.758   2.868  0.00  0.00    -0.004 A 
ATOM      5  C6  UNL d   1       4.550  -3.230   3.779  0.00  0.00    -0.075 A 
ATOM      6  C7  UNL d   1       5.986  -2.802   3.688  0.00  0.00     0.076 C 
ATOM      7  C8  UNL d   1       4.146  -4.107   4.794  0.00  0.00     0.001 A 
ENDROOT
BRANCH   1   8
ATOM      8  C1  UNL d   1       2.389  -5.464   5.998  0.00  0.00     0.053 C 
ATOM      9  C   UNL d   1       0.888  -5.706   5.998  0.00  0.00     0.018 C 
ENDBRANCH   1   8
TORSDOF 1
ENDMDL
