MODEL 1
REMARK minimizedAffinity 1.34834123
REMARK minimizedRMSD -1
REMARK  1 active torsions:
REMARK  status: ('A' for Active; 'I' for Inactive)
REMARK    1  A    between atoms: C1_2  and  C2_3 
ROOT
ATOM      1  C2  UNL d   1       1.495  -4.176   4.142  0.00  0.00    -0.073 A 
ATOM      2  C3  UNL d   1       0.722  -3.050   3.838  0.00  0.00    -0.002 A 
ATOM      3  C4  UNL d   1       1.331  -1.876   3.391  0.00  0.00     0.004 A 
ATOM      4  C5  UNL d   1       2.716  -1.819   3.237  0.00  0.00    -0.004 A 
ATOM      5  C6  UNL d   1       3.504  -2.938   3.523  0.00  0.00    -0.075 A 
ATOM      6  C7  UNL d   1       4.996  -2.892   3.365  0.00  0.00     0.076 C 
ATOM      7  C8  UNL d   1       2.886  -4.112   3.975  0.00  0.00     0.001 A 
ENDROOT
BRANCH   1   8
ATOM      8  C1  UNL d   1       0.842  -5.447   4.619  0.00  0.00     0.053 C 
ATOM      9  C   UNL d   1       0.224  -5.288   5.999  0.00  0.00     0.018 C 
ENDBRANCH   1   8
TORSDOF 1
ENDMDL
