MODEL 1
REMARK minimizedAffinity 7.42163849
REMARK minimizedRMSD -1
REMARK  1 active torsions:
REMARK  status: ('A' for Active; 'I' for Inactive)
REMARK    1  A    between atoms: C1_2  and  C2_3 
ROOT
ATOM      1  C2  UNL d   1       2.214  -2.210   3.051  0.00  0.00    -0.073 A 
ATOM      2  C3  UNL d   1       1.686  -3.408   3.547  0.00  0.00    -0.002 A 
ATOM      3  C4  UNL d   1       2.530  -4.377   4.092  0.00  0.00     0.004 A 
ATOM      4  C5  UNL d   1       3.906  -4.157   4.152  0.00  0.00    -0.004 A 
ATOM      5  C6  UNL d   1       4.450  -2.961   3.671  0.00  0.00    -0.075 A 
ATOM      6  C7  UNL d   1       5.929  -2.710   3.726  0.00  0.00     0.076 C 
ATOM      7  C8  UNL d   1       3.597  -1.994   3.123  0.00  0.00     0.001 A 
ENDROOT
BRANCH   1   8
ATOM      8  C1  UNL d   1       1.306  -1.158   2.467  0.00  0.00     0.053 C 
ATOM      9  C   UNL d   1       2.002  -0.337   1.394  0.00  0.00     0.018 C 
ENDBRANCH   1   8
TORSDOF 1
ENDMDL
