MODEL 1
REMARK minimizedAffinity 3.43794584
REMARK minimizedRMSD -1
REMARK  1 active torsions:
REMARK  status: ('A' for Active; 'I' for Inactive)
REMARK    1  A    between atoms: C1_2  and  C2_3 
ROOT
ATOM      1  C2  UNL d   1       3.596  -3.061   3.726  0.00  0.00    -0.073 A 
ATOM      2  C3  UNL d   1       2.726  -4.130   3.967  0.00  0.00    -0.002 A 
ATOM      3  C4  UNL d   1       1.399  -4.069   3.540  0.00  0.00     0.004 A 
ATOM      4  C5  UNL d   1       0.931  -2.943   2.862  0.00  0.00    -0.004 A 
ATOM      5  C6  UNL d   1       1.788  -1.870   2.601  0.00  0.00    -0.075 A 
ATOM      6  C7  UNL d   1       1.300  -0.651   1.875  0.00  0.00     0.076 C 
ATOM      7  C8  UNL d   1       3.119  -1.937   3.036  0.00  0.00     0.001 A 
ENDROOT
BRANCH   1   8
ATOM      8  C1  UNL d   1       5.032  -3.125   4.180  0.00  0.00     0.053 C 
ATOM      9  C   UNL d   1       5.999  -2.776   3.060  0.00  0.00     0.018 C 
ENDBRANCH   1   8
TORSDOF 1
ENDMDL
