MODEL 1
REMARK minimizedAffinity 3.15640926
REMARK minimizedRMSD -1
REMARK  1 active torsions:
REMARK  status: ('A' for Active; 'I' for Inactive)
REMARK    1  A    between atoms: C1_2  and  C2_3 
ROOT
ATOM      1  C2  UNL d   1       1.486  -3.560   4.454  0.00  0.00    -0.073 A 
ATOM      2  C3  UNL d   1       1.919  -4.528   3.541  0.00  0.00    -0.002 A 
ATOM      3  C4  UNL d   1       2.195  -4.176   2.219  0.00  0.00     0.004 A 
ATOM      4  C5  UNL d   1       2.048  -2.854   1.798  0.00  0.00    -0.004 A 
ATOM      5  C6  UNL d   1       1.628  -1.870   2.699  0.00  0.00    -0.075 A 
ATOM      6  C7  UNL d   1       1.462  -0.445   2.262  0.00  0.00     0.076 C 
ATOM      7  C8  UNL d   1       1.350  -2.232   4.024  0.00  0.00     0.001 A 
ENDROOT
BRANCH   1   8
ATOM      8  C1  UNL d   1       1.193  -3.933   5.884  0.00  0.00     0.053 C 
ATOM      9  C   UNL d   1       0.597  -5.327   5.998  0.00  0.00     0.018 C 
ENDBRANCH   1   8
TORSDOF 1
ENDMDL
