MODEL 1
REMARK minimizedAffinity 3.32990432
REMARK minimizedRMSD -1
REMARK  1 active torsions:
REMARK  status: ('A' for Active; 'I' for Inactive)
REMARK    1  A    between atoms: C1_2  and  C2_3 
ROOT
ATOM      1  C2  UNL d   1       1.165  -3.506   3.932  0.00  0.00    -0.073 A 
ATOM      2  C3  UNL d   1       2.113  -3.927   2.992  0.00  0.00    -0.002 A 
ATOM      3  C4  UNL d   1       2.823  -2.990   2.240  0.00  0.00     0.004 A 
ATOM      4  C5  UNL d   1       2.600  -1.626   2.425  0.00  0.00    -0.004 A 
ATOM      5  C6  UNL d   1       1.666  -1.186   3.368  0.00  0.00    -0.075 A 
ATOM      6  C7  UNL d   1       1.412   0.278   3.578  0.00  0.00     0.076 C 
ATOM      7  C8  UNL d   1       0.954  -2.132   4.118  0.00  0.00     0.001 A 
ENDROOT
BRANCH   1   8
ATOM      8  C1  UNL d   1       0.400  -4.513   4.751  0.00  0.00     0.053 C 
ATOM      9  C   UNL d   1       1.162  -4.929   6.000  0.00  0.00     0.018 C 
ENDBRANCH   1   8
TORSDOF 1
ENDMDL
