MODEL 1
REMARK minimizedAffinity 12.5097046
REMARK minimizedRMSD -1
REMARK  1 active torsions:
REMARK  status: ('A' for Active; 'I' for Inactive)
REMARK    1  A    between atoms: C1_2  and  C2_3 
ROOT
ATOM      1  C2  UNL d   1       1.719  -4.532   4.126  0.00  0.00    -0.073 A 
ATOM      2  C3  UNL d   1       3.010  -4.599   4.661  0.00  0.00    -0.002 A 
ATOM      3  C4  UNL d   1       3.923  -3.569   4.431  0.00  0.00     0.004 A 
ATOM      4  C5  UNL d   1       3.553  -2.460   3.671  0.00  0.00    -0.004 A 
ATOM      5  C6  UNL d   1       2.263  -2.369   3.138  0.00  0.00    -0.075 A 
ATOM      6  C7  UNL d   1       1.850  -1.183   2.316  0.00  0.00     0.076 C 
ATOM      7  C8  UNL d   1       1.353  -3.409   3.371  0.00  0.00     0.001 A 
ENDROOT
BRANCH   1   8
ATOM      8  C1  UNL d   1       0.728  -5.639   4.377  0.00  0.00     0.053 C 
ATOM      9  C   UNL d   1       0.638  -6.000   5.851  0.00  0.00     0.018 C 
ENDBRANCH   1   8
TORSDOF 1
ENDMDL
