MODEL 1
REMARK minimizedAffinity -0.445187181
REMARK minimizedRMSD -1
REMARK  1 active torsions:
REMARK  status: ('A' for Active; 'I' for Inactive)
REMARK    1  A    between atoms: C1_2  and  C2_3 
ROOT
ATOM      1  C2  UNL d   1       3.489  -5.980  -3.994  0.00  0.00    -0.073 A 
ATOM      2  C3  UNL d   1       4.854  -5.966  -3.685  0.00  0.00    -0.002 A 
ATOM      3  C4  UNL d   1       5.275  -5.954  -2.354  0.00  0.00     0.004 A 
ATOM      4  C5  UNL d   1       4.338  -5.964  -1.321  0.00  0.00    -0.004 A 
ATOM      5  C6  UNL d   1       2.970  -5.990  -1.610  0.00  0.00    -0.075 A 
ATOM      6  C7  UNL d   1       1.950  -5.999  -0.510  0.00  0.00     0.076 C 
ATOM      7  C8  UNL d   1       2.555  -5.999  -2.948  0.00  0.00     0.001 A 
ENDROOT
BRANCH   1   8
ATOM      8  C1  UNL d   1       3.029  -6.000  -5.429  0.00  0.00     0.053 C 
ATOM      9  C   UNL d   1       1.513  -5.978  -5.542  0.00  0.00     0.018 C 
ENDBRANCH   1   8
TORSDOF 1
ENDMDL
