MODEL 1
REMARK minimizedAffinity 5.06998968
REMARK minimizedRMSD -1
REMARK  1 active torsions:
REMARK  status: ('A' for Active; 'I' for Inactive)
REMARK    1  A    between atoms: C1_2  and  C2_3 
ROOT
ATOM      1  C2  UNL d   1       2.623  -5.999  -4.099  0.00  0.00    -0.073 A 
ATOM      2  C3  UNL d   1       1.337  -5.998  -3.548  0.00  0.00    -0.002 A 
ATOM      3  C4  UNL d   1       1.164  -5.995  -2.163  0.00  0.00     0.004 A 
ATOM      4  C5  UNL d   1       2.273  -5.984  -1.317  0.00  0.00    -0.004 A 
ATOM      5  C6  UNL d   1       3.566  -5.972  -1.849  0.00  0.00    -0.075 A 
ATOM      6  C7  UNL d   1       4.769  -5.963  -0.952  0.00  0.00     0.076 C 
ATOM      7  C8  UNL d   1       3.732  -5.979  -3.240  0.00  0.00     0.001 A 
ENDROOT
BRANCH   1   8
ATOM      8  C1  UNL d   1       2.815  -5.996  -5.594  0.00  0.00     0.053 C 
ATOM      9  C   UNL d   1       4.286  -5.980  -5.979  0.00  0.00     0.018 C 
ENDBRANCH   1   8
TORSDOF 1
ENDMDL
