MODEL 1
REMARK minimizedAffinity 3.93277907
REMARK minimizedRMSD -1
REMARK  1 active torsions:
REMARK  status: ('A' for Active; 'I' for Inactive)
REMARK    1  A    between atoms: C1_2  and  C2_3 
ROOT
ATOM      1  C2  UNL d   1       1.707  -3.369   3.750  0.00  0.00    -0.073 A 
ATOM      2  C3  UNL d   1       3.056  -3.526   4.088  0.00  0.00    -0.002 A 
ATOM      3  C4  UNL d   1       3.439  -4.471   5.040  0.00  0.00     0.004 A 
ATOM      4  C5  UNL d   1       2.480  -5.273   5.659  0.00  0.00    -0.004 A 
ATOM      5  C6  UNL d   1       1.128  -5.139   5.326  0.00  0.00    -0.075 A 
ATOM      6  C7  UNL d   1       0.083  -5.992   5.983  0.00  0.00     0.076 C 
ATOM      7  C8  UNL d   1       0.751  -4.186   4.370  0.00  0.00     0.001 A 
ENDROOT
BRANCH   1   8
ATOM      8  C1  UNL d   1       1.290  -2.354   2.717  0.00  0.00     0.053 C 
ATOM      9  C   UNL d   1       2.133  -1.090   2.787  0.00  0.00     0.018 C 
ENDBRANCH   1   8
TORSDOF 1
ENDMDL
