MODEL 1
REMARK minimizedAffinity 11.6040821
REMARK minimizedRMSD -1
REMARK  1 active torsions:
REMARK  status: ('A' for Active; 'I' for Inactive)
REMARK    1  A    between atoms: C1_2  and  C2_3 
ROOT
ATOM      1  C2  UNL d   1      -3.001  -0.051  -2.377  0.00  0.00    -0.073 A 
ATOM      2  C3  UNL d   1      -2.562  -0.771  -1.260  0.00  0.00    -0.002 A 
ATOM      3  C4  UNL d   1      -2.640  -2.164  -1.244  0.00  0.00     0.004 A 
ATOM      4  C5  UNL d   1      -3.150  -2.852  -2.345  0.00  0.00    -0.004 A 
ATOM      5  C6  UNL d   1      -3.582  -2.151  -3.476  0.00  0.00    -0.075 A 
ATOM      6  C7  UNL d   1      -4.135  -2.875  -4.668  0.00  0.00     0.076 C 
ATOM      7  C8  UNL d   1      -3.503  -0.752  -3.483  0.00  0.00     0.001 A 
ENDROOT
BRANCH   1   8
ATOM      8  C1  UNL d   1      -2.913   1.453  -2.402  0.00  0.00     0.053 C 
ATOM      9  C   UNL d   1      -4.120   2.083  -3.078  0.00  0.00     0.018 C 
ENDBRANCH   1   8
TORSDOF 1
ENDMDL
