MODEL 1
REMARK minimizedAffinity 9.80013752
REMARK minimizedRMSD -1
REMARK  1 active torsions:
REMARK  status: ('A' for Active; 'I' for Inactive)
REMARK    1  A    between atoms: C1_2  and  C2_3 
ROOT
ATOM      1  C2  UNL d   1       1.936  -0.875   2.112  0.00  0.00    -0.073 A 
ATOM      2  C3  UNL d   1       1.857  -0.404   3.427  0.00  0.00    -0.002 A 
ATOM      3  C4  UNL d   1       2.256   0.897   3.735  0.00  0.00     0.004 A 
ATOM      4  C5  UNL d   1       2.730   1.742   2.732  0.00  0.00    -0.004 A 
ATOM      5  C6  UNL d   1       2.805   1.294   1.409  0.00  0.00    -0.075 A 
ATOM      6  C7  UNL d   1       3.315   2.190   0.319  0.00  0.00     0.076 C 
ATOM      7  C8  UNL d   1       2.405  -0.015   1.108  0.00  0.00     0.001 A 
ENDROOT
BRANCH   1   8
ATOM      8  C1  UNL d   1       1.501  -2.277   1.773  0.00  0.00     0.053 C 
ATOM      9  C   UNL d   1       1.403  -3.158   3.009  0.00  0.00     0.018 C 
ENDBRANCH   1   8
TORSDOF 1
ENDMDL
