MODEL 1
REMARK minimizedAffinity 18.3631401
REMARK minimizedRMSD -1
REMARK  1 active torsions:
REMARK  status: ('A' for Active; 'I' for Inactive)
REMARK    1  A    between atoms: C1_2  and  C2_3 
ROOT
ATOM      1  C2  UNL d   1      -3.908  -1.497  -3.177  0.00  0.00    -0.073 A 
ATOM      2  C3  UNL d   1      -4.651  -1.934  -2.075  0.00  0.00    -0.002 A 
ATOM      3  C4  UNL d   1      -5.693  -2.846  -2.244  0.00  0.00     0.004 A 
ATOM      4  C5  UNL d   1      -5.998  -3.336  -3.514  0.00  0.00    -0.004 A 
ATOM      5  C6  UNL d   1      -5.259  -2.920  -4.627  0.00  0.00    -0.075 A 
ATOM      6  C7  UNL d   1      -5.576  -3.435  -6.000  0.00  0.00     0.076 C 
ATOM      7  C8  UNL d   1      -4.216  -2.001  -4.448  0.00  0.00     0.001 A 
ENDROOT
BRANCH   1   8
ATOM      8  C1  UNL d   1      -2.778  -0.516  -2.998  0.00  0.00     0.053 C 
ATOM      9  C   UNL d   1      -3.267   0.923  -2.996  0.00  0.00     0.018 C 
ENDBRANCH   1   8
TORSDOF 1
ENDMDL
