MODEL 1
REMARK minimizedAffinity -4.3999505
REMARK minimizedRMSD -1
REMARK  0 active torsions:
REMARK  status: ('A' for Active; 'I' for Inactive)
ROOT
ATOM      1  C1  DEN d   1      -0.033   1.808  -1.410  0.00  0.00     0.130 A 
ATOM      2  C2  DEN d   1       1.181   1.049  -1.699  0.00  0.00    -0.031 A 
ATOM      3  C3  DEN d   1       1.325   0.007  -0.663  0.00  0.00     0.027 A 
ATOM      4  C4  DEN d   1      -0.206  -0.503   1.349  0.00  0.00     0.027 A 
ATOM      5  C5  DEN d   1      -1.348  -0.120   2.016  0.00  0.00    -0.003 A 
ATOM      6  C6  DEN d   1      -2.108   0.945   1.610  0.00  0.00     0.001 A 
ATOM      7  C7  DEN d   1      -1.759   1.637   0.481  0.00  0.00     0.017 A 
ATOM      8  C8  DEN d   1      -0.604   1.261  -0.192  0.00  0.00    -0.094 A 
ATOM      9  C9  DEN d   1       0.144   0.174   0.226  0.00  0.00    -0.072 A 
ENDROOT
TORSDOF 0
ENDMDL
