MODEL 1
REMARK minimizedAffinity -4.04502058
REMARK minimizedRMSD -1
REMARK  0 active torsions:
REMARK  status: ('A' for Active; 'I' for Inactive)
ROOT
ATOM      1  C1  DEN d   1      -1.729   2.010  -0.248  0.00  0.00     0.130 A 
ATOM      2  C2  DEN d   1      -2.385   2.127   1.052  0.00  0.00    -0.031 A 
ATOM      3  C3  DEN d   1      -1.943   0.995   1.891  0.00  0.00     0.027 A 
ATOM      4  C4  DEN d   1      -0.309  -0.914   1.309  0.00  0.00     0.027 A 
ATOM      5  C5  DEN d   1       0.492  -1.445   0.322  0.00  0.00    -0.003 A 
ATOM      6  C6  DEN d   1       0.582  -0.885  -0.924  0.00  0.00     0.001 A 
ATOM      7  C7  DEN d   1      -0.106   0.266  -1.203  0.00  0.00     0.017 A 
ATOM      8  C8  DEN d   1      -0.922   0.803  -0.215  0.00  0.00    -0.094 A 
ATOM      9  C9  DEN d   1      -0.990   0.229   1.043  0.00  0.00    -0.072 A 
ENDROOT
TORSDOF 0
ENDMDL
