MODEL 1
REMARK minimizedAffinity -3.48134232
REMARK minimizedRMSD -1
REMARK  0 active torsions:
REMARK  status: ('A' for Active; 'I' for Inactive)
ROOT
ATOM      1  C1  DEN d   1       0.770  -0.652   0.061  0.00  0.00     0.130 A 
ATOM      2  C2  DEN d   1       0.615  -0.864  -1.376  0.00  0.00    -0.031 A 
ATOM      3  C3  DEN d   1      -0.518  -0.038  -1.839  0.00  0.00     0.027 A 
ATOM      4  C4  DEN d   1      -2.036   1.544  -0.480  0.00  0.00     0.027 A 
ATOM      5  C5  DEN d   1      -2.298   2.042   0.777  0.00  0.00    -0.003 A 
ATOM      6  C6  DEN d   1      -1.584   1.655   1.880  0.00  0.00     0.001 A 
ATOM      7  C7  DEN d   1      -0.543   0.777   1.740  0.00  0.00     0.017 A 
ATOM      8  C8  DEN d   1      -0.277   0.264   0.477  0.00  0.00    -0.094 A 
ATOM      9  C9  DEN d   1      -1.002   0.677  -0.628  0.00  0.00    -0.072 A 
ENDROOT
TORSDOF 0
ENDMDL
