MODEL 1
REMARK minimizedAffinity -4.31205225
REMARK minimizedRMSD -1
REMARK  0 active torsions:
REMARK  status: ('A' for Active; 'I' for Inactive)
ROOT
ATOM      1  C1  DEN d   1       0.863  -0.024   1.428  0.00  0.00     0.130 A 
ATOM      2  C2  DEN d   1       1.253  -0.662   0.173  0.00  0.00    -0.031 A 
ATOM      3  C3  DEN d   1       0.209  -0.373  -0.830  0.00  0.00     0.027 A 
ATOM      4  C4  DEN d   1      -1.960   0.998  -0.566  0.00  0.00     0.027 A 
ATOM      5  C5  DEN d   1      -2.728   1.725   0.317  0.00  0.00    -0.003 A 
ATOM      6  C6  DEN d   1      -2.372   1.890   1.629  0.00  0.00     0.001 A 
ATOM      7  C7  DEN d   1      -1.195   1.358   2.086  0.00  0.00     0.017 A 
ATOM      8  C8  DEN d   1      -0.420   0.618   1.204  0.00  0.00    -0.094 A 
ATOM      9  C9  DEN d   1      -0.790   0.472  -0.122  0.00  0.00    -0.072 A 
ENDROOT
TORSDOF 0
ENDMDL
