MODEL 1
REMARK minimizedAffinity -5.97498798
REMARK minimizedRMSD -1
REMARK  0 active torsions:
REMARK  status: ('A' for Active; 'I' for Inactive)
ROOT
ATOM      1  C1  DEN d   1      -2.088   0.821   1.751  0.00  0.00     0.130 A 
ATOM      2  C2  DEN d   1      -1.804  -0.559   2.134  0.00  0.00    -0.031 A 
ATOM      3  C3  DEN d   1      -0.671  -1.036   1.314  0.00  0.00     0.027 A 
ATOM      4  C4  DEN d   1       0.665   0.223  -0.496  0.00  0.00     0.027 A 
ATOM      5  C5  DEN d   1       0.785   1.414  -1.179  0.00  0.00    -0.003 A 
ATOM      6  C6  DEN d   1      -0.059   2.470  -0.958  0.00  0.00     0.001 A 
ATOM      7  C7  DEN d   1      -1.033   2.372   0.000  0.00  0.00     0.017 A 
ATOM      8  C8  DEN d   1      -1.165   1.172   0.687  0.00  0.00    -0.094 A 
ATOM      9  C9  DEN d   1      -0.294   0.120   0.458  0.00  0.00    -0.072 A 
ENDROOT
TORSDOF 0
ENDMDL
