MODEL 1
REMARK minimizedAffinity -4.99502039
REMARK minimizedRMSD -1
REMARK  0 active torsions:
REMARK  status: ('A' for Active; 'I' for Inactive)
ROOT
ATOM      1  C1  DEN d   1      -1.317   2.011  -0.069  0.00  0.00     0.130 A 
ATOM      2  C2  DEN d   1      -1.967   2.267   1.213  0.00  0.00    -0.031 A 
ATOM      3  C3  DEN d   1      -1.718   1.106   2.092  0.00  0.00     0.027 A 
ATOM      4  C4  DEN d   1      -0.391  -1.049   1.595  0.00  0.00     0.027 A 
ATOM      5  C5  DEN d   1       0.334  -1.725   0.639  0.00  0.00    -0.003 A 
ATOM      6  C6  DEN d   1       0.529  -1.223  -0.621  0.00  0.00     0.001 A 
ATOM      7  C7  DEN d   1       0.031   0.011  -0.944  0.00  0.00     0.017 A 
ATOM      8  C8  DEN d   1      -0.707   0.696   0.012  0.00  0.00    -0.094 A 
ATOM      9  C9  DEN d   1      -0.883   0.177   1.284  0.00  0.00    -0.072 A 
ENDROOT
TORSDOF 0
ENDMDL
