MODEL 1
REMARK minimizedAffinity -6.09513378
REMARK minimizedRMSD -1
REMARK  0 active torsions:
REMARK  status: ('A' for Active; 'I' for Inactive)
ROOT
ATOM      1  C1  DEN d   1      -1.718   0.886   2.232  0.00  0.00     0.130 A 
ATOM      2  C2  DEN d   1      -2.260   1.746   1.184  0.00  0.00    -0.031 A 
ATOM      3  C3  DEN d   1      -1.531   1.457  -0.067  0.00  0.00     0.027 A 
ATOM      4  C4  DEN d   1       0.372  -0.234  -0.482  0.00  0.00     0.027 A 
ATOM      5  C5  DEN d   1       1.179  -1.182   0.107  0.00  0.00    -0.003 A 
ATOM      6  C6  DEN d   1       1.102  -1.481   1.441  0.00  0.00     0.001 A 
ATOM      7  C7  DEN d   1       0.165  -0.857   2.223  0.00  0.00     0.017 A 
ATOM      8  C8  DEN d   1      -0.647   0.106   1.638  0.00  0.00    -0.094 A 
ATOM      9  C9  DEN d   1      -0.561   0.385   0.285  0.00  0.00    -0.072 A 
ENDROOT
TORSDOF 0
ENDMDL
