MODEL 1
REMARK minimizedAffinity -4.5393033
REMARK minimizedRMSD -1
REMARK  0 active torsions:
REMARK  status: ('A' for Active; 'I' for Inactive)
ROOT
ATOM      1  C1  DEN d   1      -1.144  -0.499  -1.583  0.00  0.00     0.130 A 
ATOM      2  C2  DEN d   1       0.066  -1.280  -1.340  0.00  0.00    -0.031 A 
ATOM      3  C3  DEN d   1       0.598  -0.898  -0.017  0.00  0.00     0.027 A 
ATOM      4  C4  DEN d   1      -0.332   0.814   1.674  0.00  0.00     0.027 A 
ATOM      5  C5  DEN d   1      -1.331   1.733   1.907  0.00  0.00    -0.003 A 
ATOM      6  C6  DEN d   1      -2.311   1.995   0.986  0.00  0.00     0.001 A 
ATOM      7  C7  DEN d   1      -2.338   1.297  -0.193  0.00  0.00     0.017 A 
ATOM      8  C8  DEN d   1      -1.330   0.375  -0.438  0.00  0.00    -0.094 A 
ATOM      9  C9  DEN d   1      -0.355   0.115   0.511  0.00  0.00    -0.072 A 
ENDROOT
TORSDOF 0
ENDMDL
