MODEL 1
REMARK minimizedAffinity -5.09825325
REMARK minimizedRMSD -1
REMARK  0 active torsions:
REMARK  status: ('A' for Active; 'I' for Inactive)
ROOT
ATOM      1  C1  DEN d   1       1.109   0.578  -1.090  0.00  0.00     0.130 A 
ATOM      2  C2  DEN d   1       0.850   1.841  -1.776  0.00  0.00    -0.031 A 
ATOM      3  C3  DEN d   1      -0.269   2.514  -1.087  0.00  0.00     0.027 A 
ATOM      4  C4  DEN d   1      -1.617   1.730   0.967  0.00  0.00     0.027 A 
ATOM      5  C5  DEN d   1      -1.772   0.717   1.888  0.00  0.00    -0.003 A 
ATOM      6  C6  DEN d   1      -1.007  -0.418   1.861  0.00  0.00     0.001 A 
ATOM      7  C7  DEN d   1      -0.020  -0.549   0.919  0.00  0.00     0.017 A 
ATOM      8  C8  DEN d   1       0.137   0.464  -0.017  0.00  0.00    -0.094 A 
ATOM      9  C9  DEN d   1      -0.638   1.610   0.035  0.00  0.00    -0.072 A 
ENDROOT
TORSDOF 0
ENDMDL
