MODEL 1
REMARK minimizedAffinity -2.10079432
REMARK minimizedRMSD -1
REMARK  0 active torsions:
REMARK  status: ('A' for Active; 'I' for Inactive)
ROOT
ATOM      1  C1  DEN d   1      -1.515   1.507  -0.871  0.00  0.00     0.130 A 
ATOM      2  C2  DEN d   1      -2.242   1.916   0.327  0.00  0.00    -0.031 A 
ATOM      3  C3  DEN d   1      -1.705   1.151   1.471  0.00  0.00     0.027 A 
ATOM      4  C4  DEN d   1       0.174  -0.615   1.502  0.00  0.00     0.027 A 
ATOM      5  C5  DEN d   1       1.080  -1.304   0.726  0.00  0.00    -0.003 A 
ATOM      6  C6  DEN d   1       1.161  -1.131  -0.631  0.00  0.00     0.001 A 
ATOM      7  C7  DEN d   1       0.351  -0.214  -1.247  0.00  0.00     0.017 A 
ATOM      8  C8  DEN d   1      -0.570   0.479  -0.472  0.00  0.00    -0.094 A 
ATOM      9  C9  DEN d   1      -0.628   0.299   0.899  0.00  0.00    -0.072 A 
ENDROOT
TORSDOF 0
ENDMDL
