MODEL 1
REMARK minimizedAffinity -3.5845561
REMARK minimizedRMSD -1
REMARK  0 active torsions:
REMARK  status: ('A' for Active; 'I' for Inactive)
ROOT
ATOM      1  C1  DEN d   1      -0.987  -0.647   0.775  0.00  0.00     0.130 A 
ATOM      2  C2  DEN d   1      -0.764   0.667   1.373  0.00  0.00    -0.031 A 
ATOM      3  C3  DEN d   1       0.382   1.294   0.683  0.00  0.00     0.027 A 
ATOM      4  C4  DEN d   1       1.819   0.366  -1.246  0.00  0.00     0.027 A 
ATOM      5  C5  DEN d   1       2.018  -0.712  -2.080  0.00  0.00    -0.003 A 
ATOM      6  C6  DEN d   1       1.257  -1.848  -1.999  0.00  0.00     0.001 A 
ATOM      7  C7  DEN d   1       0.232  -1.915  -1.093  0.00  0.00     0.017 A 
ATOM      8  C8  DEN d   1       0.030  -0.835  -0.244  0.00  0.00    -0.094 A 
ATOM      9  C9  DEN d   1       0.802   0.310  -0.350  0.00  0.00    -0.072 A 
ENDROOT
TORSDOF 0
ENDMDL
