MODEL 1
REMARK minimizedAffinity -4.26549864
REMARK minimizedRMSD -1
REMARK  0 active torsions:
REMARK  status: ('A' for Active; 'I' for Inactive)
ROOT
ATOM      1  C1  DEN d   1      -1.317  -0.363   1.596  0.00  0.00     0.130 A 
ATOM      2  C2  DEN d   1      -1.635   0.929   2.198  0.00  0.00    -0.031 A 
ATOM      3  C3  DEN d   1      -0.902   1.972   1.452  0.00  0.00     0.027 A 
ATOM      4  C4  DEN d   1       0.681   1.713  -0.568  0.00  0.00     0.027 A 
ATOM      5  C5  DEN d   1       1.268   0.809  -1.425  0.00  0.00    -0.003 A 
ATOM      6  C6  DEN d   1       1.063  -0.540  -1.315  0.00  0.00     0.001 A 
ATOM      7  C7  DEN d   1       0.215  -1.022  -0.354  0.00  0.00     0.017 A 
ATOM      8  C8  DEN d   1      -0.375  -0.117   0.519  0.00  0.00    -0.094 A 
ATOM      9  C9  DEN d   1      -0.165   1.244   0.384  0.00  0.00    -0.072 A 
ENDROOT
TORSDOF 0
ENDMDL
