MODEL 1
REMARK minimizedAffinity -2.64180684
REMARK minimizedRMSD -1
REMARK  0 active torsions:
REMARK  status: ('A' for Active; 'I' for Inactive)
ROOT
ATOM      1  C1  DEN d   1      -1.661   2.044   0.030  0.00  0.00     0.130 A 
ATOM      2  C2  DEN d   1      -2.113   1.896   1.411  0.00  0.00    -0.031 A 
ATOM      3  C3  DEN d   1      -1.309   0.830   2.043  0.00  0.00     0.027 A 
ATOM      4  C4  DEN d   1       0.584  -0.594   1.024  0.00  0.00     0.027 A 
ATOM      5  C5  DEN d   1       1.314  -0.840  -0.118  0.00  0.00    -0.003 A 
ATOM      6  C6  DEN d   1       1.083  -0.171  -1.291  0.00  0.00     0.001 A 
ATOM      7  C7  DEN d   1       0.127   0.809  -1.335  0.00  0.00     0.017 A 
ATOM      8  C8  DEN d   1      -0.618   1.057  -0.190  0.00  0.00    -0.094 A 
ATOM      9  C9  DEN d   1      -0.361   0.379   0.989  0.00  0.00    -0.072 A 
ENDROOT
TORSDOF 0
ENDMDL
