MODEL 1
REMARK minimizedAffinity -4.46018887
REMARK minimizedRMSD -1
REMARK  1 active torsions:
REMARK  status: ('A' for Active; 'I' for Inactive)
REMARK    1  A    between atoms: C1_2  and  C2_3 
ROOT
ATOM      1  C2  UNL d   1      -1.159   0.236   1.800  0.00  0.00    -0.073 A 
ATOM      2  C3  UNL d   1      -0.147  -0.006   2.736  0.00  0.00    -0.002 A 
ATOM      3  C4  UNL d   1       1.189  -0.043   2.335  0.00  0.00     0.004 A 
ATOM      4  C5  UNL d   1       1.527   0.167   0.998  0.00  0.00    -0.004 A 
ATOM      5  C6  UNL d   1       0.530   0.422   0.050  0.00  0.00    -0.075 A 
ATOM      6  C7  UNL d   1       0.877   0.648  -1.392  0.00  0.00     0.076 C 
ATOM      7  C8  UNL d   1      -0.809   0.455   0.460  0.00  0.00     0.001 A 
ENDROOT
BRANCH   1   8
ATOM      8  C1  UNL d   1      -2.603   0.283   2.230  0.00  0.00     0.053 C 
ATOM      9  C   UNL d   1      -3.520   0.721   1.099  0.00  0.00     0.018 C 
ENDBRANCH   1   8
TORSDOF 1
ENDMDL
