MODEL 1
REMARK minimizedAffinity -5.98215294
REMARK minimizedRMSD -1
REMARK  1 active torsions:
REMARK  status: ('A' for Active; 'I' for Inactive)
REMARK    1  A    between atoms: C1_2  and  C2_3 
ROOT
ATOM      1  C2  UNL d   1      -0.409   0.113  -0.643  0.00  0.00    -0.073 A 
ATOM      2  C3  UNL d   1      -1.760   0.481  -0.661  0.00  0.00    -0.002 A 
ATOM      3  C4  UNL d   1      -2.522   0.422   0.506  0.00  0.00     0.004 A 
ATOM      4  C5  UNL d   1      -1.942   0.002   1.703  0.00  0.00    -0.004 A 
ATOM      5  C6  UNL d   1      -0.592  -0.358   1.744  0.00  0.00    -0.075 A 
ATOM      6  C7  UNL d   1       0.047  -0.813   3.024  0.00  0.00     0.076 C 
ATOM      7  C8  UNL d   1       0.167  -0.298   0.568  0.00  0.00     0.001 A 
ENDROOT
BRANCH   1   8
ATOM      8  C1  UNL d   1       0.420   0.182  -1.899  0.00  0.00     0.053 C 
ATOM      9  C   UNL d   1       0.591  -1.185  -2.544  0.00  0.00     0.018 C 
ENDBRANCH   1   8
TORSDOF 1
ENDMDL
