MODEL 1
REMARK minimizedAffinity -3.65239286
REMARK minimizedRMSD -1
REMARK  1 active torsions:
REMARK  status: ('A' for Active; 'I' for Inactive)
REMARK    1  A    between atoms: C1_2  and  C2_3 
ROOT
ATOM      1  C2  UNL d   1      -0.105   0.421  -0.094  0.00  0.00    -0.073 A 
ATOM      2  C3  UNL d   1       1.222   0.575   0.323  0.00  0.00    -0.002 A 
ATOM      3  C4  UNL d   1       1.530   0.647   1.682  0.00  0.00     0.004 A 
ATOM      4  C5  UNL d   1       0.518   0.558   2.637  0.00  0.00    -0.004 A 
ATOM      5  C6  UNL d   1      -0.813   0.392   2.241  0.00  0.00    -0.075 A 
ATOM      6  C7  UNL d   1      -1.914   0.297   3.256  0.00  0.00     0.076 C 
ATOM      7  C8  UNL d   1      -1.115   0.323   0.874  0.00  0.00     0.001 A 
ENDROOT
BRANCH   1   8
ATOM      8  C1  UNL d   1      -0.442   0.337  -1.560  0.00  0.00     0.053 C 
ATOM      9  C   UNL d   1       0.797   0.147  -2.420  0.00  0.00     0.018 C 
ENDBRANCH   1   8
TORSDOF 1
ENDMDL
