MODEL 1
REMARK minimizedAffinity -5.64551258
REMARK minimizedRMSD -1
REMARK  1 active torsions:
REMARK  status: ('A' for Active; 'I' for Inactive)
REMARK    1  A    between atoms: C1_2  and  C2_3 
ROOT
ATOM      1  C2  UNL d   1      -0.475   0.455   0.454  0.00  0.00    -0.073 A 
ATOM      2  C3  UNL d   1      -1.102  -0.598   1.130  0.00  0.00    -0.002 A 
ATOM      3  C4  UNL d   1      -0.453  -1.246   2.182  0.00  0.00     0.004 A 
ATOM      4  C5  UNL d   1       0.824  -0.844   2.573  0.00  0.00    -0.004 A 
ATOM      5  C6  UNL d   1       1.462   0.214   1.917  0.00  0.00    -0.075 A 
ATOM      6  C7  UNL d   1       2.837   0.658   2.324  0.00  0.00     0.076 C 
ATOM      7  C8  UNL d   1       0.805   0.858   0.860  0.00  0.00     0.001 A 
ENDROOT
BRANCH   1   8
ATOM      8  C1  UNL d   1      -1.175   1.162  -0.678  0.00  0.00     0.053 C 
ATOM      9  C   UNL d   1      -2.687   1.130  -0.523  0.00  0.00     0.018 C 
ENDBRANCH   1   8
TORSDOF 1
ENDMDL
