MODEL 1
REMARK minimizedAffinity -4.68001318
REMARK minimizedRMSD -1
REMARK  1 active torsions:
REMARK  status: ('A' for Active; 'I' for Inactive)
REMARK    1  A    between atoms: C1_2  and  C2_3 
ROOT
ATOM      1  C2  UNL d   1      -0.079  -0.426   0.479  0.00  0.00    -0.073 A 
ATOM      2  C3  UNL d   1      -1.296  -0.974   0.902  0.00  0.00    -0.002 A 
ATOM      3  C4  UNL d   1      -1.719  -0.817   2.223  0.00  0.00     0.004 A 
ATOM      4  C5  UNL d   1      -0.935  -0.105   3.131  0.00  0.00    -0.004 A 
ATOM      5  C6  UNL d   1       0.278   0.460   2.724  0.00  0.00    -0.075 A 
ATOM      6  C7  UNL d   1       1.134   1.227   3.689  0.00  0.00     0.076 C 
ATOM      7  C8  UNL d   1       0.697   0.295   1.397  0.00  0.00     0.001 A 
ENDROOT
BRANCH   1   8
ATOM      8  C1  UNL d   1       0.379  -0.589  -0.947  0.00  0.00     0.053 C 
ATOM      9  C   UNL d   1       0.305   0.718  -1.721  0.00  0.00     0.018 C 
ENDBRANCH   1   8
TORSDOF 1
ENDMDL
