MODEL 1
REMARK minimizedAffinity 0.459981561
REMARK minimizedRMSD -1
REMARK  1 active torsions:
REMARK  status: ('A' for Active; 'I' for Inactive)
REMARK    1  A    between atoms: C1_2  and  C2_3 
ROOT
ATOM      1  C2  UNL d   1       0.111   0.577  -0.215  0.00  0.00    -0.073 A 
ATOM      2  C3  UNL d   1       0.567  -0.188  -1.295  0.00  0.00    -0.002 A 
ATOM      3  C4  UNL d   1      -0.336  -0.694  -2.231  0.00  0.00     0.004 A 
ATOM      4  C5  UNL d   1      -1.700  -0.436  -2.101  0.00  0.00    -0.004 A 
ATOM      5  C6  UNL d   1      -2.174   0.336  -1.035  0.00  0.00    -0.075 A 
ATOM      6  C7  UNL d   1      -3.639   0.621  -0.880  0.00  0.00     0.076 C 
ATOM      7  C8  UNL d   1      -1.262   0.839  -0.098  0.00  0.00     0.001 A 
ENDROOT
BRANCH   1   8
ATOM      8  C1  UNL d   1       1.083   1.131   0.795  0.00  0.00     0.053 C 
ATOM      9  C   UNL d   1       2.083   0.083   1.258  0.00  0.00     0.018 C 
ENDBRANCH   1   8
TORSDOF 1
ENDMDL
