MODEL 1
REMARK minimizedAffinity -5.47574711
REMARK minimizedRMSD -1
REMARK  1 active torsions:
REMARK  status: ('A' for Active; 'I' for Inactive)
REMARK    1  A    between atoms: C1_2  and  C2_3 
ROOT
ATOM      1  C2  UNL d   1      -1.204  -0.356   1.822  0.00  0.00    -0.073 A 
ATOM      2  C3  UNL d   1      -0.305   0.143   2.772  0.00  0.00    -0.002 A 
ATOM      3  C4  UNL d   1       0.945   0.621   2.376  0.00  0.00     0.004 A 
ATOM      4  C5  UNL d   1       1.306   0.612   1.028  0.00  0.00    -0.004 A 
ATOM      5  C6  UNL d   1       0.417   0.128   0.064  0.00  0.00    -0.075 A 
ATOM      6  C7  UNL d   1       0.790   0.109  -1.390  0.00  0.00     0.076 C 
ATOM      7  C8  UNL d   1      -0.836  -0.353   0.469  0.00  0.00     0.001 A 
ENDROOT
BRANCH   1   8
ATOM      8  C1  UNL d   1      -2.557  -0.867   2.244  0.00  0.00     0.053 C 
ATOM      9  C   UNL d   1      -3.682   0.041   1.772  0.00  0.00     0.018 C 
ENDBRANCH   1   8
TORSDOF 1
ENDMDL
