MODEL 1
REMARK minimizedAffinity 2.80208778
REMARK minimizedRMSD -1
REMARK  2 active torsions:
REMARK  status: ('A' for Active; 'I' for Inactive)
REMARK    1  A    between atoms: C2'_3  and  C1'_4 
REMARK    2  A    between atoms: C1'_4  and  C1_5 
ROOT
ATOM      1  C1  I4B d   1       2.467  -2.832   2.807  0.00  0.00    -0.075 A 
ATOM      2  C2  I4B d   1       2.666  -2.771   1.451  0.00  0.00     0.003 A 
ATOM      3  C3  I4B d   1       1.909  -1.875   0.659  0.00  0.00     0.002 A 
ATOM      4  C4  I4B d   1       0.935  -1.099   1.253  0.00  0.00    -0.004 A 
ATOM      5  C5  I4B d   1       0.750  -1.145   2.632  0.00  0.00     0.002 A 
ATOM      6  C6  I4B d   1       1.529  -2.008   3.416  0.00  0.00     0.003 A 
ENDROOT
BRANCH   1   7
ATOM      7  C1' I4B d   1       3.261  -3.814   3.609  0.00  0.00     0.060 C 
BRANCH   7   8
ATOM      8  C2' I4B d   1       4.401  -3.065   4.268  0.00  0.00    -0.013 C 
ATOM      9  C4' I4B d   1       4.307  -3.140   5.769  0.00  0.00     0.013 C 
ATOM     10  C3' I4B d   1       5.689  -3.656   3.776  0.00  0.00     0.013 C 
ENDBRANCH   7   8
ENDBRANCH   1   7
TORSDOF 2
ENDMDL
