MODEL 1
REMARK minimizedAffinity 6.05200863
REMARK minimizedRMSD -1
REMARK  2 active torsions:
REMARK  status: ('A' for Active; 'I' for Inactive)
REMARK    1  A    between atoms: C2'_3  and  C1'_4 
REMARK    2  A    between atoms: C1'_4  and  C1_5 
ROOT
ATOM      1  C1  I4B d   1       0.647  -2.120   2.427  0.00  0.00    -0.075 A 
ATOM      2  C2  I4B d   1       1.829  -2.058   1.731  0.00  0.00     0.003 A 
ATOM      3  C3  I4B d   1       2.436  -3.243   1.249  0.00  0.00     0.002 A 
ATOM      4  C4  I4B d   1       1.857  -4.465   1.527  0.00  0.00    -0.004 A 
ATOM      5  C5  I4B d   1       0.647  -4.524   2.212  0.00  0.00     0.002 A 
ATOM      6  C6  I4B d   1       0.031  -3.344   2.655  0.00  0.00     0.003 A 
ENDROOT
BRANCH   1   7
ATOM      7  C1' I4B d   1       0.051  -0.852   2.950  0.00  0.00     0.060 C 
BRANCH   7   8
ATOM      8  C2' I4B d   1      -1.450  -1.038   3.025  0.00  0.00    -0.013 C 
ATOM      9  C4' I4B d   1      -2.139   0.240   3.424  0.00  0.00     0.013 C 
ATOM     10  C3' I4B d   1      -1.926  -1.514   1.684  0.00  0.00     0.013 C 
ENDBRANCH   7   8
ENDBRANCH   1   7
TORSDOF 2
ENDMDL
