MODEL 1
REMARK minimizedAffinity 3.48735356
REMARK minimizedRMSD -1
REMARK  2 active torsions:
REMARK  status: ('A' for Active; 'I' for Inactive)
REMARK    1  A    between atoms: C2'_3  and  C1'_4 
REMARK    2  A    between atoms: C1'_4  and  C1_5 
ROOT
ATOM      1  C1  I4B d   1       2.963  -1.040   0.500  0.00  0.00    -0.075 A 
ATOM      2  C2  I4B d   1       2.790   0.307   0.295  0.00  0.00     0.003 A 
ATOM      3  C3  I4B d   1       3.912   1.169   0.238  0.00  0.00     0.002 A 
ATOM      4  C4  I4B d   1       5.176   0.654   0.439  0.00  0.00    -0.004 A 
ATOM      5  C5  I4B d   1       5.351  -0.715   0.624  0.00  0.00     0.002 A 
ATOM      6  C6  I4B d   1       4.239  -1.569   0.642  0.00  0.00     0.003 A 
ENDROOT
BRANCH   1   7
ATOM      7  C1' I4B d   1       1.754  -1.916   0.588  0.00  0.00     0.060 C 
BRANCH   7   8
ATOM      8  C2' I4B d   1       1.516  -2.237   2.050  0.00  0.00    -0.013 C 
ATOM      9  C4' I4B d   1       0.301  -1.519   2.575  0.00  0.00     0.013 C 
ATOM     10  C3' I4B d   1       1.364  -3.724   2.179  0.00  0.00     0.013 C 
ENDBRANCH   7   8
ENDBRANCH   1   7
TORSDOF 2
ENDMDL
