MODEL 1
REMARK minimizedAffinity -0.326143354
REMARK minimizedRMSD -1
REMARK  2 active torsions:
REMARK  status: ('A' for Active; 'I' for Inactive)
REMARK    1  A    between atoms: C2'_3  and  C1'_4 
REMARK    2  A    between atoms: C1'_4  and  C1_5 
ROOT
ATOM      1  C1  I4B d   1       3.552   5.243  -5.892  0.00  0.00    -0.075 A 
ATOM      2  C2  I4B d   1       4.723   5.955  -5.975  0.00  0.00     0.003 A 
ATOM      3  C3  I4B d   1       5.970   5.287  -5.915  0.00  0.00     0.002 A 
ATOM      4  C4  I4B d   1       6.000   3.921  -5.723  0.00  0.00    -0.004 A 
ATOM      5  C5  I4B d   1       4.812   3.198  -5.663  0.00  0.00     0.002 A 
ATOM      6  C6  I4B d   1       3.580   3.861  -5.760  0.00  0.00     0.003 A 
ENDROOT
BRANCH   1   7
ATOM      7  C1' I4B d   1       2.254   5.985  -5.926  0.00  0.00     0.060 C 
BRANCH   7   8
ATOM      8  C2' I4B d   1       1.134   4.971  -5.809  0.00  0.00    -0.013 C 
ATOM      9  C4' I4B d   1       1.176   4.263  -4.480  0.00  0.00     0.013 C 
ATOM     10  C3' I4B d   1      -0.167   5.693  -5.996  0.00  0.00     0.013 C 
ENDBRANCH   7   8
ENDBRANCH   1   7
TORSDOF 2
ENDMDL
