MODEL 1
REMARK minimizedAffinity 6.14064837
REMARK minimizedRMSD -1
REMARK  2 active torsions:
REMARK  status: ('A' for Active; 'I' for Inactive)
REMARK    1  A    between atoms: C2'_3  and  C1'_4 
REMARK    2  A    between atoms: C1'_4  and  C1_5 
ROOT
ATOM      1  C1  I4B d   1       0.234  -2.045   2.293  0.00  0.00    -0.075 A 
ATOM      2  C2  I4B d   1       1.209  -2.387   1.390  0.00  0.00     0.003 A 
ATOM      3  C3  I4B d   1       1.170  -3.645   0.741  0.00  0.00     0.002 A 
ATOM      4  C4  I4B d   1       0.174  -4.544   1.062  0.00  0.00    -0.004 A 
ATOM      5  C5  I4B d   1      -0.827  -4.187   1.961  0.00  0.00     0.002 A 
ATOM      6  C6  I4B d   1      -0.804  -2.925   2.572  0.00  0.00     0.003 A 
ENDROOT
BRANCH   1   7
ATOM      7  C1' I4B d   1       0.324  -0.722   2.984  0.00  0.00     0.060 C 
BRANCH   7   8
ATOM      8  C2' I4B d   1       1.725  -0.182   2.779  0.00  0.00    -0.013 C 
ATOM      9  C4' I4B d   1       1.695   1.254   2.327  0.00  0.00     0.013 C 
ATOM     10  C3' I4B d   1       2.471  -0.328   4.072  0.00  0.00     0.013 C 
ENDBRANCH   7   8
ENDBRANCH   1   7
TORSDOF 2
ENDMDL
