MODEL 1
REMARK minimizedAffinity 10.9807034
REMARK minimizedRMSD -1
REMARK  2 active torsions:
REMARK  status: ('A' for Active; 'I' for Inactive)
REMARK    1  A    between atoms: C2'_3  and  C1'_4 
REMARK    2  A    between atoms: C1'_4  and  C1_5 
ROOT
ATOM      1  C1  I4B d   1       1.131  -1.980   0.842  0.00  0.00    -0.075 A 
ATOM      2  C2  I4B d   1       2.144  -1.426   1.584  0.00  0.00     0.003 A 
ATOM      3  C3  I4B d   1       1.848  -0.670   2.744  0.00  0.00     0.002 A 
ATOM      4  C4  I4B d   1       0.531  -0.450   3.094  0.00  0.00    -0.004 A 
ATOM      5  C5  I4B d   1      -0.494  -1.031   2.354  0.00  0.00     0.002 A 
ATOM      6  C6  I4B d   1      -0.193  -1.811   1.228  0.00  0.00     0.003 A 
ENDROOT
BRANCH   1   7
ATOM      7  C1' I4B d   1       1.478  -2.745  -0.395  0.00  0.00     0.060 C 
BRANCH   7   8
ATOM      8  C2' I4B d   1       1.875  -4.147   0.020  0.00  0.00    -0.013 C 
ATOM      9  C4' I4B d   1       0.671  -4.962   0.412  0.00  0.00     0.013 C 
ATOM     10  C3' I4B d   1       2.606  -4.780  -1.127  0.00  0.00     0.013 C 
ENDBRANCH   7   8
ENDBRANCH   1   7
TORSDOF 2
ENDMDL
