MODEL 1
REMARK minimizedAffinity 13.5049276
REMARK minimizedRMSD -1
REMARK  0 active torsions:
REMARK  status: ('A' for Active; 'I' for Inactive)
ROOT
ATOM      1  C   UNL d   1       1.717  -2.893   5.788  0.00  0.00    -0.002 A 
ATOM      2  C1  UNL d   1       0.872  -1.812   6.000  0.00  0.00     0.010 A 
ATOM      3  C2  UNL d   1       0.738  -0.815   5.032  0.00  0.00     0.041 A 
ATOM      4  C3  UNL d   1       1.473  -0.924   3.835  0.00  0.00    -0.075 A 
ATOM      5  S   UNL d   1       1.468   0.176   2.507  0.00  0.00     0.015 SA
ATOM      6  C4  UNL d   1       2.585  -0.763   1.628  0.00  0.00     0.022 A 
ATOM      7  C5  UNL d   1       2.964  -1.892   2.315  0.00  0.00     0.026 A 
ATOM      8  C6  UNL d   1       2.329  -2.004   3.598  0.00  0.00    -0.082 A 
ATOM      9  C7  UNL d   1       2.444  -2.998   4.600  0.00  0.00     0.045 A 
ENDROOT
TORSDOF 0
ENDMDL
