MODEL 1
REMARK minimizedAffinity 8.69297409
REMARK minimizedRMSD -1
REMARK  0 active torsions:
REMARK  status: ('A' for Active; 'I' for Inactive)
ROOT
ATOM      1  C   UNL d   1      -1.297   0.077   1.312  0.00  0.00    -0.002 A 
ATOM      2  C1  UNL d   1      -1.942  -1.109   0.992  0.00  0.00     0.010 A 
ATOM      3  C2  UNL d   1      -1.250  -2.322   1.014  0.00  0.00     0.041 A 
ATOM      4  C3  UNL d   1       0.114  -2.322   1.368  0.00  0.00    -0.075 A 
ATOM      5  S   UNL d   1       1.162  -3.688   1.463  0.00  0.00     0.015 SA
ATOM      6  C4  UNL d   1       2.491  -2.728   1.931  0.00  0.00     0.022 A 
ATOM      7  C5  UNL d   1       2.161  -1.397   2.017  0.00  0.00     0.026 A 
ATOM      8  C6  UNL d   1       0.785  -1.141   1.694  0.00  0.00    -0.082 A 
ATOM      9  C7  UNL d   1       0.056   0.073   1.662  0.00  0.00     0.045 A 
ENDROOT
TORSDOF 0
ENDMDL
