MODEL 1
REMARK minimizedAffinity -5.46491337
REMARK minimizedRMSD -1
REMARK  2 active torsions:
REMARK  status: ('A' for Active; 'I' for Inactive)
REMARK    1  A    between atoms: C2'_3  and  C1'_4 
REMARK    2  A    between atoms: C1'_4  and  C1_5 
ROOT
ATOM      1  C1  I4B d   1       0.179  -0.566  -0.426  0.00  0.00    -0.075 A 
ATOM      2  C2  I4B d   1       1.401  -0.053  -0.069  0.00  0.00     0.003 A 
ATOM      3  C3  I4B d   1       2.344  -0.862   0.611  0.00  0.00     0.002 A 
ATOM      4  C4  I4B d   1       2.006  -2.154   0.956  0.00  0.00    -0.004 A 
ATOM      5  C5  I4B d   1       0.775  -2.680   0.574  0.00  0.00     0.002 A 
ATOM      6  C6  I4B d   1      -0.139  -1.886  -0.133  0.00  0.00     0.003 A 
ENDROOT
BRANCH   1   7
ATOM      7  C1' I4B d   1      -0.804   0.326  -1.114  0.00  0.00     0.060 C 
BRANCH   7   8
ATOM      8  C2' I4B d   1      -0.712   1.699  -0.481  0.00  0.00    -0.013 C 
ATOM      9  C4' I4B d   1      -1.318   2.752  -1.371  0.00  0.00     0.013 C 
ATOM     10  C3' I4B d   1      -1.409   1.645   0.846  0.00  0.00     0.013 C 
ENDBRANCH   7   8
ENDBRANCH   1   7
TORSDOF 2
ENDMDL
