MODEL 1
REMARK minimizedAffinity -6.01593828
REMARK minimizedRMSD -1
REMARK  2 active torsions:
REMARK  status: ('A' for Active; 'I' for Inactive)
REMARK    1  A    between atoms: C2'_3  and  C1'_4 
REMARK    2  A    between atoms: C1'_4  and  C1_5 
ROOT
ATOM      1  C1  I4B d   1      -0.018  -0.245   0.647  0.00  0.00    -0.075 A 
ATOM      2  C2  I4B d   1      -0.332  -1.105   1.670  0.00  0.00     0.003 A 
ATOM      3  C3  I4B d   1       0.472  -2.245   1.915  0.00  0.00     0.002 A 
ATOM      4  C4  I4B d   1       1.543  -2.511   1.087  0.00  0.00    -0.004 A 
ATOM      5  C5  I4B d   1       1.874  -1.626   0.065  0.00  0.00     0.002 A 
ATOM      6  C6  I4B d   1       1.095  -0.479  -0.149  0.00  0.00     0.003 A 
ENDROOT
BRANCH   1   7
ATOM      7  C1' I4B d   1      -0.908   0.931   0.395  0.00  0.00     0.060 C 
BRANCH   7   8
ATOM      8  C2' I4B d   1      -1.013   1.124  -1.104  0.00  0.00    -0.013 C 
ATOM      9  C4' I4B d   1      -2.346   0.653  -1.622  0.00  0.00     0.013 C 
ATOM     10  C3' I4B d   1      -0.801   2.579  -1.398  0.00  0.00     0.013 C 
ENDBRANCH   7   8
ENDBRANCH   1   7
TORSDOF 2
ENDMDL
