MODEL 1
REMARK minimizedAffinity -5.46702385
REMARK minimizedRMSD -1
REMARK  2 active torsions:
REMARK  status: ('A' for Active; 'I' for Inactive)
REMARK    1  A    between atoms: C2'_3  and  C1'_4 
REMARK    2  A    between atoms: C1'_4  and  C1_5 
ROOT
ATOM      1  C1  I4B d   1      -0.944   0.460  -0.701  0.00  0.00    -0.075 A 
ATOM      2  C2  I4B d   1      -1.498  -0.359  -1.653  0.00  0.00     0.003 A 
ATOM      3  C3  I4B d   1      -2.452   0.152  -2.565  0.00  0.00     0.002 A 
ATOM      4  C4  I4B d   1      -2.858   1.467  -2.459  0.00  0.00    -0.004 A 
ATOM      5  C5  I4B d   1      -2.279   2.302  -1.508  0.00  0.00     0.002 A 
ATOM      6  C6  I4B d   1      -1.306   1.799  -0.631  0.00  0.00     0.003 A 
ENDROOT
BRANCH   1   7
ATOM      7  C1' I4B d   1       0.037  -0.121   0.268  0.00  0.00     0.060 C 
BRANCH   7   8
ATOM      8  C2' I4B d   1       1.204  -0.674  -0.524  0.00  0.00    -0.013 C 
ATOM      9  C4' I4B d   1       2.126   0.426  -0.978  0.00  0.00     0.013 C 
ATOM     10  C3' I4B d   1       1.925  -1.662   0.343  0.00  0.00     0.013 C 
ENDBRANCH   7   8
ENDBRANCH   1   7
TORSDOF 2
ENDMDL
