MODEL 1
REMARK minimizedAffinity -4.61665058
REMARK minimizedRMSD -1
REMARK  2 active torsions:
REMARK  status: ('A' for Active; 'I' for Inactive)
REMARK    1  A    between atoms: C2'_3  and  C1'_4 
REMARK    2  A    between atoms: C1'_4  and  C1_5 
ROOT
ATOM      1  C1  I4B d   1       0.297   0.379  -0.331  0.00  0.00    -0.075 A 
ATOM      2  C2  I4B d   1       0.289  -0.743   0.459  0.00  0.00     0.003 A 
ATOM      3  C3  I4B d   1       1.435  -1.572   0.532  0.00  0.00     0.002 A 
ATOM      4  C4  I4B d   1       2.542  -1.271  -0.236  0.00  0.00    -0.004 A 
ATOM      5  C5  I4B d   1       2.556  -0.120  -1.019  0.00  0.00     0.002 A 
ATOM      6  C6  I4B d   1       1.431   0.717  -1.058  0.00  0.00     0.003 A 
ENDROOT
BRANCH   1   7
ATOM      7  C1' I4B d   1      -0.942   1.213  -0.410  0.00  0.00     0.060 C 
BRANCH   7   8
ATOM      8  C2' I4B d   1      -1.489   1.104  -1.819  0.00  0.00    -0.013 C 
ATOM      9  C4' I4B d   1      -2.878   0.522  -1.821  0.00  0.00     0.013 C 
ATOM     10  C3' I4B d   1      -1.476   2.475  -2.428  0.00  0.00     0.013 C 
ENDBRANCH   7   8
ENDBRANCH   1   7
TORSDOF 2
ENDMDL
