MODEL 1
REMARK minimizedAffinity -4.46911764
REMARK minimizedRMSD -1
REMARK  2 active torsions:
REMARK  status: ('A' for Active; 'I' for Inactive)
REMARK    1  A    between atoms: C2'_3  and  C1'_4 
REMARK    2  A    between atoms: C1'_4  and  C1_5 
ROOT
ATOM      1  C1  I4B d   1       0.036   0.631   0.229  0.00  0.00    -0.075 A 
ATOM      2  C2  I4B d   1      -0.389  -0.568   0.745  0.00  0.00     0.003 A 
ATOM      3  C3  I4B d   1       0.533  -1.621   0.958  0.00  0.00     0.002 A 
ATOM      4  C4  I4B d   1       1.854  -1.450   0.597  0.00  0.00    -0.004 A 
ATOM      5  C5  I4B d   1       2.289  -0.226   0.096  0.00  0.00     0.002 A 
ATOM      6  C6  I4B d   1       1.377   0.825  -0.077  0.00  0.00     0.003 A 
ENDROOT
BRANCH   1   7
ATOM      7  C1' I4B d   1      -0.971   1.709  -0.014  0.00  0.00     0.060 C 
BRANCH   7   8
ATOM      8  C2' I4B d   1      -1.317   1.701  -1.489  0.00  0.00    -0.013 C 
ATOM      9  C4' I4B d   1      -2.645   1.034  -1.734  0.00  0.00     0.013 C 
ATOM     10  C3' I4B d   1      -1.327   3.121  -1.970  0.00  0.00     0.013 C 
ENDBRANCH   7   8
ENDBRANCH   1   7
TORSDOF 2
ENDMDL
