MODEL 1
REMARK minimizedAffinity -3.66859055
REMARK minimizedRMSD -1
REMARK  2 active torsions:
REMARK  status: ('A' for Active; 'I' for Inactive)
REMARK    1  A    between atoms: C2'_3  and  C1'_4 
REMARK    2  A    between atoms: C1'_4  and  C1_5 
ROOT
ATOM      1  C1  I4B d   1       0.093   0.359   0.035  0.00  0.00    -0.075 A 
ATOM      2  C2  I4B d   1      -0.141  -0.648   0.938  0.00  0.00     0.003 A 
ATOM      3  C3  I4B d   1       0.835  -1.650   1.156  0.00  0.00     0.002 A 
ATOM      4  C4  I4B d   1       2.001  -1.635   0.418  0.00  0.00    -0.004 A 
ATOM      5  C5  I4B d   1       2.246  -0.601  -0.480  0.00  0.00     0.002 A 
ATOM      6  C6  I4B d   1       1.291   0.410  -0.664  0.00  0.00     0.003 A 
ENDROOT
BRANCH   1   7
ATOM      7  C1' I4B d   1      -0.974   1.383  -0.194  0.00  0.00     0.060 C 
BRANCH   7   8
ATOM      8  C2' I4B d   1      -1.191   1.503  -1.689  0.00  0.00    -0.013 C 
ATOM      9  C4' I4B d   1      -2.232   0.527  -2.169  0.00  0.00     0.013 C 
ATOM     10  C3' I4B d   1      -1.597   2.916  -1.985  0.00  0.00     0.013 C 
ENDBRANCH   7   8
ENDBRANCH   1   7
TORSDOF 2
ENDMDL
