MODEL 1
REMARK minimizedAffinity -5.10324478
REMARK minimizedRMSD -1
REMARK  2 active torsions:
REMARK  status: ('A' for Active; 'I' for Inactive)
REMARK    1  A    between atoms: C2'_3  and  C1'_4 
REMARK    2  A    between atoms: C1'_4  and  C1_5 
ROOT
ATOM      1  C1  I4B d   1      -0.104   0.082  -0.185  0.00  0.00    -0.075 A 
ATOM      2  C2  I4B d   1       1.246   0.274  -0.348  0.00  0.00     0.003 A 
ATOM      3  C3  I4B d   1       2.155  -0.768  -0.047  0.00  0.00     0.002 A 
ATOM      4  C4  I4B d   1       1.679  -1.961   0.459  0.00  0.00    -0.004 A 
ATOM      5  C5  I4B d   1       0.309  -2.161   0.602  0.00  0.00     0.002 A 
ATOM      6  C6  I4B d   1      -0.589  -1.138   0.267  0.00  0.00     0.003 A 
ENDROOT
BRANCH   1   7
ATOM      7  C1' I4B d   1      -1.034   1.216  -0.481  0.00  0.00     0.060 C 
BRANCH   7   8
ATOM      8  C2' I4B d   1      -1.371   1.169  -1.957  0.00  0.00    -0.013 C 
ATOM      9  C4' I4B d   1      -2.657   0.424  -2.199  0.00  0.00     0.013 C 
ATOM     10  C3' I4B d   1      -1.461   2.581  -2.456  0.00  0.00     0.013 C 
ENDBRANCH   7   8
ENDBRANCH   1   7
TORSDOF 2
ENDMDL
