MODEL 1
REMARK minimizedAffinity -3.533144
REMARK minimizedRMSD -1
REMARK  2 active torsions:
REMARK  status: ('A' for Active; 'I' for Inactive)
REMARK    1  A    between atoms: C2'_3  and  C1'_4 
REMARK    2  A    between atoms: C1'_4  and  C1_5 
ROOT
ATOM      1  C1  I4B d   1      -1.227   1.507  -1.221  0.00  0.00    -0.075 A 
ATOM      2  C2  I4B d   1      -0.534   1.952  -2.319  0.00  0.00     0.003 A 
ATOM      3  C3  I4B d   1      -1.224   2.297  -3.506  0.00  0.00     0.002 A 
ATOM      4  C4  I4B d   1      -2.593   2.134  -3.568  0.00  0.00    -0.004 A 
ATOM      5  C5  I4B d   1      -3.297   1.705  -2.446  0.00  0.00     0.002 A 
ATOM      6  C6  I4B d   1      -2.611   1.401  -1.261  0.00  0.00     0.003 A 
ENDROOT
BRANCH   1   7
ATOM      7  C1' I4B d   1      -0.463   1.121   0.006  0.00  0.00     0.060 C 
BRANCH   7   8
ATOM      8  C2' I4B d   1      -0.419  -0.392   0.071  0.00  0.00    -0.013 C 
ATOM      9  C4' I4B d   1       0.966  -0.910  -0.214  0.00  0.00     0.013 C 
ATOM     10  C3' I4B d   1      -0.883  -0.811   1.434  0.00  0.00     0.013 C 
ENDBRANCH   7   8
ENDBRANCH   1   7
TORSDOF 2
ENDMDL
