MODEL 1
REMARK minimizedAffinity -1.46788251
REMARK minimizedRMSD -1
REMARK  2 active torsions:
REMARK  status: ('A' for Active; 'I' for Inactive)
REMARK    1  A    between atoms: C2'_3  and  C1'_4 
REMARK    2  A    between atoms: C1'_4  and  C1_5 
ROOT
ATOM      1  C1  I4B d   1      -0.294  -0.548   0.012  0.00  0.00    -0.075 A 
ATOM      2  C2  I4B d   1      -0.793  -1.585   0.759  0.00  0.00     0.003 A 
ATOM      3  C3  I4B d   1      -1.738  -1.335   1.784  0.00  0.00     0.002 A 
ATOM      4  C4  I4B d   1      -2.115  -0.036   2.058  0.00  0.00    -0.004 A 
ATOM      5  C5  I4B d   1      -1.625   1.012   1.283  0.00  0.00     0.002 A 
ATOM      6  C6  I4B d   1      -0.718   0.753   0.246  0.00  0.00     0.003 A 
ENDROOT
BRANCH   1   7
ATOM      7  C1' I4B d   1       0.728  -0.845  -1.040  0.00  0.00     0.060 C 
BRANCH   7   8
ATOM      8  C2' I4B d   1       2.093  -0.518  -0.471  0.00  0.00    -0.013 C 
ATOM      9  C4' I4B d   1       2.186   0.933  -0.078  0.00  0.00     0.013 C 
ATOM     10  C3' I4B d   1       2.330  -1.414   0.708  0.00  0.00     0.013 C 
ENDBRANCH   7   8
ENDBRANCH   1   7
TORSDOF 2
ENDMDL
