MODEL 1
REMARK minimizedAffinity -3.43355465
REMARK minimizedRMSD -1
REMARK  2 active torsions:
REMARK  status: ('A' for Active; 'I' for Inactive)
REMARK    1  A    between atoms: C2'_3  and  C1'_4 
REMARK    2  A    between atoms: C1'_4  and  C1_5 
ROOT
ATOM      1  C1  I4B d   1       0.137  -1.573   0.714  0.00  0.00    -0.075 A 
ATOM      2  C2  I4B d   1      -0.665  -1.998   1.743  0.00  0.00     0.003 A 
ATOM      3  C3  I4B d   1      -1.769  -1.214   2.158  0.00  0.00     0.002 A 
ATOM      4  C4  I4B d   1      -2.003   0.004   1.553  0.00  0.00    -0.004 A 
ATOM      5  C5  I4B d   1      -1.202   0.423   0.494  0.00  0.00     0.002 A 
ATOM      6  C6  I4B d   1      -0.133  -0.376   0.063  0.00  0.00     0.003 A 
ENDROOT
BRANCH   1   7
ATOM      7  C1' I4B d   1       1.313  -2.410   0.323  0.00  0.00     0.060 C 
BRANCH   7   8
ATOM      8  C2' I4B d   1       2.551  -1.540   0.400  0.00  0.00    -0.013 C 
ATOM      9  C4' I4B d   1       2.416  -0.321  -0.474  0.00  0.00     0.013 C 
ATOM     10  C3' I4B d   1       2.759  -1.156   1.835  0.00  0.00     0.013 C 
ENDBRANCH   7   8
ENDBRANCH   1   7
TORSDOF 2
ENDMDL
