MODEL 1
REMARK minimizedAffinity -1.75174963
REMARK minimizedRMSD -1
REMARK  2 active torsions:
REMARK  status: ('A' for Active; 'I' for Inactive)
REMARK    1  A    between atoms: C2'_3  and  C1'_4 
REMARK    2  A    between atoms: C1'_4  and  C1_5 
ROOT
ATOM      1  C1  I4B d   1       0.369   0.159  -0.285  0.00  0.00    -0.075 A 
ATOM      2  C2  I4B d   1      -0.374  -0.951   0.033  0.00  0.00     0.003 A 
ATOM      3  C3  I4B d   1       0.268  -2.159   0.395  0.00  0.00     0.002 A 
ATOM      4  C4  I4B d   1       1.646  -2.228   0.376  0.00  0.00    -0.004 A 
ATOM      5  C5  I4B d   1       2.398  -1.096   0.075  0.00  0.00     0.002 A 
ATOM      6  C6  I4B d   1       1.756   0.109  -0.246  0.00  0.00     0.003 A 
ENDROOT
BRANCH   1   7
ATOM      7  C1' I4B d   1      -0.343   1.409  -0.695  0.00  0.00     0.060 C 
BRANCH   7   8
ATOM      8  C2' I4B d   1      -1.019   1.148  -2.025  0.00  0.00    -0.013 C 
ATOM      9  C4' I4B d   1      -2.411   0.608  -1.833  0.00  0.00     0.013 C 
ATOM     10  C3' I4B d   1      -1.038   2.434  -2.796  0.00  0.00     0.013 C 
ENDBRANCH   7   8
ENDBRANCH   1   7
TORSDOF 2
ENDMDL
