MODEL 1
REMARK minimizedAffinity -1.98300421
REMARK minimizedRMSD -1
REMARK  0 active torsions:
REMARK  status: ('A' for Active; 'I' for Inactive)
ROOT
ATOM      1  C   UNL d   1       0.939  -0.413  -1.124  0.00  0.00     0.023 A 
ATOM      2  C1  UNL d   1      -0.103  -1.274  -0.776  0.00  0.00     0.003 A 
ATOM      3  C2  UNL d   1      -1.082  -0.857   0.128  0.00  0.00     0.048 A 
ATOM      4  C3  UNL d   1      -1.014   0.422   0.679  0.00  0.00     0.023 A 
ATOM      5  C4  UNL d   1       0.026   1.287   0.333  0.00  0.00     0.048 A 
ATOM      6  C5  UNL d   1       1.003   0.865  -0.570  0.00  0.00     0.003 A 
ATOM      7  I   UNL d   1      -2.471   1.045   2.025  0.00  0.00    -0.146 I 
ENDROOT
TORSDOF 0
ENDMDL
