MODEL 1
REMARK minimizedAffinity -4.00817394
REMARK minimizedRMSD -1
REMARK  0 active torsions:
REMARK  status: ('A' for Active; 'I' for Inactive)
ROOT
ATOM      1  C   UNL d   1       1.979   0.219  -2.655  0.00  0.00     0.023 A 
ATOM      2  C1  UNL d   1       1.891   1.295  -1.771  0.00  0.00     0.003 A 
ATOM      3  C2  UNL d   1       1.050   1.219  -0.659  0.00  0.00     0.048 A 
ATOM      4  C3  UNL d   1       0.300   0.065  -0.437  0.00  0.00     0.023 A 
ATOM      5  C4  UNL d   1       0.385  -1.014  -1.318  0.00  0.00     0.048 A 
ATOM      6  C5  UNL d   1       1.227  -0.934  -2.429  0.00  0.00     0.003 A 
ATOM      7  I   UNL d   1      -0.953  -0.050   1.218  0.00  0.00    -0.146 I 
ENDROOT
TORSDOF 0
ENDMDL
