MODEL 1
REMARK minimizedAffinity -1.91359603
REMARK minimizedRMSD -1
REMARK  0 active torsions:
REMARK  status: ('A' for Active; 'I' for Inactive)
ROOT
ATOM      1  C   UNL d   1       2.336  -1.228  -2.317  0.00  0.00     0.023 A 
ATOM      2  C1  UNL d   1       1.566  -2.106  -1.553  0.00  0.00     0.003 A 
ATOM      3  C2  UNL d   1       0.719  -1.611  -0.559  0.00  0.00     0.048 A 
ATOM      4  C3  UNL d   1       0.646  -0.236  -0.336  0.00  0.00     0.023 A 
ATOM      5  C4  UNL d   1       1.413   0.646  -1.098  0.00  0.00     0.048 A 
ATOM      6  C5  UNL d   1       2.259   0.146  -2.090  0.00  0.00     0.003 A 
ATOM      7  I   UNL d   1      -0.614   0.504   1.142  0.00  0.00    -0.146 I 
ENDROOT
TORSDOF 0
ENDMDL
