MODEL 1
REMARK minimizedAffinity -3.78765011
REMARK minimizedRMSD -1
REMARK  0 active torsions:
REMARK  status: ('A' for Active; 'I' for Inactive)
ROOT
ATOM      1  C   UNL d   1       2.397  -0.176  -2.287  0.00  0.00     0.023 A 
ATOM      2  C1  UNL d   1       1.312  -1.047  -2.190  0.00  0.00     0.003 A 
ATOM      3  C2  UNL d   1       0.451  -0.973  -1.094  0.00  0.00     0.048 A 
ATOM      4  C3  UNL d   1       0.680  -0.024  -0.098  0.00  0.00     0.023 A 
ATOM      5  C4  UNL d   1       1.764   0.850  -0.191  0.00  0.00     0.048 A 
ATOM      6  C5  UNL d   1       2.623   0.771  -1.288  0.00  0.00     0.003 A 
ATOM      7  I   UNL d   1      -0.601   0.089   1.535  0.00  0.00    -0.146 I 
ENDROOT
TORSDOF 0
ENDMDL
