MODEL 1
REMARK minimizedAffinity -5.23455095
REMARK minimizedRMSD -1
REMARK  0 active torsions:
REMARK  status: ('A' for Active; 'I' for Inactive)
ROOT
ATOM      1  C   UNL d   1       2.225  -1.394  -2.691  0.00  0.00     0.023 A 
ATOM      2  C1  UNL d   1       1.632  -0.132  -2.736  0.00  0.00     0.003 A 
ATOM      3  C2  UNL d   1       0.781   0.278  -1.708  0.00  0.00     0.048 A 
ATOM      4  C3  UNL d   1       0.528  -0.578  -0.637  0.00  0.00     0.023 A 
ATOM      5  C4  UNL d   1       1.120  -1.841  -0.587  0.00  0.00     0.048 A 
ATOM      6  C5  UNL d   1       1.969  -2.247  -1.617  0.00  0.00     0.003 A 
ATOM      7  I   UNL d   1      -0.739   0.031   0.895  0.00  0.00    -0.146 I 
ENDROOT
TORSDOF 0
ENDMDL
