MODEL 1
REMARK minimizedAffinity -3.76300812
REMARK minimizedRMSD -1
REMARK  0 active torsions:
REMARK  status: ('A' for Active; 'I' for Inactive)
ROOT
ATOM      1  C   UNL d   1       1.981   0.279  -2.610  0.00  0.00     0.023 A 
ATOM      2  C1  UNL d   1       0.940  -0.650  -2.621  0.00  0.00     0.003 A 
ATOM      3  C2  UNL d   1       0.139  -0.816  -1.489  0.00  0.00     0.048 A 
ATOM      4  C3  UNL d   1       0.384  -0.050  -0.350  0.00  0.00     0.023 A 
ATOM      5  C4  UNL d   1       1.424   0.881  -0.335  0.00  0.00     0.048 A 
ATOM      6  C5  UNL d   1       2.223   1.043  -1.468  0.00  0.00     0.003 A 
ATOM      7  I   UNL d   1      -0.807  -0.295   1.336  0.00  0.00    -0.146 I 
ENDROOT
TORSDOF 0
ENDMDL
