MODEL 1
REMARK minimizedAffinity -2.01699114
REMARK minimizedRMSD -1
REMARK  0 active torsions:
REMARK  status: ('A' for Active; 'I' for Inactive)
ROOT
ATOM      1  C   UNL d   1       0.595  -0.816  -0.177  0.00  0.00     0.023 A 
ATOM      2  C1  UNL d   1      -0.035   0.017  -1.102  0.00  0.00     0.003 A 
ATOM      3  C2  UNL d   1      -1.297   0.546  -0.821  0.00  0.00     0.048 A 
ATOM      4  C3  UNL d   1      -1.922   0.238   0.387  0.00  0.00     0.023 A 
ATOM      5  C4  UNL d   1      -1.295  -0.594   1.316  0.00  0.00     0.048 A 
ATOM      6  C5  UNL d   1      -0.034  -1.121   1.030  0.00  0.00     0.003 A 
ATOM      7  I   UNL d   1      -3.799   1.025   0.808  0.00  0.00    -0.146 I 
ENDROOT
TORSDOF 0
ENDMDL
