MODEL 1
REMARK minimizedAffinity -0.129382968
REMARK minimizedRMSD -1
REMARK  0 active torsions:
REMARK  status: ('A' for Active; 'I' for Inactive)
ROOT
ATOM      1  C   UNL d   1      -4.073   1.141   2.044  0.00  0.00     0.023 A 
ATOM      2  C1  UNL d   1      -2.889   1.679   2.549  0.00  0.00     0.003 A 
ATOM      3  C2  UNL d   1      -1.659   1.283   2.021  0.00  0.00     0.048 A 
ATOM      4  C3  UNL d   1      -1.619   0.349   0.986  0.00  0.00     0.023 A 
ATOM      5  C4  UNL d   1      -2.801  -0.192   0.477  0.00  0.00     0.048 A 
ATOM      6  C5  UNL d   1      -4.029   0.207   1.009  0.00  0.00     0.003 A 
ATOM      7  I   UNL d   1       0.211  -0.243   0.198  0.00  0.00    -0.146 I 
ENDROOT
TORSDOF 0
ENDMDL
