MODEL 1
REMARK minimizedAffinity -1.9493928
REMARK minimizedRMSD -1
REMARK  0 active torsions:
REMARK  status: ('A' for Active; 'I' for Inactive)
ROOT
ATOM      1  C   UNL d   1      -4.206   1.850   2.061  0.00  0.00     0.023 A 
ATOM      2  C1  UNL d   1      -4.304   0.543   1.582  0.00  0.00     0.003 A 
ATOM      3  C2  UNL d   1      -3.153  -0.153   1.208  0.00  0.00     0.048 A 
ATOM      4  C3  UNL d   1      -1.906   0.463   1.316  0.00  0.00     0.023 A 
ATOM      5  C4  UNL d   1      -1.803   1.770   1.796  0.00  0.00     0.048 A 
ATOM      6  C5  UNL d   1      -2.957   2.462   2.168  0.00  0.00     0.003 A 
ATOM      7  I   UNL d   1      -0.191  -0.571   0.760  0.00  0.00    -0.146 I 
ENDROOT
TORSDOF 0
ENDMDL
