MODEL 1
REMARK minimizedAffinity -2.747648
REMARK minimizedRMSD -1
REMARK  0 active torsions:
REMARK  status: ('A' for Active; 'I' for Inactive)
ROOT
ATOM      1  C   UNL d   1      -3.518   0.157   1.503  0.00  0.00     0.023 A 
ATOM      2  C1  UNL d   1      -4.437   1.179   1.741  0.00  0.00     0.003 A 
ATOM      3  C2  UNL d   1      -4.055   2.307   2.469  0.00  0.00     0.048 A 
ATOM      4  C3  UNL d   1      -2.753   2.408   2.956  0.00  0.00     0.023 A 
ATOM      5  C4  UNL d   1      -1.829   1.388   2.720  0.00  0.00     0.048 A 
ATOM      6  C5  UNL d   1      -2.216   0.261   1.992  0.00  0.00     0.003 A 
ATOM      7  I   UNL d   1      -2.182   4.087   4.039  0.00  0.00    -0.146 I 
ENDROOT
TORSDOF 0
ENDMDL
