MODEL 1
REMARK minimizedAffinity -2.32198572
REMARK minimizedRMSD -1
REMARK  0 active torsions:
REMARK  status: ('A' for Active; 'I' for Inactive)
ROOT
ATOM      1  C   UNL d   1      -3.872   0.708   2.255  0.00  0.00     0.023 A 
ATOM      2  C1  UNL d   1      -3.878  -0.114   1.128  0.00  0.00     0.003 A 
ATOM      3  C2  UNL d   1      -2.682  -0.411   0.472  0.00  0.00     0.048 A 
ATOM      4  C3  UNL d   1      -1.482   0.116   0.949  0.00  0.00     0.023 A 
ATOM      5  C4  UNL d   1      -1.471   0.938   2.077  0.00  0.00     0.048 A 
ATOM      6  C5  UNL d   1      -2.670   1.233   2.729  0.00  0.00     0.003 A 
ATOM      7  I   UNL d   1       0.300  -0.325  -0.026  0.00  0.00    -0.146 I 
ENDROOT
TORSDOF 0
ENDMDL
