MODEL 1
REMARK minimizedAffinity -3.72677088
REMARK minimizedRMSD -1
REMARK  0 active torsions:
REMARK  status: ('A' for Active; 'I' for Inactive)
ROOT
ATOM      1  C   UNL d   1       2.063   0.287  -2.975  0.00  0.00     0.023 A 
ATOM      2  C1  UNL d   1       2.615   0.835  -1.817  0.00  0.00     0.003 A 
ATOM      3  C2  UNL d   1       1.999   0.625  -0.582  0.00  0.00     0.048 A 
ATOM      4  C3  UNL d   1       0.832  -0.134  -0.511  0.00  0.00     0.023 A 
ATOM      5  C4  UNL d   1       0.276  -0.685  -1.667  0.00  0.00     0.048 A 
ATOM      6  C5  UNL d   1       0.895  -0.472  -2.900  0.00  0.00     0.003 A 
ATOM      7  I   UNL d   1      -0.087  -0.448   1.326  0.00  0.00    -0.146 I 
ENDROOT
TORSDOF 0
ENDMDL
