MODEL 1
REMARK minimizedAffinity 0.0377604328
REMARK minimizedRMSD -1
REMARK  0 active torsions:
REMARK  status: ('A' for Active; 'I' for Inactive)
ROOT
ATOM      1  C   UNL d   1       1.553  -0.647  -0.607  0.00  0.00     0.023 A 
ATOM      2  C1  UNL d   1       1.329   0.722  -0.757  0.00  0.00     0.003 A 
ATOM      3  C2  UNL d   1       0.172   1.302  -0.233  0.00  0.00     0.048 A 
ATOM      4  C3  UNL d   1      -0.756   0.509   0.441  0.00  0.00     0.023 A 
ATOM      5  C4  UNL d   1      -0.535  -0.861   0.595  0.00  0.00     0.048 A 
ATOM      6  C5  UNL d   1       0.623  -1.437   0.068  0.00  0.00     0.003 A 
ATOM      7  I   UNL d   1      -2.478   1.371   1.223  0.00  0.00    -0.146 I 
ENDROOT
TORSDOF 0
ENDMDL
