MODEL 1
REMARK minimizedAffinity -4.65159941
REMARK minimizedRMSD -1
REMARK  0 active torsions:
REMARK  status: ('A' for Active; 'I' for Inactive)
ROOT
ATOM      1  C   UNL d   1       1.445   0.394  -2.375  0.00  0.00     0.023 A 
ATOM      2  C1  UNL d   1       1.947   0.788  -1.134  0.00  0.00     0.003 A 
ATOM      3  C2  UNL d   1       1.103   0.839  -0.023  0.00  0.00     0.048 A 
ATOM      4  C3  UNL d   1      -0.241   0.495  -0.159  0.00  0.00     0.023 A 
ATOM      5  C4  UNL d   1      -0.748   0.100  -1.398  0.00  0.00     0.048 A 
ATOM      6  C5  UNL d   1       0.100   0.051  -2.507  0.00  0.00     0.003 A 
ATOM      7  I   UNL d   1      -1.499   0.571   1.494  0.00  0.00    -0.146 I 
ENDROOT
TORSDOF 0
ENDMDL
