MODEL 1
REMARK minimizedAffinity 0.296040177
REMARK minimizedRMSD -1
REMARK  1 active torsions:
REMARK  status: ('A' for Active; 'I' for Inactive)
REMARK    1  A    between atoms: N_2  and  C1_3 
ROOT
ATOM      1  C1  UNL d   1       2.302   0.156   2.385  0.00  0.00     0.143 A 
ATOM      2  C2  UNL d   1       2.189  -1.156   1.912  0.00  0.00    -0.057 A 
ATOM      3  C3  UNL d   1       1.527  -2.141   2.654  0.00  0.00     0.033 A 
ATOM      4  C4  UNL d   1       0.990  -1.837   3.901  0.00  0.00    -0.042 A 
ATOM      5  C5  UNL d   1       1.112  -0.546   4.402  0.00  0.00     0.033 A 
ATOM      6  C6  UNL d   1       1.769   0.435   3.653  0.00  0.00    -0.057 A 
ENDROOT
BRANCH   1   7
ATOM      7  N   UNL d   1       3.034   1.155   1.739  0.00  0.00    -0.732 N 
ATOM      8  C   UNL d   1       3.844   0.844   0.580  0.00  0.00     0.284 C 
ATOM      9  H3  UNL d   1       2.516   2.027   1.661  0.00  0.00     0.395 HD
ENDBRANCH   1   7
TORSDOF 1
ENDMDL
