MODEL 1
REMARK minimizedAffinity 3.5716393
REMARK minimizedRMSD -1
REMARK  1 active torsions:
REMARK  status: ('A' for Active; 'I' for Inactive)
REMARK    1  A    between atoms: N_2  and  C1_3 
ROOT
ATOM      1  C1  UNL d   1       3.921  -5.694  -2.120  0.00  0.00     0.143 A 
ATOM      2  C2  UNL d   1       4.749  -5.803  -3.242  0.00  0.00    -0.057 A 
ATOM      3  C3  UNL d   1       4.215  -5.940  -4.529  0.00  0.00     0.033 A 
ATOM      4  C4  UNL d   1       2.838  -6.000  -4.714  0.00  0.00    -0.042 A 
ATOM      5  C5  UNL d   1       1.995  -5.919  -3.611  0.00  0.00     0.033 A 
ATOM      6  C6  UNL d   1       2.535  -5.776  -2.329  0.00  0.00    -0.057 A 
ENDROOT
BRANCH   1   7
ATOM      7  N   UNL d   1       4.392  -5.655  -0.806  0.00  0.00    -0.732 N 
ATOM      8  C   UNL d   1       3.469  -5.642   0.308  0.00  0.00     0.284 C 
ATOM      9  H3  UNL d   1       5.203  -6.253  -0.666  0.00  0.00     0.395 HD
ENDBRANCH   1   7
TORSDOF 1
ENDMDL
