MODEL 1
REMARK minimizedAffinity -0.505924582
REMARK minimizedRMSD -1
REMARK  1 active torsions:
REMARK  status: ('A' for Active; 'I' for Inactive)
REMARK    1  A    between atoms: N_2  and  C1_3 
ROOT
ATOM      1  C1  UNL d   1       3.505  -5.916   0.982  0.00  0.00     0.143 A 
ATOM      2  C2  UNL d   1       4.862  -5.926   0.642  0.00  0.00    -0.057 A 
ATOM      3  C3  UNL d   1       5.276  -5.942  -0.696  0.00  0.00     0.033 A 
ATOM      4  C4  UNL d   1       4.335  -5.978  -1.720  0.00  0.00    -0.042 A 
ATOM      5  C5  UNL d   1       2.981  -5.994  -1.405  0.00  0.00     0.033 A 
ATOM      6  C6  UNL d   1       2.575  -5.971  -0.067  0.00  0.00    -0.057 A 
ENDROOT
BRANCH   1   7
ATOM      7  N   UNL d   1       3.032  -6.000   2.294  0.00  0.00    -0.732 N 
ATOM      8  C   UNL d   1       2.490  -4.833   2.958  0.00  0.00     0.284 C 
ATOM      9  H3  UNL d   1       2.508  -6.855   2.464  0.00  0.00     0.395 HD
ENDBRANCH   1   7
TORSDOF 1
ENDMDL
