MODEL 1
REMARK minimizedAffinity 6.9812603
REMARK minimizedRMSD -1
REMARK  1 active torsions:
REMARK  status: ('A' for Active; 'I' for Inactive)
REMARK    1  A    between atoms: N_2  and  C1_3 
ROOT
ATOM      1  C1  UNL d   1       0.624   2.517   0.031  0.00  0.00     0.143 A 
ATOM      2  C2  UNL d   1      -0.743   2.346  -0.209  0.00  0.00    -0.057 A 
ATOM      3  C3  UNL d   1      -1.336   1.078  -0.160  0.00  0.00     0.033 A 
ATOM      4  C4  UNL d   1      -0.562  -0.048   0.101  0.00  0.00    -0.042 A 
ATOM      5  C5  UNL d   1       0.803   0.096   0.318  0.00  0.00     0.033 A 
ATOM      6  C6  UNL d   1       1.388   1.365   0.275  0.00  0.00    -0.057 A 
ENDROOT
BRANCH   1   7
ATOM      7  N   UNL d   1       1.290   3.739  -0.100  0.00  0.00    -0.732 N 
ATOM      8  C   UNL d   1       1.168   4.518  -1.313  0.00  0.00     0.284 C 
ATOM      9  H3  UNL d   1       1.260   4.291   0.754  0.00  0.00     0.395 HD
ENDBRANCH   1   7
TORSDOF 1
ENDMDL
