MODEL 1
REMARK minimizedAffinity -2.35818172
REMARK minimizedRMSD -1
REMARK  1 active torsions:
REMARK  status: ('A' for Active; 'I' for Inactive)
REMARK    1  A    between atoms: N_2  and  C1_3 
ROOT
ATOM      1  C1  UNL d   1       3.545  -6.000  -2.823  0.00  0.00     0.143 A 
ATOM      2  C2  UNL d   1       2.195  -5.980  -3.191  0.00  0.00    -0.057 A 
ATOM      3  C3  UNL d   1       1.809  -5.994  -4.536  0.00  0.00     0.033 A 
ATOM      4  C4  UNL d   1       2.769  -5.999  -5.542  0.00  0.00    -0.042 A 
ATOM      5  C5  UNL d   1       4.117  -5.994  -5.201  0.00  0.00     0.033 A 
ATOM      6  C6  UNL d   1       4.497  -5.987  -3.855  0.00  0.00    -0.057 A 
ENDROOT
BRANCH   1   7
ATOM      7  N   UNL d   1       3.994  -5.888  -1.505  0.00  0.00    -0.732 N 
ATOM      8  C   UNL d   1       3.066  -5.984  -0.399  0.00  0.00     0.284 C 
ATOM      9  H3  UNL d   1       4.875  -6.374  -1.352  0.00  0.00     0.395 HD
ENDBRANCH   1   7
TORSDOF 1
ENDMDL
