MODEL 1
REMARK minimizedAffinity -2.59746647
REMARK minimizedRMSD -1
REMARK  1 active torsions:
REMARK  status: ('A' for Active; 'I' for Inactive)
REMARK    1  A    between atoms: N_2  and  C1_3 
ROOT
ATOM      1  C1  UNL d   1       3.191  -5.612  -4.938  0.00  0.00     0.143 A 
ATOM      2  C2  UNL d   1       4.560  -5.720  -5.209  0.00  0.00    -0.057 A 
ATOM      3  C3  UNL d   1       5.489  -5.925  -4.182  0.00  0.00     0.033 A 
ATOM      4  C4  UNL d   1       5.067  -5.996  -2.858  0.00  0.00    -0.042 A 
ATOM      5  C5  UNL d   1       3.714  -5.866  -2.563  0.00  0.00     0.033 A 
ATOM      6  C6  UNL d   1       2.791  -5.669  -3.594  0.00  0.00    -0.057 A 
ENDROOT
BRANCH   1   7
ATOM      7  N   UNL d   1       2.229  -5.310  -5.905  0.00  0.00    -0.732 N 
ATOM      8  C   UNL d   1       0.957  -6.000  -5.919  0.00  0.00     0.284 C 
ATOM      9  H3  UNL d   1       2.162  -4.312  -6.088  0.00  0.00     0.395 HD
ENDBRANCH   1   7
TORSDOF 1
ENDMDL
