MODEL 1
REMARK minimizedAffinity 0.523784161
REMARK minimizedRMSD -1
REMARK  1 active torsions:
REMARK  status: ('A' for Active; 'I' for Inactive)
REMARK    1  A    between atoms: N_2  and  C1_3 
ROOT
ATOM      1  C1  UNL d   1       2.100  -1.180   3.123  0.00  0.00     0.143 A 
ATOM      2  C2  UNL d   1       1.371  -2.130   2.399  0.00  0.00    -0.057 A 
ATOM      3  C3  UNL d   1       1.267  -3.455   2.839  0.00  0.00     0.033 A 
ATOM      4  C4  UNL d   1       1.918  -3.862   4.000  0.00  0.00    -0.042 A 
ATOM      5  C5  UNL d   1       2.669  -2.941   4.721  0.00  0.00     0.033 A 
ATOM      6  C6  UNL d   1       2.763  -1.618   4.280  0.00  0.00    -0.057 A 
ENDROOT
BRANCH   1   7
ATOM      7  N   UNL d   1       2.322   0.128   2.686  0.00  0.00    -0.732 N 
ATOM      8  C   UNL d   1       3.127   0.386   1.511  0.00  0.00     0.284 C 
ATOM      9  H3  UNL d   1       1.488   0.707   2.754  0.00  0.00     0.395 HD
ENDBRANCH   1   7
TORSDOF 1
ENDMDL
