MODEL 1
REMARK minimizedAffinity 3.42121887
REMARK minimizedRMSD -1
REMARK  1 active torsions:
REMARK  status: ('A' for Active; 'I' for Inactive)
REMARK    1  A    between atoms: N_2  and  C1_3 
ROOT
ATOM      1  C1  UNL d   1       2.512  -2.044   3.065  0.00  0.00     0.143 A 
ATOM      2  C2  UNL d   1       1.890  -3.280   3.274  0.00  0.00    -0.057 A 
ATOM      3  C3  UNL d   1       2.479  -4.261   4.082  0.00  0.00     0.033 A 
ATOM      4  C4  UNL d   1       3.717  -4.034   4.673  0.00  0.00    -0.042 A 
ATOM      5  C5  UNL d   1       4.365  -2.822   4.458  0.00  0.00     0.033 A 
ATOM      6  C6  UNL d   1       3.769  -1.844   3.656  0.00  0.00    -0.057 A 
ENDROOT
BRANCH   1   7
ATOM      7  N   UNL d   1       2.025  -1.067   2.194  0.00  0.00    -0.732 N 
ATOM      8  C   UNL d   1       2.935  -0.238   1.433  0.00  0.00     0.284 C 
ATOM      9  H3  UNL d   1       1.214  -1.384   1.669  0.00  0.00     0.395 HD
ENDBRANCH   1   7
TORSDOF 1
ENDMDL
