MODEL 1
REMARK minimizedAffinity -0.284927547
REMARK minimizedRMSD -1
REMARK  1 active torsions:
REMARK  status: ('A' for Active; 'I' for Inactive)
REMARK    1  A    between atoms: N_2  and  C1_3 
ROOT
ATOM      1  C1  UNL d   1       2.960  -5.976  -3.731  0.00  0.00     0.143 A 
ATOM      2  C2  UNL d   1       4.153  -5.906  -3.003  0.00  0.00    -0.057 A 
ATOM      3  C3  UNL d   1       4.151  -5.907  -1.603  0.00  0.00     0.033 A 
ATOM      4  C4  UNL d   1       2.950  -5.949  -0.903  0.00  0.00    -0.042 A 
ATOM      5  C5  UNL d   1       1.751  -5.994  -1.606  0.00  0.00     0.033 A 
ATOM      6  C6  UNL d   1       1.760  -6.000  -3.004  0.00  0.00    -0.057 A 
ENDROOT
BRANCH   1   7
ATOM      7  N   UNL d   1       2.891  -5.879  -5.122  0.00  0.00    -0.732 N 
ATOM      8  C   UNL d   1       1.622  -5.999  -5.808  0.00  0.00     0.284 C 
ATOM      9  H3  UNL d   1       3.495  -5.148  -5.491  0.00  0.00     0.395 HD
ENDBRANCH   1   7
TORSDOF 1
ENDMDL
