MODEL 1
REMARK minimizedAffinity 8.75272655
REMARK minimizedRMSD -1
REMARK  0 active torsions:
REMARK  status: ('A' for Active; 'I' for Inactive)
ROOT
ATOM      1  C   UNL d   1       5.163  -4.427   1.668  0.00  0.00    -0.002 A 
ATOM      2  C1  UNL d   1       5.999  -3.483   1.090  0.00  0.00     0.010 A 
ATOM      3  C2  UNL d   1       5.486  -2.269   0.629  0.00  0.00     0.041 A 
ATOM      4  C3  UNL d   1       4.107  -2.016   0.761  0.00  0.00    -0.075 A 
ATOM      5  S   UNL d   1       3.257  -0.600   0.269  0.00  0.00     0.015 SA
ATOM      6  C4  UNL d   1       1.764  -1.214   0.816  0.00  0.00     0.022 A 
ATOM      7  C5  UNL d   1       1.893  -2.469   1.363  0.00  0.00     0.026 A 
ATOM      8  C6  UNL d   1       3.245  -2.952   1.341  0.00  0.00    -0.082 A 
ATOM      9  C7  UNL d   1       3.795  -4.174   1.798  0.00  0.00     0.045 A 
ENDROOT
TORSDOF 0
ENDMDL
