MODEL 1
REMARK minimizedAffinity 21.4954376
REMARK minimizedRMSD -1
REMARK  0 active torsions:
REMARK  status: ('A' for Active; 'I' for Inactive)
ROOT
ATOM      1  C   UNL d   1      -5.257   4.892  -5.999  0.00  0.00    -0.002 A 
ATOM      2  C1  UNL d   1      -4.231   5.437  -5.241  0.00  0.00     0.010 A 
ATOM      3  C2  UNL d   1      -3.531   4.651  -4.323  0.00  0.00     0.041 A 
ATOM      4  C3  UNL d   1      -3.883   3.294  -4.180  0.00  0.00    -0.075 A 
ATOM      5  S   UNL d   1      -3.165   2.140  -3.120  0.00  0.00     0.015 SA
ATOM      6  C4  UNL d   1      -4.203   0.897  -3.649  0.00  0.00     0.022 A 
ATOM      7  C5  UNL d   1      -5.083   1.334  -4.611  0.00  0.00     0.026 A 
ATOM      8  C6  UNL d   1      -4.912   2.723  -4.934  0.00  0.00    -0.082 A 
ATOM      9  C7  UNL d   1      -5.603   3.546  -5.855  0.00  0.00     0.045 A 
ENDROOT
TORSDOF 0
ENDMDL
