MODEL 1
REMARK minimizedAffinity 3.2436614
REMARK minimizedRMSD -1
REMARK  0 active torsions:
REMARK  status: ('A' for Active; 'I' for Inactive)
ROOT
ATOM      1  C   UNL d   1       5.998   5.759   5.252  0.00  0.00    -0.002 A 
ATOM      2  C1  UNL d   1       5.958   5.092   4.036  0.00  0.00     0.010 A 
ATOM      3  C2  UNL d   1       4.743   4.649   3.509  0.00  0.00     0.041 A 
ATOM      4  C3  UNL d   1       3.558   4.892   4.231  0.00  0.00    -0.075 A 
ATOM      5  S   UNL d   1       1.955   4.443   3.781  0.00  0.00     0.015 SA
ATOM      6  C4  UNL d   1       1.287   5.127   5.192  0.00  0.00     0.022 A 
ATOM      7  C5  UNL d   1       2.249   5.688   5.998  0.00  0.00     0.026 A 
ATOM      8  C6  UNL d   1       3.573   5.563   5.458  0.00  0.00    -0.082 A 
ATOM      9  C7  UNL d   1       4.821   5.998   5.966  0.00  0.00     0.045 A 
ENDROOT
TORSDOF 0
ENDMDL
