MODEL 1
REMARK minimizedAffinity 13.7532501
REMARK minimizedRMSD -1
REMARK  0 active torsions:
REMARK  status: ('A' for Active; 'I' for Inactive)
ROOT
ATOM      1  C   UNL d   1       1.215   4.905   4.637  0.00  0.00    -0.002 A 
ATOM      2  C1  UNL d   1       1.378   4.401   3.354  0.00  0.00     0.010 A 
ATOM      3  C2  UNL d   1       2.628   4.428   2.734  0.00  0.00     0.041 A 
ATOM      4  C3  UNL d   1       3.724   4.974   3.431  0.00  0.00    -0.075 A 
ATOM      5  S   UNL d   1       5.348   5.112   2.872  0.00  0.00     0.015 SA
ATOM      6  C4  UNL d   1       5.865   5.842   4.322  0.00  0.00     0.022 A 
ATOM      7  C5  UNL d   1       4.836   5.985   5.223  0.00  0.00     0.026 A 
ATOM      8  C6  UNL d   1       3.585   5.487   4.724  0.00  0.00    -0.082 A 
ATOM      9  C7  UNL d   1       2.304   5.446   5.326  0.00  0.00     0.045 A 
ENDROOT
TORSDOF 0
ENDMDL
