MODEL 1
REMARK minimizedAffinity 14.8478546
REMARK minimizedRMSD -1
REMARK  0 active torsions:
REMARK  status: ('A' for Active; 'I' for Inactive)
ROOT
ATOM      1  C   UNL d   1       5.815   5.976   5.433  0.00  0.00    -0.002 A 
ATOM      2  C1  UNL d   1       5.988   5.912   4.057  0.00  0.00     0.010 A 
ATOM      3  C2  UNL d   1       4.908   5.630   3.218  0.00  0.00     0.041 A 
ATOM      4  C3  UNL d   1       3.638   5.416   3.790  0.00  0.00    -0.075 A 
ATOM      5  S   UNL d   1       2.171   5.058   2.960  0.00  0.00     0.015 SA
ATOM      6  C4  UNL d   1       1.280   4.983   4.411  0.00  0.00     0.022 A 
ATOM      7  C5  UNL d   1       2.067   5.223   5.512  0.00  0.00     0.026 A 
ATOM      8  C6  UNL d   1       3.439   5.477   5.173  0.00  0.00    -0.082 A 
ATOM      9  C7  UNL d   1       4.555   5.763   5.996  0.00  0.00     0.045 A 
ENDROOT
TORSDOF 0
ENDMDL
