MODEL 1
REMARK minimizedAffinity 7.90499496
REMARK minimizedRMSD -1
REMARK  0 active torsions:
REMARK  status: ('A' for Active; 'I' for Inactive)
ROOT
ATOM      1  C1  BNZ d   1       0.864  -0.348   1.818  0.00  0.00     0.000 A 
ATOM      2  C2  BNZ d   1       0.737  -1.187   2.893  0.00  0.00     0.000 A 
ATOM      3  C3  BNZ d   1       1.631  -2.200   3.099  0.00  0.00     0.000 A 
ATOM      4  C4  BNZ d   1       2.625  -2.398   2.209  0.00  0.00     0.000 A 
ATOM      5  C5  BNZ d   1       2.760  -1.567   1.115  0.00  0.00     0.000 A 
ATOM      6  C6  BNZ d   1       1.882  -0.524   0.932  0.00  0.00     0.000 A 
ENDROOT
TORSDOF 0
ENDMDL
