MODEL 1
REMARK minimizedAffinity 5.54131365
REMARK minimizedRMSD -1
REMARK  0 active torsions:
REMARK  status: ('A' for Active; 'I' for Inactive)
ROOT
ATOM      1  C1  BNZ d   1      -4.927   3.389   2.249  0.00  0.00     0.000 A 
ATOM      2  C2  BNZ d   1      -5.998   4.034   1.690  0.00  0.00     0.000 A 
ATOM      3  C3  BNZ d   1      -5.992   4.384   0.368  0.00  0.00     0.000 A 
ATOM      4  C4  BNZ d   1      -4.901   4.126  -0.381  0.00  0.00     0.000 A 
ATOM      5  C5  BNZ d   1      -3.810   3.486   0.171  0.00  0.00     0.000 A 
ATOM      6  C6  BNZ d   1      -3.835   3.100   1.491  0.00  0.00     0.000 A 
ENDROOT
TORSDOF 0
ENDMDL
