MODEL 1
REMARK minimizedAffinity 3.99546218
REMARK minimizedRMSD -1
REMARK  0 active torsions:
REMARK  status: ('A' for Active; 'I' for Inactive)
ROOT
ATOM      1  C1  BNZ d   1      -4.661  -3.376  -4.107  0.00  0.00     0.000 A 
ATOM      2  C2  BNZ d   1      -4.119  -4.634  -4.120  0.00  0.00     0.000 A 
ATOM      3  C3  BNZ d   1      -4.477  -5.541  -5.077  0.00  0.00     0.000 A 
ATOM      4  C4  BNZ d   1      -5.406  -5.204  -5.996  0.00  0.00     0.000 A 
ATOM      5  C5  BNZ d   1      -5.968  -3.943  -5.991  0.00  0.00     0.000 A 
ATOM      6  C6  BNZ d   1      -5.577  -3.020  -5.049  0.00  0.00     0.000 A 
ENDROOT
TORSDOF 0
ENDMDL
