MODEL 1
REMARK minimizedAffinity 3.79819584
REMARK minimizedRMSD -1
REMARK  0 active torsions:
REMARK  status: ('A' for Active; 'I' for Inactive)
ROOT
ATOM      1  C1  BNZ d   1      -4.880  -5.988  -5.671  0.00  0.00     0.000 A 
ATOM      2  C2  BNZ d   1      -5.979  -5.240  -6.000  0.00  0.00     0.000 A 
ATOM      3  C3  BNZ d   1      -5.979  -3.884  -5.826  0.00  0.00     0.000 A 
ATOM      4  C4  BNZ d   1      -4.898  -3.284  -5.287  0.00  0.00     0.000 A 
ATOM      5  C5  BNZ d   1      -3.786  -4.027  -4.942  0.00  0.00     0.000 A 
ATOM      6  C6  BNZ d   1      -3.774  -5.386  -5.155  0.00  0.00     0.000 A 
ENDROOT
TORSDOF 0
ENDMDL
