MODEL 1
REMARK minimizedAffinity 3.394835
REMARK minimizedRMSD -1
REMARK  0 active torsions:
REMARK  status: ('A' for Active; 'I' for Inactive)
ROOT
ATOM      1  C1  BNZ d   1       2.291  -2.067   2.122  0.00  0.00     0.000 A 
ATOM      2  C2  BNZ d   1       1.053  -1.825   2.654  0.00  0.00     0.000 A 
ATOM      3  C3  BNZ d   1       0.499  -0.576   2.598  0.00  0.00     0.000 A 
ATOM      4  C4  BNZ d   1       1.200   0.436   2.046  0.00  0.00     0.000 A 
ATOM      5  C5  BNZ d   1       2.453   0.209   1.513  0.00  0.00     0.000 A 
ATOM      6  C6  BNZ d   1       2.991  -1.058   1.537  0.00  0.00     0.000 A 
ENDROOT
TORSDOF 0
ENDMDL
