MODEL 1
REMARK minimizedAffinity 7.15654135
REMARK minimizedRMSD -1
REMARK  0 active torsions:
REMARK  status: ('A' for Active; 'I' for Inactive)
ROOT
ATOM      1  C1  BNZ d   1       2.163  -1.272   1.896  0.00  0.00     0.000 A 
ATOM      2  C2  BNZ d   1       2.231  -0.146   1.120  0.00  0.00     0.000 A 
ATOM      3  C3  BNZ d   1       3.381   0.178   0.456  0.00  0.00     0.000 A 
ATOM      4  C4  BNZ d   1       4.472  -0.601   0.601  0.00  0.00     0.000 A 
ATOM      5  C5  BNZ d   1       4.422  -1.734   1.388  0.00  0.00     0.000 A 
ATOM      6  C6  BNZ d   1       3.252  -2.079   2.023  0.00  0.00     0.000 A 
ENDROOT
TORSDOF 0
ENDMDL
