MODEL 1
REMARK minimizedAffinity 3.6673367
REMARK minimizedRMSD -1
REMARK  0 active torsions:
REMARK  status: ('A' for Active; 'I' for Inactive)
ROOT
ATOM      1  C1  BNZ d   1       0.771  -1.699   2.888  0.00  0.00     0.000 A 
ATOM      2  C2  BNZ d   1       1.853  -2.537   2.927  0.00  0.00     0.000 A 
ATOM      3  C3  BNZ d   1       2.876  -2.401   2.029  0.00  0.00     0.000 A 
ATOM      4  C4  BNZ d   1       2.796  -1.455   1.071  0.00  0.00     0.000 A 
ATOM      5  C5  BNZ d   1       1.706  -0.609   1.013  0.00  0.00     0.000 A 
ATOM      6  C6  BNZ d   1       0.698  -0.723   1.942  0.00  0.00     0.000 A 
ENDROOT
TORSDOF 0
ENDMDL
