MODEL 1
REMARK minimizedAffinity -2.48390388
REMARK minimizedRMSD -1
REMARK  0 active torsions:
REMARK  status: ('A' for Active; 'I' for Inactive)
ROOT
ATOM      1  C1  BNZ d   1       3.922   4.855  -4.633  0.00  0.00     0.000 A 
ATOM      2  C2  BNZ d   1       3.941   4.858  -3.264  0.00  0.00     0.000 A 
ATOM      3  C3  BNZ d   1       4.971   5.441  -2.580  0.00  0.00     0.000 A 
ATOM      4  C4  BNZ d   1       5.999   5.983  -3.264  0.00  0.00     0.000 A 
ATOM      5  C5  BNZ d   1       5.999   5.980  -4.644  0.00  0.00     0.000 A 
ATOM      6  C6  BNZ d   1       4.942   5.427  -5.330  0.00  0.00     0.000 A 
ENDROOT
TORSDOF 0
ENDMDL
