MODEL 1
REMARK minimizedAffinity 1.36766851
REMARK minimizedRMSD -1
REMARK  0 active torsions:
REMARK  status: ('A' for Active; 'I' for Inactive)
ROOT
ATOM      1  C1  BNZ d   1       3.381  -1.057   1.498  0.00  0.00     0.000 A 
ATOM      2  C2  BNZ d   1       2.957  -2.134   2.229  0.00  0.00     0.000 A 
ATOM      3  C3  BNZ d   1       1.898  -2.025   3.087  0.00  0.00     0.000 A 
ATOM      4  C4  BNZ d   1       1.292  -0.830   3.243  0.00  0.00     0.000 A 
ATOM      5  C5  BNZ d   1       1.714   0.267   2.520  0.00  0.00     0.000 A 
ATOM      6  C6  BNZ d   1       2.755   0.144   1.628  0.00  0.00     0.000 A 
ENDROOT
TORSDOF 0
ENDMDL
