MODEL 1
REMARK minimizedAffinity -3.40294695
REMARK minimizedRMSD -1
REMARK  1 active torsions:
REMARK  status: ('A' for Active; 'I' for Inactive)
REMARK    1  A    between atoms: C3_4  and  O_7 
ROOT
ATOM      1  C   UNL d   1      -0.597   0.105  -0.361  0.00  0.00    -0.033 A 
ATOM      2  C1  UNL d   1       0.788  -0.046  -0.272  0.00  0.00     0.039 A 
ATOM      3  C2  UNL d   1       1.391  -0.249   0.971  0.00  0.00    -0.080 A 
ATOM      4  C3  UNL d   1       0.599  -0.300   2.115  0.00  0.00     0.150 A 
ATOM      5  C4  UNL d   1      -0.782  -0.154   2.033  0.00  0.00    -0.007 A 
ATOM      6  C5  UNL d   1      -1.382   0.049   0.791  0.00  0.00     0.039 A 
ENDROOT
BRANCH   4   7
ATOM      7  O   UNL d   1       1.143  -0.490   3.350  0.00  0.00    -0.526 OA
ATOM      8  H5  UNL d   1       2.108  -0.546   3.256  0.00  0.00     0.418 HD
ENDBRANCH   4   7
TORSDOF 1
ENDMDL
