MODEL 1
REMARK minimizedAffinity -2.90627885
REMARK minimizedRMSD -1
REMARK  1 active torsions:
REMARK  status: ('A' for Active; 'I' for Inactive)
REMARK    1  A    between atoms: C3_4  and  O_7 
ROOT
ATOM      1  C   UNL d   1      -0.304  -0.392  -0.730  0.00  0.00    -0.033 A 
ATOM      2  C1  UNL d   1       1.051  -0.686  -0.571  0.00  0.00     0.039 A 
ATOM      3  C2  UNL d   1       1.605  -0.762   0.709  0.00  0.00    -0.080 A 
ATOM      4  C3  UNL d   1       0.794  -0.543   1.818  0.00  0.00     0.150 A 
ATOM      5  C4  UNL d   1      -0.558  -0.253   1.667  0.00  0.00    -0.007 A 
ATOM      6  C5  UNL d   1      -1.109  -0.177   0.388  0.00  0.00     0.039 A 
ENDROOT
BRANCH   4   7
ATOM      7  O   UNL d   1       1.290  -0.601   3.087  0.00  0.00    -0.526 OA
ATOM      8  H5  UNL d   1       2.244  -0.782   3.036  0.00  0.00     0.418 HD
ENDBRANCH   4   7
TORSDOF 1
ENDMDL
