MODEL 1
REMARK minimizedAffinity -4.59161711
REMARK minimizedRMSD -1
REMARK  1 active torsions:
REMARK  status: ('A' for Active; 'I' for Inactive)
REMARK    1  A    between atoms: C3_4  and  O_7 
ROOT
ATOM      1  C   UNL d   1       0.438   0.077  -0.055  0.00  0.00    -0.033 A 
ATOM      2  C1  UNL d   1       1.744  -0.365   0.166  0.00  0.00     0.039 A 
ATOM      3  C2  UNL d   1       2.145  -0.752   1.446  0.00  0.00    -0.080 A 
ATOM      4  C3  UNL d   1       1.231  -0.693   2.495  0.00  0.00     0.150 A 
ATOM      5  C4  UNL d   1      -0.073  -0.258   2.282  0.00  0.00    -0.007 A 
ATOM      6  C5  UNL d   1      -0.471   0.129   1.003  0.00  0.00     0.039 A 
ENDROOT
BRANCH   4   7
ATOM      7  O   UNL d   1       1.578  -1.055   3.763  0.00  0.00    -0.526 OA
ATOM      8  H5  UNL d   1       2.516  -1.307   3.765  0.00  0.00     0.418 HD
ENDBRANCH   4   7
TORSDOF 1
ENDMDL
