MODEL 1
REMARK minimizedAffinity -5.46410513
REMARK minimizedRMSD -1
REMARK  1 active torsions:
REMARK  status: ('A' for Active; 'I' for Inactive)
REMARK    1  A    between atoms: C3_4  and  O_7 
ROOT
ATOM      1  C   UNL d   1      -0.914  -0.380   0.123  0.00  0.00    -0.033 A 
ATOM      2  C1  UNL d   1      -1.358  -0.899   1.342  0.00  0.00     0.039 A 
ATOM      3  C2  UNL d   1      -0.469  -1.031   2.411  0.00  0.00    -0.080 A 
ATOM      4  C3  UNL d   1       0.857  -0.641   2.249  0.00  0.00     0.150 A 
ATOM      5  C4  UNL d   1       1.305  -0.120   1.040  0.00  0.00    -0.007 A 
ATOM      6  C5  UNL d   1       0.417   0.011  -0.027  0.00  0.00     0.039 A 
ENDROOT
BRANCH   4   7
ATOM      7  O   UNL d   1       1.762  -0.756   3.262  0.00  0.00    -0.526 OA
ATOM      8  H5  UNL d   1       1.318  -1.158   4.028  0.00  0.00     0.418 HD
ENDBRANCH   4   7
TORSDOF 1
ENDMDL
