MODEL 1
REMARK minimizedAffinity -3.6719389
REMARK minimizedRMSD -1
REMARK  1 active torsions:
REMARK  status: ('A' for Active; 'I' for Inactive)
REMARK    1  A    between atoms: C3_4  and  O_7 
ROOT
ATOM      1  C   UNL d   1      -0.473  -0.079  -0.369  0.00  0.00    -0.033 A 
ATOM      2  C1  UNL d   1       0.912  -0.252  -0.314  0.00  0.00     0.039 A 
ATOM      3  C2  UNL d   1       1.553  -0.377   0.920  0.00  0.00    -0.080 A 
ATOM      4  C3  UNL d   1       0.799  -0.330   2.090  0.00  0.00     0.150 A 
ATOM      5  C4  UNL d   1      -0.581  -0.162   2.042  0.00  0.00    -0.007 A 
ATOM      6  C5  UNL d   1      -1.219  -0.036   0.809  0.00  0.00     0.039 A 
ENDROOT
BRANCH   4   7
ATOM      7  O   UNL d   1       1.381  -0.443   3.317  0.00  0.00    -0.526 OA
ATOM      8  H5  UNL d   1       2.341  -0.525   3.196  0.00  0.00     0.418 HD
ENDBRANCH   4   7
TORSDOF 1
ENDMDL
