MODEL 1
REMARK minimizedAffinity -4.95161533
REMARK minimizedRMSD -1
REMARK  1 active torsions:
REMARK  status: ('A' for Active; 'I' for Inactive)
REMARK    1  A    between atoms: C3_4  and  O_7 
ROOT
ATOM      1  C   UNL d   1       0.657  -0.337  -0.776  0.00  0.00    -0.033 A 
ATOM      2  C1  UNL d   1      -0.379   0.202  -0.011  0.00  0.00     0.039 A 
ATOM      3  C2  UNL d   1      -0.334   0.124   1.382  0.00  0.00    -0.080 A 
ATOM      4  C3  UNL d   1       0.752  -0.494   1.997  0.00  0.00     0.150 A 
ATOM      5  C4  UNL d   1       1.789  -1.029   1.241  0.00  0.00    -0.007 A 
ATOM      6  C5  UNL d   1       1.742  -0.951  -0.150  0.00  0.00     0.039 A 
ENDROOT
BRANCH   4   7
ATOM      7  O   UNL d   1       0.838  -0.598   3.354  0.00  0.00    -0.526 OA
ATOM      8  H5  UNL d   1       0.037  -0.210   3.744  0.00  0.00     0.418 HD
ENDBRANCH   4   7
TORSDOF 1
ENDMDL
