MODEL 1
REMARK minimizedAffinity -3.29107499
REMARK minimizedRMSD -1
REMARK  1 active torsions:
REMARK  status: ('A' for Active; 'I' for Inactive)
REMARK    1  A    between atoms: C1_2  and  C2_3 
ROOT
ATOM      1  C2  UNL d   1       0.190   0.020   0.272  0.00  0.00    -0.076 A 
ATOM      2  C3  UNL d   1       0.405   1.396   0.079  0.00  0.00     0.004 A 
ATOM      3  C4  UNL d   1       1.275   1.854  -0.909  0.00  0.00    -0.003 A 
ATOM      4  C5  UNL d   1       1.944   0.945  -1.720  0.00  0.00     0.000 A 
ATOM      5  C6  UNL d   1       1.729  -0.423  -1.554  0.00  0.00     0.000 A 
ATOM      6  C7  UNL d   1       0.843  -0.902  -0.574  0.00  0.00    -0.073 A 
ATOM      7  C8  UNL d   1       0.654  -2.388  -0.435  0.00  0.00     0.078 C 
ENDROOT
BRANCH   1   8
ATOM      8  C1  UNL d   1      -0.744  -0.419   1.377  0.00  0.00     0.053 C 
ATOM      9  C   UNL d   1      -2.189  -0.030   1.107  0.00  0.00     0.018 C 
ENDBRANCH   1   8
TORSDOF 1
ENDMDL
