MODEL 1
REMARK minimizedAffinity -1.40545774
REMARK minimizedRMSD -1
REMARK  1 active torsions:
REMARK  status: ('A' for Active; 'I' for Inactive)
REMARK    1  A    between atoms: C1_2  and  C2_3 
ROOT
ATOM      1  C2  UNL d   1      -3.101   1.180   3.295  0.00  0.00    -0.076 A 
ATOM      2  C3  UNL d   1      -2.374   1.619   4.416  0.00  0.00     0.004 A 
ATOM      3  C4  UNL d   1      -2.589   2.884   4.960  0.00  0.00    -0.003 A 
ATOM      4  C5  UNL d   1      -3.534   3.731   4.392  0.00  0.00     0.000 A 
ATOM      5  C6  UNL d   1      -4.277   3.306   3.291  0.00  0.00     0.000 A 
ATOM      6  C7  UNL d   1      -4.084   2.027   2.740  0.00  0.00    -0.073 A 
ATOM      7  C8  UNL d   1      -4.908   1.623   1.549  0.00  0.00     0.078 C 
ENDROOT
BRANCH   1   8
ATOM      8  C1  UNL d   1      -2.805  -0.192   2.732  0.00  0.00     0.053 C 
ATOM      9  C   UNL d   1      -1.773  -0.153   1.616  0.00  0.00     0.018 C 
ENDBRANCH   1   8
TORSDOF 1
ENDMDL
