MODEL 1
REMARK minimizedAffinity -4.08579159
REMARK minimizedRMSD -1
REMARK  1 active torsions:
REMARK  status: ('A' for Active; 'I' for Inactive)
REMARK    1  A    between atoms: C1_2  and  C2_3 
ROOT
ATOM      1  C2  UNL d   1       1.298   1.378  -0.703  0.00  0.00    -0.076 A 
ATOM      2  C3  UNL d   1       2.349   1.385  -1.637  0.00  0.00     0.004 A 
ATOM      3  C4  UNL d   1       2.223   0.733  -2.863  0.00  0.00    -0.003 A 
ATOM      4  C5  UNL d   1       1.045   0.065  -3.175  0.00  0.00     0.000 A 
ATOM      5  C6  UNL d   1      -0.014   0.062  -2.268  0.00  0.00     0.000 A 
ATOM      6  C7  UNL d   1       0.090   0.728  -1.035  0.00  0.00    -0.073 A 
ATOM      7  C8  UNL d   1      -1.081   0.688  -0.092  0.00  0.00     0.078 C 
ENDROOT
BRANCH   1   8
ATOM      8  C1  UNL d   1       1.501   2.079   0.621  0.00  0.00     0.053 C 
ATOM      9  C   UNL d   1       1.897   3.538   0.453  0.00  0.00     0.018 C 
ENDBRANCH   1   8
TORSDOF 1
ENDMDL
