MODEL 1
REMARK minimizedAffinity -5.15288162
REMARK minimizedRMSD -1
REMARK  1 active torsions:
REMARK  status: ('A' for Active; 'I' for Inactive)
REMARK    1  A    between atoms: C1_2  and  C2_3 
ROOT
ATOM      1  C2  UNL d   1       0.366  -0.147  -0.042  0.00  0.00    -0.076 A 
ATOM      2  C3  UNL d   1       0.161  -1.136  -1.020  0.00  0.00     0.004 A 
ATOM      3  C4  UNL d   1       0.690  -0.998  -2.302  0.00  0.00    -0.003 A 
ATOM      4  C5  UNL d   1       1.433   0.132  -2.627  0.00  0.00     0.000 A 
ATOM      5  C6  UNL d   1       1.662   1.114  -1.664  0.00  0.00     0.000 A 
ATOM      6  C7  UNL d   1       1.149   0.982  -0.362  0.00  0.00    -0.073 A 
ATOM      7  C8  UNL d   1       1.421   2.075   0.635  0.00  0.00     0.078 C 
ENDROOT
BRANCH   1   8
ATOM      8  C1  UNL d   1      -0.255  -0.339   1.323  0.00  0.00     0.053 C 
ATOM      9  C   UNL d   1      -1.710   0.102   1.369  0.00  0.00     0.018 C 
ENDBRANCH   1   8
TORSDOF 1
ENDMDL
