MODEL 1
REMARK minimizedAffinity -3.04067016
REMARK minimizedRMSD -1
REMARK  1 active torsions:
REMARK  status: ('A' for Active; 'I' for Inactive)
REMARK    1  A    between atoms: C1_2  and  C2_3 
ROOT
ATOM      1  C2  UNL d   1      -0.723   0.403   0.503  0.00  0.00    -0.076 A 
ATOM      2  C3  UNL d   1       0.142  -0.673   0.764  0.00  0.00     0.004 A 
ATOM      3  C4  UNL d   1      -0.096  -1.544   1.826  0.00  0.00    -0.003 A 
ATOM      4  C5  UNL d   1      -1.204  -1.353   2.644  0.00  0.00     0.000 A 
ATOM      5  C6  UNL d   1      -2.082  -0.301   2.390  0.00  0.00     0.000 A 
ATOM      6  C7  UNL d   1      -1.866   0.577   1.313  0.00  0.00    -0.073 A 
ATOM      7  C8  UNL d   1      -2.843   1.698   1.089  0.00  0.00     0.078 C 
ENDROOT
BRANCH   1   8
ATOM      8  C1  UNL d   1      -0.400   1.331  -0.646  0.00  0.00     0.053 C 
ATOM      9  C   UNL d   1       1.082   1.666  -0.725  0.00  0.00     0.018 C 
ENDBRANCH   1   8
TORSDOF 1
ENDMDL
