MODEL 1
REMARK minimizedAffinity -6.87996006
REMARK minimizedRMSD -1
REMARK  1 active torsions:
REMARK  status: ('A' for Active; 'I' for Inactive)
REMARK    1  A    between atoms: C1_2  and  C2_3 
ROOT
ATOM      1  C2  UNL d   1       0.786   0.265  -0.844  0.00  0.00    -0.076 A 
ATOM      2  C3  UNL d   1       1.340   0.432  -2.125  0.00  0.00     0.004 A 
ATOM      3  C4  UNL d   1       1.799  -0.663  -2.856  0.00  0.00    -0.003 A 
ATOM      4  C5  UNL d   1       1.711  -1.942  -2.318  0.00  0.00     0.000 A 
ATOM      5  C6  UNL d   1       1.148  -2.128  -1.055  0.00  0.00     0.000 A 
ATOM      6  C7  UNL d   1       0.665  -1.037  -0.312  0.00  0.00    -0.073 A 
ATOM      7  C8  UNL d   1       0.073  -1.294   1.047  0.00  0.00     0.078 C 
ENDROOT
BRANCH   1   8
ATOM      8  C1  UNL d   1       0.330   1.492  -0.087  0.00  0.00     0.053 C 
ATOM      9  C   UNL d   1       1.415   2.055   0.818  0.00  0.00     0.018 C 
ENDBRANCH   1   8
TORSDOF 1
ENDMDL
