MODEL 1
REMARK minimizedAffinity -0.0596635006
REMARK minimizedRMSD -1
REMARK  1 active torsions:
REMARK  status: ('A' for Active; 'I' for Inactive)
REMARK    1  A    between atoms: C1_2  and  C2_3 
ROOT
ATOM      1  C2  UNL d   1       0.607   0.446   0.003  0.00  0.00    -0.076 A 
ATOM      2  C3  UNL d   1       1.157   1.698  -0.322  0.00  0.00     0.004 A 
ATOM      3  C4  UNL d   1       2.346   1.794  -1.043  0.00  0.00    -0.003 A 
ATOM      4  C5  UNL d   1       3.004   0.639  -1.452  0.00  0.00     0.000 A 
ATOM      5  C6  UNL d   1       2.463  -0.612  -1.154  0.00  0.00     0.000 A 
ATOM      6  C7  UNL d   1       1.257  -0.726  -0.442  0.00  0.00    -0.073 A 
ATOM      7  C8  UNL d   1       0.722  -2.099  -0.142  0.00  0.00     0.078 C 
ENDROOT
BRANCH   1   8
ATOM      8  C1  UNL d   1      -0.671   0.404   0.810  0.00  0.00     0.053 C 
ATOM      9  C   UNL d   1      -1.914   0.388  -0.066  0.00  0.00     0.018 C 
ENDBRANCH   1   8
TORSDOF 1
ENDMDL
