MODEL 1
REMARK minimizedAffinity -3.325665
REMARK minimizedRMSD -1
REMARK  1 active torsions:
REMARK  status: ('A' for Active; 'I' for Inactive)
REMARK    1  A    between atoms: C1_2  and  C2_3 
ROOT
ATOM      1  C2  UNL d   1       0.340   0.410   0.068  0.00  0.00    -0.076 A 
ATOM      2  C3  UNL d   1       0.740   1.612  -0.542  0.00  0.00     0.004 A 
ATOM      3  C4  UNL d   1       1.658   1.613  -1.591  0.00  0.00    -0.003 A 
ATOM      4  C5  UNL d   1       2.191   0.413  -2.047  0.00  0.00     0.000 A 
ATOM      5  C6  UNL d   1       1.792  -0.790  -1.466  0.00  0.00     0.000 A 
ATOM      6  C7  UNL d   1       0.856  -0.811  -0.418  0.00  0.00    -0.073 A 
ATOM      7  C8  UNL d   1       0.466  -2.137   0.176  0.00  0.00     0.078 C 
ENDROOT
BRANCH   1   8
ATOM      8  C1  UNL d   1      -0.638   0.472   1.219  0.00  0.00     0.053 C 
ATOM      9  C   UNL d   1      -2.086   0.413   0.757  0.00  0.00     0.018 C 
ENDBRANCH   1   8
TORSDOF 1
ENDMDL
