MODEL 1
REMARK minimizedAffinity -2.55248475
REMARK minimizedRMSD -1
REMARK  1 active torsions:
REMARK  status: ('A' for Active; 'I' for Inactive)
REMARK    1  A    between atoms: C1_2  and  C2_3 
ROOT
ATOM      1  C2  UNL d   1       0.480  -0.258  -0.183  0.00  0.00    -0.076 A 
ATOM      2  C3  UNL d   1       0.548  -1.661  -0.114  0.00  0.00     0.004 A 
ATOM      3  C4  UNL d   1       1.595  -2.359  -0.713  0.00  0.00    -0.003 A 
ATOM      4  C5  UNL d   1       2.591  -1.666  -1.392  0.00  0.00     0.000 A 
ATOM      5  C6  UNL d   1       2.549  -0.273  -1.455  0.00  0.00     0.000 A 
ATOM      6  C7  UNL d   1       1.510   0.447  -0.842  0.00  0.00    -0.073 A 
ATOM      7  C8  UNL d   1       1.511   1.947  -0.947  0.00  0.00     0.078 C 
ENDROOT
BRANCH   1   8
ATOM      8  C1  UNL d   1      -0.693   0.443   0.463  0.00  0.00     0.053 C 
ATOM      9  C   UNL d   1      -0.900   0.020   1.909  0.00  0.00     0.018 C 
ENDBRANCH   1   8
TORSDOF 1
ENDMDL
