MODEL 1
REMARK minimizedAffinity -2.56001472
REMARK minimizedRMSD -1
REMARK  1 active torsions:
REMARK  status: ('A' for Active; 'I' for Inactive)
REMARK    1  A    between atoms: C1_2  and  C2_3 
ROOT
ATOM      1  C2  UNL d   1      -0.062   0.090  -0.343  0.00  0.00    -0.076 A 
ATOM      2  C3  UNL d   1       0.262   1.414  -0.687  0.00  0.00     0.004 A 
ATOM      3  C4  UNL d   1       1.410   1.703  -1.424  0.00  0.00    -0.003 A 
ATOM      4  C5  UNL d   1       2.252   0.673  -1.828  0.00  0.00     0.000 A 
ATOM      5  C6  UNL d   1       1.936  -0.648  -1.511  0.00  0.00     0.000 A 
ATOM      6  C7  UNL d   1       0.775  -0.958  -0.783  0.00  0.00    -0.073 A 
ATOM      7  C8  UNL d   1       0.486  -2.399  -0.463  0.00  0.00     0.078 C 
ENDROOT
BRANCH   1   8
ATOM      8  C1  UNL d   1      -1.305  -0.160   0.481  0.00  0.00     0.053 C 
ATOM      9  C   UNL d   1      -1.013  -0.224   1.972  0.00  0.00     0.018 C 
ENDBRANCH   1   8
TORSDOF 1
ENDMDL
