MODEL 1
REMARK minimizedAffinity -1.84077847
REMARK minimizedRMSD -1
REMARK  1 active torsions:
REMARK  status: ('A' for Active; 'I' for Inactive)
REMARK    1  A    between atoms: C1_2  and  C2_3 
ROOT
ATOM      1  C2  UNL d   1      -1.875   0.253   2.006  0.00  0.00    -0.076 A 
ATOM      2  C3  UNL d   1      -1.715   1.558   2.503  0.00  0.00     0.004 A 
ATOM      3  C4  UNL d   1      -2.788   2.448   2.540  0.00  0.00    -0.003 A 
ATOM      4  C5  UNL d   1      -4.037   2.046   2.081  0.00  0.00     0.000 A 
ATOM      5  C6  UNL d   1      -4.218   0.750   1.601  0.00  0.00     0.000 A 
ATOM      6  C7  UNL d   1      -3.151  -0.165   1.572  0.00  0.00    -0.073 A 
ATOM      7  C8  UNL d   1      -3.401  -1.549   1.038  0.00  0.00     0.078 C 
ENDROOT
BRANCH   1   8
ATOM      8  C1  UNL d   1      -0.669  -0.659   1.965  0.00  0.00     0.053 C 
ATOM      9  C   UNL d   1       0.149  -0.486   0.695  0.00  0.00     0.018 C 
ENDBRANCH   1   8
TORSDOF 1
ENDMDL
