MODEL 1
REMARK minimizedAffinity 13.6838531
REMARK minimizedRMSD -1
REMARK  1 active torsions:
REMARK  status: ('A' for Active; 'I' for Inactive)
REMARK    1  A    between atoms: C1_2  and  C2_3 
ROOT
ATOM      1  C2  UNL d   1       1.574  -3.054  -2.293  0.00  0.00    -0.076 A 
ATOM      2  C3  UNL d   1       0.922  -2.735  -1.089  0.00  0.00     0.004 A 
ATOM      3  C4  UNL d   1       1.029  -1.462  -0.530  0.00  0.00    -0.003 A 
ATOM      4  C5  UNL d   1       1.790  -0.488  -1.166  0.00  0.00     0.000 A 
ATOM      5  C6  UNL d   1       2.430  -0.782  -2.370  0.00  0.00     0.000 A 
ATOM      6  C7  UNL d   1       2.319  -2.054  -2.955  0.00  0.00    -0.073 A 
ATOM      7  C8  UNL d   1       3.034  -2.318  -4.252  0.00  0.00     0.078 C 
ENDROOT
BRANCH   1   8
ATOM      8  C1  UNL d   1       1.444  -4.458  -2.837  0.00  0.00     0.053 C 
ATOM      9  C   UNL d   1       0.167  -4.655  -3.640  0.00  0.00     0.018 C 
ENDBRANCH   1   8
TORSDOF 1
ENDMDL
