MODEL 1
REMARK minimizedAffinity 16.0047131
REMARK minimizedRMSD -1
REMARK  1 active torsions:
REMARK  status: ('A' for Active; 'I' for Inactive)
REMARK    1  A    between atoms: C1_2  and  C2_3 
ROOT
ATOM      1  C2  UNL d   1       3.588  -0.989  -5.943  0.00  0.00    -0.076 A 
ATOM      2  C3  UNL d   1       4.899  -0.483  -5.974  0.00  0.00     0.004 A 
ATOM      3  C4  UNL d   1       5.999  -1.339  -5.999  0.00  0.00    -0.003 A 
ATOM      4  C5  UNL d   1       5.805  -2.716  -5.993  0.00  0.00     0.000 A 
ATOM      5  C6  UNL d   1       4.511  -3.236  -5.980  0.00  0.00     0.000 A 
ATOM      6  C7  UNL d   1       3.392  -2.386  -5.971  0.00  0.00    -0.073 A 
ATOM      7  C8  UNL d   1       2.019  -3.001  -5.951  0.00  0.00     0.078 C 
ENDROOT
BRANCH   1   8
ATOM      8  C1  UNL d   1       2.436  -0.012  -5.890  0.00  0.00     0.053 C 
ATOM      9  C   UNL d   1       1.687  -0.066  -4.568  0.00  0.00     0.018 C 
ENDBRANCH   1   8
TORSDOF 1
ENDMDL
