MODEL 1
REMARK minimizedAffinity 20.617054
REMARK minimizedRMSD -1
REMARK  1 active torsions:
REMARK  status: ('A' for Active; 'I' for Inactive)
REMARK    1  A    between atoms: C1_2  and  C2_3 
ROOT
ATOM      1  C2  UNL d   1       0.032   2.234   3.594  0.00  0.00    -0.076 A 
ATOM      2  C3  UNL d   1      -0.437   2.353   4.913  0.00  0.00     0.004 A 
ATOM      3  C4  UNL d   1       0.422   2.182   5.998  0.00  0.00    -0.003 A 
ATOM      4  C5  UNL d   1       1.763   1.889   5.781  0.00  0.00     0.000 A 
ATOM      5  C6  UNL d   1       2.250   1.785   4.478  0.00  0.00     0.000 A 
ATOM      6  C7  UNL d   1       1.401   1.970   3.373  0.00  0.00    -0.073 A 
ATOM      7  C8  UNL d   1       1.978   1.840   1.990  0.00  0.00     0.078 C 
ENDROOT
BRANCH   1   8
ATOM      8  C1  UNL d   1      -0.951   2.403   2.457  0.00  0.00     0.053 C 
ATOM      9  C   UNL d   1      -2.346   1.917   2.817  0.00  0.00     0.018 C 
ENDBRANCH   1   8
TORSDOF 1
ENDMDL
