MODEL 1
REMARK minimizedAffinity 13.8717365
REMARK minimizedRMSD -1
REMARK  1 active torsions:
REMARK  status: ('A' for Active; 'I' for Inactive)
REMARK    1  A    between atoms: C1_2  and  C2_3 
ROOT
ATOM      1  C2  UNL d   1       2.133  -0.621  -0.887  0.00  0.00    -0.076 A 
ATOM      2  C3  UNL d   1       1.445  -1.791  -1.255  0.00  0.00     0.004 A 
ATOM      3  C4  UNL d   1       2.010  -3.049  -1.053  0.00  0.00    -0.003 A 
ATOM      4  C5  UNL d   1       3.272  -3.158  -0.478  0.00  0.00     0.000 A 
ATOM      5  C6  UNL d   1       3.960  -2.009  -0.091  0.00  0.00     0.000 A 
ATOM      6  C7  UNL d   1       3.398  -0.734  -0.273  0.00  0.00    -0.073 A 
ATOM      7  C8  UNL d   1       4.188   0.472   0.158  0.00  0.00     0.078 C 
ENDROOT
BRANCH   1   8
ATOM      8  C1  UNL d   1       1.481   0.717  -1.156  0.00  0.00     0.053 C 
ATOM      9  C   UNL d   1       1.764   1.231  -2.559  0.00  0.00     0.018 C 
ENDBRANCH   1   8
TORSDOF 1
ENDMDL
