MODEL 1
REMARK minimizedAffinity 13.2287216
REMARK minimizedRMSD -1
REMARK  1 active torsions:
REMARK  status: ('A' for Active; 'I' for Inactive)
REMARK    1  A    between atoms: C1_2  and  C2_3 
ROOT
ATOM      1  C2  UNL d   1       3.374   0.924  -1.207  0.00  0.00    -0.076 A 
ATOM      2  C3  UNL d   1       4.639   1.005  -0.598  0.00  0.00     0.004 A 
ATOM      3  C4  UNL d   1       5.201  -0.101   0.036  0.00  0.00    -0.003 A 
ATOM      4  C5  UNL d   1       4.509  -1.307   0.072  0.00  0.00     0.000 A 
ATOM      5  C6  UNL d   1       3.261  -1.410  -0.542  0.00  0.00     0.000 A 
ATOM      6  C7  UNL d   1       2.687  -0.309  -1.201  0.00  0.00    -0.073 A 
ATOM      7  C8  UNL d   1       1.336  -0.475  -1.841  0.00  0.00     0.078 C 
ENDROOT
BRANCH   1   8
ATOM      8  C1  UNL d   1       2.803   2.164  -1.857  0.00  0.00     0.053 C 
ATOM      9  C   UNL d   1       2.652   3.318  -0.878  0.00  0.00     0.018 C 
ENDBRANCH   1   8
TORSDOF 1
ENDMDL
