MODEL 1
REMARK minimizedAffinity 9.70627975
REMARK minimizedRMSD -1
REMARK  1 active torsions:
REMARK  status: ('A' for Active; 'I' for Inactive)
REMARK    1  A    between atoms: C1_2  and  C2_3 
ROOT
ATOM      1  C2  UNL d   1      -2.300  -3.738  -4.028  0.00  0.00    -0.076 A 
ATOM      2  C3  UNL d   1      -3.021  -2.532  -3.976  0.00  0.00     0.004 A 
ATOM      3  C4  UNL d   1      -4.001  -2.242  -4.924  0.00  0.00    -0.003 A 
ATOM      4  C5  UNL d   1      -4.277  -3.152  -5.938  0.00  0.00     0.000 A 
ATOM      5  C6  UNL d   1      -3.584  -4.361  -5.994  0.00  0.00     0.000 A 
ATOM      6  C7  UNL d   1      -2.604  -4.677  -5.037  0.00  0.00    -0.073 A 
ATOM      7  C8  UNL d   1      -1.883  -5.992  -5.149  0.00  0.00     0.078 C 
ENDROOT
BRANCH   1   8
ATOM      8  C1  UNL d   1      -1.230  -3.987  -2.989  0.00  0.00     0.053 C 
ATOM      9  C   UNL d   1      -0.247  -5.067  -3.413  0.00  0.00     0.018 C 
ENDBRANCH   1   8
TORSDOF 1
ENDMDL
