MODEL 1
REMARK minimizedAffinity 7.25719643
REMARK minimizedRMSD -1
REMARK  1 active torsions:
REMARK  status: ('A' for Active; 'I' for Inactive)
REMARK    1  A    between atoms: C1_2  and  C2_3 
ROOT
ATOM      1  C2  UNL d   1      -2.215  -4.235  -4.477  0.00  0.00    -0.076 A 
ATOM      2  C3  UNL d   1      -2.634  -5.335  -5.245  0.00  0.00     0.004 A 
ATOM      3  C4  UNL d   1      -3.805  -5.280  -5.999  0.00  0.00    -0.003 A 
ATOM      4  C5  UNL d   1      -4.576  -4.123  -5.998  0.00  0.00     0.000 A 
ATOM      5  C6  UNL d   1      -4.166  -3.016  -5.255  0.00  0.00     0.000 A 
ATOM      6  C7  UNL d   1      -2.980  -3.049  -4.502  0.00  0.00    -0.073 A 
ATOM      7  C8  UNL d   1      -2.589  -1.829  -3.715  0.00  0.00     0.078 C 
ENDROOT
BRANCH   1   8
ATOM      8  C1  UNL d   1      -0.951  -4.363  -3.658  0.00  0.00     0.053 C 
ATOM      9  C   UNL d   1      -1.056  -5.438  -2.587  0.00  0.00     0.018 C 
ENDBRANCH   1   8
TORSDOF 1
ENDMDL
