MODEL 1
REMARK minimizedAffinity 11.8961792
REMARK minimizedRMSD -1
REMARK  1 active torsions:
REMARK  status: ('A' for Active; 'I' for Inactive)
REMARK    1  A    between atoms: C1_2  and  C2_3 
ROOT
ATOM      1  C2  UNL d   1      -2.256  -4.901  -4.453  0.00  0.00    -0.076 A 
ATOM      2  C3  UNL d   1      -3.135  -5.236  -5.499  0.00  0.00     0.004 A 
ATOM      3  C4  UNL d   1      -4.047  -4.306  -5.995  0.00  0.00    -0.003 A 
ATOM      4  C5  UNL d   1      -4.095  -3.026  -5.454  0.00  0.00     0.000 A 
ATOM      5  C6  UNL d   1      -3.219  -2.671  -4.428  0.00  0.00     0.000 A 
ATOM      6  C7  UNL d   1      -2.282  -3.592  -3.928  0.00  0.00    -0.073 A 
ATOM      7  C8  UNL d   1      -1.366  -3.157  -2.817  0.00  0.00     0.078 C 
ENDROOT
BRANCH   1   8
ATOM      8  C1  UNL d   1      -1.307  -5.960  -3.938  0.00  0.00     0.053 C 
ATOM      9  C   UNL d   1      -0.062  -5.365  -3.300  0.00  0.00     0.018 C 
ENDBRANCH   1   8
TORSDOF 1
ENDMDL
