MODEL 1
REMARK minimizedAffinity 6.10881138
REMARK minimizedRMSD -1
REMARK  1 active torsions:
REMARK  status: ('A' for Active; 'I' for Inactive)
REMARK    1  A    between atoms: C1_2  and  C2_3 
ROOT
ATOM      1  C2  UNL d   1      -2.305  -4.436  -3.985  0.00  0.00    -0.076 A 
ATOM      2  C3  UNL d   1      -2.667  -3.215  -3.389  0.00  0.00     0.004 A 
ATOM      3  C4  UNL d   1      -3.409  -2.267  -4.091  0.00  0.00    -0.003 A 
ATOM      4  C5  UNL d   1      -3.803  -2.524  -5.400  0.00  0.00     0.000 A 
ATOM      5  C6  UNL d   1      -3.468  -3.738  -6.000  0.00  0.00     0.000 A 
ATOM      6  C7  UNL d   1      -2.734  -4.711  -5.301  0.00  0.00    -0.073 A 
ATOM      7  C8  UNL d   1      -2.396  -6.000  -5.999  0.00  0.00     0.078 C 
ENDROOT
BRANCH   1   8
ATOM      8  C1  UNL d   1      -1.476  -5.415  -3.184  0.00  0.00     0.053 C 
ATOM      9  C   UNL d   1      -0.031  -4.966  -3.032  0.00  0.00     0.018 C 
ENDBRANCH   1   8
TORSDOF 1
ENDMDL
