MODEL 1
REMARK minimizedAffinity 4.89964199
REMARK minimizedRMSD -1
REMARK  1 active torsions:
REMARK  status: ('A' for Active; 'I' for Inactive)
REMARK    1  A    between atoms: C1_2  and  C2_3 
ROOT
ATOM      1  C2  UNL d   1      -2.949  -3.840  -5.077  0.00  0.00    -0.076 A 
ATOM      2  C3  UNL d   1      -2.039  -3.228  -4.198  0.00  0.00     0.004 A 
ATOM      3  C4  UNL d   1      -1.277  -3.986  -3.310  0.00  0.00    -0.003 A 
ATOM      4  C5  UNL d   1      -1.413  -5.370  -3.288  0.00  0.00     0.000 A 
ATOM      5  C6  UNL d   1      -2.298  -5.996  -4.165  0.00  0.00     0.000 A 
ATOM      6  C7  UNL d   1      -3.061  -5.247  -5.078  0.00  0.00    -0.073 A 
ATOM      7  C8  UNL d   1      -4.004  -5.973  -5.997  0.00  0.00     0.078 C 
ENDROOT
BRANCH   1   8
ATOM      8  C1  UNL d   1      -3.767  -2.964  -5.998  0.00  0.00     0.053 C 
ATOM      9  C   UNL d   1      -5.229  -2.892  -5.586  0.00  0.00     0.018 C 
ENDBRANCH   1   8
TORSDOF 1
ENDMDL
