MODEL 1
REMARK minimizedAffinity -1.58482683
REMARK minimizedRMSD -1
REMARK  1 active torsions:
REMARK  status: ('A' for Active; 'I' for Inactive)
REMARK    1  A    between atoms: C1_2  and  C2_3 
ROOT
ATOM      1  C2  UNL d   1      -2.128  -3.643  -4.295  0.00  0.00    -0.076 A 
ATOM      2  C3  UNL d   1      -1.174  -3.386  -3.295  0.00  0.00     0.004 A 
ATOM      3  C4  UNL d   1      -0.281  -4.374  -2.885  0.00  0.00    -0.003 A 
ATOM      4  C5  UNL d   1      -0.327  -5.636  -3.468  0.00  0.00     0.000 A 
ATOM      5  C6  UNL d   1      -1.256  -5.903  -4.474  0.00  0.00     0.000 A 
ATOM      6  C7  UNL d   1      -2.153  -4.912  -4.910  0.00  0.00    -0.073 A 
ATOM      7  C8  UNL d   1      -3.137  -5.257  -5.994  0.00  0.00     0.078 C 
ENDROOT
BRANCH   1   8
ATOM      8  C1  UNL d   1      -3.089  -2.540  -4.680  0.00  0.00     0.053 C 
ATOM      9  C   UNL d   1      -3.808  -2.824  -5.989  0.00  0.00     0.018 C 
ENDBRANCH   1   8
TORSDOF 1
ENDMDL
