MODEL 1
REMARK minimizedAffinity 5.50804615
REMARK minimizedRMSD -1
REMARK  1 active torsions:
REMARK  status: ('A' for Active; 'I' for Inactive)
REMARK    1  A    between atoms: C1_2  and  C2_3 
ROOT
ATOM      1  C2  UNL d   1      -2.277  -4.793  -3.858  0.00  0.00    -0.076 A 
ATOM      2  C3  UNL d   1      -2.620  -5.992  -4.507  0.00  0.00     0.004 A 
ATOM      3  C4  UNL d   1      -3.527  -6.000  -5.566  0.00  0.00    -0.003 A 
ATOM      4  C5  UNL d   1      -4.105  -4.809  -5.992  0.00  0.00     0.000 A 
ATOM      5  C6  UNL d   1      -3.763  -3.609  -5.371  0.00  0.00     0.000 A 
ATOM      6  C7  UNL d   1      -2.838  -3.581  -4.313  0.00  0.00    -0.073 A 
ATOM      7  C8  UNL d   1      -2.510  -2.259  -3.675  0.00  0.00     0.078 C 
ENDROOT
BRANCH   1   8
ATOM      8  C1  UNL d   1      -1.308  -4.850  -2.698  0.00  0.00     0.053 C 
ATOM      9  C   UNL d   1       0.006  -4.147  -3.002  0.00  0.00     0.018 C 
ENDBRANCH   1   8
TORSDOF 1
ENDMDL
