MODEL 1
REMARK minimizedAffinity 1.96575665
REMARK minimizedRMSD -1
REMARK  1 active torsions:
REMARK  status: ('A' for Active; 'I' for Inactive)
REMARK    1  A    between atoms: C1_2  and  C2_3 
ROOT
ATOM      1  C2  UNL d   1      -2.191  -3.710  -5.138  0.00  0.00    -0.076 A 
ATOM      2  C3  UNL d   1      -1.293  -3.006  -4.317  0.00  0.00     0.004 A 
ATOM      3  C4  UNL d   1      -0.402  -3.681  -3.485  0.00  0.00    -0.003 A 
ATOM      4  C5  UNL d   1      -0.393  -5.071  -3.461  0.00  0.00     0.000 A 
ATOM      5  C6  UNL d   1      -1.265  -5.786  -4.282  0.00  0.00     0.000 A 
ATOM      6  C7  UNL d   1      -2.159  -5.121  -5.139  0.00  0.00    -0.073 A 
ATOM      7  C8  UNL d   1      -3.081  -5.941  -5.999  0.00  0.00     0.078 C 
ENDROOT
BRANCH   1   8
ATOM      8  C1  UNL d   1      -3.153  -2.924  -6.000  0.00  0.00     0.053 C 
ATOM      9  C   UNL d   1      -4.465  -2.630  -5.289  0.00  0.00     0.018 C 
ENDBRANCH   1   8
TORSDOF 1
ENDMDL
