MODEL 1
REMARK minimizedAffinity -0.0442104936
REMARK minimizedRMSD -1
REMARK  1 active torsions:
REMARK  status: ('A' for Active; 'I' for Inactive)
REMARK    1  A    between atoms: C1_2  and  C2_3 
ROOT
ATOM      1  C2  UNL d   1      -2.880   1.450   4.900  0.00  0.00    -0.077 A 
ATOM      2  C3  UNL d   1      -2.162   0.361   4.386  0.00  0.00     0.002 A 
ATOM      3  C4  UNL d   1      -1.096   0.569   3.509  0.00  0.00     0.002 A 
ATOM      4  C5  UNL d   1      -0.736   1.864   3.142  0.00  0.00    -0.004 A 
ATOM      5  C6  UNL d   1      -1.445   2.953   3.646  0.00  0.00     0.002 A 
ATOM      6  C7  UNL d   1      -2.511   2.747   4.522  0.00  0.00     0.002 A 
ENDROOT
BRANCH   1   7
ATOM      7  C1  UNL d   1      -3.998   1.230   5.885  0.00  0.00     0.055 C 
ATOM      8  C   UNL d   1      -4.720  -0.084   5.620  0.00  0.00     0.019 C 
ENDBRANCH   1   7
TORSDOF 1
ENDMDL
