MODEL 1
REMARK minimizedAffinity 1.71304262
REMARK minimizedRMSD -1
REMARK  1 active torsions:
REMARK  status: ('A' for Active; 'I' for Inactive)
REMARK    1  A    between atoms: C1_2  and  C2_3 
ROOT
ATOM      1  C2  UNL d   1       0.246   0.519   2.175  0.00  0.00    -0.077 A 
ATOM      2  C3  UNL d   1      -1.123   0.633   1.899  0.00  0.00     0.002 A 
ATOM      3  C4  UNL d   1      -1.853   1.721   2.383  0.00  0.00     0.002 A 
ATOM      4  C5  UNL d   1      -1.221   2.703   3.143  0.00  0.00    -0.004 A 
ATOM      5  C6  UNL d   1       0.141   2.597   3.424  0.00  0.00     0.002 A 
ATOM      6  C7  UNL d   1       0.871   1.510   2.942  0.00  0.00     0.002 A 
ENDROOT
BRANCH   1   7
ATOM      7  C1  UNL d   1       1.045  -0.628   1.612  0.00  0.00     0.055 C 
ATOM      8  C   UNL d   1       2.265  -0.131   0.850  0.00  0.00     0.019 C 
ENDBRANCH   1   7
TORSDOF 1
ENDMDL
