MODEL 1
REMARK minimizedAffinity 1.02795088
REMARK minimizedRMSD -1
REMARK  1 active torsions:
REMARK  status: ('A' for Active; 'I' for Inactive)
REMARK    1  A    between atoms: C1_2  and  C2_3 
ROOT
ATOM      1  C2  UNL d   1      -4.153   1.353   4.054  0.00  0.00    -0.077 A 
ATOM      2  C3  UNL d   1      -4.124   1.061   5.425  0.00  0.00     0.002 A 
ATOM      3  C4  UNL d   1      -5.005   0.123   5.966  0.00  0.00     0.002 A 
ATOM      4  C5  UNL d   1      -5.919  -0.532   5.144  0.00  0.00    -0.004 A 
ATOM      5  C6  UNL d   1      -5.958  -0.247   3.779  0.00  0.00     0.002 A 
ATOM      6  C7  UNL d   1      -5.078   0.691   3.237  0.00  0.00     0.002 A 
ENDROOT
BRANCH   1   7
ATOM      7  C1  UNL d   1      -3.170   2.328   3.460  0.00  0.00     0.055 C 
ATOM      8  C   UNL d   1      -2.075   1.607   2.687  0.00  0.00     0.019 C 
ENDBRANCH   1   7
TORSDOF 1
ENDMDL
