MODEL 1
REMARK minimizedAffinity 9.02625847
REMARK minimizedRMSD -1
REMARK  1 active torsions:
REMARK  status: ('A' for Active; 'I' for Inactive)
REMARK    1  A    between atoms: C1_2  and  C2_3 
ROOT
ATOM      1  C2  UNL d   1      -1.194   0.878   1.492  0.00  0.00    -0.077 A 
ATOM      2  C3  UNL d   1      -1.096  -0.504   1.706  0.00  0.00     0.002 A 
ATOM      3  C4  UNL d   1       0.123  -1.077   2.074  0.00  0.00     0.002 A 
ATOM      4  C5  UNL d   1       1.251  -0.276   2.236  0.00  0.00    -0.004 A 
ATOM      5  C6  UNL d   1       1.164   1.099   2.023  0.00  0.00     0.002 A 
ATOM      6  C7  UNL d   1      -0.053   1.674   1.654  0.00  0.00     0.002 A 
ENDROOT
BRANCH   1   7
ATOM      7  C1  UNL d   1      -2.518   1.504   1.143  0.00  0.00     0.055 C 
ATOM      8  C   UNL d   1      -3.352   1.766   2.388  0.00  0.00     0.019 C 
ENDBRANCH   1   7
TORSDOF 1
ENDMDL
