MODEL 1
REMARK minimizedAffinity 0.390204728
REMARK minimizedRMSD -1
REMARK  1 active torsions:
REMARK  status: ('A' for Active; 'I' for Inactive)
REMARK    1  A    between atoms: C1_2  and  C2_3 
ROOT
ATOM      1  C2  UNL d   1       4.526   0.001   1.971  0.00  0.00    -0.077 A 
ATOM      2  C3  UNL d   1       4.205   0.752   0.831  0.00  0.00     0.002 A 
ATOM      3  C4  UNL d   1       2.885   0.820   0.379  0.00  0.00     0.002 A 
ATOM      4  C5  UNL d   1       1.877   0.144   1.062  0.00  0.00    -0.004 A 
ATOM      5  C6  UNL d   1       2.187  -0.607   2.196  0.00  0.00     0.002 A 
ATOM      6  C7  UNL d   1       3.505  -0.677   2.649  0.00  0.00     0.002 A 
ENDROOT
BRANCH   1   7
ATOM      7  C1  UNL d   1       5.940  -0.033   2.489  0.00  0.00     0.055 C 
ATOM      8  C   UNL d   1       5.995   0.303   3.972  0.00  0.00     0.019 C 
ENDBRANCH   1   7
TORSDOF 1
ENDMDL
