MODEL 1
REMARK minimizedAffinity 7.6586833
REMARK minimizedRMSD -1
REMARK  1 active torsions:
REMARK  status: ('A' for Active; 'I' for Inactive)
REMARK    1  A    between atoms: C1_2  and  C2_3 
ROOT
ATOM      1  C2  UNL d   1       2.835   0.436  -4.638  0.00  0.00    -0.077 A 
ATOM      2  C3  UNL d   1       2.062  -0.706  -4.891  0.00  0.00     0.002 A 
ATOM      3  C4  UNL d   1       2.211  -1.848  -4.102  0.00  0.00     0.002 A 
ATOM      4  C5  UNL d   1       3.129  -1.858  -3.053  0.00  0.00    -0.004 A 
ATOM      5  C6  UNL d   1       3.904  -0.728  -2.795  0.00  0.00     0.002 A 
ATOM      6  C7  UNL d   1       3.757   0.414  -3.584  0.00  0.00     0.002 A 
ENDROOT
BRANCH   1   7
ATOM      7  C1  UNL d   1       2.641   1.686  -5.457  0.00  0.00     0.055 C 
ATOM      8  C   UNL d   1       1.757   2.690  -4.732  0.00  0.00     0.019 C 
ENDBRANCH   1   7
TORSDOF 1
ENDMDL
