MODEL 1
REMARK minimizedAffinity 12.8210077
REMARK minimizedRMSD -1
REMARK  1 active torsions:
REMARK  status: ('A' for Active; 'I' for Inactive)
REMARK    1  A    between atoms: C1_2  and  C2_3 
ROOT
ATOM      1  C2  UNL d   1       3.114   0.880   1.219  0.00  0.00    -0.077 A 
ATOM      2  C3  UNL d   1       4.398   1.313   0.862  0.00  0.00     0.002 A 
ATOM      3  C4  UNL d   1       5.512   0.899   1.594  0.00  0.00     0.002 A 
ATOM      4  C5  UNL d   1       5.354   0.046   2.684  0.00  0.00    -0.004 A 
ATOM      5  C6  UNL d   1       4.081  -0.389   3.048  0.00  0.00     0.002 A 
ATOM      6  C7  UNL d   1       2.966   0.025   2.319  0.00  0.00     0.002 A 
ENDROOT
BRANCH   1   7
ATOM      7  C1  UNL d   1       1.916   1.286   0.401  0.00  0.00     0.055 C 
ATOM      8  C   UNL d   1       1.959   2.767   0.054  0.00  0.00     0.019 C 
ENDBRANCH   1   7
TORSDOF 1
ENDMDL
