MODEL 1
REMARK minimizedAffinity -2.96774316
REMARK minimizedRMSD -1
REMARK  1 active torsions:
REMARK  status: ('A' for Active; 'I' for Inactive)
REMARK    1  A    between atoms: C1_2  and  C2_3 
ROOT
ATOM      1  C2  UNL d   1      -4.863   2.066   5.883  0.00  0.00    -0.077 A 
ATOM      2  C3  UNL d   1      -6.000   2.885   5.934  0.00  0.00     0.002 A 
ATOM      3  C4  UNL d   1      -5.867   4.274   5.994  0.00  0.00     0.002 A 
ATOM      4  C5  UNL d   1      -4.601   4.855   5.999  0.00  0.00    -0.004 A 
ATOM      5  C6  UNL d   1      -3.465   4.049   5.950  0.00  0.00     0.002 A 
ATOM      6  C7  UNL d   1      -3.595   2.661   5.891  0.00  0.00     0.002 A 
ENDROOT
BRANCH   1   7
ATOM      7  C1  UNL d   1      -5.004   0.570   5.769  0.00  0.00     0.055 C 
ATOM      8  C   UNL d   1      -3.673  -0.130   5.996  0.00  0.00     0.019 C 
ENDBRANCH   1   7
TORSDOF 1
ENDMDL
