MODEL 1
REMARK minimizedAffinity 2.09838557
REMARK minimizedRMSD -1
REMARK  1 active torsions:
REMARK  status: ('A' for Active; 'I' for Inactive)
REMARK    1  A    between atoms: C1_2  and  C2_3 
ROOT
ATOM      1  C2  UNL d   1      -3.992   3.602   5.958  0.00  0.00    -0.077 A 
ATOM      2  C3  UNL d   1      -2.605   3.397   5.947  0.00  0.00     0.002 A 
ATOM      3  C4  UNL d   1      -1.730   4.485   5.961  0.00  0.00     0.002 A 
ATOM      4  C5  UNL d   1      -2.232   5.784   5.991  0.00  0.00    -0.004 A 
ATOM      5  C6  UNL d   1      -3.610   5.998   6.000  0.00  0.00     0.002 A 
ATOM      6  C7  UNL d   1      -4.486   4.912   5.984  0.00  0.00     0.002 A 
ENDROOT
BRANCH   1   7
ATOM      7  C1  UNL d   1      -4.936   2.429   5.992  0.00  0.00     0.055 C 
ATOM      8  C   UNL d   1      -4.180   1.108   5.991  0.00  0.00     0.019 C 
ENDBRANCH   1   7
TORSDOF 1
ENDMDL
