MODEL 1
REMARK minimizedAffinity 3.8091321
REMARK minimizedRMSD -1
REMARK  1 active torsions:
REMARK  status: ('A' for Active; 'I' for Inactive)
REMARK    1  A    between atoms: C1_2  and  C2_3 
ROOT
ATOM      1  C2  UNL d   1      -1.491   4.129   5.284  0.00  0.00    -0.077 A 
ATOM      2  C3  UNL d   1      -2.448   3.169   5.642  0.00  0.00     0.002 A 
ATOM      3  C4  UNL d   1      -3.740   3.559   6.000  0.00  0.00     0.002 A 
ATOM      4  C5  UNL d   1      -4.088   4.908   5.997  0.00  0.00    -0.004 A 
ATOM      5  C6  UNL d   1      -3.143   5.871   5.644  0.00  0.00     0.002 A 
ATOM      6  C7  UNL d   1      -1.851   5.483   5.288  0.00  0.00     0.002 A 
ENDROOT
BRANCH   1   7
ATOM      7  C1  UNL d   1      -0.111   3.707   4.851  0.00  0.00     0.055 C 
ATOM      8  C   UNL d   1       0.123   4.009   3.378  0.00  0.00     0.019 C 
ENDBRANCH   1   7
TORSDOF 1
ENDMDL
