MODEL 1
REMARK minimizedAffinity -0.583651781
REMARK minimizedRMSD -1
REMARK  1 active torsions:
REMARK  status: ('A' for Active; 'I' for Inactive)
REMARK    1  A    between atoms: C1_2  and  C2_3 
ROOT
ATOM      1  C2  UNL d   1      -3.150  -2.415   4.878  0.00  0.00    -0.077 A 
ATOM      2  C3  UNL d   1      -3.188  -1.930   3.564  0.00  0.00     0.002 A 
ATOM      3  C4  UNL d   1      -3.698  -2.722   2.533  0.00  0.00     0.002 A 
ATOM      4  C5  UNL d   1      -4.177  -4.002   2.807  0.00  0.00    -0.004 A 
ATOM      5  C6  UNL d   1      -4.142  -4.494   4.111  0.00  0.00     0.002 A 
ATOM      6  C7  UNL d   1      -3.632  -3.704   5.142  0.00  0.00     0.002 A 
ENDROOT
BRANCH   1   7
ATOM      7  C1  UNL d   1      -2.646  -1.544   5.999  0.00  0.00     0.055 C 
ATOM      8  C   UNL d   1      -3.337  -0.188   6.000  0.00  0.00     0.019 C 
ENDBRANCH   1   7
TORSDOF 1
ENDMDL
