MODEL 1
REMARK minimizedAffinity 3.96187615
REMARK minimizedRMSD -1
REMARK  1 active torsions:
REMARK  status: ('A' for Active; 'I' for Inactive)
REMARK    1  A    between atoms: C1_2  and  C2_3 
ROOT
ATOM      1  C2  UNL d   1       3.120   0.617  -5.167  0.00  0.00    -0.077 A 
ATOM      2  C3  UNL d   1       2.035  -0.188  -5.545  0.00  0.00     0.002 A 
ATOM      3  C4  UNL d   1       1.644  -1.265  -4.748  0.00  0.00     0.002 A 
ATOM      4  C5  UNL d   1       2.328  -1.546  -3.568  0.00  0.00    -0.004 A 
ATOM      5  C6  UNL d   1       3.409  -0.753  -3.184  0.00  0.00     0.002 A 
ATOM      6  C7  UNL d   1       3.803   0.324  -3.980  0.00  0.00     0.002 A 
ENDROOT
BRANCH   1   7
ATOM      7  C1  UNL d   1       3.512   1.809  -6.000  0.00  0.00     0.055 C 
ATOM      8  C   UNL d   1       2.473   2.916  -5.907  0.00  0.00     0.019 C 
ENDBRANCH   1   7
TORSDOF 1
ENDMDL
