MODEL 1
REMARK minimizedAffinity -0.926096678
REMARK minimizedRMSD -1
REMARK  1 active torsions:
REMARK  status: ('A' for Active; 'I' for Inactive)
REMARK    1  A    between atoms: C1_2  and  C2_3 
ROOT
ATOM      1  C2  UNL d   1       2.561  -1.105   2.107  0.00  0.00    -0.077 A 
ATOM      2  C3  UNL d   1       2.205  -0.054   1.250  0.00  0.00     0.002 A 
ATOM      3  C4  UNL d   1       3.158   0.887   0.855  0.00  0.00     0.002 A 
ATOM      4  C5  UNL d   1       4.471   0.784   1.307  0.00  0.00    -0.004 A 
ATOM      5  C6  UNL d   1       4.834  -0.257   2.161  0.00  0.00     0.002 A 
ATOM      6  C7  UNL d   1       3.884  -1.198   2.558  0.00  0.00     0.002 A 
ENDROOT
BRANCH   1   7
ATOM      7  C1  UNL d   1       1.547  -2.150   2.495  0.00  0.00     0.055 C 
ATOM      8  C   UNL d   1       2.223  -3.426   2.976  0.00  0.00     0.019 C 
ENDBRANCH   1   7
TORSDOF 1
ENDMDL
