MODEL 1
REMARK minimizedAffinity -4.53930092
REMARK minimizedRMSD -1
REMARK  0 active torsions:
REMARK  status: ('A' for Active; 'I' for Inactive)
ROOT
ATOM      1  C1  BNZ d   1       2.231  -0.294  -0.140  0.00  0.00     0.000 A 
ATOM      2  C2  BNZ d   1       2.695  -1.369   0.571  0.00  0.00     0.000 A 
ATOM      3  C3  BNZ d   1       1.845  -2.129   1.325  0.00  0.00     0.000 A 
ATOM      4  C4  BNZ d   1       0.541  -1.790   1.398  0.00  0.00     0.000 A 
ATOM      5  C5  BNZ d   1       0.060  -0.704   0.695  0.00  0.00     0.000 A 
ATOM      6  C6  BNZ d   1       0.911   0.036  -0.093  0.00  0.00     0.000 A 
ENDROOT
TORSDOF 0
ENDMDL
