MODEL 1
REMARK minimizedAffinity -4.74378252
REMARK minimizedRMSD -1
REMARK  0 active torsions:
REMARK  status: ('A' for Active; 'I' for Inactive)
ROOT
ATOM      1  C1  BNZ d   1       0.256  -2.238   0.281  0.00  0.00     0.000 A 
ATOM      2  C2  BNZ d   1       1.566  -2.309   0.671  0.00  0.00     0.000 A 
ATOM      3  C3  BNZ d   1       2.389  -1.223   0.558  0.00  0.00     0.000 A 
ATOM      4  C4  BNZ d   1       1.913  -0.083   0.018  0.00  0.00     0.000 A 
ATOM      5  C5  BNZ d   1       0.596   0.000  -0.389  0.00  0.00     0.000 A 
ATOM      6  C6  BNZ d   1      -0.240  -1.082  -0.238  0.00  0.00     0.000 A 
ENDROOT
TORSDOF 0
ENDMDL
