MODEL 1
REMARK minimizedAffinity -4.3830719
REMARK minimizedRMSD -1
REMARK  0 active torsions:
REMARK  status: ('A' for Active; 'I' for Inactive)
ROOT
ATOM      1  C1  BNZ d   1       2.295  -1.170   0.080  0.00  0.00     0.000 A 
ATOM      2  C2  BNZ d   1       1.887   0.126  -0.085  0.00  0.00     0.000 A 
ATOM      3  C3  BNZ d   1       0.561   0.432  -0.218  0.00  0.00     0.000 A 
ATOM      4  C4  BNZ d   1      -0.350  -0.562  -0.227  0.00  0.00     0.000 A 
ATOM      5  C5  BNZ d   1       0.046  -1.876  -0.072  0.00  0.00     0.000 A 
ATOM      6  C6  BNZ d   1       1.378  -2.176   0.101  0.00  0.00     0.000 A 
ENDROOT
TORSDOF 0
ENDMDL
