MODEL 1
REMARK minimizedAffinity -4.06526327
REMARK minimizedRMSD -1
REMARK  0 active torsions:
REMARK  status: ('A' for Active; 'I' for Inactive)
ROOT
ATOM      1  C1  BNZ d   1       1.983   0.057  -0.251  0.00  0.00     0.000 A 
ATOM      2  C2  BNZ d   1       2.479  -0.935   0.553  0.00  0.00     0.000 A 
ATOM      3  C3  BNZ d   1       1.676  -1.954   0.983  0.00  0.00     0.000 A 
ATOM      4  C4  BNZ d   1       0.371  -1.959   0.642  0.00  0.00     0.000 A 
ATOM      5  C5  BNZ d   1      -0.146  -0.961  -0.160  0.00  0.00     0.000 A 
ATOM      6  C6  BNZ d   1       0.675   0.042  -0.623  0.00  0.00     0.000 A 
ENDROOT
TORSDOF 0
ENDMDL
