MODEL 1
REMARK minimizedAffinity -1.58144796
REMARK minimizedRMSD -1
REMARK  0 active torsions:
REMARK  status: ('A' for Active; 'I' for Inactive)
ROOT
ATOM      1  C1  BNZ d   1      -0.682  -1.125   1.234  0.00  0.00     0.000 A 
ATOM      2  C2  BNZ d   1      -0.962  -0.178   0.286  0.00  0.00     0.000 A 
ATOM      3  C3  BNZ d   1       0.040   0.550  -0.294  0.00  0.00     0.000 A 
ATOM      4  C4  BNZ d   1       1.314   0.358   0.103  0.00  0.00     0.000 A 
ATOM      5  C5  BNZ d   1       1.611  -0.586   1.066  0.00  0.00     0.000 A 
ATOM      6  C6  BNZ d   1       0.605  -1.344   1.619  0.00  0.00     0.000 A 
ENDROOT
TORSDOF 0
ENDMDL
