MODEL 1
REMARK minimizedAffinity -4.10631371
REMARK minimizedRMSD -1
REMARK  0 active torsions:
REMARK  status: ('A' for Active; 'I' for Inactive)
ROOT
ATOM      1  C1  BNZ d   1       1.514  -1.958   0.726  0.00  0.00     0.000 A 
ATOM      2  C2  BNZ d   1       0.203  -1.569   0.778  0.00  0.00     0.000 A 
ATOM      3  C3  BNZ d   1      -0.175  -0.324   0.358  0.00  0.00     0.000 A 
ATOM      4  C4  BNZ d   1       0.764   0.543  -0.074  0.00  0.00     0.000 A 
ATOM      5  C5  BNZ d   1       2.091   0.168  -0.124  0.00  0.00     0.000 A 
ATOM      6  C6  BNZ d   1       2.463  -1.099   0.262  0.00  0.00     0.000 A 
ENDROOT
TORSDOF 0
ENDMDL
