MODEL 1
REMARK minimizedAffinity -3.56740403
REMARK minimizedRMSD -1
REMARK  0 active torsions:
REMARK  status: ('A' for Active; 'I' for Inactive)
ROOT
ATOM      1  C1  BNZ d   1      -0.529   0.359   0.157  0.00  0.00     0.000 A 
ATOM      2  C2  BNZ d   1       0.691  -0.038   0.635  0.00  0.00     0.000 A 
ATOM      3  C3  BNZ d   1       1.682  -0.436  -0.219  0.00  0.00     0.000 A 
ATOM      4  C4  BNZ d   1       1.438  -0.473  -1.545  0.00  0.00     0.000 A 
ATOM      5  C5  BNZ d   1       0.210  -0.085  -2.042  0.00  0.00     0.000 A 
ATOM      6  C6  BNZ d   1      -0.772   0.352  -1.182  0.00  0.00     0.000 A 
ENDROOT
TORSDOF 0
ENDMDL
