MODEL 1
REMARK minimizedAffinity -2.38904214
REMARK minimizedRMSD -1
REMARK  0 active torsions:
REMARK  status: ('A' for Active; 'I' for Inactive)
ROOT
ATOM      1  C1  BNZ d   1       0.744   0.271  -0.013  0.00  0.00     0.000 A 
ATOM      2  C2  BNZ d   1       1.703  -0.025   0.919  0.00  0.00     0.000 A 
ATOM      3  C3  BNZ d   1       2.554  -1.079   0.737  0.00  0.00     0.000 A 
ATOM      4  C4  BNZ d   1       2.419  -1.859  -0.355  0.00  0.00     0.000 A 
ATOM      5  C5  BNZ d   1       1.451  -1.579  -1.299  0.00  0.00     0.000 A 
ATOM      6  C6  BNZ d   1       0.622  -0.493  -1.132  0.00  0.00     0.000 A 
ENDROOT
TORSDOF 0
ENDMDL
