MODEL 1
REMARK minimizedAffinity -4.1772275
REMARK minimizedRMSD -1
REMARK  0 active torsions:
REMARK  status: ('A' for Active; 'I' for Inactive)
ROOT
ATOM      1  C1  BNZ d   1       2.362   0.103  -0.101  0.00  0.00     0.000 A 
ATOM      2  C2  BNZ d   1       1.038   0.250  -0.419  0.00  0.00     0.000 A 
ATOM      3  C3  BNZ d   1       0.102  -0.623   0.060  0.00  0.00     0.000 A 
ATOM      4  C4  BNZ d   1       0.495  -1.663   0.824  0.00  0.00     0.000 A 
ATOM      5  C5  BNZ d   1       1.827  -1.830   1.146  0.00  0.00     0.000 A 
ATOM      6  C6  BNZ d   1       2.762  -0.927   0.693  0.00  0.00     0.000 A 
ENDROOT
TORSDOF 0
ENDMDL
