MODEL 1
REMARK minimizedAffinity -4.84275007
REMARK minimizedRMSD -1
REMARK  0 active torsions:
REMARK  status: ('A' for Active; 'I' for Inactive)
ROOT
ATOM      1  C1  BNZ d   1       0.796   0.235  -0.106  0.00  0.00     0.000 A 
ATOM      2  C2  BNZ d   1       0.118  -0.706   0.621  0.00  0.00     0.000 A 
ATOM      3  C3  BNZ d   1       0.771  -1.781   1.157  0.00  0.00     0.000 A 
ATOM      4  C4  BNZ d   1       2.091  -1.935   0.932  0.00  0.00     0.000 A 
ATOM      5  C5  BNZ d   1       2.788  -0.999   0.192  0.00  0.00     0.000 A 
ATOM      6  C6  BNZ d   1       2.135   0.102  -0.313  0.00  0.00     0.000 A 
ENDROOT
TORSDOF 0
ENDMDL
