MODEL 1
REMARK minimizedAffinity -0.554071844
REMARK minimizedRMSD -1
REMARK  0 active torsions:
REMARK  status: ('A' for Active; 'I' for Inactive)
ROOT
ATOM      1  C1  BNZ d   1      -1.235   0.275   1.665  0.00  0.00     0.000 A 
ATOM      2  C2  BNZ d   1       0.068   0.206   1.249  0.00  0.00     0.000 A 
ATOM      3  C3  BNZ d   1       0.375  -0.179  -0.026  0.00  0.00     0.000 A 
ATOM      4  C4  BNZ d   1      -0.616  -0.532  -0.869  0.00  0.00     0.000 A 
ATOM      5  C5  BNZ d   1      -1.934  -0.478  -0.461  0.00  0.00     0.000 A 
ATOM      6  C6  BNZ d   1      -2.242  -0.052   0.810  0.00  0.00     0.000 A 
ENDROOT
TORSDOF 0
ENDMDL
