MODEL 1
REMARK minimizedAffinity -2.08871937
REMARK minimizedRMSD -1
REMARK  0 active torsions:
REMARK  status: ('A' for Active; 'I' for Inactive)
ROOT
ATOM      1  C1  BNZ d   1       2.295   0.225   0.202  0.00  0.00     0.000 A 
ATOM      2  C2  BNZ d   1       1.079   0.557  -0.332  0.00  0.00     0.000 A 
ATOM      3  C3  BNZ d   1       0.147  -0.406  -0.603  0.00  0.00     0.000 A 
ATOM      4  C4  BNZ d   1       0.447  -1.701  -0.379  0.00  0.00     0.000 A 
ATOM      5  C5  BNZ d   1       1.673  -2.053   0.150  0.00  0.00     0.000 A 
ATOM      6  C6  BNZ d   1       2.594  -1.078   0.458  0.00  0.00     0.000 A 
ENDROOT
TORSDOF 0
ENDMDL
