MODEL 1
REMARK minimizedAffinity -2.5356791
REMARK minimizedRMSD -1
REMARK  0 active torsions:
REMARK  status: ('A' for Active; 'I' for Inactive)
ROOT
ATOM      1  C1  BNZ d   1       0.885  -0.940  -1.450  0.00  0.00     0.000 A 
ATOM      2  C2  BNZ d   1      -0.268  -0.246  -1.706  0.00  0.00     0.000 A 
ATOM      3  C3  BNZ d   1      -0.634   0.814  -0.925  0.00  0.00     0.000 A 
ATOM      4  C4  BNZ d   1       0.130   1.153   0.133  0.00  0.00     0.000 A 
ATOM      5  C5  BNZ d   1       1.290   0.457   0.409  0.00  0.00     0.000 A 
ATOM      6  C6  BNZ d   1       1.676  -0.585  -0.402  0.00  0.00     0.000 A 
ENDROOT
TORSDOF 0
ENDMDL
