MODEL 1
REMARK minimizedAffinity -2.4713068
REMARK minimizedRMSD -1
REMARK  0 active torsions:
REMARK  status: ('A' for Active; 'I' for Inactive)
ROOT
ATOM      1  C1  BNZ d   1       2.655  -1.245   0.019  0.00  0.00     0.000 A 
ATOM      2  C2  BNZ d   1       2.105  -0.245  -0.738  0.00  0.00     0.000 A 
ATOM      3  C3  BNZ d   1       0.760   0.000  -0.703  0.00  0.00     0.000 A 
ATOM      4  C4  BNZ d   1      -0.036  -0.780   0.056  0.00  0.00     0.000 A 
ATOM      5  C5  BNZ d   1       0.502  -1.798   0.818  0.00  0.00     0.000 A 
ATOM      6  C6  BNZ d   1       1.861  -2.016   0.810  0.00  0.00     0.000 A 
ENDROOT
TORSDOF 0
ENDMDL
