MODEL 1
REMARK minimizedAffinity -2.4545784
REMARK minimizedRMSD -1
REMARK  0 active torsions:
REMARK  status: ('A' for Active; 'I' for Inactive)
ROOT
ATOM      1  C1  BNZ d   1       0.981  -1.526   0.280  0.00  0.00     0.000 A 
ATOM      2  C2  BNZ d   1       2.161  -1.717   0.949  0.00  0.00     0.000 A 
ATOM      3  C3  BNZ d   1       3.169  -0.797   0.866  0.00  0.00     0.000 A 
ATOM      4  C4  BNZ d   1       3.011   0.290   0.083  0.00  0.00     0.000 A 
ATOM      5  C5  BNZ d   1       1.831   0.492  -0.604  0.00  0.00     0.000 A 
ATOM      6  C6  BNZ d   1       0.804  -0.417  -0.487  0.00  0.00     0.000 A 
ENDROOT
TORSDOF 0
ENDMDL
