MODEL 1
REMARK minimizedAffinity -5.13252926
REMARK minimizedRMSD -1
REMARK  3 active torsions:
REMARK  status: ('A' for Active; 'I' for Inactive)
REMARK    1  A    between atoms: C3'_2  and  C2'_3 
REMARK    2  A    between atoms: C2'_3  and  C1'_4 
REMARK    3  A    between atoms: C1'_4  and  C1_5 
ROOT
ATOM      1  C1  N4B d   1       0.248   0.011  -0.724  0.00  0.00    -0.075 A 
ATOM      2  C2  N4B d   1       0.982  -1.137  -0.353  0.00  0.00     0.002 A 
ATOM      3  C3  N4B d   1       1.957  -1.047   0.610  0.00  0.00     0.002 A 
ATOM      4  C4  N4B d   1       2.228   0.179   1.200  0.00  0.00    -0.004 A 
ATOM      5  C5  N4B d   1       1.497   1.278   0.854  0.00  0.00     0.002 A 
ATOM      6  C6  N4B d   1       0.512   1.201  -0.110  0.00  0.00     0.002 A 
ENDROOT
BRANCH   1   7
ATOM      7  C1' N4B d   1      -0.768  -0.020  -1.832  0.00  0.00     0.057 C 
BRANCH   7   8
ATOM      8  C2' N4B d   1      -0.413  -1.140  -2.806  0.00  0.00     0.009 C 
BRANCH   8   9
ATOM      9  C3' N4B d   1      -1.029  -0.918  -4.177  0.00  0.00     0.004 C 
ATOM     10  C4' N4B d   1      -0.977  -2.142  -5.042  0.00  0.00     0.003 C 
ENDBRANCH   8   9
ENDBRANCH   7   8
ENDBRANCH   1   7
TORSDOF 3
ENDMDL
