MODEL 1
REMARK minimizedAffinity -3.34772563
REMARK minimizedRMSD -1
REMARK  3 active torsions:
REMARK  status: ('A' for Active; 'I' for Inactive)
REMARK    1  A    between atoms: C3'_2  and  C2'_3 
REMARK    2  A    between atoms: C2'_3  and  C1'_4 
REMARK    3  A    between atoms: C1'_4  and  C1_5 
ROOT
ATOM      1  C1  N4B d   1      -0.066  -0.079  -0.042  0.00  0.00    -0.075 A 
ATOM      2  C2  N4B d   1      -0.140  -0.966  -1.138  0.00  0.00     0.002 A 
ATOM      3  C3  N4B d   1       0.893  -1.835  -1.389  0.00  0.00     0.002 A 
ATOM      4  C4  N4B d   1       2.014  -1.823  -0.572  0.00  0.00    -0.004 A 
ATOM      5  C5  N4B d   1       2.066  -0.981   0.500  0.00  0.00     0.002 A 
ATOM      6  C6  N4B d   1       1.034  -0.104   0.766  0.00  0.00     0.002 A 
ENDROOT
BRANCH   1   7
ATOM      7  C1' N4B d   1      -1.132   0.949   0.222  0.00  0.00     0.057 C 
BRANCH   7   8
ATOM      8  C2' N4B d   1      -1.895   0.567   1.487  0.00  0.00     0.009 C 
BRANCH   8   9
ATOM      9  C3' N4B d   1      -3.250   1.249   1.561  0.00  0.00     0.004 C 
ATOM     10  C4' N4B d   1      -3.157   2.678   2.009  0.00  0.00     0.003 C 
ENDBRANCH   8   9
ENDBRANCH   7   8
ENDBRANCH   1   7
TORSDOF 3
ENDMDL
