MODEL 1
REMARK minimizedAffinity -4.8547473
REMARK minimizedRMSD -1
REMARK  3 active torsions:
REMARK  status: ('A' for Active; 'I' for Inactive)
REMARK    1  A    between atoms: C3'_2  and  C2'_3 
REMARK    2  A    between atoms: C2'_3  and  C1'_4 
REMARK    3  A    between atoms: C1'_4  and  C1_5 
ROOT
ATOM      1  C1  N4B d   1       0.488  -0.323  -0.220  0.00  0.00    -0.075 A 
ATOM      2  C2  N4B d   1       1.018  -1.467  -0.858  0.00  0.00     0.002 A 
ATOM      3  C3  N4B d   1       2.255  -1.943  -0.498  0.00  0.00     0.002 A 
ATOM      4  C4  N4B d   1       2.985  -1.284   0.479  0.00  0.00    -0.004 A 
ATOM      5  C5  N4B d   1       2.456  -0.195   1.108  0.00  0.00     0.002 A 
ATOM      6  C6  N4B d   1       1.213   0.292   0.759  0.00  0.00     0.002 A 
ENDROOT
BRANCH   1   7
ATOM      7  C1' N4B d   1      -0.822   0.285  -0.640  0.00  0.00     0.057 C 
BRANCH   7   8
ATOM      8  C2' N4B d   1      -0.734   0.703  -2.104  0.00  0.00     0.009 C 
BRANCH   8   9
ATOM      9  C3' N4B d   1      -1.775   0.000  -2.959  0.00  0.00     0.004 C 
ATOM     10  C4' N4B d   1      -1.171  -0.745  -4.112  0.00  0.00     0.003 C 
ENDBRANCH   8   9
ENDBRANCH   7   8
ENDBRANCH   1   7
TORSDOF 3
ENDMDL
