MODEL 1
REMARK minimizedAffinity 0.201095551
REMARK minimizedRMSD -1
REMARK  0 active torsions:
REMARK  status: ('A' for Active; 'I' for Inactive)
ROOT
ATOM      1  C   UNL d   1       3.988  -3.086   5.910  0.00  0.00     0.023 A 
ATOM      2  C1  UNL d   1       3.268  -1.943   5.561  0.00  0.00     0.003 A 
ATOM      3  C2  UNL d   1       3.844  -0.981   4.728  0.00  0.00     0.048 A 
ATOM      4  C3  UNL d   1       5.139  -1.170   4.247  0.00  0.00     0.023 A 
ATOM      5  C4  UNL d   1       5.862  -2.312   4.592  0.00  0.00     0.048 A 
ATOM      6  C5  UNL d   1       5.283  -3.271   5.426  0.00  0.00     0.003 A 
ATOM      7  I   UNL d   1       5.998   0.260   3.006  0.00  0.00    -0.146 I 
ENDROOT
TORSDOF 0
ENDMDL
