MODEL 1
REMARK minimizedAffinity -2.6825366
REMARK minimizedRMSD -1
REMARK  0 active torsions:
REMARK  status: ('A' for Active; 'I' for Inactive)
ROOT
ATOM      1  C   UNL d   1      -3.002   1.532   4.178  0.00  0.00     0.023 A 
ATOM      2  C1  UNL d   1      -2.676   2.369   3.111  0.00  0.00     0.003 A 
ATOM      3  C2  UNL d   1      -1.993   1.859   2.004  0.00  0.00     0.048 A 
ATOM      4  C3  UNL d   1      -1.641   0.510   1.971  0.00  0.00     0.023 A 
ATOM      5  C4  UNL d   1      -1.966  -0.332   3.036  0.00  0.00     0.048 A 
ATOM      6  C5  UNL d   1      -2.648   0.183   4.140  0.00  0.00     0.003 A 
ATOM      7  I   UNL d   1      -0.625  -0.251   0.325  0.00  0.00    -0.146 I 
ENDROOT
TORSDOF 0
ENDMDL
