MODEL 1
REMARK minimizedAffinity 5.04713869
REMARK minimizedRMSD -1
REMARK  0 active torsions:
REMARK  status: ('A' for Active; 'I' for Inactive)
ROOT
ATOM      1  C   UNL d   1       0.629  -0.862  -1.680  0.00  0.00     0.023 A 
ATOM      2  C1  UNL d   1       0.943  -1.210  -2.994  0.00  0.00     0.003 A 
ATOM      3  C2  UNL d   1       1.027  -0.224  -3.978  0.00  0.00     0.048 A 
ATOM      4  C3  UNL d   1       0.797   1.110  -3.642  0.00  0.00     0.023 A 
ATOM      5  C4  UNL d   1       0.483   1.464  -2.329  0.00  0.00     0.048 A 
ATOM      6  C5  UNL d   1       0.399   0.473  -1.348  0.00  0.00     0.003 A 
ATOM      7  I   UNL d   1       0.922   2.580  -5.106  0.00  0.00    -0.146 I 
ENDROOT
TORSDOF 0
ENDMDL
