MODEL 1
REMARK minimizedAffinity 9.03025436
REMARK minimizedRMSD -1
REMARK  0 active torsions:
REMARK  status: ('A' for Active; 'I' for Inactive)
ROOT
ATOM      1  C   UNL d   1       5.712  -2.120  -4.407  0.00  0.00     0.023 A 
ATOM      2  C1  UNL d   1       5.542  -1.188  -5.431  0.00  0.00     0.003 A 
ATOM      3  C2  UNL d   1       5.580   0.178  -5.147  0.00  0.00     0.048 A 
ATOM      4  C3  UNL d   1       5.789   0.607  -3.837  0.00  0.00     0.023 A 
ATOM      5  C4  UNL d   1       5.961  -0.322  -2.809  0.00  0.00     0.048 A 
ATOM      6  C5  UNL d   1       5.921  -1.687  -3.097  0.00  0.00     0.003 A 
ATOM      7  I   UNL d   1       5.847   2.640  -3.412  0.00  0.00    -0.146 I 
ENDROOT
TORSDOF 0
ENDMDL
