MODEL 1
REMARK minimizedAffinity -4.53335476
REMARK minimizedRMSD -1
REMARK  0 active torsions:
REMARK  status: ('A' for Active; 'I' for Inactive)
ROOT
ATOM      1  C   UNL d   1      -3.756   5.996   4.703  0.00  0.00     0.023 A 
ATOM      2  C1  UNL d   1      -3.644   5.350   5.934  0.00  0.00     0.003 A 
ATOM      3  C2  UNL d   1      -3.469   3.966   5.984  0.00  0.00     0.048 A 
ATOM      4  C3  UNL d   1      -3.406   3.234   4.798  0.00  0.00     0.023 A 
ATOM      5  C4  UNL d   1      -3.517   3.876   3.564  0.00  0.00     0.048 A 
ATOM      6  C5  UNL d   1      -3.693   5.260   3.519  0.00  0.00     0.003 A 
ATOM      7  I   UNL d   1      -3.145   1.173   4.870  0.00  0.00    -0.146 I 
ENDROOT
TORSDOF 0
ENDMDL
