MODEL 1
REMARK minimizedAffinity 11.856843
REMARK minimizedRMSD -1
REMARK  0 active torsions:
REMARK  status: ('A' for Active; 'I' for Inactive)
ROOT
ATOM      1  C   UNL d   1       0.840  -3.212  -3.220  0.00  0.00     0.023 A 
ATOM      2  C1  UNL d   1       1.376  -2.203  -4.021  0.00  0.00     0.003 A 
ATOM      3  C2  UNL d   1       1.324  -0.873  -3.599  0.00  0.00     0.048 A 
ATOM      4  C3  UNL d   1       0.735  -0.559  -2.375  0.00  0.00     0.023 A 
ATOM      5  C4  UNL d   1       0.198  -1.565  -1.570  0.00  0.00     0.048 A 
ATOM      6  C5  UNL d   1       0.252  -2.893  -1.996  0.00  0.00     0.003 A 
ATOM      7  I   UNL d   1       0.656   1.420  -1.745  0.00  0.00    -0.146 I 
ENDROOT
TORSDOF 0
ENDMDL
