MODEL 1
REMARK minimizedAffinity 0.843783379
REMARK minimizedRMSD -1
REMARK  0 active torsions:
REMARK  status: ('A' for Active; 'I' for Inactive)
ROOT
ATOM      1  C   UNL d   1      -3.377   6.000   5.409  0.00  0.00     0.023 A 
ATOM      2  C1  UNL d   1      -4.506   5.432   6.000  0.00  0.00     0.003 A 
ATOM      3  C2  UNL d   1      -4.698   4.050   5.955  0.00  0.00     0.048 A 
ATOM      4  C3  UNL d   1      -3.756   3.241   5.320  0.00  0.00     0.023 A 
ATOM      5  C4  UNL d   1      -2.625   3.805   4.728  0.00  0.00     0.048 A 
ATOM      6  C5  UNL d   1      -2.437   5.187   4.774  0.00  0.00     0.003 A 
ATOM      7  I   UNL d   1      -4.040   1.183   5.252  0.00  0.00    -0.146 I 
ENDROOT
TORSDOF 0
ENDMDL
