MODEL 1
REMARK minimizedAffinity 4.82892513
REMARK minimizedRMSD -1
REMARK  0 active torsions:
REMARK  status: ('A' for Active; 'I' for Inactive)
ROOT
ATOM      1  C   UNL d   1       5.515  -0.871   4.330  0.00  0.00     0.023 A 
ATOM      2  C1  UNL d   1       4.512  -1.079   3.383  0.00  0.00     0.003 A 
ATOM      3  C2  UNL d   1       3.991   0.001   2.667  0.00  0.00     0.048 A 
ATOM      4  C3  UNL d   1       4.479   1.286   2.902  0.00  0.00     0.023 A 
ATOM      5  C4  UNL d   1       5.483   1.499   3.848  0.00  0.00     0.048 A 
ATOM      6  C5  UNL d   1       6.000   0.416   4.562  0.00  0.00     0.003 A 
ATOM      7  I   UNL d   1       3.706   2.895   1.837  0.00  0.00    -0.146 I 
ENDROOT
TORSDOF 0
ENDMDL
