MODEL 1
REMARK minimizedAffinity 10.5735044
REMARK minimizedRMSD -1
REMARK  0 active torsions:
REMARK  status: ('A' for Active; 'I' for Inactive)
ROOT
ATOM      1  C   UNL d   1      -3.426   5.876   5.962  0.00  0.00     0.023 A 
ATOM      2  C1  UNL d   1      -2.753   5.833   4.740  0.00  0.00     0.003 A 
ATOM      3  C2  UNL d   1      -3.475   5.809   3.545  0.00  0.00     0.048 A 
ATOM      4  C3  UNL d   1      -4.869   5.829   3.578  0.00  0.00     0.023 A 
ATOM      5  C4  UNL d   1      -5.546   5.872   4.798  0.00  0.00     0.048 A 
ATOM      6  C5  UNL d   1      -4.820   5.895   5.991  0.00  0.00     0.003 A 
ATOM      7  I   UNL d   1      -5.945   5.794   1.800  0.00  0.00    -0.146 I 
ENDROOT
TORSDOF 0
ENDMDL
