MODEL 1
REMARK minimizedAffinity 9.05956745
REMARK minimizedRMSD -1
REMARK  0 active torsions:
REMARK  status: ('A' for Active; 'I' for Inactive)
ROOT
ATOM      1  C   UNL d   1       0.972  -0.003  -3.487  0.00  0.00     0.023 A 
ATOM      2  C1  UNL d   1       0.425   0.841  -2.519  0.00  0.00     0.003 A 
ATOM      3  C2  UNL d   1      -0.001   0.319  -1.296  0.00  0.00     0.048 A 
ATOM      4  C3  UNL d   1       0.123  -1.048  -1.047  0.00  0.00     0.023 A 
ATOM      5  C4  UNL d   1       0.670  -1.895  -2.012  0.00  0.00     0.048 A 
ATOM      6  C5  UNL d   1       1.094  -1.369  -3.233  0.00  0.00     0.003 A 
ATOM      7  I   UNL d   1      -0.510  -1.827   0.773  0.00  0.00    -0.146 I 
ENDROOT
TORSDOF 0
ENDMDL
