MODEL 1
REMARK minimizedAffinity 7.29000568
REMARK minimizedRMSD -1
REMARK  0 active torsions:
REMARK  status: ('A' for Active; 'I' for Inactive)
ROOT
ATOM      1  C   UNL d   1       2.088   2.125  -0.407  0.00  0.00     0.023 A 
ATOM      2  C1  UNL d   1       0.783   1.640  -0.481  0.00  0.00     0.003 A 
ATOM      3  C2  UNL d   1       0.512   0.465  -1.186  0.00  0.00     0.048 A 
ATOM      4  C3  UNL d   1       1.552  -0.220  -1.813  0.00  0.00     0.023 A 
ATOM      5  C4  UNL d   1       2.860   0.261  -1.741  0.00  0.00     0.048 A 
ATOM      6  C5  UNL d   1       3.126   1.437  -1.036  0.00  0.00     0.003 A 
ATOM      7  I   UNL d   1       1.152  -1.969  -2.862  0.00  0.00    -0.146 I 
ENDROOT
TORSDOF 0
ENDMDL
