MODEL 1
REMARK minimizedAffinity 2.21073604
REMARK minimizedRMSD -1
REMARK  0 active torsions:
REMARK  status: ('A' for Active; 'I' for Inactive)
ROOT
ATOM      1  C   UNL d   1       4.280   4.819  -4.295  0.00  0.00     0.023 A 
ATOM      2  C1  UNL d   1       3.550   4.095  -5.238  0.00  0.00     0.003 A 
ATOM      3  C2  UNL d   1       4.043   2.881  -5.722  0.00  0.00     0.048 A 
ATOM      4  C3  UNL d   1       5.265   2.396  -5.257  0.00  0.00     0.023 A 
ATOM      5  C4  UNL d   1       5.998   3.117  -4.313  0.00  0.00     0.048 A 
ATOM      6  C5  UNL d   1       5.502   4.331  -3.833  0.00  0.00     0.003 A 
ATOM      7  I   UNL d   1       6.000   0.590  -5.975  0.00  0.00    -0.146 I 
ENDROOT
TORSDOF 0
ENDMDL
