MODEL 1
REMARK minimizedAffinity 5.49577999
REMARK minimizedRMSD -1
REMARK  0 active torsions:
REMARK  status: ('A' for Active; 'I' for Inactive)
ROOT
ATOM      1  C   UNL d   1      -2.416  -0.635   5.269  0.00  0.00     0.023 A 
ATOM      2  C1  UNL d   1      -3.375   0.373   5.362  0.00  0.00     0.003 A 
ATOM      3  C2  UNL d   1      -4.404   0.448   4.421  0.00  0.00     0.048 A 
ATOM      4  C3  UNL d   1      -4.469  -0.490   3.391  0.00  0.00     0.023 A 
ATOM      5  C4  UNL d   1      -3.511  -1.501   3.295  0.00  0.00     0.048 A 
ATOM      6  C5  UNL d   1      -2.483  -1.571   4.237  0.00  0.00     0.003 A 
ATOM      7  I   UNL d   1      -6.000  -0.381   1.990  0.00  0.00    -0.146 I 
ENDROOT
TORSDOF 0
ENDMDL
