MODEL 1
REMARK minimizedAffinity -0.0470133983
REMARK minimizedRMSD -1
REMARK  0 active torsions:
REMARK  status: ('A' for Active; 'I' for Inactive)
ROOT
ATOM      1  C   UNL d   1       1.505   2.610  -1.128  0.00  0.00     0.023 A 
ATOM      2  C1  UNL d   1       0.485   1.880  -1.738  0.00  0.00     0.003 A 
ATOM      3  C2  UNL d   1       0.286   0.539  -1.400  0.00  0.00     0.048 A 
ATOM      4  C3  UNL d   1       1.110  -0.064  -0.450  0.00  0.00     0.023 A 
ATOM      5  C4  UNL d   1       2.131   0.664   0.164  0.00  0.00     0.048 A 
ATOM      6  C5  UNL d   1       2.327   2.003  -0.178  0.00  0.00     0.003 A 
ATOM      7  I   UNL d   1       0.817  -2.058   0.055  0.00  0.00    -0.146 I 
ENDROOT
TORSDOF 0
ENDMDL
