MODEL 1
REMARK minimizedAffinity 7.44850826
REMARK minimizedRMSD -1
REMARK  0 active torsions:
REMARK  status: ('A' for Active; 'I' for Inactive)
ROOT
ATOM      1  C   UNL d   1      -2.761   6.000   5.677  0.00  0.00     0.023 A 
ATOM      2  C1  UNL d   1      -4.108   5.820   5.996  0.00  0.00     0.003 A 
ATOM      3  C2  UNL d   1      -5.038   5.571   4.985  0.00  0.00     0.048 A 
ATOM      4  C3  UNL d   1      -4.616   5.501   3.658  0.00  0.00     0.023 A 
ATOM      5  C4  UNL d   1      -3.270   5.679   3.335  0.00  0.00     0.048 A 
ATOM      6  C5  UNL d   1      -2.343   5.929   4.348  0.00  0.00     0.003 A 
ATOM      7  I   UNL d   1      -6.000   5.129   2.153  0.00  0.00    -0.146 I 
ENDROOT
TORSDOF 0
ENDMDL
