MODEL 1
REMARK minimizedAffinity 9.45329666
REMARK minimizedRMSD -1
REMARK  0 active torsions:
REMARK  status: ('A' for Active; 'I' for Inactive)
ROOT
ATOM      1  C   UNL d   1       5.874   2.951  -4.510  0.00  0.00     0.023 A 
ATOM      2  C1  UNL d   1       5.302   4.054  -3.876  0.00  0.00     0.003 A 
ATOM      3  C2  UNL d   1       4.066   4.543  -4.303  0.00  0.00     0.048 A 
ATOM      4  C3  UNL d   1       3.406   3.923  -5.363  0.00  0.00     0.023 A 
ATOM      5  C4  UNL d   1       3.973   2.819  -6.000  0.00  0.00     0.048 A 
ATOM      6  C5  UNL d   1       5.210   2.334  -5.571  0.00  0.00     0.003 A 
ATOM      7  I   UNL d   1       1.565   4.649  -6.000  0.00  0.00    -0.146 I 
ENDROOT
TORSDOF 0
ENDMDL
