MODEL 1
REMARK minimizedAffinity 9.2897253
REMARK minimizedRMSD -1
REMARK  0 active torsions:
REMARK  status: ('A' for Active; 'I' for Inactive)
ROOT
ATOM      1  C   UNL d   1       4.871   2.256  -5.999  0.00  0.00     0.023 A 
ATOM      2  C1  UNL d   1       5.965   2.505  -5.171  0.00  0.00     0.003 A 
ATOM      3  C2  UNL d   1       5.910   3.537  -4.231  0.00  0.00     0.048 A 
ATOM      4  C3  UNL d   1       4.757   4.314  -4.124  0.00  0.00     0.023 A 
ATOM      5  C4  UNL d   1       3.659   4.067  -4.950  0.00  0.00     0.048 A 
ATOM      6  C5  UNL d   1       3.719   3.035  -5.889  0.00  0.00     0.003 A 
ATOM      7  I   UNL d   1       4.673   5.849  -2.725  0.00  0.00    -0.146 I 
ENDROOT
TORSDOF 0
ENDMDL
