MODEL 1
REMARK minimizedAffinity 8.38033962
REMARK minimizedRMSD -1
REMARK  0 active torsions:
REMARK  status: ('A' for Active; 'I' for Inactive)
ROOT
ATOM      1  C   UNL d   1       2.103   5.012  -5.221  0.00  0.00     0.023 A 
ATOM      2  C1  UNL d   1       3.185   5.335  -4.402  0.00  0.00     0.003 A 
ATOM      3  C2  UNL d   1       4.304   4.501  -4.360  0.00  0.00     0.048 A 
ATOM      4  C3  UNL d   1       4.335   3.346  -5.140  0.00  0.00     0.023 A 
ATOM      5  C4  UNL d   1       3.255   3.018  -5.961  0.00  0.00     0.048 A 
ATOM      6  C5  UNL d   1       2.138   3.855  -5.999  0.00  0.00     0.003 A 
ATOM      7  I   UNL d   1       6.000   2.103  -5.080  0.00  0.00    -0.146 I 
ENDROOT
TORSDOF 0
ENDMDL
