MODEL 1
REMARK minimizedAffinity -6.4091959
REMARK minimizedRMSD -1
REMARK  0 active torsions:
REMARK  status: ('A' for Active; 'I' for Inactive)
ROOT
ATOM      1  C2' OXE d   1      -1.448   0.029   1.009  0.00  0.00     0.078 C 
ATOM      2  C1' OXE d   1       0.313  -0.125  -1.172  0.00  0.00     0.078 C 
ATOM      3  C1  OXE d   1       0.827  -0.556   0.179  0.00  0.00    -0.078 A 
ATOM      4  C2  OXE d   1      -0.027  -0.434   1.249  0.00  0.00    -0.078 A 
ATOM      5  C3  OXE d   1       0.379  -0.868   2.507  0.00  0.00     0.003 A 
ATOM      6  C4  OXE d   1       1.698  -1.285   2.722  0.00  0.00    -0.002 A 
ATOM      7  C5  OXE d   1       2.596  -1.380   1.654  0.00  0.00    -0.002 A 
ATOM      8  C6  OXE d   1       2.164  -1.061   0.371  0.00  0.00     0.003 A 
ENDROOT
TORSDOF 0
ENDMDL
