MODEL 1
REMARK minimizedAffinity -6.17731905
REMARK minimizedRMSD -1
REMARK  0 active torsions:
REMARK  status: ('A' for Active; 'I' for Inactive)
ROOT
ATOM      1  C2' OXE d   1      -1.287  -0.339   1.292  0.00  0.00     0.078 C 
ATOM      2  C1' OXE d   1       0.268  -0.843  -0.990  0.00  0.00     0.078 C 
ATOM      3  C1  OXE d   1       0.883  -1.128   0.358  0.00  0.00    -0.078 A 
ATOM      4  C2  OXE d   1       0.132  -0.835   1.470  0.00  0.00    -0.078 A 
ATOM      5  C3  OXE d   1       0.630  -1.130   2.736  0.00  0.00     0.003 A 
ATOM      6  C4  OXE d   1       1.947  -1.579   2.892  0.00  0.00    -0.002 A 
ATOM      7  C5  OXE d   1       2.743  -1.847   1.773  0.00  0.00    -0.002 A 
ATOM      8  C6  OXE d   1       2.212  -1.668   0.501  0.00  0.00     0.003 A 
ENDROOT
TORSDOF 0
ENDMDL
