MODEL 1
REMARK minimizedAffinity -4.76211596
REMARK minimizedRMSD -1
REMARK  0 active torsions:
REMARK  status: ('A' for Active; 'I' for Inactive)
ROOT
ATOM      1  C2' OXE d   1      -1.477   0.088   1.347  0.00  0.00     0.078 C 
ATOM      2  C1' OXE d   1      -0.083   0.181  -1.087  0.00  0.00     0.078 C 
ATOM      3  C1  OXE d   1       0.587  -0.497   0.081  0.00  0.00    -0.078 A 
ATOM      4  C2  OXE d   1      -0.083  -0.498   1.281  0.00  0.00    -0.078 A 
ATOM      5  C3  OXE d   1       0.465  -1.158   2.377  0.00  0.00     0.003 A 
ATOM      6  C4  OXE d   1       1.760  -1.688   2.310  0.00  0.00    -0.002 A 
ATOM      7  C5  OXE d   1       2.476  -1.663   1.108  0.00  0.00    -0.002 A 
ATOM      8  C6  OXE d   1       1.888  -1.111  -0.024  0.00  0.00     0.003 A 
ENDROOT
TORSDOF 0
ENDMDL
