MODEL 1
REMARK minimizedAffinity -5.52030134
REMARK minimizedRMSD -1
REMARK  0 active torsions:
REMARK  status: ('A' for Active; 'I' for Inactive)
ROOT
ATOM      1  C2' OXE d   1       2.195  -1.564   3.128  0.00  0.00     0.078 C 
ATOM      2  C1' OXE d   1       2.767  -1.709   0.384  0.00  0.00     0.078 C 
ATOM      3  C1  OXE d   1       1.520  -0.973   0.804  0.00  0.00    -0.078 A 
ATOM      4  C2  OXE d   1       1.223  -0.947   2.146  0.00  0.00    -0.078 A 
ATOM      5  C3  OXE d   1       0.113  -0.235   2.592  0.00  0.00     0.003 A 
ATOM      6  C4  OXE d   1      -0.786   0.324   1.676  0.00  0.00    -0.002 A 
ATOM      7  C5  OXE d   1      -0.524   0.274   0.303  0.00  0.00    -0.002 A 
ATOM      8  C6  OXE d   1       0.644  -0.332  -0.146  0.00  0.00     0.003 A 
ENDROOT
TORSDOF 0
ENDMDL
