MODEL 1
REMARK minimizedAffinity -3.64454246
REMARK minimizedRMSD -1
REMARK  0 active torsions:
REMARK  status: ('A' for Active; 'I' for Inactive)
ROOT
ATOM      1  C2' OXE d   1      -0.048   0.215  -0.725  0.00  0.00     0.078 C 
ATOM      2  C1' OXE d   1      -0.835   0.267   1.969  0.00  0.00     0.078 C 
ATOM      3  C1  OXE d   1       0.410  -0.507   1.614  0.00  0.00    -0.078 A 
ATOM      4  C2  OXE d   1       0.762  -0.566   0.287  0.00  0.00    -0.078 A 
ATOM      5  C3  OXE d   1       1.931  -1.220  -0.088  0.00  0.00     0.003 A 
ATOM      6  C4  OXE d   1       2.669  -1.949   0.853  0.00  0.00    -0.002 A 
ATOM      7  C5  OXE d   1       2.306  -1.935   2.204  0.00  0.00    -0.002 A 
ATOM      8  C6  OXE d   1       1.206  -1.186   2.607  0.00  0.00     0.003 A 
ENDROOT
TORSDOF 0
ENDMDL
