MODEL 1
REMARK minimizedAffinity -6.22899771
REMARK minimizedRMSD -1
REMARK  0 active torsions:
REMARK  status: ('A' for Active; 'I' for Inactive)
ROOT
ATOM      1  C2' OXE d   1      -1.133   0.126   1.868  0.00  0.00     0.078 C 
ATOM      2  C1' OXE d   1      -0.411   0.118  -0.845  0.00  0.00     0.078 C 
ATOM      3  C1  OXE d   1       0.525  -0.546   0.134  0.00  0.00    -0.078 A 
ATOM      4  C2  OXE d   1       0.186  -0.496   1.465  0.00  0.00    -0.078 A 
ATOM      5  C3  OXE d   1       0.987  -1.140   2.404  0.00  0.00     0.003 A 
ATOM      6  C4  OXE d   1       2.211  -1.704   2.025  0.00  0.00    -0.002 A 
ATOM      7  C5  OXE d   1       2.594  -1.730   0.680  0.00  0.00    -0.002 A 
ATOM      8  C6  OXE d   1       1.744  -1.195  -0.281  0.00  0.00     0.003 A 
ENDROOT
TORSDOF 0
ENDMDL
