MODEL 1
REMARK minimizedAffinity -5.00990772
REMARK minimizedRMSD -1
REMARK  0 active torsions:
REMARK  status: ('A' for Active; 'I' for Inactive)
ROOT
ATOM      1  C2' OXE d   1      -0.526   0.396  -0.933  0.00  0.00     0.078 C 
ATOM      2  C1' OXE d   1       1.849  -0.931  -1.627  0.00  0.00     0.078 C 
ATOM      3  C1  OXE d   1       1.399  -1.000  -0.189  0.00  0.00    -0.078 A 
ATOM      4  C2  OXE d   1       0.261  -0.309   0.151  0.00  0.00    -0.078 A 
ATOM      5  C3  OXE d   1      -0.229  -0.385   1.452  0.00  0.00     0.003 A 
ATOM      6  C4  OXE d   1       0.510  -1.031   2.451  0.00  0.00    -0.002 A 
ATOM      7  C5  OXE d   1       1.693  -1.708   2.133  0.00  0.00    -0.002 A 
ATOM      8  C6  OXE d   1       2.127  -1.738   0.813  0.00  0.00     0.003 A 
ENDROOT
TORSDOF 0
ENDMDL
