MODEL 1
REMARK minimizedAffinity 8.49670601
REMARK minimizedRMSD -1
REMARK  0 active torsions:
REMARK  status: ('A' for Active; 'I' for Inactive)
ROOT
ATOM      1  C   UNL d   1      -1.357   5.999   1.714  0.00  0.00     0.077 C 
ATOM      2  C1  UNL d   1      -2.850   5.865   1.728  0.00  0.00    -0.074 A 
ATOM      3  C2  UNL d   1      -3.559   5.604   0.551  0.00  0.00    -0.005 A 
ATOM      4  C3  UNL d   1      -4.948   5.472   0.581  0.00  0.00     0.006 A 
ATOM      5  C4  UNL d   1      -5.640   5.601   1.786  0.00  0.00    -0.005 A 
ATOM      6  C5  UNL d   1      -4.948   5.862   2.972  0.00  0.00    -0.074 A 
ATOM      7  C6  UNL d   1      -5.676   5.993   4.277  0.00  0.00     0.077 C 
ATOM      8  C7  UNL d   1      -3.552   5.985   2.936  0.00  0.00    -0.001 A 
ENDROOT
TORSDOF 0
ENDMDL
