MODEL 1
REMARK minimizedAffinity 4.03218222
REMARK minimizedRMSD -1
REMARK  0 active torsions:
REMARK  status: ('A' for Active; 'I' for Inactive)
ROOT
ATOM      1  C   UNL d   1      -1.721   0.408  -0.309  0.00  0.00     0.077 C 
ATOM      2  C1  UNL d   1      -0.887   1.610   0.021  0.00  0.00    -0.074 A 
ATOM      3  C2  UNL d   1      -1.196   2.867  -0.509  0.00  0.00    -0.005 A 
ATOM      4  C3  UNL d   1      -0.416   3.978  -0.185  0.00  0.00     0.006 A 
ATOM      5  C4  UNL d   1       0.678   3.843   0.669  0.00  0.00    -0.005 A 
ATOM      6  C5  UNL d   1       1.003   2.594   1.209  0.00  0.00    -0.074 A 
ATOM      7  C6  UNL d   1       2.170   2.433   2.136  0.00  0.00     0.077 C 
ATOM      8  C7  UNL d   1       0.210   1.484   0.884  0.00  0.00    -0.001 A 
ENDROOT
TORSDOF 0
ENDMDL
