MODEL 1
REMARK minimizedAffinity 1.19466364
REMARK minimizedRMSD -1
REMARK  0 active torsions:
REMARK  status: ('A' for Active; 'I' for Inactive)
ROOT
ATOM      1  C   UNL d   1      -5.997   1.018   5.996  0.00  0.00     0.077 C 
ATOM      2  C1  UNL d   1      -5.756   2.288   5.235  0.00  0.00    -0.074 A 
ATOM      3  C2  UNL d   1      -5.654   2.282   3.840  0.00  0.00    -0.005 A 
ATOM      4  C3  UNL d   1      -5.439   3.472   3.145  0.00  0.00     0.006 A 
ATOM      5  C4  UNL d   1      -5.324   4.678   3.837  0.00  0.00    -0.005 A 
ATOM      6  C5  UNL d   1      -5.424   4.704   5.232  0.00  0.00    -0.074 A 
ATOM      7  C6  UNL d   1      -5.313   5.993   5.990  0.00  0.00     0.077 C 
ATOM      8  C7  UNL d   1      -5.648   3.505   5.922  0.00  0.00    -0.001 A 
ENDROOT
TORSDOF 0
ENDMDL
