MODEL 1
REMARK minimizedAffinity 3.05924129
REMARK minimizedRMSD -1
REMARK  0 active torsions:
REMARK  status: ('A' for Active; 'I' for Inactive)
ROOT
ATOM      1  C   UNL d   1      -5.972   5.999   5.970  0.00  0.00     0.077 C 
ATOM      2  C1  UNL d   1      -5.902   4.867   4.989  0.00  0.00    -0.074 A 
ATOM      3  C2  UNL d   1      -5.981   3.538   5.418  0.00  0.00    -0.005 A 
ATOM      4  C3  UNL d   1      -5.924   2.495   4.493  0.00  0.00     0.006 A 
ATOM      5  C4  UNL d   1      -5.788   2.770   3.132  0.00  0.00    -0.005 A 
ATOM      6  C5  UNL d   1      -5.709   4.093   2.684  0.00  0.00    -0.074 A 
ATOM      7  C6  UNL d   1      -5.573   4.406   1.224  0.00  0.00     0.077 C 
ATOM      8  C7  UNL d   1      -5.774   5.135   3.619  0.00  0.00    -0.001 A 
ENDROOT
TORSDOF 0
ENDMDL
