MODEL 1
REMARK minimizedAffinity 3.87899232
REMARK minimizedRMSD -1
REMARK  0 active torsions:
REMARK  status: ('A' for Active; 'I' for Inactive)
ROOT
ATOM      1  C   UNL d   1       2.645  -0.712  -0.932  0.00  0.00     0.077 C 
ATOM      2  C1  UNL d   1       1.960  -1.970  -0.487  0.00  0.00    -0.074 A 
ATOM      3  C2  UNL d   1       2.240  -2.539   0.759  0.00  0.00    -0.005 A 
ATOM      4  C3  UNL d   1       1.588  -3.704   1.163  0.00  0.00     0.006 A 
ATOM      5  C4  UNL d   1       0.650  -4.311   0.327  0.00  0.00    -0.005 A 
ATOM      6  C5  UNL d   1       0.357  -3.756  -0.923  0.00  0.00    -0.074 A 
ATOM      7  C6  UNL d   1      -0.655  -4.390  -1.831  0.00  0.00     0.077 C 
ATOM      8  C7  UNL d   1       1.011  -2.582  -1.319  0.00  0.00    -0.001 A 
ENDROOT
TORSDOF 0
ENDMDL
