MODEL 1
REMARK minimizedAffinity -1.77111673
REMARK minimizedRMSD -1
REMARK  0 active torsions:
REMARK  status: ('A' for Active; 'I' for Inactive)
ROOT
ATOM      1  C   UNL d   1       1.229   0.562  -0.199  0.00  0.00     0.077 C 
ATOM      2  C1  UNL d   1       1.508  -0.910  -0.272  0.00  0.00    -0.074 A 
ATOM      3  C2  UNL d   1       2.815  -1.388  -0.408  0.00  0.00    -0.005 A 
ATOM      4  C3  UNL d   1       3.060  -2.760  -0.465  0.00  0.00     0.006 A 
ATOM      5  C4  UNL d   1       2.001  -3.666  -0.387  0.00  0.00    -0.005 A 
ATOM      6  C5  UNL d   1       0.688  -3.207  -0.251  0.00  0.00    -0.074 A 
ATOM      7  C6  UNL d   1      -0.460  -4.167  -0.156  0.00  0.00     0.077 C 
ATOM      8  C7  UNL d   1       0.451  -1.827  -0.187  0.00  0.00    -0.001 A 
ENDROOT
TORSDOF 0
ENDMDL
