MODEL 1
REMARK minimizedAffinity 2.452775
REMARK minimizedRMSD -1
REMARK  0 active torsions:
REMARK  status: ('A' for Active; 'I' for Inactive)
ROOT
ATOM      1  C   UNL d   1       3.204   1.020  -1.163  0.00  0.00     0.077 C 
ATOM      2  C1  UNL d   1       2.004   0.122  -1.091  0.00  0.00    -0.074 A 
ATOM      3  C2  UNL d   1       0.710   0.642  -1.196  0.00  0.00    -0.005 A 
ATOM      4  C3  UNL d   1      -0.395  -0.206  -1.136  0.00  0.00     0.006 A 
ATOM      5  C4  UNL d   1      -0.218  -1.581  -0.972  0.00  0.00    -0.005 A 
ATOM      6  C5  UNL d   1       1.068  -2.119  -0.866  0.00  0.00    -0.074 A 
ATOM      7  C6  UNL d   1       1.276  -3.595  -0.699  0.00  0.00     0.077 C 
ATOM      8  C7  UNL d   1       2.174  -1.261  -0.934  0.00  0.00    -0.001 A 
ENDROOT
TORSDOF 0
ENDMDL
