MODEL 1
REMARK minimizedAffinity -2.61287498
REMARK minimizedRMSD -1
REMARK  0 active torsions:
REMARK  status: ('A' for Active; 'I' for Inactive)
ROOT
ATOM      1  C   UNL d   1      -5.999   2.632   2.096  0.00  0.00     0.077 C 
ATOM      2  C1  UNL d   1      -5.391   1.469   1.370  0.00  0.00    -0.074 A 
ATOM      3  C2  UNL d   1      -6.000   0.210   1.393  0.00  0.00    -0.005 A 
ATOM      4  C3  UNL d   1      -5.428  -0.860   0.705  0.00  0.00     0.006 A 
ATOM      5  C4  UNL d   1      -4.243  -0.683  -0.011  0.00  0.00    -0.005 A 
ATOM      6  C5  UNL d   1      -3.621   0.569  -0.046  0.00  0.00    -0.074 A 
ATOM      7  C6  UNL d   1      -2.353   0.780  -0.820  0.00  0.00     0.077 C 
ATOM      8  C7  UNL d   1      -4.206   1.641   0.641  0.00  0.00    -0.001 A 
ENDROOT
TORSDOF 0
ENDMDL
