MODEL 1
REMARK minimizedAffinity -4.90611792
REMARK minimizedRMSD -1
REMARK  0 active torsions:
REMARK  status: ('A' for Active; 'I' for Inactive)
ROOT
ATOM      1  C   UNL d   1      -0.266  -2.369  -1.513  0.00  0.00     0.077 C 
ATOM      2  C1  UNL d   1       1.046  -1.664  -1.335  0.00  0.00    -0.074 A 
ATOM      3  C2  UNL d   1       2.224  -2.383  -1.114  0.00  0.00    -0.005 A 
ATOM      4  C3  UNL d   1       3.438  -1.714  -0.959  0.00  0.00     0.006 A 
ATOM      5  C4  UNL d   1       3.486  -0.321  -1.024  0.00  0.00    -0.005 A 
ATOM      6  C5  UNL d   1       2.317   0.415  -1.245  0.00  0.00    -0.074 A 
ATOM      7  C6  UNL d   1       2.352   1.913  -1.327  0.00  0.00     0.077 C 
ATOM      8  C7  UNL d   1       1.102  -0.265  -1.406  0.00  0.00    -0.001 A 
ENDROOT
TORSDOF 0
ENDMDL
