MODEL 1
REMARK minimizedAffinity -2.90714335
REMARK minimizedRMSD -1
REMARK  0 active torsions:
REMARK  status: ('A' for Active; 'I' for Inactive)
ROOT
ATOM      1  C   UNL d   1      -0.151  -0.915   1.521  0.00  0.00     0.124 A 
ATOM      2  C1  UNL d   1       0.634  -0.987   0.379  0.00  0.00     0.062 A 
ATOM      3  C2  UNL d   1       0.580   0.027  -0.573  0.00  0.00     0.162 A 
ATOM      4  C3  UNL d   1      -0.261   1.124  -0.385  0.00  0.00    -0.034 A 
ATOM      5  C4  UNL d   1      -1.048   1.189   0.766  0.00  0.00     0.162 A 
ATOM      6  C5  UNL d   1      -0.991   0.173   1.714  0.00  0.00     0.062 A 
ATOM      7  F   UNL d   1      -1.750   0.244   2.817  0.00  0.00    -0.097 F 
ATOM      8  F1  UNL d   1      -1.868   2.229   0.977  0.00  0.00    -0.096 F 
ATOM      9  I   UNL d   1      -0.344   2.643  -1.806  0.00  0.00    -0.060 I 
ATOM     10  F2  UNL d   1       1.350  -0.069  -1.667  0.00  0.00    -0.096 F 
ATOM     11  F3  UNL d   1       1.446  -2.038   0.190  0.00  0.00    -0.097 F 
ATOM     12  F4  UNL d   1      -0.098  -1.893   2.435  0.00  0.00    -0.092 F 
ENDROOT
TORSDOF 0
ENDMDL
