MODEL 1
REMARK minimizedAffinity 3.20384979
REMARK minimizedRMSD -1
REMARK  0 active torsions:
REMARK  status: ('A' for Active; 'I' for Inactive)
ROOT
ATOM      1  C   UNL d   1      -0.593   1.657   0.712  0.00  0.00     0.124 A 
ATOM      2  C1  UNL d   1       0.138   1.788  -0.461  0.00  0.00     0.062 A 
ATOM      3  C2  UNL d   1       0.491   0.660  -1.195  0.00  0.00     0.162 A 
ATOM      4  C3  UNL d   1       0.112  -0.610  -0.760  0.00  0.00    -0.034 A 
ATOM      5  C4  UNL d   1      -0.622  -0.734   0.421  0.00  0.00     0.162 A 
ATOM      6  C5  UNL d   1      -0.972   0.396   1.151  0.00  0.00     0.062 A 
ATOM      7  F   UNL d   1      -1.678   0.267   2.284  0.00  0.00    -0.097 F 
ATOM      8  F1  UNL d   1      -1.002  -1.941   0.868  0.00  0.00    -0.096 F 
ATOM      9  I   UNL d   1       0.638  -2.300  -1.856  0.00  0.00    -0.060 I 
ATOM     10  F2  UNL d   1       1.197   0.817  -2.325  0.00  0.00    -0.096 F 
ATOM     11  F3  UNL d   1       0.506   3.005  -0.887  0.00  0.00    -0.097 F 
ATOM     12  F4  UNL d   1      -0.931   2.744   1.418  0.00  0.00    -0.092 F 
ENDROOT
TORSDOF 0
ENDMDL
