MODEL 1
REMARK minimizedAffinity -4.03241301
REMARK minimizedRMSD -1
REMARK  0 active torsions:
REMARK  status: ('A' for Active; 'I' for Inactive)
ROOT
ATOM      1  C   UNL d   1      -0.374  -0.049   0.384  0.00  0.00     0.124 A 
ATOM      2  C1  UNL d   1      -0.847  -1.344   0.542  0.00  0.00     0.062 A 
ATOM      3  C2  UNL d   1      -0.503  -2.331  -0.376  0.00  0.00     0.162 A 
ATOM      4  C3  UNL d   1       0.320  -2.028  -1.461  0.00  0.00    -0.034 A 
ATOM      5  C4  UNL d   1       0.791  -0.723  -1.613  0.00  0.00     0.162 A 
ATOM      6  C5  UNL d   1       0.445   0.260  -0.693  0.00  0.00     0.062 A 
ATOM      7  F   UNL d   1       0.903   1.511  -0.847  0.00  0.00    -0.097 F 
ATOM      8  F1  UNL d   1       1.585  -0.397  -2.645  0.00  0.00    -0.096 F 
ATOM      9  I   UNL d   1       0.836  -3.503  -2.836  0.00  0.00    -0.060 I 
ATOM     10  F2  UNL d   1      -0.975  -3.574  -0.199  0.00  0.00    -0.096 F 
ATOM     11  F3  UNL d   1      -1.639  -1.645   1.581  0.00  0.00    -0.097 F 
ATOM     12  F4  UNL d   1      -0.707   0.900   1.269  0.00  0.00    -0.092 F 
ENDROOT
TORSDOF 0
ENDMDL
