MODEL 1
REMARK minimizedAffinity 1.87355888
REMARK minimizedRMSD -1
REMARK  0 active torsions:
REMARK  status: ('A' for Active; 'I' for Inactive)
ROOT
ATOM      1  C   UNL d   1      -1.559   2.027   1.210  0.00  0.00     0.124 A 
ATOM      2  C1  UNL d   1      -1.022   1.040   2.026  0.00  0.00     0.062 A 
ATOM      3  C2  UNL d   1      -0.607  -0.171   1.479  0.00  0.00     0.162 A 
ATOM      4  C3  UNL d   1      -0.728  -0.402   0.109  0.00  0.00    -0.034 A 
ATOM      5  C4  UNL d   1      -1.270   0.594  -0.705  0.00  0.00     0.162 A 
ATOM      6  C5  UNL d   1      -1.682   1.803  -0.154  0.00  0.00     0.062 A 
ATOM      7  F   UNL d   1      -2.201   2.755  -0.943  0.00  0.00    -0.097 F 
ATOM      8  F1  UNL d   1      -1.400   0.404  -2.026  0.00  0.00    -0.096 F 
ATOM      9  I   UNL d   1      -0.109  -2.212  -0.712  0.00  0.00    -0.060 I 
ATOM     10  F2  UNL d   1      -0.092  -1.106   2.291  0.00  0.00    -0.096 F 
ATOM     11  F3  UNL d   1      -0.902   1.254   3.344  0.00  0.00    -0.097 F 
ATOM     12  F4  UNL d   1      -1.958   3.191   1.739  0.00  0.00    -0.092 F 
ENDROOT
TORSDOF 0
ENDMDL
