MODEL 1
REMARK minimizedAffinity -3.76873636
REMARK minimizedRMSD -1
REMARK  0 active torsions:
REMARK  status: ('A' for Active; 'I' for Inactive)
ROOT
ATOM      1  C   UNL d   1       1.224  -1.618  -1.426  0.00  0.00     0.124 A 
ATOM      2  C1  UNL d   1       1.453  -0.250  -1.371  0.00  0.00     0.062 A 
ATOM      3  C2  UNL d   1       0.612   0.571  -0.626  0.00  0.00     0.162 A 
ATOM      4  C3  UNL d   1      -0.467   0.027   0.071  0.00  0.00    -0.034 A 
ATOM      5  C4  UNL d   1      -0.692  -1.349   0.010  0.00  0.00     0.162 A 
ATOM      6  C5  UNL d   1       0.152  -2.166  -0.735  0.00  0.00     0.062 A 
ATOM      7  F   UNL d   1      -0.071  -3.487  -0.787  0.00  0.00    -0.097 F 
ATOM      8  F1  UNL d   1      -1.720  -1.906   0.668  0.00  0.00    -0.096 F 
ATOM      9  I   UNL d   1      -1.728   1.252   1.185  0.00  0.00    -0.060 I 
ATOM     10  F2  UNL d   1       0.857   1.890  -0.591  0.00  0.00    -0.096 F 
ATOM     11  F3  UNL d   1       2.488   0.282  -2.037  0.00  0.00    -0.097 F 
ATOM     12  F4  UNL d   1       2.035  -2.406  -2.144  0.00  0.00    -0.092 F 
ENDROOT
TORSDOF 0
ENDMDL
