MODEL 1
REMARK minimizedAffinity -2.13305283
REMARK minimizedRMSD -1
REMARK  0 active torsions:
REMARK  status: ('A' for Active; 'I' for Inactive)
ROOT
ATOM      1  C   UNL d   1       0.790  -0.086   0.859  0.00  0.00     0.124 A 
ATOM      2  C1  UNL d   1       0.560   0.917  -0.072  0.00  0.00     0.062 A 
ATOM      3  C2  UNL d   1      -0.448   1.853   0.142  0.00  0.00     0.162 A 
ATOM      4  C3  UNL d   1      -1.233   1.791   1.294  0.00  0.00    -0.034 A 
ATOM      5  C4  UNL d   1      -0.996   0.778   2.225  0.00  0.00     0.162 A 
ATOM      6  C5  UNL d   1       0.012  -0.154   2.006  0.00  0.00     0.062 A 
ATOM      7  F   UNL d   1       0.234  -1.123   2.907  0.00  0.00    -0.097 F 
ATOM      8  F1  UNL d   1      -1.732   0.689   3.343  0.00  0.00    -0.096 F 
ATOM      9  I   UNL d   1      -2.741   3.188   1.618  0.00  0.00    -0.060 I 
ATOM     10  F2  UNL d   1      -0.648   2.812  -0.774  0.00  0.00    -0.096 F 
ATOM     11  F3  UNL d   1       1.309   0.985  -1.182  0.00  0.00    -0.097 F 
ATOM     12  F4  UNL d   1       1.760  -0.985   0.650  0.00  0.00    -0.092 F 
ENDROOT
TORSDOF 0
ENDMDL
