MODEL 1
REMARK minimizedAffinity -1.20156562
REMARK minimizedRMSD -1
REMARK  0 active torsions:
REMARK  status: ('A' for Active; 'I' for Inactive)
ROOT
ATOM      1  C   UNL d   1      -0.006   2.789  -0.560  0.00  0.00     0.124 A 
ATOM      2  C1  UNL d   1       0.655   1.571  -0.617  0.00  0.00     0.062 A 
ATOM      3  C2  UNL d   1       0.265   0.523   0.212  0.00  0.00     0.162 A 
ATOM      4  C3  UNL d   1      -0.794   0.689   1.105  0.00  0.00    -0.034 A 
ATOM      5  C4  UNL d   1      -1.454   1.918   1.157  0.00  0.00     0.162 A 
ATOM      6  C5  UNL d   1      -1.060   2.962   0.326  0.00  0.00     0.062 A 
ATOM      7  F   UNL d   1      -1.700   4.139   0.382  0.00  0.00    -0.097 F 
ATOM      8  F1  UNL d   1      -2.477   2.112   2.003  0.00  0.00    -0.096 F 
ATOM      9  I   UNL d   1      -1.382  -0.875   2.346  0.00  0.00    -0.060 I 
ATOM     10  F2  UNL d   1       0.922  -0.644   0.136  0.00  0.00    -0.096 F 
ATOM     11  F3  UNL d   1       1.674   1.401  -1.471  0.00  0.00    -0.097 F 
ATOM     12  F4  UNL d   1       0.373   3.796  -1.358  0.00  0.00    -0.092 F 
ENDROOT
TORSDOF 0
ENDMDL
