MODEL 1
REMARK minimizedAffinity -4.90254831
REMARK minimizedRMSD -1
REMARK  0 active torsions:
REMARK  status: ('A' for Active; 'I' for Inactive)
ROOT
ATOM      1  C   UNL d   1      -0.619   2.136  -0.287  0.00  0.00     0.124 A 
ATOM      2  C1  UNL d   1       0.434   1.282  -0.582  0.00  0.00     0.062 A 
ATOM      3  C2  UNL d   1       0.847   0.332   0.348  0.00  0.00     0.162 A 
ATOM      4  C3  UNL d   1       0.206   0.231   1.582  0.00  0.00    -0.034 A 
ATOM      5  C4  UNL d   1      -0.851   1.094   1.873  0.00  0.00     0.162 A 
ATOM      6  C5  UNL d   1      -1.261   2.042   0.940  0.00  0.00     0.062 A 
ATOM      7  F   UNL d   1      -2.278   2.866   1.228  0.00  0.00    -0.097 F 
ATOM      8  F1  UNL d   1      -1.490   1.024   3.050  0.00  0.00    -0.096 F 
ATOM      9  I   UNL d   1       0.821  -1.188   2.976  0.00  0.00    -0.060 I 
ATOM     10  F2  UNL d   1       1.868  -0.480   0.035  0.00  0.00    -0.096 F 
ATOM     11  F3  UNL d   1       1.056   1.372  -1.767  0.00  0.00    -0.097 F 
ATOM     12  F4  UNL d   1      -1.014   3.050  -1.183  0.00  0.00    -0.092 F 
ENDROOT
TORSDOF 0
ENDMDL
