MODEL 1
REMARK minimizedAffinity -3.91456604
REMARK minimizedRMSD -1
REMARK  0 active torsions:
REMARK  status: ('A' for Active; 'I' for Inactive)
ROOT
ATOM      1  C   UNL d   1       0.004   0.011   1.392  0.00  0.00     0.124 A 
ATOM      2  C1  UNL d   1       0.626   0.024   0.151  0.00  0.00     0.062 A 
ATOM      3  C2  UNL d   1       0.549   1.154  -0.658  0.00  0.00     0.162 A 
ATOM      4  C3  UNL d   1      -0.153   2.280  -0.229  0.00  0.00    -0.034 A 
ATOM      5  C4  UNL d   1      -0.777   2.259   1.020  0.00  0.00     0.162 A 
ATOM      6  C5  UNL d   1      -0.696   1.128   1.825  0.00  0.00     0.062 A 
ATOM      7  F   UNL d   1      -1.298   1.117   3.024  0.00  0.00    -0.097 F 
ATOM      8  F1  UNL d   1      -1.459   3.325   1.463  0.00  0.00    -0.096 F 
ATOM      9  I   UNL d   1      -0.271   3.971  -1.437  0.00  0.00    -0.060 I 
ATOM     10  F2  UNL d   1       1.159   1.138  -1.852  0.00  0.00    -0.096 F 
ATOM     11  F3  UNL d   1       1.302  -1.054  -0.270  0.00  0.00    -0.097 F 
ATOM     12  F4  UNL d   1       0.079  -1.078   2.169  0.00  0.00    -0.092 F 
ENDROOT
TORSDOF 0
ENDMDL
