MODEL 1
REMARK minimizedAffinity -3.97976971
REMARK minimizedRMSD -1
REMARK  0 active torsions:
REMARK  status: ('A' for Active; 'I' for Inactive)
ROOT
ATOM      1  C   UNL d   1      -1.150   2.734   0.050  0.00  0.00     0.124 A 
ATOM      2  C1  UNL d   1       0.085   2.697  -0.584  0.00  0.00     0.062 A 
ATOM      3  C2  UNL d   1       0.680   1.476  -0.888  0.00  0.00     0.162 A 
ATOM      4  C3  UNL d   1       0.041   0.281  -0.558  0.00  0.00    -0.034 A 
ATOM      5  C4  UNL d   1      -1.199   0.325   0.080  0.00  0.00     0.162 A 
ATOM      6  C5  UNL d   1      -1.790   1.548   0.381  0.00  0.00     0.062 A 
ATOM      7  F   UNL d   1      -2.983   1.581   0.994  0.00  0.00    -0.097 F 
ATOM      8  F1  UNL d   1      -1.841  -0.805   0.411  0.00  0.00    -0.096 F 
ATOM      9  I   UNL d   1       0.928  -1.547  -1.010  0.00  0.00    -0.060 I 
ATOM     10  F2  UNL d   1       1.873   1.471  -1.500  0.00  0.00    -0.096 F 
ATOM     11  F3  UNL d   1       0.706   3.841  -0.905  0.00  0.00    -0.097 F 
ATOM     12  F4  UNL d   1      -1.720   3.910   0.341  0.00  0.00    -0.092 F 
ENDROOT
TORSDOF 0
ENDMDL
