MODEL 1
REMARK minimizedAffinity -2.57246757
REMARK minimizedRMSD -1
REMARK  0 active torsions:
REMARK  status: ('A' for Active; 'I' for Inactive)
ROOT
ATOM      1  C   UNL d   1      -1.322   1.761   0.417  0.00  0.00     0.124 A 
ATOM      2  C1  UNL d   1      -0.077   1.722  -0.196  0.00  0.00     0.062 A 
ATOM      3  C2  UNL d   1       0.512   0.500  -0.507  0.00  0.00     0.162 A 
ATOM      4  C3  UNL d   1      -0.143  -0.694  -0.207  0.00  0.00    -0.034 A 
ATOM      5  C4  UNL d   1      -1.395  -0.647   0.410  0.00  0.00     0.162 A 
ATOM      6  C5  UNL d   1      -1.979   0.577   0.719  0.00  0.00     0.062 A 
ATOM      7  F   UNL d   1      -3.182   0.613   1.311  0.00  0.00    -0.097 F 
ATOM      8  F1  UNL d   1      -2.053  -1.776   0.712  0.00  0.00    -0.096 F 
ATOM      9  I   UNL d   1       0.734  -2.523  -0.671  0.00  0.00    -0.060 I 
ATOM     10  F2  UNL d   1       1.716   0.492  -1.100  0.00  0.00    -0.096 F 
ATOM     11  F3  UNL d   1       0.561   2.865  -0.488  0.00  0.00    -0.097 F 
ATOM     12  F4  UNL d   1      -1.886   2.938   0.716  0.00  0.00    -0.092 F 
ENDROOT
TORSDOF 0
ENDMDL
