MODEL 1
REMARK minimizedAffinity -2.53026843
REMARK minimizedRMSD -1
REMARK  0 active torsions:
REMARK  status: ('A' for Active; 'I' for Inactive)
ROOT
ATOM      1  C   UNL d   1      -0.478   2.978  -0.690  0.00  0.00     0.124 A 
ATOM      2  C1  UNL d   1       0.577   2.115  -0.950  0.00  0.00     0.062 A 
ATOM      3  C2  UNL d   1       0.845   1.057  -0.086  0.00  0.00     0.162 A 
ATOM      4  C3  UNL d   1       0.055   0.855   1.046  0.00  0.00    -0.034 A 
ATOM      5  C4  UNL d   1      -1.004   1.728   1.301  0.00  0.00     0.162 A 
ATOM      6  C5  UNL d   1      -1.268   2.784   0.434  0.00  0.00     0.062 A 
ATOM      7  F   UNL d   1      -2.288   3.617   0.687  0.00  0.00    -0.097 F 
ATOM      8  F1  UNL d   1      -1.784   1.563   2.380  0.00  0.00    -0.096 F 
ATOM      9  I   UNL d   1       0.452  -0.725   2.340  0.00  0.00    -0.060 I 
ATOM     10  F2  UNL d   1       1.871   0.239  -0.362  0.00  0.00    -0.096 F 
ATOM     11  F3  UNL d   1       1.342   2.301  -2.035  0.00  0.00    -0.097 F 
ATOM     12  F4  UNL d   1      -0.733   3.996  -1.523  0.00  0.00    -0.092 F 
ENDROOT
TORSDOF 0
ENDMDL
