MODEL 1
REMARK minimizedAffinity -3.37264156
REMARK minimizedRMSD -1
REMARK  0 active torsions:
REMARK  status: ('A' for Active; 'I' for Inactive)
ROOT
ATOM      1  C   UNL d   1      -0.331   2.756   1.000  0.00  0.00     0.124 A 
ATOM      2  C1  UNL d   1       0.480   2.775  -0.126  0.00  0.00     0.062 A 
ATOM      3  C2  UNL d   1       0.816   1.586  -0.767  0.00  0.00     0.162 A 
ATOM      4  C3  UNL d   1       0.339   0.367  -0.284  0.00  0.00    -0.034 A 
ATOM      5  C4  UNL d   1      -0.476   0.356   0.849  0.00  0.00     0.162 A 
ATOM      6  C5  UNL d   1      -0.808   1.547   1.486  0.00  0.00     0.062 A 
ATOM      7  F   UNL d   1      -1.592   1.527   2.574  0.00  0.00    -0.097 F 
ATOM      8  F1  UNL d   1      -0.952  -0.798   1.340  0.00  0.00    -0.096 F 
ATOM      9  I   UNL d   1       0.838  -1.413  -1.240  0.00  0.00    -0.060 I 
ATOM     10  F2  UNL d   1       1.602   1.634  -1.853  0.00  0.00    -0.096 F 
ATOM     11  F3  UNL d   1       0.943   3.942  -0.597  0.00  0.00    -0.097 F 
ATOM     12  F4  UNL d   1      -0.652   3.902   1.616  0.00  0.00    -0.092 F 
ENDROOT
TORSDOF 0
ENDMDL
