MODEL 1
REMARK minimizedAffinity -2.80676198
REMARK minimizedRMSD -1
REMARK  0 active torsions:
REMARK  status: ('A' for Active; 'I' for Inactive)
ROOT
ATOM      1  C   UNL d   1       0.068   0.104   1.635  0.00  0.00     0.124 A 
ATOM      2  C1  UNL d   1      -0.558   1.313   1.905  0.00  0.00     0.062 A 
ATOM      3  C2  UNL d   1      -0.501   2.353   0.981  0.00  0.00     0.162 A 
ATOM      4  C3  UNL d   1       0.184   2.188  -0.223  0.00  0.00    -0.034 A 
ATOM      5  C4  UNL d   1       0.812   0.969  -0.487  0.00  0.00     0.162 A 
ATOM      6  C5  UNL d   1       0.752  -0.067   0.439  0.00  0.00     0.062 A 
ATOM      7  F   UNL d   1       1.357  -1.234   0.177  0.00  0.00    -0.097 F 
ATOM      8  F1  UNL d   1       1.479   0.776  -1.635  0.00  0.00    -0.096 F 
ATOM      9  I   UNL d   1       0.271   3.739  -1.607  0.00  0.00    -0.060 I 
ATOM     10  F2  UNL d   1      -1.116   3.510   1.268  0.00  0.00    -0.096 F 
ATOM     11  F3  UNL d   1      -1.219   1.481   3.059  0.00  0.00    -0.097 F 
ATOM     12  F4  UNL d   1       0.012  -0.894   2.526  0.00  0.00    -0.092 F 
ENDROOT
TORSDOF 0
ENDMDL
