MODEL 1
REMARK minimizedAffinity -3.92907047
REMARK minimizedRMSD -1
REMARK  0 active torsions:
REMARK  status: ('A' for Active; 'I' for Inactive)
ROOT
ATOM      1  C   UNL d   1      -0.533   3.351  -0.516  0.00  0.00     0.124 A 
ATOM      2  C1  UNL d   1       0.357   2.438  -1.064  0.00  0.00     0.062 A 
ATOM      3  C2  UNL d   1       0.545   1.196  -0.463  0.00  0.00     0.162 A 
ATOM      4  C3  UNL d   1      -0.160   0.860   0.693  0.00  0.00    -0.034 A 
ATOM      5  C4  UNL d   1      -1.052   1.785   1.239  0.00  0.00     0.162 A 
ATOM      6  C5  UNL d   1      -1.236   3.024   0.635  0.00  0.00     0.062 A 
ATOM      7  F   UNL d   1      -2.096   3.905   1.165  0.00  0.00    -0.097 F 
ATOM      8  F1  UNL d   1      -1.746   1.494   2.350  0.00  0.00    -0.096 F 
ATOM      9  I   UNL d   1       0.118  -0.995   1.595  0.00  0.00    -0.060 I 
ATOM     10  F2  UNL d   1       1.411   0.333  -1.014  0.00  0.00    -0.096 F 
ATOM     11  F3  UNL d   1       1.039   2.752  -2.175  0.00  0.00    -0.097 F 
ATOM     12  F4  UNL d   1      -0.711   4.545  -1.096  0.00  0.00    -0.092 F 
ENDROOT
TORSDOF 0
ENDMDL
