MODEL 1
REMARK minimizedAffinity -3.36649394
REMARK minimizedRMSD -1
REMARK  0 active torsions:
REMARK  status: ('A' for Active; 'I' for Inactive)
ROOT
ATOM      1  C   UNL d   1      -1.265   2.667   0.391  0.00  0.00     0.124 A 
ATOM      2  C1  UNL d   1      -0.142   2.675  -0.425  0.00  0.00     0.062 A 
ATOM      3  C2  UNL d   1       0.546   1.493  -0.681  0.00  0.00     0.162 A 
ATOM      4  C3  UNL d   1       0.111   0.290  -0.123  0.00  0.00    -0.034 A 
ATOM      5  C4  UNL d   1      -1.019   0.290   0.697  0.00  0.00     0.162 A 
ATOM      6  C5  UNL d   1      -1.702   1.474   0.951  0.00  0.00     0.062 A 
ATOM      7  F   UNL d   1      -2.787   1.464   1.739  0.00  0.00    -0.097 F 
ATOM      8  F1  UNL d   1      -1.464  -0.848   1.250  0.00  0.00    -0.096 F 
ATOM      9  I   UNL d   1       1.137  -1.480  -0.505  0.00  0.00    -0.060 I 
ATOM     10  F2  UNL d   1       1.628   1.530  -1.473  0.00  0.00    -0.096 F 
ATOM     11  F3  UNL d   1       0.283   3.826  -0.966  0.00  0.00    -0.097 F 
ATOM     12  F4  UNL d   1      -1.924   3.806   0.637  0.00  0.00    -0.092 F 
ENDROOT
TORSDOF 0
ENDMDL
