MODEL 1
REMARK minimizedAffinity -3.10676169
REMARK minimizedRMSD -1
REMARK  0 active torsions:
REMARK  status: ('A' for Active; 'I' for Inactive)
ROOT
ATOM      1  C   UNL d   1      -0.997   0.140   1.808  0.00  0.00     0.124 A 
ATOM      2  C1  UNL d   1       0.259  -0.130   1.282  0.00  0.00     0.062 A 
ATOM      3  C2  UNL d   1       0.800   0.697   0.302  0.00  0.00     0.162 A 
ATOM      4  C3  UNL d   1       0.086   1.803  -0.158  0.00  0.00    -0.034 A 
ATOM      5  C4  UNL d   1      -1.177   2.068   0.374  0.00  0.00     0.162 A 
ATOM      6  C5  UNL d   1      -1.713   1.238   1.354  0.00  0.00     0.062 A 
ATOM      7  F   UNL d   1      -2.927   1.501   1.860  0.00  0.00    -0.097 F 
ATOM      8  F1  UNL d   1      -1.890   3.123  -0.045  0.00  0.00    -0.096 F 
ATOM      9  I   UNL d   1       0.892   3.042  -1.623  0.00  0.00    -0.060 I 
ATOM     10  F2  UNL d   1       2.016   0.412  -0.188  0.00  0.00    -0.096 F 
ATOM     11  F3  UNL d   1       0.953  -1.191   1.718  0.00  0.00    -0.097 F 
ATOM     12  F4  UNL d   1      -1.516  -0.658   2.750  0.00  0.00    -0.092 F 
ENDROOT
TORSDOF 0
ENDMDL
