MODEL 1
REMARK minimizedAffinity 0.226225793
REMARK minimizedRMSD -1
REMARK  0 active torsions:
REMARK  status: ('A' for Active; 'I' for Inactive)
ROOT
ATOM      1  C   UNL d   1      -3.518   5.992  -5.699  0.00  0.00     0.078 C 
ATOM      2  C1  UNL d   1      -4.374   4.938  -5.063  0.00  0.00    -0.077 A 
ATOM      3  C2  UNL d   1      -4.383   3.626  -5.550  0.00  0.00    -0.001 A 
ATOM      4  C3  UNL d   1      -5.192   2.657  -4.954  0.00  0.00     0.003 A 
ATOM      5  C4  UNL d   1      -6.000   2.991  -3.869  0.00  0.00    -0.005 A 
ATOM      6  C5  UNL d   1      -6.000   4.296  -3.379  0.00  0.00     0.003 A 
ATOM      7  C6  UNL d   1      -5.191   5.265  -3.974  0.00  0.00    -0.001 A 
ENDROOT
TORSDOF 0
ENDMDL
