MODEL 1
REMARK minimizedAffinity 3.61334467
REMARK minimizedRMSD -1
REMARK  0 active torsions:
REMARK  status: ('A' for Active; 'I' for Inactive)
ROOT
ATOM      1  C   UNL d   1       0.747   3.133   0.333  0.00  0.00     0.078 C 
ATOM      2  C1  UNL d   1      -0.150   4.122  -0.349  0.00  0.00    -0.077 A 
ATOM      3  C2  UNL d   1      -0.290   4.128  -1.742  0.00  0.00    -0.001 A 
ATOM      4  C3  UNL d   1      -1.121   5.061  -2.365  0.00  0.00     0.003 A 
ATOM      5  C4  UNL d   1      -1.817   5.996  -1.602  0.00  0.00    -0.005 A 
ATOM      6  C5  UNL d   1      -1.683   6.000  -0.215  0.00  0.00     0.003 A 
ATOM      7  C6  UNL d   1      -0.852   5.068   0.409  0.00  0.00    -0.001 A 
ENDROOT
TORSDOF 0
ENDMDL
