MODEL 1
REMARK minimizedAffinity 1.75326109
REMARK minimizedRMSD -1
REMARK  0 active torsions:
REMARK  status: ('A' for Active; 'I' for Inactive)
ROOT
ATOM      1  C   UNL d   1      -2.408   4.990  -1.847  0.00  0.00     0.078 C 
ATOM      2  C1  UNL d   1      -1.259   4.420  -1.070  0.00  0.00    -0.077 A 
ATOM      3  C2  UNL d   1       0.058   4.554  -1.527  0.00  0.00    -0.001 A 
ATOM      4  C3  UNL d   1       1.117   4.010  -0.798  0.00  0.00     0.003 A 
ATOM      5  C4  UNL d   1       0.870   3.327   0.391  0.00  0.00    -0.005 A 
ATOM      6  C5  UNL d   1      -0.438   3.186   0.852  0.00  0.00     0.003 A 
ATOM      7  C6  UNL d   1      -1.498   3.730   0.125  0.00  0.00    -0.001 A 
ENDROOT
TORSDOF 0
ENDMDL
