MODEL 1
REMARK minimizedAffinity 3.55773711
REMARK minimizedRMSD -1
REMARK  0 active torsions:
REMARK  status: ('A' for Active; 'I' for Inactive)
ROOT
ATOM      1  C   UNL d   1      -5.895  -0.361  -5.965  0.00  0.00     0.078 C 
ATOM      2  C1  UNL d   1      -5.836   0.931  -5.206  0.00  0.00    -0.077 A 
ATOM      3  C2  UNL d   1      -5.606   2.145  -5.864  0.00  0.00    -0.001 A 
ATOM      4  C3  UNL d   1      -5.545   3.338  -5.143  0.00  0.00     0.003 A 
ATOM      5  C4  UNL d   1      -5.711   3.329  -3.760  0.00  0.00    -0.005 A 
ATOM      6  C5  UNL d   1      -5.938   2.126  -3.095  0.00  0.00     0.003 A 
ATOM      7  C6  UNL d   1      -6.000   0.931  -3.815  0.00  0.00    -0.001 A 
ENDROOT
TORSDOF 0
ENDMDL
