MODEL 1
REMARK minimizedAffinity -0.142696887
REMARK minimizedRMSD -1
REMARK  0 active torsions:
REMARK  status: ('A' for Active; 'I' for Inactive)
ROOT
ATOM      1  C   UNL d   1      -5.952   0.867   3.082  0.00  0.00     0.078 C 
ATOM      2  C1  UNL d   1      -5.386  -0.291   3.849  0.00  0.00    -0.077 A 
ATOM      3  C2  UNL d   1      -4.256  -0.978   3.388  0.00  0.00    -0.001 A 
ATOM      4  C3  UNL d   1      -3.746  -2.060   4.108  0.00  0.00     0.003 A 
ATOM      5  C4  UNL d   1      -4.360  -2.465   5.292  0.00  0.00    -0.005 A 
ATOM      6  C5  UNL d   1      -5.486  -1.788   5.757  0.00  0.00     0.003 A 
ATOM      7  C6  UNL d   1      -5.997  -0.706   5.039  0.00  0.00    -0.001 A 
ENDROOT
TORSDOF 0
ENDMDL
