MODEL 1
REMARK minimizedAffinity 1.92584145
REMARK minimizedRMSD -1
REMARK  0 active torsions:
REMARK  status: ('A' for Active; 'I' for Inactive)
ROOT
ATOM      1  C   UNL d   1      -5.240   1.119   2.336  0.00  0.00     0.078 C 
ATOM      2  C1  UNL d   1      -5.508   0.384   3.615  0.00  0.00    -0.077 A 
ATOM      3  C2  UNL d   1      -5.748   1.076   4.808  0.00  0.00    -0.001 A 
ATOM      4  C3  UNL d   1      -5.986   0.378   5.993  0.00  0.00     0.003 A 
ATOM      5  C4  UNL d   1      -5.986  -1.015   5.997  0.00  0.00    -0.005 A 
ATOM      6  C5  UNL d   1      -5.746  -1.713   4.815  0.00  0.00     0.003 A 
ATOM      7  C6  UNL d   1      -5.507  -1.017   3.629  0.00  0.00    -0.001 A 
ENDROOT
TORSDOF 0
ENDMDL
