MODEL 1
REMARK minimizedAffinity -4.62676764
REMARK minimizedRMSD -1
REMARK  0 active torsions:
REMARK  status: ('A' for Active; 'I' for Inactive)
ROOT
ATOM      1  C   UNL d   1      -0.546   0.890   3.348  0.00  0.00     0.020 A 
ATOM      2  C1  UNL d   1       0.755   0.502   3.031  0.00  0.00     0.020 A 
ATOM      3  C2  UNL d   1       1.081   0.157   1.718  0.00  0.00     0.034 A 
ATOM      4  C3  UNL d   1       0.104   0.198   0.716  0.00  0.00     0.017 A 
ATOM      5  C4  UNL d   1      -1.202   0.587   1.035  0.00  0.00     0.017 A 
ATOM      6  C5  UNL d   1      -1.522   0.932   2.352  0.00  0.00     0.034 A 
ATOM      7 Cl   UNL d   1      -2.461   0.662  -0.147  0.00  0.00    -0.070 Cl
ATOM      8 Cl1  UNL d   1       0.578  -0.243  -0.886  0.00  0.00    -0.070 Cl
ENDROOT
TORSDOF 0
ENDMDL
