MODEL 1
REMARK minimizedAffinity -3.53250432
REMARK minimizedRMSD -1
REMARK  0 active torsions:
REMARK  status: ('A' for Active; 'I' for Inactive)
ROOT
ATOM      1  C   UNL d   1       0.696   1.464   2.004  0.00  0.00     0.020 A 
ATOM      2  C1  UNL d   1      -0.636   1.508   2.413  0.00  0.00     0.020 A 
ATOM      3  C2  UNL d   1      -1.625   0.896   1.640  0.00  0.00     0.034 A 
ATOM      4  C3  UNL d   1      -1.283   0.238   0.453  0.00  0.00     0.017 A 
ATOM      5  C4  UNL d   1       0.054   0.194   0.043  0.00  0.00     0.017 A 
ATOM      6  C5  UNL d   1       1.040   0.808   0.821  0.00  0.00     0.034 A 
ATOM      7 Cl   UNL d   1       0.553  -0.600  -1.409  0.00  0.00    -0.070 Cl
ATOM      8 Cl1  UNL d   1      -2.557  -0.497  -0.454  0.00  0.00    -0.070 Cl
ENDROOT
TORSDOF 0
ENDMDL
