MODEL 1
REMARK minimizedAffinity -0.489589661
REMARK minimizedRMSD -1
REMARK  0 active torsions:
REMARK  status: ('A' for Active; 'I' for Inactive)
ROOT
ATOM      1  C   UNL d   1      -0.270  -0.684  -1.103  0.00  0.00     0.020 A 
ATOM      2  C1  UNL d   1      -1.528  -0.335  -0.616  0.00  0.00     0.020 A 
ATOM      3  C2  UNL d   1      -1.688  -0.007   0.732  0.00  0.00     0.034 A 
ATOM      4  C3  UNL d   1      -0.588  -0.028   1.597  0.00  0.00     0.017 A 
ATOM      5  C4  UNL d   1       0.675  -0.379   1.107  0.00  0.00     0.017 A 
ATOM      6  C5  UNL d   1       0.829  -0.706  -0.244  0.00  0.00     0.034 A 
ATOM      7 Cl   UNL d   1       2.079  -0.427   2.113  0.00  0.00    -0.070 Cl
ATOM      8 Cl1  UNL d   1      -0.859   0.389   3.252  0.00  0.00    -0.070 Cl
ENDROOT
TORSDOF 0
ENDMDL
