MODEL 1
REMARK minimizedAffinity -5.57844591
REMARK minimizedRMSD -1
REMARK  0 active torsions:
REMARK  status: ('A' for Active; 'I' for Inactive)
ROOT
ATOM      1  C   UNL d   1      -2.394   0.379   0.116  0.00  0.00     0.020 A 
ATOM      2  C1  UNL d   1      -2.265   0.985   1.365  0.00  0.00     0.020 A 
ATOM      3  C2  UNL d   1      -1.080   0.846   2.089  0.00  0.00     0.034 A 
ATOM      4  C3  UNL d   1      -0.018   0.099   1.565  0.00  0.00     0.017 A 
ATOM      5  C4  UNL d   1      -0.148  -0.509   0.311  0.00  0.00     0.017 A 
ATOM      6  C5  UNL d   1      -1.338  -0.366  -0.410  0.00  0.00     0.034 A 
ATOM      7 Cl   UNL d   1       1.118  -1.445  -0.401  0.00  0.00    -0.070 Cl
ATOM      8 Cl1  UNL d   1       1.419  -0.031   2.516  0.00  0.00    -0.070 Cl
ENDROOT
TORSDOF 0
ENDMDL
