MODEL 1
REMARK minimizedAffinity -5.02500963
REMARK minimizedRMSD -1
REMARK  0 active torsions:
REMARK  status: ('A' for Active; 'I' for Inactive)
ROOT
ATOM      1  C   UNL d   1      -0.429   1.275   3.496  0.00  0.00     0.020 A 
ATOM      2  C1  UNL d   1       0.819   0.820   3.921  0.00  0.00     0.020 A 
ATOM      3  C2  UNL d   1       1.615   0.061   3.061  0.00  0.00     0.034 A 
ATOM      4  C3  UNL d   1       1.164  -0.247   1.772  0.00  0.00     0.017 A 
ATOM      5  C4  UNL d   1      -0.089   0.210   1.347  0.00  0.00     0.017 A 
ATOM      6  C5  UNL d   1      -0.882   0.970   2.212  0.00  0.00     0.034 A 
ATOM      7 Cl   UNL d   1      -0.713  -0.128  -0.229  0.00  0.00    -0.070 Cl
ATOM      8 Cl1  UNL d   1       2.201  -1.190   0.761  0.00  0.00    -0.070 Cl
ENDROOT
TORSDOF 0
ENDMDL
