MODEL 1
REMARK minimizedAffinity -4.98817825
REMARK minimizedRMSD -1
REMARK  0 active torsions:
REMARK  status: ('A' for Active; 'I' for Inactive)
ROOT
ATOM      1  C   UNL d   1       0.264   0.749   3.877  0.00  0.00     0.020 A 
ATOM      2  C1  UNL d   1       1.361   0.005   3.443  0.00  0.00     0.020 A 
ATOM      3  C2  UNL d   1       1.458  -0.378   2.103  0.00  0.00     0.034 A 
ATOM      4  C3  UNL d   1       0.458  -0.017   1.193  0.00  0.00     0.017 A 
ATOM      5  C4  UNL d   1      -0.642   0.730   1.630  0.00  0.00     0.017 A 
ATOM      6  C5  UNL d   1      -0.735   1.111   2.973  0.00  0.00     0.034 A 
ATOM      7 Cl   UNL d   1      -1.916   1.213   0.567  0.00  0.00    -0.070 Cl
ATOM      8 Cl1  UNL d   1       0.643  -0.524  -0.448  0.00  0.00    -0.070 Cl
ENDROOT
TORSDOF 0
ENDMDL
