MODEL 1
REMARK minimizedAffinity -4.11855364
REMARK minimizedRMSD -1
REMARK  0 active torsions:
REMARK  status: ('A' for Active; 'I' for Inactive)
ROOT
ATOM      1  C   UNL d   1       1.799  -0.211   2.768  0.00  0.00     0.020 A 
ATOM      2  C1  UNL d   1       0.817   0.458   3.498  0.00  0.00     0.020 A 
ATOM      3  C2  UNL d   1      -0.411   0.757   2.904  0.00  0.00     0.034 A 
ATOM      4  C3  UNL d   1      -0.660   0.387   1.577  0.00  0.00     0.017 A 
ATOM      5  C4  UNL d   1       0.326  -0.285   0.846  0.00  0.00     0.017 A 
ATOM      6  C5  UNL d   1       1.554  -0.582   1.446  0.00  0.00     0.034 A 
ATOM      7 Cl   UNL d   1       0.092  -0.774  -0.795  0.00  0.00    -0.070 Cl
ATOM      8 Cl1  UNL d   1      -2.201   0.789   0.907  0.00  0.00    -0.070 Cl
ENDROOT
TORSDOF 0
ENDMDL
