MODEL 1
REMARK minimizedAffinity -4.69773722
REMARK minimizedRMSD -1
REMARK  0 active torsions:
REMARK  status: ('A' for Active; 'I' for Inactive)
ROOT
ATOM      1  C   UNL d   1       1.113   0.214   3.399  0.00  0.00     0.020 A 
ATOM      2  C1  UNL d   1       2.010  -0.403   2.529  0.00  0.00     0.020 A 
ATOM      3  C2  UNL d   1       1.661  -0.602   1.191  0.00  0.00     0.034 A 
ATOM      4  C3  UNL d   1       0.411  -0.184   0.721  0.00  0.00     0.017 A 
ATOM      5  C4  UNL d   1      -0.489   0.436   1.595  0.00  0.00     0.017 A 
ATOM      6  C5  UNL d   1      -0.134   0.632   2.933  0.00  0.00     0.034 A 
ATOM      7 Cl   UNL d   1      -2.049   0.979   1.088  0.00  0.00    -0.070 Cl
ATOM      8 Cl1  UNL d   1       0.046  -0.462  -0.945  0.00  0.00    -0.070 Cl
ENDROOT
TORSDOF 0
ENDMDL
