MODEL 1
REMARK minimizedAffinity 7.16309786
REMARK minimizedRMSD -1
REMARK  2 active torsions:
REMARK  status: ('A' for Active; 'I' for Inactive)
REMARK    1  A    between atoms: C1_2  and  C2_3 
REMARK    2  A    between atoms: C2_3  and  C3_4 
ROOT
ATOM      1  C3  UNL d   1      -2.062   1.099   1.723  0.00  0.00    -0.075 A 
ATOM      2  C4  UNL d   1      -2.120  -0.267   2.036  0.00  0.00     0.002 A 
ATOM      3  C5  UNL d   1      -3.312  -0.976   1.891  0.00  0.00     0.002 A 
ATOM      4  C6  UNL d   1      -4.462  -0.329   1.444  0.00  0.00    -0.004 A 
ATOM      5  C7  UNL d   1      -4.420   1.032   1.146  0.00  0.00     0.002 A 
ATOM      6  C8  UNL d   1      -3.226   1.743   1.285  0.00  0.00     0.002 A 
ENDROOT
BRANCH   1   7
ATOM      7  C2  UNL d   1      -0.767   1.866   1.849  0.00  0.00     0.056 C 
BRANCH   7   8
ATOM      8  C1  UNL d   1       0.434   1.001   2.245  0.00  0.00     0.007 C 
ATOM      9  C   UNL d   1       1.566   1.799   2.880  0.00  0.00     0.009 C 
ENDBRANCH   7   8
ENDBRANCH   1   7
TORSDOF 2
ENDMDL
