MODEL 1
REMARK minimizedAffinity 10.4592857
REMARK minimizedRMSD -1
REMARK  2 active torsions:
REMARK  status: ('A' for Active; 'I' for Inactive)
REMARK    1  A    between atoms: C1_2  and  C2_3 
REMARK    2  A    between atoms: C2_3  and  C3_4 
ROOT
ATOM      1  C3  UNL d   1       3.682   2.545   4.813  0.00  0.00    -0.075 A 
ATOM      2  C4  UNL d   1       4.842   1.765   4.923  0.00  0.00     0.002 A 
ATOM      3  C5  UNL d   1       5.992   2.286   5.518  0.00  0.00     0.002 A 
ATOM      4  C6  UNL d   1       6.000   3.593   5.999  0.00  0.00    -0.004 A 
ATOM      5  C7  UNL d   1       4.858   4.382   5.881  0.00  0.00     0.002 A 
ATOM      6  C8  UNL d   1       3.705   3.863   5.290  0.00  0.00     0.002 A 
ENDROOT
BRANCH   1   7
ATOM      7  C2  UNL d   1       2.425   1.978   4.198  0.00  0.00     0.056 C 
BRANCH   7   8
ATOM      8  C1  UNL d   1       2.436   1.956   2.666  0.00  0.00     0.007 C 
ATOM      9  C   UNL d   1       1.211   1.278   2.067  0.00  0.00     0.009 C 
ENDBRANCH   7   8
ENDBRANCH   1   7
TORSDOF 2
ENDMDL
