MODEL 1
REMARK minimizedAffinity 6.60071659
REMARK minimizedRMSD -1
REMARK  2 active torsions:
REMARK  status: ('A' for Active; 'I' for Inactive)
REMARK    1  A    between atoms: C1_2  and  C2_3 
REMARK    2  A    between atoms: C2_3  and  C3_4 
ROOT
ATOM      1  C3  UNL d   1       2.071   1.776   2.558  0.00  0.00    -0.075 A 
ATOM      2  C4  UNL d   1       2.751   2.667   1.714  0.00  0.00     0.002 A 
ATOM      3  C5  UNL d   1       3.650   3.595   2.241  0.00  0.00     0.002 A 
ATOM      4  C6  UNL d   1       3.872   3.652   3.615  0.00  0.00    -0.004 A 
ATOM      5  C7  UNL d   1       3.190   2.783   4.464  0.00  0.00     0.002 A 
ATOM      6  C8  UNL d   1       2.293   1.850   3.939  0.00  0.00     0.002 A 
ENDROOT
BRANCH   1   7
ATOM      7  C2  UNL d   1       1.119   0.750   1.992  0.00  0.00     0.056 C 
BRANCH   7   8
ATOM      8  C1  UNL d   1       1.669  -0.680   1.997  0.00  0.00     0.007 C 
ATOM      9  C   UNL d   1       2.635  -0.956   0.852  0.00  0.00     0.009 C 
ENDBRANCH   7   8
ENDBRANCH   1   7
TORSDOF 2
ENDMDL
