MODEL 1
REMARK minimizedAffinity 5.92200756
REMARK minimizedRMSD -1
REMARK  2 active torsions:
REMARK  status: ('A' for Active; 'I' for Inactive)
REMARK    1  A    between atoms: C1_2  and  C2_3 
REMARK    2  A    between atoms: C2_3  and  C3_4 
ROOT
ATOM      1  C3  UNL d   1      -0.289   4.633  -5.346  0.00  0.00    -0.075 A 
ATOM      2  C4  UNL d   1       0.809   5.211  -6.000  0.00  0.00     0.002 A 
ATOM      3  C5  UNL d   1       2.074   5.190  -5.412  0.00  0.00     0.002 A 
ATOM      4  C6  UNL d   1       2.256   4.601  -4.163  0.00  0.00    -0.004 A 
ATOM      5  C7  UNL d   1       1.169   4.038  -3.498  0.00  0.00     0.002 A 
ATOM      6  C8  UNL d   1      -0.098   4.054  -4.085  0.00  0.00     0.002 A 
ENDROOT
BRANCH   1   7
ATOM      7  C2  UNL d   1      -1.655   4.626  -5.990  0.00  0.00     0.056 C 
BRANCH   7   8
ATOM      8  C1  UNL d   1      -2.350   5.992  -5.992  0.00  0.00     0.007 C 
ATOM      9  C   UNL d   1      -3.663   5.999  -5.221  0.00  0.00     0.009 C 
ENDBRANCH   7   8
ENDBRANCH   1   7
TORSDOF 2
ENDMDL
