MODEL 1
REMARK minimizedAffinity 0.315843284
REMARK minimizedRMSD -1
REMARK  2 active torsions:
REMARK  status: ('A' for Active; 'I' for Inactive)
REMARK    1  A    between atoms: C1_2  and  C2_3 
REMARK    2  A    between atoms: C2_3  and  C3_4 
ROOT
ATOM      1  C3  UNL d   1      -1.684  -2.585  -0.289  0.00  0.00    -0.075 A 
ATOM      2  C4  UNL d   1      -2.680  -3.556  -0.464  0.00  0.00     0.002 A 
ATOM      3  C5  UNL d   1      -2.699  -4.353  -1.609  0.00  0.00     0.002 A 
ATOM      4  C6  UNL d   1      -1.731  -4.182  -2.597  0.00  0.00    -0.004 A 
ATOM      5  C7  UNL d   1      -0.746  -3.209  -2.441  0.00  0.00     0.002 A 
ATOM      6  C8  UNL d   1      -0.722  -2.413  -1.294  0.00  0.00     0.002 A 
ENDROOT
BRANCH   1   7
ATOM      7  C2  UNL d   1      -1.640  -1.740   0.961  0.00  0.00     0.056 C 
BRANCH   7   8
ATOM      8  C1  UNL d   1      -0.226  -1.342   1.396  0.00  0.00     0.007 C 
ATOM      9  C   UNL d   1      -0.009   0.165   1.429  0.00  0.00     0.009 C 
ENDBRANCH   7   8
ENDBRANCH   1   7
TORSDOF 2
ENDMDL
