MODEL 1
REMARK minimizedAffinity 1.80857241
REMARK minimizedRMSD -1
REMARK  2 active torsions:
REMARK  status: ('A' for Active; 'I' for Inactive)
REMARK    1  A    between atoms: C1_2  and  C2_3 
REMARK    2  A    between atoms: C2_3  and  C3_4 
ROOT
ATOM      1  C3  UNL d   1      -2.141   0.343   1.835  0.00  0.00    -0.075 A 
ATOM      2  C4  UNL d   1      -1.719  -0.963   2.124  0.00  0.00     0.002 A 
ATOM      3  C5  UNL d   1      -2.480  -1.785   2.955  0.00  0.00     0.002 A 
ATOM      4  C6  UNL d   1      -3.664  -1.311   3.515  0.00  0.00    -0.004 A 
ATOM      5  C7  UNL d   1      -4.084  -0.010   3.248  0.00  0.00     0.002 A 
ATOM      6  C8  UNL d   1      -3.327   0.814   2.413  0.00  0.00     0.002 A 
ENDROOT
BRANCH   1   7
ATOM      7  C2  UNL d   1      -1.337   1.228   0.912  0.00  0.00     0.056 C 
BRANCH   7   8
ATOM      8  C1  UNL d   1       0.010   1.672   1.491  0.00  0.00     0.007 C 
ATOM      9  C   UNL d   1       0.645   2.823   0.721  0.00  0.00     0.009 C 
ENDBRANCH   7   8
ENDBRANCH   1   7
TORSDOF 2
ENDMDL
