MODEL 1
REMARK minimizedAffinity 3.46605372
REMARK minimizedRMSD -1
REMARK  2 active torsions:
REMARK  status: ('A' for Active; 'I' for Inactive)
REMARK    1  A    between atoms: C1_2  and  C2_3 
REMARK    2  A    between atoms: C2_3  and  C3_4 
ROOT
ATOM      1  C3  UNL d   1      -2.863   4.544  -4.453  0.00  0.00    -0.075 A 
ATOM      2  C4  UNL d   1      -3.239   4.879  -5.761  0.00  0.00     0.002 A 
ATOM      3  C5  UNL d   1      -4.408   5.604  -5.998  0.00  0.00     0.002 A 
ATOM      4  C6  UNL d   1      -5.218   5.993  -4.934  0.00  0.00    -0.004 A 
ATOM      5  C7  UNL d   1      -4.862   5.650  -3.631  0.00  0.00     0.002 A 
ATOM      6  C8  UNL d   1      -3.692   4.929  -3.391  0.00  0.00     0.002 A 
ENDROOT
BRANCH   1   7
ATOM      7  C2  UNL d   1      -1.584   3.785  -4.187  0.00  0.00     0.056 C 
BRANCH   7   8
ATOM      8  C1  UNL d   1      -1.145   3.798  -2.719  0.00  0.00     0.007 C 
ATOM      9  C   UNL d   1       0.313   4.195  -2.532  0.00  0.00     0.009 C 
ENDBRANCH   7   8
ENDBRANCH   1   7
TORSDOF 2
ENDMDL
