MODEL 1
REMARK minimizedAffinity 8.66742897
REMARK minimizedRMSD -1
REMARK  2 active torsions:
REMARK  status: ('A' for Active; 'I' for Inactive)
REMARK    1  A    between atoms: C1_2  and  C2_3 
REMARK    2  A    between atoms: C2_3  and  C3_4 
ROOT
ATOM      1  C3  UNL d   1       1.251   1.890   1.940  0.00  0.00    -0.075 A 
ATOM      2  C4  UNL d   1       2.599   1.731   2.291  0.00  0.00     0.002 A 
ATOM      3  C5  UNL d   1       3.172   2.528   3.282  0.00  0.00     0.002 A 
ATOM      4  C6  UNL d   1       2.408   3.499   3.927  0.00  0.00    -0.004 A 
ATOM      5  C7  UNL d   1       1.072   3.677   3.574  0.00  0.00     0.002 A 
ATOM      6  C8  UNL d   1       0.496   2.877   2.586  0.00  0.00     0.002 A 
ENDROOT
BRANCH   1   7
ATOM      7  C2  UNL d   1       0.618   1.010   0.888  0.00  0.00     0.056 C 
BRANCH   7   8
ATOM      8  C1  UNL d   1      -0.033  -0.260   1.447  0.00  0.00     0.007 C 
ATOM      9  C   UNL d   1       0.870  -1.483   1.366  0.00  0.00     0.009 C 
ENDBRANCH   7   8
ENDBRANCH   1   7
TORSDOF 2
ENDMDL
