MODEL 1
REMARK minimizedAffinity 10.8558846
REMARK minimizedRMSD -1
REMARK  2 active torsions:
REMARK  status: ('A' for Active; 'I' for Inactive)
REMARK    1  A    between atoms: C1_2  and  C2_3 
REMARK    2  A    between atoms: C2_3  and  C3_4 
ROOT
ATOM      1  C3  UNL d   1      -0.524   1.222   0.817  0.00  0.00    -0.075 A 
ATOM      2  C4  UNL d   1      -1.332   1.883  -0.119  0.00  0.00     0.002 A 
ATOM      3  C5  UNL d   1      -2.721   1.870   0.010  0.00  0.00     0.002 A 
ATOM      4  C6  UNL d   1      -3.319   1.189   1.068  0.00  0.00    -0.004 A 
ATOM      5  C7  UNL d   1      -2.526   0.514   1.994  0.00  0.00     0.002 A 
ATOM      6  C8  UNL d   1      -1.136   0.530   1.870  0.00  0.00     0.002 A 
ENDROOT
BRANCH   1   7
ATOM      7  C2  UNL d   1       0.981   1.257   0.700  0.00  0.00     0.056 C 
BRANCH   7   8
ATOM      8  C1  UNL d   1       1.509   2.362  -0.222  0.00  0.00     0.007 C 
ATOM      9  C   UNL d   1       2.734   1.940  -1.024  0.00  0.00     0.009 C 
ENDBRANCH   7   8
ENDBRANCH   1   7
TORSDOF 2
ENDMDL
