MODEL 1
REMARK minimizedAffinity 3.21237659
REMARK minimizedRMSD -1
REMARK  2 active torsions:
REMARK  status: ('A' for Active; 'I' for Inactive)
REMARK    1  A    between atoms: C1_2  and  C2_3 
REMARK    2  A    between atoms: C2_3  and  C3_4 
ROOT
ATOM      1  C3  UNL d   1       1.950   3.560  -5.277  0.00  0.00    -0.075 A 
ATOM      2  C4  UNL d   1       2.740   4.662  -5.636  0.00  0.00     0.002 A 
ATOM      3  C5  UNL d   1       4.075   4.488  -6.000  0.00  0.00     0.002 A 
ATOM      4  C6  UNL d   1       4.640   3.214  -6.000  0.00  0.00    -0.004 A 
ATOM      5  C7  UNL d   1       3.869   2.115  -5.629  0.00  0.00     0.002 A 
ATOM      6  C8  UNL d   1       2.531   2.285  -5.269  0.00  0.00     0.002 A 
ENDROOT
BRANCH   1   7
ATOM      7  C2  UNL d   1       0.496   3.738  -4.911  0.00  0.00     0.056 C 
BRANCH   7   8
ATOM      8  C1  UNL d   1      -0.341   4.423  -5.997  0.00  0.00     0.007 C 
ATOM      9  C   UNL d   1      -1.834   4.424  -5.693  0.00  0.00     0.009 C 
ENDBRANCH   7   8
ENDBRANCH   1   7
TORSDOF 2
ENDMDL
