MODEL 1
REMARK minimizedAffinity 3.51690793
REMARK minimizedRMSD -1
REMARK  2 active torsions:
REMARK  status: ('A' for Active; 'I' for Inactive)
REMARK    1  A    between atoms: C1_2  and  C2_3 
REMARK    2  A    between atoms: C2_3  and  C3_4 
ROOT
ATOM      1  C3  UNL d   1      -0.101   2.126   0.729  0.00  0.00    -0.075 A 
ATOM      2  C4  UNL d   1      -1.304   2.615   0.201  0.00  0.00     0.002 A 
ATOM      3  C5  UNL d   1      -2.483   1.880   0.326  0.00  0.00     0.002 A 
ATOM      4  C6  UNL d   1      -2.473   0.645   0.971  0.00  0.00    -0.004 A 
ATOM      5  C7  UNL d   1      -1.280   0.142   1.485  0.00  0.00     0.002 A 
ATOM      6  C8  UNL d   1      -0.099   0.877   1.365  0.00  0.00     0.002 A 
ENDROOT
BRANCH   1   7
ATOM      7  C2  UNL d   1       1.173   2.930   0.623  0.00  0.00     0.056 C 
BRANCH   7   8
ATOM      8  C1  UNL d   1       1.063   4.155  -0.291  0.00  0.00     0.007 C 
ATOM      9  C   UNL d   1       1.604   3.908  -1.693  0.00  0.00     0.009 C 
ENDBRANCH   7   8
ENDBRANCH   1   7
TORSDOF 2
ENDMDL
