MODEL 1
REMARK minimizedAffinity 7.88009787
REMARK minimizedRMSD -1
REMARK  2 active torsions:
REMARK  status: ('A' for Active; 'I' for Inactive)
REMARK    1  A    between atoms: C1_2  and  C2_3 
REMARK    2  A    between atoms: C2_3  and  C3_4 
ROOT
ATOM      1  C3  UNL d   1       4.186   3.860   3.889  0.00  0.00    -0.075 A 
ATOM      2  C4  UNL d   1       4.115   5.162   4.406  0.00  0.00     0.002 A 
ATOM      3  C5  UNL d   1       4.951   5.555   5.452  0.00  0.00     0.002 A 
ATOM      4  C6  UNL d   1       5.858   4.651   6.000  0.00  0.00    -0.004 A 
ATOM      5  C7  UNL d   1       5.925   3.351   5.505  0.00  0.00     0.002 A 
ATOM      6  C8  UNL d   1       5.094   2.956   4.456  0.00  0.00     0.002 A 
ENDROOT
BRANCH   1   7
ATOM      7  C2  UNL d   1       3.305   3.438   2.738  0.00  0.00     0.056 C 
BRANCH   7   8
ATOM      8  C1  UNL d   1       2.178   2.478   3.134  0.00  0.00     0.007 C 
ATOM      9  C   UNL d   1       1.412   1.925   1.940  0.00  0.00     0.009 C 
ENDBRANCH   7   8
ENDBRANCH   1   7
TORSDOF 2
ENDMDL
