MODEL 1
REMARK minimizedAffinity 10.1147108
REMARK minimizedRMSD -1
REMARK  2 active torsions:
REMARK  status: ('A' for Active; 'I' for Inactive)
REMARK    1  A    between atoms: C1_2  and  C2_3 
REMARK    2  A    between atoms: C2_3  and  C3_4 
ROOT
ATOM      1  C3  UNL d   1       3.624   3.575   4.624  0.00  0.00    -0.075 A 
ATOM      2  C4  UNL d   1       4.829   2.864   4.527  0.00  0.00     0.002 A 
ATOM      3  C5  UNL d   1       5.999   3.374   5.089  0.00  0.00     0.002 A 
ATOM      4  C6  UNL d   1       5.983   4.603   5.746  0.00  0.00    -0.004 A 
ATOM      5  C7  UNL d   1       4.795   5.325   5.834  0.00  0.00     0.002 A 
ATOM      6  C8  UNL d   1       3.621   4.815   5.277  0.00  0.00     0.002 A 
ENDROOT
BRANCH   1   7
ATOM      7  C2  UNL d   1       2.347   3.015   4.044  0.00  0.00     0.056 C 
BRANCH   7   8
ATOM      8  C1  UNL d   1       2.442   2.659   2.557  0.00  0.00     0.007 C 
ATOM      9  C   UNL d   1       1.204   1.944   2.030  0.00  0.00     0.009 C 
ENDBRANCH   7   8
ENDBRANCH   1   7
TORSDOF 2
ENDMDL
