MODEL 1
REMARK minimizedAffinity 7.19909048
REMARK minimizedRMSD -1
REMARK  2 active torsions:
REMARK  status: ('A' for Active; 'I' for Inactive)
REMARK    1  A    between atoms: C1_2  and  C2_3 
REMARK    2  A    between atoms: C2_3  and  C3_4 
ROOT
ATOM      1  C3  UNL d   1      -4.159   0.457   2.684  0.00  0.00    -0.075 A 
ATOM      2  C4  UNL d   1      -4.968   1.002   1.676  0.00  0.00     0.002 A 
ATOM      3  C5  UNL d   1      -4.406   1.441   0.477  0.00  0.00     0.002 A 
ATOM      4  C6  UNL d   1      -3.030   1.349   0.274  0.00  0.00    -0.004 A 
ATOM      5  C7  UNL d   1      -2.216   0.825   1.275  0.00  0.00     0.002 A 
ATOM      6  C8  UNL d   1      -2.776   0.382   2.475  0.00  0.00     0.002 A 
ENDROOT
BRANCH   1   7
ATOM      7  C2  UNL d   1      -4.764  -0.046   3.973  0.00  0.00     0.056 C 
BRANCH   7   8
ATOM      8  C1  UNL d   1      -4.848  -1.573   4.068  0.00  0.00     0.007 C 
ATOM      9  C   UNL d   1      -3.513  -2.264   3.823  0.00  0.00     0.009 C 
ENDBRANCH   7   8
ENDBRANCH   1   7
TORSDOF 2
ENDMDL
