MODEL 1
REMARK minimizedAffinity 4.14921761
REMARK minimizedRMSD -1
REMARK  2 active torsions:
REMARK  status: ('A' for Active; 'I' for Inactive)
REMARK    1  A    between atoms: C1_2  and  C2_3 
REMARK    2  A    between atoms: C2_3  and  C3_4 
ROOT
ATOM      1  C3  UNL d   1       3.305   4.976  -1.323  0.00  0.00    -0.075 A 
ATOM      2  C4  UNL d   1       3.780   6.000  -0.491  0.00  0.00     0.002 A 
ATOM      3  C5  UNL d   1       4.878   5.783   0.342  0.00  0.00     0.002 A 
ATOM      4  C6  UNL d   1       5.507   4.540   0.362  0.00  0.00    -0.004 A 
ATOM      5  C7  UNL d   1       5.032   3.510  -0.448  0.00  0.00     0.002 A 
ATOM      6  C8  UNL d   1       3.937   3.726  -1.286  0.00  0.00     0.002 A 
ENDROOT
BRANCH   1   7
ATOM      7  C2  UNL d   1       2.135   5.213  -2.249  0.00  0.00     0.056 C 
BRANCH   7   8
ATOM      8  C1  UNL d   1       2.227   4.453  -3.576  0.00  0.00     0.007 C 
ATOM      9  C   UNL d   1       0.953   3.693  -3.922  0.00  0.00     0.009 C 
ENDBRANCH   7   8
ENDBRANCH   1   7
TORSDOF 2
ENDMDL
