MODEL 1
REMARK minimizedAffinity 4.05440474
REMARK minimizedRMSD -1
REMARK  2 active torsions:
REMARK  status: ('A' for Active; 'I' for Inactive)
REMARK    1  A    between atoms: C1_2  and  C2_3 
REMARK    2  A    between atoms: C2_3  and  C3_4 
ROOT
ATOM      1  C3  UNL d   1      -1.290   2.816   1.651  0.00  0.00    -0.075 A 
ATOM      2  C4  UNL d   1       0.006   2.989   1.144  0.00  0.00     0.002 A 
ATOM      3  C5  UNL d   1       1.119   2.786   1.961  0.00  0.00     0.002 A 
ATOM      4  C6  UNL d   1       0.950   2.418   3.294  0.00  0.00    -0.004 A 
ATOM      5  C7  UNL d   1      -0.333   2.259   3.812  0.00  0.00     0.002 A 
ATOM      6  C8  UNL d   1      -1.448   2.458   2.996  0.00  0.00     0.002 A 
ENDROOT
BRANCH   1   7
ATOM      7  C2  UNL d   1      -2.498   3.006   0.764  0.00  0.00     0.056 C 
BRANCH   7   8
ATOM      8  C1  UNL d   1      -3.546   1.894   0.892  0.00  0.00     0.007 C 
ATOM      9  C   UNL d   1      -2.939   0.526   1.173  0.00  0.00     0.009 C 
ENDBRANCH   7   8
ENDBRANCH   1   7
TORSDOF 2
ENDMDL
