MODEL 1
REMARK minimizedAffinity 5.41773033
REMARK minimizedRMSD -1
REMARK  2 active torsions:
REMARK  status: ('A' for Active; 'I' for Inactive)
REMARK    1  A    between atoms: C1_2  and  C2_3 
REMARK    2  A    between atoms: C2_3  and  C3_4 
ROOT
ATOM      1  C3  UNL d   1      -2.036  -0.768   2.493  0.00  0.00    -0.075 A 
ATOM      2  C4  UNL d   1      -2.262  -2.125   2.767  0.00  0.00     0.002 A 
ATOM      3  C5  UNL d   1      -3.455  -2.538   3.363  0.00  0.00     0.002 A 
ATOM      4  C6  UNL d   1      -4.429  -1.601   3.700  0.00  0.00    -0.004 A 
ATOM      5  C7  UNL d   1      -4.207  -0.249   3.447  0.00  0.00     0.002 A 
ATOM      6  C8  UNL d   1      -3.017   0.166   2.848  0.00  0.00     0.002 A 
ENDROOT
BRANCH   1   7
ATOM      7  C2  UNL d   1      -0.760  -0.319   1.822  0.00  0.00     0.056 C 
BRANCH   7   8
ATOM      8  C1  UNL d   1      -0.396   1.145   2.091  0.00  0.00     0.007 C 
ATOM      9  C   UNL d   1       0.207   1.846   0.881  0.00  0.00     0.009 C 
ENDBRANCH   7   8
ENDBRANCH   1   7
TORSDOF 2
ENDMDL
