MODEL 1
REMARK minimizedAffinity 0.965158403
REMARK minimizedRMSD -1
REMARK  0 active torsions:
REMARK  status: ('A' for Active; 'I' for Inactive)
ROOT
ATOM      1  C1  DEN d   1       0.878   3.868   0.636  0.00  0.00     0.130 A 
ATOM      2  C2  DEN d   1       1.180   4.967  -0.278  0.00  0.00    -0.031 A 
ATOM      3  C3  DEN d   1       1.427   4.393  -1.615  0.00  0.00     0.027 A 
ATOM      4  C4  DEN d   1       1.368   1.923  -2.358  0.00  0.00     0.027 A 
ATOM      5  C5  DEN d   1       1.169   0.628  -1.934  0.00  0.00    -0.003 A 
ATOM      6  C6  DEN d   1       0.895   0.322  -0.627  0.00  0.00     0.001 A 
ATOM      7  C7  DEN d   1       0.767   1.328   0.294  0.00  0.00     0.017 A 
ATOM      8  C8  DEN d   1       0.974   2.636  -0.125  0.00  0.00    -0.094 A 
ATOM      9  C9  DEN d   1       1.238   2.926  -1.453  0.00  0.00    -0.072 A 
ENDROOT
TORSDOF 0
ENDMDL
