MODEL 1
REMARK minimizedAffinity -4.05842209
REMARK minimizedRMSD -1
REMARK  0 active torsions:
REMARK  status: ('A' for Active; 'I' for Inactive)
ROOT
ATOM      1  C1  DEN d   1       1.015   0.626   1.204  0.00  0.00     0.130 A 
ATOM      2  C2  DEN d   1       1.165   1.831   2.016  0.00  0.00    -0.031 A 
ATOM      3  C3  DEN d   1       1.365   2.974   1.103  0.00  0.00     0.027 A 
ATOM      4  C4  DEN d   1       1.452   2.997  -1.475  0.00  0.00     0.027 A 
ATOM      5  C5  DEN d   1       1.387   2.215  -2.607  0.00  0.00    -0.003 A 
ATOM      6  C6  DEN d   1       1.229   0.856  -2.547  0.00  0.00     0.001 A 
ATOM      7  C7  DEN d   1       1.085   0.241  -1.331  0.00  0.00     0.017 A 
ATOM      8  C8  DEN d   1       1.157   1.022  -0.185  0.00  0.00    -0.094 A 
ATOM      9  C9  DEN d   1       1.305   2.396  -0.266  0.00  0.00    -0.072 A 
ENDROOT
TORSDOF 0
ENDMDL
