MODEL 1
REMARK minimizedAffinity -5.8500905
REMARK minimizedRMSD -1
REMARK  0 active torsions:
REMARK  status: ('A' for Active; 'I' for Inactive)
ROOT
ATOM      1  C1  DEN d   1       1.269   0.028  -2.251  0.00  0.00     0.130 A 
ATOM      2  C2  DEN d   1       1.079  -1.092  -1.333  0.00  0.00    -0.031 A 
ATOM      3  C3  DEN d   1       1.011  -0.552   0.039  0.00  0.00     0.027 A 
ATOM      4  C4  DEN d   1       1.176   1.898   0.829  0.00  0.00     0.027 A 
ATOM      5  C5  DEN d   1       1.350   3.200   0.417  0.00  0.00    -0.003 A 
ATOM      6  C6  DEN d   1       1.542   3.531  -0.898  0.00  0.00     0.001 A 
ATOM      7  C7  DEN d   1       1.519   2.551  -1.854  0.00  0.00     0.017 A 
ATOM      8  C8  DEN d   1       1.351   1.234  -1.446  0.00  0.00    -0.094 A 
ATOM      9  C9  DEN d   1       1.147   0.921  -0.113  0.00  0.00    -0.072 A 
ENDROOT
TORSDOF 0
ENDMDL
