MODEL 1
REMARK minimizedAffinity -3.93214536
REMARK minimizedRMSD -1
REMARK  0 active torsions:
REMARK  status: ('A' for Active; 'I' for Inactive)
ROOT
ATOM      1  C1  DEN d   1       1.668   3.693  -1.907  0.00  0.00     0.130 A 
ATOM      2  C2  DEN d   1       1.484   4.643  -0.814  0.00  0.00    -0.031 A 
ATOM      3  C3  DEN d   1       1.105   3.882   0.394  0.00  0.00     0.027 A 
ATOM      4  C4  DEN d   1       0.792   1.337   0.675  0.00  0.00     0.027 A 
ATOM      5  C5  DEN d   1       0.827   0.123   0.026  0.00  0.00    -0.003 A 
ATOM      6  C6  DEN d   1       1.109   0.018  -1.311  0.00  0.00     0.001 A 
ATOM      7  C7  DEN d   1       1.412   1.143  -2.031  0.00  0.00     0.017 A 
ATOM      8  C8  DEN d   1       1.371   2.371  -1.385  0.00  0.00    -0.094 A 
ATOM      9  C9  DEN d   1       1.096   2.456  -0.030  0.00  0.00    -0.072 A 
ENDROOT
TORSDOF 0
ENDMDL
