MODEL 1
REMARK minimizedAffinity 0.572255969
REMARK minimizedRMSD -1
REMARK  0 active torsions:
REMARK  status: ('A' for Active; 'I' for Inactive)
ROOT
ATOM      1  C1  DEN d   1       2.330   3.981  -1.473  0.00  0.00     0.130 A 
ATOM      2  C2  DEN d   1       2.315   4.766  -0.241  0.00  0.00    -0.031 A 
ATOM      3  C3  DEN d   1       1.774   3.914   0.837  0.00  0.00     0.027 A 
ATOM      4  C4  DEN d   1       0.966   1.467   0.719  0.00  0.00     0.027 A 
ATOM      5  C5  DEN d   1       0.775   0.387  -0.113  0.00  0.00    -0.003 A 
ATOM      6  C6  DEN d   1       1.055   0.439  -1.453  0.00  0.00     0.001 A 
ATOM      7  C7  DEN d   1       1.584   1.582  -1.992  0.00  0.00     0.017 A 
ATOM      8  C8  DEN d   1       1.772   2.678  -1.160  0.00  0.00    -0.094 A 
ATOM      9  C9  DEN d   1       1.495   2.601   0.194  0.00  0.00    -0.072 A 
ENDROOT
TORSDOF 0
ENDMDL
