MODEL 1
REMARK minimizedAffinity 1.8151685
REMARK minimizedRMSD -1
REMARK  0 active torsions:
REMARK  status: ('A' for Active; 'I' for Inactive)
ROOT
ATOM      1  C1  DEN d   1       2.002   3.028  -1.576  0.00  0.00     0.130 A 
ATOM      2  C2  DEN d   1       1.608   2.975  -2.981  0.00  0.00    -0.031 A 
ATOM      3  C3  DEN d   1       1.096   1.618  -3.261  0.00  0.00     0.027 A 
ATOM      4  C4  DEN d   1       0.872  -0.393  -1.663  0.00  0.00     0.027 A 
ATOM      5  C5  DEN d   1       1.087  -0.834  -0.376  0.00  0.00    -0.003 A 
ATOM      6  C6  DEN d   1       1.649  -0.035   0.585  0.00  0.00     0.001 A 
ATOM      7  C7  DEN d   1       1.974   1.261   0.285  0.00  0.00     0.017 A 
ATOM      8  C8  DEN d   1       1.767   1.710  -1.013  0.00  0.00    -0.094 A 
ATOM      9  C9  DEN d   1       1.186   0.891  -1.967  0.00  0.00    -0.072 A 
ENDROOT
TORSDOF 0
ENDMDL
