MODEL 1
REMARK minimizedAffinity -1.03677058
REMARK minimizedRMSD -1
REMARK  0 active torsions:
REMARK  status: ('A' for Active; 'I' for Inactive)
ROOT
ATOM      1  C1  DEN d   1       1.730   3.895  -0.824  0.00  0.00     0.130 A 
ATOM      2  C2  DEN d   1       1.601   4.072  -2.268  0.00  0.00    -0.031 A 
ATOM      3  C3  DEN d   1       1.289   2.757  -2.863  0.00  0.00     0.027 A 
ATOM      4  C4  DEN d   1       0.989   0.478  -1.694  0.00  0.00     0.027 A 
ATOM      5  C5  DEN d   1       1.014  -0.174  -0.480  0.00  0.00    -0.003 A 
ATOM      6  C6  DEN d   1       1.310   0.474   0.690  0.00  0.00     0.001 A 
ATOM      7  C7  DEN d   1       1.550   1.823   0.677  0.00  0.00     0.017 A 
ATOM      8  C8  DEN d   1       1.533   2.485  -0.543  0.00  0.00    -0.094 A 
ATOM      9  C9  DEN d   1       1.219   1.815  -1.714  0.00  0.00    -0.072 A 
ENDROOT
TORSDOF 0
ENDMDL
