MODEL 1
REMARK minimizedAffinity -1.19837523
REMARK minimizedRMSD -1
REMARK  0 active torsions:
REMARK  status: ('A' for Active; 'I' for Inactive)
ROOT
ATOM      1  C1  DEN d   1       1.197   1.333  -2.273  0.00  0.00     0.130 A 
ATOM      2  C2  DEN d   1       1.746   0.020  -1.946  0.00  0.00    -0.031 A 
ATOM      3  C3  DEN d   1       2.123   0.025  -0.518  0.00  0.00     0.027 A 
ATOM      4  C4  DEN d   1       1.906   1.928   1.210  0.00  0.00     0.027 A 
ATOM      5  C5  DEN d   1       1.509   3.234   1.398  0.00  0.00    -0.003 A 
ATOM      6  C6  DEN d   1       1.016   4.001   0.377  0.00  0.00     0.001 A 
ATOM      7  C7  DEN d   1       0.865   3.456  -0.870  0.00  0.00     0.017 A 
ATOM      8  C8  DEN d   1       1.270   2.142  -1.070  0.00  0.00    -0.094 A 
ATOM      9  C9  DEN d   1       1.755   1.379  -0.022  0.00  0.00    -0.072 A 
ENDROOT
TORSDOF 0
ENDMDL
