MODEL 1
REMARK minimizedAffinity -1.91069615
REMARK minimizedRMSD -1
REMARK  0 active torsions:
REMARK  status: ('A' for Active; 'I' for Inactive)
ROOT
ATOM      1  C1  DEN d   1       0.512   1.857   1.270  0.00  0.00     0.130 A 
ATOM      2  C2  DEN d   1       0.639   3.308   1.167  0.00  0.00    -0.031 A 
ATOM      3  C3  DEN d   1       1.052   3.632  -0.214  0.00  0.00     0.027 A 
ATOM      4  C4  DEN d   1       1.500   2.037  -2.190  0.00  0.00     0.027 A 
ATOM      5  C5  DEN d   1       1.533   0.717  -2.582  0.00  0.00    -0.003 A 
ATOM      6  C6  DEN d   1       1.264  -0.309  -1.716  0.00  0.00     0.001 A 
ATOM      7  C7  DEN d   1       0.905  -0.029  -0.424  0.00  0.00     0.017 A 
ATOM      8  C8  DEN d   1       0.876   1.299  -0.019  0.00  0.00    -0.094 A 
ATOM      9  C9  DEN d   1       1.140   2.322  -0.913  0.00  0.00    -0.072 A 
ENDROOT
TORSDOF 0
ENDMDL
