MODEL 1
REMARK minimizedAffinity -2.09897256
REMARK minimizedRMSD -1
REMARK  0 active torsions:
REMARK  status: ('A' for Active; 'I' for Inactive)
ROOT
ATOM      1  C1  DEN d   1       1.592  -1.770   0.234  0.00  0.00     0.130 A 
ATOM      2  C2  DEN d   1       1.402  -2.433  -1.053  0.00  0.00    -0.031 A 
ATOM      3  C3  DEN d   1       1.136  -1.393  -2.067  0.00  0.00     0.027 A 
ATOM      4  C4  DEN d   1       1.006   1.166  -1.772  0.00  0.00     0.027 A 
ATOM      5  C5  DEN d   1       1.087   2.196  -0.861  0.00  0.00    -0.003 A 
ATOM      6  C6  DEN d   1       1.307   1.977   0.473  0.00  0.00     0.001 A 
ATOM      7  C7  DEN d   1       1.498   0.699   0.927  0.00  0.00     0.017 A 
ATOM      8  C8  DEN d   1       1.410  -0.346   0.017  0.00  0.00    -0.094 A 
ATOM      9  C9  DEN d   1       1.199  -0.102  -1.330  0.00  0.00    -0.072 A 
ENDROOT
TORSDOF 0
ENDMDL
