MODEL 1
REMARK minimizedAffinity -1.22748256
REMARK minimizedRMSD -1
REMARK  0 active torsions:
REMARK  status: ('A' for Active; 'I' for Inactive)
ROOT
ATOM      1  C1  DEN d   1       1.209  -0.198   0.343  0.00  0.00     0.130 A 
ATOM      2  C2  DEN d   1       1.105  -1.129  -0.777  0.00  0.00    -0.031 A 
ATOM      3  C3  DEN d   1       1.096  -0.341  -2.026  0.00  0.00     0.027 A 
ATOM      4  C4  DEN d   1       1.235   2.216  -2.333  0.00  0.00     0.027 A 
ATOM      5  C5  DEN d   1       1.323   3.422  -1.674  0.00  0.00    -0.003 A 
ATOM      6  C6  DEN d   1       1.344   3.508  -0.307  0.00  0.00     0.001 A 
ATOM      7  C7  DEN d   1       1.323   2.363   0.445  0.00  0.00     0.017 A 
ATOM      8  C8  DEN d   1       1.227   1.144  -0.212  0.00  0.00    -0.094 A 
ATOM      9  C9  DEN d   1       1.219   1.077  -1.595  0.00  0.00    -0.072 A 
ENDROOT
TORSDOF 0
ENDMDL
