MODEL 1
REMARK minimizedAffinity 4.02887869
REMARK minimizedRMSD -1
REMARK  0 active torsions:
REMARK  status: ('A' for Active; 'I' for Inactive)
ROOT
ATOM      1  C1  DEN d   1      -3.034   2.127   4.949  0.00  0.00     0.130 A 
ATOM      2  C2  DEN d   1      -2.261   3.278   5.410  0.00  0.00    -0.031 A 
ATOM      3  C3  DEN d   1      -2.079   4.193   4.265  0.00  0.00     0.027 A 
ATOM      4  C4  DEN d   1      -2.918   3.945   1.839  0.00  0.00     0.027 A 
ATOM      5  C5  DEN d   1      -3.609   3.131   0.968  0.00  0.00    -0.003 A 
ATOM      6  C6  DEN d   1      -4.122   1.921   1.351  0.00  0.00     0.001 A 
ATOM      7  C7  DEN d   1      -3.992   1.509   2.651  0.00  0.00     0.017 A 
ATOM      8  C8  DEN d   1      -3.291   2.320   3.533  0.00  0.00    -0.094 A 
ATOM      9  C9  DEN d   1      -2.790   3.546   3.130  0.00  0.00    -0.072 A 
ENDROOT
TORSDOF 0
ENDMDL
