MODEL 1
REMARK minimizedAffinity -1.14124191
REMARK minimizedRMSD -1
REMARK  0 active torsions:
REMARK  status: ('A' for Active; 'I' for Inactive)
ROOT
ATOM      1  C1  DEN d   1       0.686  -1.229  -1.852  0.00  0.00     0.130 A 
ATOM      2  C2  DEN d   1       1.084  -2.146  -0.787  0.00  0.00    -0.031 A 
ATOM      3  C3  DEN d   1       1.590  -1.341   0.343  0.00  0.00     0.027 A 
ATOM      4  C4  DEN d   1       1.789   1.222   0.550  0.00  0.00     0.027 A 
ATOM      5  C5  DEN d   1       1.588   2.419  -0.100  0.00  0.00    -0.003 A 
ATOM      6  C6  DEN d   1       1.108   2.483  -1.381  0.00  0.00     0.001 A 
ATOM      7  C7  DEN d   1       0.770   1.329  -2.038  0.00  0.00     0.017 A 
ATOM      8  C8  DEN d   1       0.977   0.117  -1.392  0.00  0.00    -0.094 A 
ATOM      9  C9  DEN d   1       1.452   0.075  -0.092  0.00  0.00    -0.072 A 
ENDROOT
TORSDOF 0
ENDMDL
