MODEL 1
REMARK minimizedAffinity -5.22589254
REMARK minimizedRMSD -1
REMARK  0 active torsions:
REMARK  status: ('A' for Active; 'I' for Inactive)
ROOT
ATOM      1  C1  DEN d   1       1.006   0.764  -1.315  0.00  0.00     0.130 A 
ATOM      2  C2  DEN d   1       0.920   0.103  -0.015  0.00  0.00    -0.031 A 
ATOM      3  C3  DEN d   1       1.053   1.135   1.032  0.00  0.00     0.027 A 
ATOM      4  C4  DEN d   1       1.377   3.680   0.770  0.00  0.00     0.027 A 
ATOM      5  C5  DEN d   1       1.521   4.706  -0.138  0.00  0.00    -0.003 A 
ATOM      6  C6  DEN d   1       1.538   4.487  -1.490  0.00  0.00     0.001 A 
ATOM      7  C7  DEN d   1       1.363   3.218  -1.975  0.00  0.00     0.017 A 
ATOM      8  C8  DEN d   1       1.224   2.177  -1.065  0.00  0.00    -0.094 A 
ATOM      9  C9  DEN d   1       1.198   2.421   0.298  0.00  0.00    -0.072 A 
ENDROOT
TORSDOF 0
ENDMDL
