MODEL 1
REMARK minimizedAffinity -4.74375486
REMARK minimizedRMSD -1
REMARK  0 active torsions:
REMARK  status: ('A' for Active; 'I' for Inactive)
ROOT
ATOM      1  C1  BNZ d   1       0.428  -0.381  -0.690  0.00  0.00     0.000 A 
ATOM      2  C2  BNZ d   1       1.259  -0.566  -1.763  0.00  0.00     0.000 A 
ATOM      3  C3  BNZ d   1       2.068   0.444  -2.203  0.00  0.00     0.000 A 
ATOM      4  C4  BNZ d   1       2.017   1.647  -1.596  0.00  0.00     0.000 A 
ATOM      5  C5  BNZ d   1       1.178   1.852  -0.519  0.00  0.00     0.000 A 
ATOM      6  C6  BNZ d   1       0.393   0.821  -0.054  0.00  0.00     0.000 A 
ENDROOT
TORSDOF 0
ENDMDL
