MODEL 1
REMARK minimizedAffinity -4.7212491
REMARK minimizedRMSD -1
REMARK  0 active torsions:
REMARK  status: ('A' for Active; 'I' for Inactive)
ROOT
ATOM      1  C1  BNZ d   1       2.027   0.755  -2.279  0.00  0.00     0.000 A 
ATOM      2  C2  BNZ d   1       1.865   1.975  -1.679  0.00  0.00     0.000 A 
ATOM      3  C3  BNZ d   1       1.159   2.094  -0.515  0.00  0.00     0.000 A 
ATOM      4  C4  BNZ d   1       0.584   1.001   0.027  0.00  0.00     0.000 A 
ATOM      5  C5  BNZ d   1       0.730  -0.235  -0.571  0.00  0.00     0.000 A 
ATOM      6  C6  BNZ d   1       1.474  -0.357  -1.723  0.00  0.00     0.000 A 
ENDROOT
TORSDOF 0
ENDMDL
