MODEL 1
REMARK minimizedAffinity -3.55622053
REMARK minimizedRMSD -1
REMARK  0 active torsions:
REMARK  status: ('A' for Active; 'I' for Inactive)
ROOT
ATOM      1  C1  BNZ d   1      -0.188   0.566   1.234  0.00  0.00     0.000 A 
ATOM      2  C2  BNZ d   1      -0.447  -0.771   1.371  0.00  0.00     0.000 A 
ATOM      3  C3  BNZ d   1      -0.062  -1.661   0.407  0.00  0.00     0.000 A 
ATOM      4  C4  BNZ d   1       0.544  -1.208  -0.709  0.00  0.00     0.000 A 
ATOM      5  C5  BNZ d   1       0.804   0.139  -0.866  0.00  0.00     0.000 A 
ATOM      6  C6  BNZ d   1       0.449   1.027   0.123  0.00  0.00     0.000 A 
ENDROOT
TORSDOF 0
ENDMDL
