MODEL 1
REMARK minimizedAffinity -4.89421558
REMARK minimizedRMSD -1
REMARK  0 active torsions:
REMARK  status: ('A' for Active; 'I' for Inactive)
ROOT
ATOM      1  C1  BNZ d   1       1.426   1.723  -0.734  0.00  0.00     0.000 A 
ATOM      2  C2  BNZ d   1       1.769   0.838  -1.721  0.00  0.00     0.000 A 
ATOM      3  C3  BNZ d   1       1.227  -0.416  -1.756  0.00  0.00     0.000 A 
ATOM      4  C4  BNZ d   1       0.375  -0.798  -0.783  0.00  0.00     0.000 A 
ATOM      5  C5  BNZ d   1       0.026   0.079   0.224  0.00  0.00     0.000 A 
ATOM      6  C6  BNZ d   1       0.543   1.354   0.234  0.00  0.00     0.000 A 
ENDROOT
TORSDOF 0
ENDMDL
