MODEL 1
REMARK minimizedAffinity -4.4181509
REMARK minimizedRMSD -1
REMARK  0 active torsions:
REMARK  status: ('A' for Active; 'I' for Inactive)
ROOT
ATOM      1  C1  BNZ d   1       0.016  -0.096  -0.803  0.00  0.00     0.000 A 
ATOM      2  C2  BNZ d   1       0.855  -0.524  -1.798  0.00  0.00     0.000 A 
ATOM      3  C3  BNZ d   1       1.892   0.257  -2.223  0.00  0.00     0.000 A 
ATOM      4  C4  BNZ d   1       2.065   1.481  -1.683  0.00  0.00     0.000 A 
ATOM      5  C5  BNZ d   1       1.223   1.930  -0.686  0.00  0.00     0.000 A 
ATOM      6  C6  BNZ d   1       0.204   1.125  -0.233  0.00  0.00     0.000 A 
ENDROOT
TORSDOF 0
ENDMDL
