MODEL 1
REMARK minimizedAffinity -3.7064786
REMARK minimizedRMSD -1
REMARK  0 active torsions:
REMARK  status: ('A' for Active; 'I' for Inactive)
ROOT
ATOM      1  C1  BNZ d   1       0.034  -0.162  -1.681  0.00  0.00     0.000 A 
ATOM      2  C2  BNZ d   1       1.025  -0.370  -2.604  0.00  0.00     0.000 A 
ATOM      3  C3  BNZ d   1       2.263   0.184  -2.438  0.00  0.00     0.000 A 
ATOM      4  C4  BNZ d   1       2.497   0.978  -1.373  0.00  0.00     0.000 A 
ATOM      5  C5  BNZ d   1       1.506   1.205  -0.439  0.00  0.00     0.000 A 
ATOM      6  C6  BNZ d   1       0.273   0.614  -0.589  0.00  0.00     0.000 A 
ENDROOT
TORSDOF 0
ENDMDL
