MODEL 1
REMARK minimizedAffinity -4.41240549
REMARK minimizedRMSD -1
REMARK  0 active torsions:
REMARK  status: ('A' for Active; 'I' for Inactive)
ROOT
ATOM      1  C1  BNZ d   1       0.962  -0.153  -2.758  0.00  0.00     0.000 A 
ATOM      2  C2  BNZ d   1       0.083   0.108  -1.740  0.00  0.00     0.000 A 
ATOM      3  C3  BNZ d   1       0.478   0.815  -0.639  0.00  0.00     0.000 A 
ATOM      4  C4  BNZ d   1       1.759   1.226  -0.538  0.00  0.00     0.000 A 
ATOM      5  C5  BNZ d   1       2.659   0.962  -1.552  0.00  0.00     0.000 A 
ATOM      6  C6  BNZ d   1       2.248   0.284  -2.676  0.00  0.00     0.000 A 
ENDROOT
TORSDOF 0
ENDMDL
