MODEL 1
REMARK minimizedAffinity -4.52090263
REMARK minimizedRMSD -1
REMARK  0 active torsions:
REMARK  status: ('A' for Active; 'I' for Inactive)
ROOT
ATOM      1  C1  BNZ d   1       4.732  -0.423  -1.131  0.00  0.00     0.000 A 
ATOM      2  C2  BNZ d   1       3.980  -1.361  -1.786  0.00  0.00     0.000 A 
ATOM      3  C3  BNZ d   1       2.749  -1.045  -2.289  0.00  0.00     0.000 A 
ATOM      4  C4  BNZ d   1       2.255   0.196  -2.101  0.00  0.00     0.000 A 
ATOM      5  C5  BNZ d   1       2.997   1.150  -1.434  0.00  0.00     0.000 A 
ATOM      6  C6  BNZ d   1       4.252   0.839  -0.963  0.00  0.00     0.000 A 
ENDROOT
TORSDOF 0
ENDMDL
