MODEL 1
REMARK minimizedAffinity -3.62287211
REMARK minimizedRMSD -1
REMARK  0 active torsions:
REMARK  status: ('A' for Active; 'I' for Inactive)
ROOT
ATOM      1  C1  BNZ d   1       0.807   1.169   0.455  0.00  0.00     0.000 A 
ATOM      2  C2  BNZ d   1       1.355   1.552  -0.740  0.00  0.00     0.000 A 
ATOM      3  C3  BNZ d   1       1.290   0.735  -1.834  0.00  0.00     0.000 A 
ATOM      4  C4  BNZ d   1       0.713  -0.479  -1.721  0.00  0.00     0.000 A 
ATOM      5  C5  BNZ d   1       0.164  -0.883  -0.520  0.00  0.00     0.000 A 
ATOM      6  C6  BNZ d   1       0.197  -0.042   0.568  0.00  0.00     0.000 A 
ENDROOT
TORSDOF 0
ENDMDL
