MODEL 1
REMARK minimizedAffinity -3.8857708
REMARK minimizedRMSD -1
REMARK  0 active torsions:
REMARK  status: ('A' for Active; 'I' for Inactive)
ROOT
ATOM      1  C1  BNZ d   1       0.219  -0.863  -0.585  0.00  0.00     0.000 A 
ATOM      2  C2  BNZ d   1      -0.073   0.301   0.075  0.00  0.00     0.000 A 
ATOM      3  C3  BNZ d   1      -0.550   0.278   1.356  0.00  0.00     0.000 A 
ATOM      4  C4  BNZ d   1      -0.772  -0.907   1.960  0.00  0.00     0.000 A 
ATOM      5  C5  BNZ d   1      -0.490  -2.090   1.305  0.00  0.00     0.000 A 
ATOM      6  C6  BNZ d   1       0.027  -2.062   0.030  0.00  0.00     0.000 A 
ENDROOT
TORSDOF 0
ENDMDL
