MODEL 1
REMARK minimizedAffinity -4.38495255
REMARK minimizedRMSD -1
REMARK  0 active torsions:
REMARK  status: ('A' for Active; 'I' for Inactive)
ROOT
ATOM      1  C1  BNZ d   1       1.847  -1.398  -2.306  0.00  0.00     0.000 A 
ATOM      2  C2  BNZ d   1       1.303  -2.489  -1.683  0.00  0.00     0.000 A 
ATOM      3  C3  BNZ d   1       0.275  -2.346  -0.794  0.00  0.00     0.000 A 
ATOM      4  C4  BNZ d   1      -0.180  -1.111  -0.498  0.00  0.00     0.000 A 
ATOM      5  C5  BNZ d   1       0.366  -0.001  -1.111  0.00  0.00     0.000 A 
ATOM      6  C6  BNZ d   1       1.374  -0.151  -2.035  0.00  0.00     0.000 A 
ENDROOT
TORSDOF 0
ENDMDL
