MODEL 1
REMARK minimizedAffinity -4.82004356
REMARK minimizedRMSD -1
REMARK  0 active torsions:
REMARK  status: ('A' for Active; 'I' for Inactive)
ROOT
ATOM      1  C1  BNZ d   1       0.133  -1.019  -0.325  0.00  0.00     0.000 A 
ATOM      2  C2  BNZ d   1       0.743  -1.336  -1.509  0.00  0.00     0.000 A 
ATOM      3  C3  BNZ d   1       1.486  -0.409  -2.184  0.00  0.00     0.000 A 
ATOM      4  C4  BNZ d   1       1.585   0.844  -1.696  0.00  0.00     0.000 A 
ATOM      5  C5  BNZ d   1       0.968   1.183  -0.508  0.00  0.00     0.000 A 
ATOM      6  C6  BNZ d   1       0.253   0.236   0.189  0.00  0.00     0.000 A 
ENDROOT
TORSDOF 0
ENDMDL
