MODEL 1
REMARK minimizedAffinity -4.03880119
REMARK minimizedRMSD -1
REMARK  0 active torsions:
REMARK  status: ('A' for Active; 'I' for Inactive)
ROOT
ATOM      1  C1  BNZ d   1      -0.197  -0.929  -0.881  0.00  0.00     0.000 A 
ATOM      2  C2  BNZ d   1      -0.491  -1.012   0.454  0.00  0.00     0.000 A 
ATOM      3  C3  BNZ d   1      -0.111  -0.022   1.317  0.00  0.00     0.000 A 
ATOM      4  C4  BNZ d   1       0.596   1.028   0.852  0.00  0.00     0.000 A 
ATOM      5  C5  BNZ d   1       0.909   1.121  -0.489  0.00  0.00     0.000 A 
ATOM      6  C6  BNZ d   1       0.491   0.142  -1.362  0.00  0.00     0.000 A 
ENDROOT
TORSDOF 0
ENDMDL
