MODEL 1
REMARK minimizedAffinity -4.77697086
REMARK minimizedRMSD -1
REMARK  0 active torsions:
REMARK  status: ('A' for Active; 'I' for Inactive)
ROOT
ATOM      1  C1  BNZ d   1       1.980   0.101  -2.334  0.00  0.00     0.000 A 
ATOM      2  C2  BNZ d   1       2.184   1.137  -1.461  0.00  0.00     0.000 A 
ATOM      3  C3  BNZ d   1       1.464   1.229  -0.303  0.00  0.00     0.000 A 
ATOM      4  C4  BNZ d   1       0.514   0.309  -0.039  0.00  0.00     0.000 A 
ATOM      5  C5  BNZ d   1       0.290  -0.736  -0.913  0.00  0.00     0.000 A 
ATOM      6  C6  BNZ d   1       1.044  -0.847  -2.059  0.00  0.00     0.000 A 
ENDROOT
TORSDOF 0
ENDMDL
