MODEL 1
REMARK minimizedAffinity -2.89616203
REMARK minimizedRMSD -1
REMARK  0 active torsions:
REMARK  status: ('A' for Active; 'I' for Inactive)
ROOT
ATOM      1  C1  BNZ d   1       0.375  -0.514  -0.142  0.00  0.00     0.000 A 
ATOM      2  C2  BNZ d   1       0.738  -1.052  -1.348  0.00  0.00     0.000 A 
ATOM      3  C3  BNZ d   1       1.451  -0.318  -2.255  0.00  0.00     0.000 A 
ATOM      4  C4  BNZ d   1       1.764   0.963  -1.972  0.00  0.00     0.000 A 
ATOM      5  C5  BNZ d   1       1.397   1.522  -0.765  0.00  0.00     0.000 A 
ATOM      6  C6  BNZ d   1       0.714   0.768   0.162  0.00  0.00     0.000 A 
ENDROOT
TORSDOF 0
ENDMDL
