MODEL 1
REMARK minimizedAffinity -3.18169117
REMARK minimizedRMSD -1
REMARK  0 active torsions:
REMARK  status: ('A' for Active; 'I' for Inactive)
ROOT
ATOM      1  C1  BNZ d   1       1.938   1.165  -1.499  0.00  0.00     0.000 A 
ATOM      2  C2  BNZ d   1       1.108   1.633  -0.514  0.00  0.00     0.000 A 
ATOM      3  C3  BNZ d   1       0.382   0.770   0.258  0.00  0.00     0.000 A 
ATOM      4  C4  BNZ d   1       0.455  -0.556   0.019  0.00  0.00     0.000 A 
ATOM      5  C5  BNZ d   1       1.279  -1.042  -0.976  0.00  0.00     0.000 A 
ATOM      6  C6  BNZ d   1       2.038  -0.173  -1.726  0.00  0.00     0.000 A 
ENDROOT
TORSDOF 0
ENDMDL
