MODEL 1
REMARK minimizedAffinity 12.4833174
REMARK minimizedRMSD -1
REMARK  0 active torsions:
REMARK  status: ('A' for Active; 'I' for Inactive)
ROOT
ATOM      1  C2' OXE d   1      -2.497  -0.500  -2.566  0.00  0.00     0.078 C 
ATOM      2  C1' OXE d   1      -1.397  -2.728  -3.872  0.00  0.00     0.078 C 
ATOM      3  C1  OXE d   1      -1.372  -2.713  -2.364  0.00  0.00    -0.078 A 
ATOM      4  C2  OXE d   1      -1.870  -1.598  -1.734  0.00  0.00    -0.078 A 
ATOM      5  C3  OXE d   1      -1.920  -1.556  -0.344  0.00  0.00     0.003 A 
ATOM      6  C4  OXE d   1      -1.329  -2.571   0.418  0.00  0.00    -0.002 A 
ATOM      7  C5  OXE d   1      -0.781  -3.698  -0.204  0.00  0.00    -0.002 A 
ATOM      8  C6  OXE d   1      -0.832  -3.804  -1.590  0.00  0.00     0.003 A 
ENDROOT
TORSDOF 0
ENDMDL
