MODEL 1
REMARK minimizedAffinity 17.2478333
REMARK minimizedRMSD -1
REMARK  0 active torsions:
REMARK  status: ('A' for Active; 'I' for Inactive)
ROOT
ATOM      1  C2' OXE d   1      -4.486   1.912  -5.981  0.00  0.00     0.078 C 
ATOM      2  C1' OXE d   1      -2.697   3.041  -4.136  0.00  0.00     0.078 C 
ATOM      3  C1  OXE d   1      -3.841   3.896  -4.620  0.00  0.00    -0.078 A 
ATOM      4  C2  OXE d   1      -4.685   3.352  -5.558  0.00  0.00    -0.078 A 
ATOM      5  C3  OXE d   1      -5.788   4.078  -5.998  0.00  0.00     0.003 A 
ATOM      6  C4  OXE d   1      -5.959   5.412  -5.609  0.00  0.00    -0.002 A 
ATOM      7  C5  OXE d   1      -5.088   5.999  -4.684  0.00  0.00    -0.002 A 
ATOM      8  C6  OXE d   1      -4.051   5.243  -4.149  0.00  0.00     0.003 A 
ENDROOT
TORSDOF 0
ENDMDL
