MODEL 1
REMARK minimizedAffinity 4.97263288
REMARK minimizedRMSD -1
REMARK  0 active torsions:
REMARK  status: ('A' for Active; 'I' for Inactive)
ROOT
ATOM      1  C2' OXE d   1       3.264   0.047   3.382  0.00  0.00     0.078 C 
ATOM      2  C1' OXE d   1       6.000   0.266   3.972  0.00  0.00     0.078 C 
ATOM      3  C1  OXE d   1       5.084   1.356   4.469  0.00  0.00    -0.078 A 
ATOM      4  C2  OXE d   1       3.754   1.265   4.136  0.00  0.00    -0.078 A 
ATOM      5  C3  OXE d   1       2.857   2.215   4.615  0.00  0.00     0.003 A 
ATOM      6  C4  OXE d   1       3.319   3.344   5.302  0.00  0.00    -0.002 A 
ATOM      7  C5  OXE d   1       4.675   3.476   5.618  0.00  0.00    -0.002 A 
ATOM      8  C6  OXE d   1       5.563   2.472   5.246  0.00  0.00     0.003 A 
ENDROOT
TORSDOF 0
ENDMDL
