MODEL 1
REMARK minimizedAffinity 11.1157465
REMARK minimizedRMSD -1
REMARK  0 active torsions:
REMARK  status: ('A' for Active; 'I' for Inactive)
ROOT
ATOM      1  C2' OXE d   1       0.307  -1.822   5.999  0.00  0.00     0.078 C 
ATOM      2  C1' OXE d   1      -1.883  -0.065   5.998  0.00  0.00     0.078 C 
ATOM      3  C1  OXE d   1      -2.063  -1.415   5.348  0.00  0.00    -0.078 A 
ATOM      4  C2  OXE d   1      -0.972  -2.250   5.312  0.00  0.00    -0.078 A 
ATOM      5  C3  OXE d   1      -1.099  -3.527   4.774  0.00  0.00     0.003 A 
ATOM      6  C4  OXE d   1      -2.283  -3.911   4.132  0.00  0.00    -0.002 A 
ATOM      7  C5  OXE d   1      -3.393  -3.061   4.122  0.00  0.00    -0.002 A 
ATOM      8  C6  OXE d   1      -3.314  -1.829   4.762  0.00  0.00     0.003 A 
ENDROOT
TORSDOF 0
ENDMDL
