MODEL 1
REMARK minimizedAffinity 20.271059
REMARK minimizedRMSD -1
REMARK  0 active torsions:
REMARK  status: ('A' for Active; 'I' for Inactive)
ROOT
ATOM      1  C2' OXE d   1      -2.677   1.792  -3.078  0.00  0.00     0.078 C 
ATOM      2  C1' OXE d   1      -3.372   3.301  -5.340  0.00  0.00     0.078 C 
ATOM      3  C1  OXE d   1      -1.908   3.027  -5.100  0.00  0.00    -0.078 A 
ATOM      4  C2  OXE d   1      -1.574   2.327  -3.966  0.00  0.00    -0.078 A 
ATOM      5  C3  OXE d   1      -0.243   2.000  -3.725  0.00  0.00     0.003 A 
ATOM      6  C4  OXE d   1       0.772   2.508  -4.546  0.00  0.00    -0.002 A 
ATOM      7  C5  OXE d   1       0.456   3.256  -5.684  0.00  0.00    -0.002 A 
ATOM      8  C6  OXE d   1      -0.879   3.488  -5.999  0.00  0.00     0.003 A 
ENDROOT
TORSDOF 0
ENDMDL
