MODEL 1
REMARK minimizedAffinity 11.4715443
REMARK minimizedRMSD -1
REMARK  0 active torsions:
REMARK  status: ('A' for Active; 'I' for Inactive)
ROOT
ATOM      1  C2' OXE d   1      -3.129  -1.893   1.457  0.00  0.00     0.078 C 
ATOM      2  C1' OXE d   1      -0.938  -3.306   0.416  0.00  0.00     0.078 C 
ATOM      3  C1  OXE d   1      -1.530  -2.205  -0.428  0.00  0.00    -0.078 A 
ATOM      4  C2  OXE d   1      -2.631  -1.551   0.069  0.00  0.00    -0.078 A 
ATOM      5  C3  OXE d   1      -3.184  -0.491  -0.645  0.00  0.00     0.003 A 
ATOM      6  C4  OXE d   1      -2.724  -0.187  -1.932  0.00  0.00    -0.002 A 
ATOM      7  C5  OXE d   1      -1.628  -0.868  -2.473  0.00  0.00    -0.002 A 
ATOM      8  C6  OXE d   1      -0.995  -1.849  -1.719  0.00  0.00     0.003 A 
ENDROOT
TORSDOF 0
ENDMDL
