MODEL 1
REMARK minimizedAffinity 12.5868769
REMARK minimizedRMSD -1
REMARK  0 active torsions:
REMARK  status: ('A' for Active; 'I' for Inactive)
ROOT
ATOM      1  C2' OXE d   1       4.743   3.994   3.459  0.00  0.00     0.078 C 
ATOM      2  C1' OXE d   1       4.111   1.992   1.596  0.00  0.00     0.078 C 
ATOM      3  C1  OXE d   1       4.360   3.386   1.074  0.00  0.00    -0.078 A 
ATOM      4  C2  OXE d   1       4.623   4.369   1.998  0.00  0.00    -0.078 A 
ATOM      5  C3  OXE d   1       4.913   5.660   1.566  0.00  0.00     0.003 A 
ATOM      6  C4  OXE d   1       4.790   6.000   0.214  0.00  0.00    -0.002 A 
ATOM      7  C5  OXE d   1       4.484   5.022  -0.739  0.00  0.00    -0.002 A 
ATOM      8  C6  OXE d   1       4.308   3.705  -0.331  0.00  0.00     0.003 A 
ENDROOT
TORSDOF 0
ENDMDL
