MODEL 1
REMARK minimizedAffinity 8.63109493
REMARK minimizedRMSD -1
REMARK  0 active torsions:
REMARK  status: ('A' for Active; 'I' for Inactive)
ROOT
ATOM      1  C2' OXE d   1      -4.134   3.690  -5.223  0.00  0.00     0.078 C 
ATOM      2  C1' OXE d   1      -3.262   1.918  -3.228  0.00  0.00     0.078 C 
ATOM      3  C1  OXE d   1      -2.224   2.504  -4.152  0.00  0.00    -0.078 A 
ATOM      4  C2  OXE d   1      -2.665   3.333  -5.154  0.00  0.00    -0.078 A 
ATOM      5  C3  OXE d   1      -1.743   3.944  -6.000  0.00  0.00     0.003 A 
ATOM      6  C4  OXE d   1      -0.387   3.601  -5.936  0.00  0.00    -0.002 A 
ATOM      7  C5  OXE d   1       0.078   2.727  -4.948  0.00  0.00    -0.002 A 
ATOM      8  C6  OXE d   1      -0.819   2.204  -4.023  0.00  0.00     0.003 A 
ENDROOT
TORSDOF 0
ENDMDL
