MODEL 1
REMARK minimizedAffinity 5.27432919
REMARK minimizedRMSD -1
REMARK  0 active torsions:
REMARK  status: ('A' for Active; 'I' for Inactive)
ROOT
ATOM      1  C2' OXE d   1      -1.894  -2.189   0.574  0.00  0.00     0.078 C 
ATOM      2  C1' OXE d   1      -2.622  -2.697   3.237  0.00  0.00     0.078 C 
ATOM      3  C1  OXE d   1      -1.856  -3.768   2.500  0.00  0.00    -0.078 A 
ATOM      4  C2  OXE d   1      -1.545  -3.529   1.183  0.00  0.00    -0.078 A 
ATOM      5  C3  OXE d   1      -0.792  -4.461   0.474  0.00  0.00     0.003 A 
ATOM      6  C4  OXE d   1      -0.482  -5.702   1.041  0.00  0.00    -0.002 A 
ATOM      7  C5  OXE d   1      -0.825  -5.981   2.369  0.00  0.00    -0.002 A 
ATOM      8  C6  OXE d   1      -1.473  -5.010   3.124  0.00  0.00     0.003 A 
ENDROOT
TORSDOF 0
ENDMDL
