MODEL 1
REMARK minimizedAffinity 21.1529713
REMARK minimizedRMSD -1
REMARK  0 active torsions:
REMARK  status: ('A' for Active; 'I' for Inactive)
ROOT
ATOM      1  C2' OXE d   1      -3.210   2.795  -4.146  0.00  0.00     0.078 C 
ATOM      2  C1' OXE d   1      -3.483   4.984  -2.411  0.00  0.00     0.078 C 
ATOM      3  C1  OXE d   1      -4.337   4.961  -3.654  0.00  0.00    -0.078 A 
ATOM      4  C2  OXE d   1      -4.163   3.909  -4.521  0.00  0.00    -0.078 A 
ATOM      5  C3  OXE d   1      -4.965   3.811  -5.654  0.00  0.00     0.003 A 
ATOM      6  C4  OXE d   1      -5.837   4.851  -5.999  0.00  0.00    -0.002 A 
ATOM      7  C5  OXE d   1      -6.000   5.950  -5.150  0.00  0.00    -0.002 A 
ATOM      8  C6  OXE d   1      -5.291   6.000  -3.955  0.00  0.00     0.003 A 
ENDROOT
TORSDOF 0
ENDMDL
