MODEL 1
REMARK minimizedAffinity 9.29591084
REMARK minimizedRMSD -1
REMARK  0 active torsions:
REMARK  status: ('A' for Active; 'I' for Inactive)
ROOT
ATOM      1  C2' OXE d   1      -3.003  -1.488   5.676  0.00  0.00     0.078 C 
ATOM      2  C1' OXE d   1      -5.787  -1.306   5.993  0.00  0.00     0.078 C 
ATOM      3  C1  OXE d   1      -5.000  -0.020   5.928  0.00  0.00    -0.078 A 
ATOM      4  C2  OXE d   1      -3.634  -0.120   5.820  0.00  0.00    -0.078 A 
ATOM      5  C3  OXE d   1      -2.866   1.035   5.701  0.00  0.00     0.003 A 
ATOM      6  C4  OXE d   1      -3.456   2.297   5.845  0.00  0.00    -0.002 A 
ATOM      7  C5  OXE d   1      -4.842   2.419   5.996  0.00  0.00    -0.002 A 
ATOM      8  C6  OXE d   1      -5.631   1.275   5.997  0.00  0.00     0.003 A 
ENDROOT
TORSDOF 0
ENDMDL
