MODEL 1
REMARK minimizedAffinity 8.82593536
REMARK minimizedRMSD -1
REMARK  0 active torsions:
REMARK  status: ('A' for Active; 'I' for Inactive)
ROOT
ATOM      1  C2' OXE d   1      -3.142   3.014  -3.501  0.00  0.00     0.078 C 
ATOM      2  C1' OXE d   1      -3.697   5.530  -2.388  0.00  0.00     0.078 C 
ATOM      3  C1  OXE d   1      -4.429   5.141  -3.648  0.00  0.00    -0.078 A 
ATOM      4  C2  OXE d   1      -4.117   3.927  -4.211  0.00  0.00    -0.078 A 
ATOM      5  C3  OXE d   1      -4.803   3.496  -5.343  0.00  0.00     0.003 A 
ATOM      6  C4  OXE d   1      -5.697   4.351  -5.999  0.00  0.00    -0.002 A 
ATOM      7  C5  OXE d   1      -5.999   5.607  -5.464  0.00  0.00    -0.002 A 
ATOM      8  C6  OXE d   1      -5.408   6.000  -4.269  0.00  0.00     0.003 A 
ENDROOT
TORSDOF 0
ENDMDL
