MODEL 1
REMARK minimizedAffinity 6.56153202
REMARK minimizedRMSD -1
REMARK  0 active torsions:
REMARK  status: ('A' for Active; 'I' for Inactive)
ROOT
ATOM      1  C2' OXE d   1      -2.661  -0.320  -2.527  0.00  0.00     0.078 C 
ATOM      2  C1' OXE d   1      -0.753  -2.166  -3.441  0.00  0.00     0.078 C 
ATOM      3  C1  OXE d   1      -1.172  -2.246  -1.994  0.00  0.00    -0.078 A 
ATOM      4  C2  OXE d   1      -2.072  -1.309  -1.544  0.00  0.00    -0.078 A 
ATOM      5  C3  OXE d   1      -2.534  -1.372  -0.233  0.00  0.00     0.003 A 
ATOM      6  C4  OXE d   1      -1.976  -2.283   0.672  0.00  0.00    -0.002 A 
ATOM      7  C5  OXE d   1      -1.030  -3.220   0.244  0.00  0.00    -0.002 A 
ATOM      8  C6  OXE d   1      -0.649  -3.242  -1.093  0.00  0.00     0.003 A 
ENDROOT
TORSDOF 0
ENDMDL
