MODEL 1
REMARK minimizedAffinity 11.1587381
REMARK minimizedRMSD -1
REMARK  0 active torsions:
REMARK  status: ('A' for Active; 'I' for Inactive)
ROOT
ATOM      1  C2' OXE d   1      -1.470  -2.661  -2.857  0.00  0.00     0.078 C 
ATOM      2  C1' OXE d   1      -1.481  -1.914  -0.151  0.00  0.00     0.078 C 
ATOM      3  C1  OXE d   1      -1.117  -3.339  -0.486  0.00  0.00    -0.078 A 
ATOM      4  C2  OXE d   1      -1.159  -3.708  -1.809  0.00  0.00    -0.078 A 
ATOM      5  C3  OXE d   1      -0.780  -4.995  -2.178  0.00  0.00     0.003 A 
ATOM      6  C4  OXE d   1      -0.504  -5.960  -1.202  0.00  0.00    -0.002 A 
ATOM      7  C5  OXE d   1      -0.493  -5.616   0.153  0.00  0.00    -0.002 A 
ATOM      8  C6  OXE d   1      -0.755  -4.302   0.525  0.00  0.00     0.003 A 
ENDROOT
TORSDOF 0
ENDMDL
