MODEL 1
REMARK minimizedAffinity 8.30589104
REMARK minimizedRMSD -1
REMARK  0 active torsions:
REMARK  status: ('A' for Active; 'I' for Inactive)
ROOT
ATOM      1  C2' OXE d   1      -3.752   2.996  -5.623  0.00  0.00     0.078 C 
ATOM      2  C1' OXE d   1      -3.040   1.456  -3.386  0.00  0.00     0.078 C 
ATOM      3  C1  OXE d   1      -1.933   2.126  -4.160  0.00  0.00    -0.078 A 
ATOM      4  C2  OXE d   1      -2.286   2.839  -5.281  0.00  0.00    -0.078 A 
ATOM      5  C3  OXE d   1      -1.310   3.522  -6.000  0.00  0.00     0.003 A 
ATOM      6  C4  OXE d   1       0.045   3.364  -5.683  0.00  0.00    -0.002 A 
ATOM      7  C5  OXE d   1       0.430   2.610  -4.569  0.00  0.00    -0.002 A 
ATOM      8  C6  OXE d   1      -0.547   2.021  -3.774  0.00  0.00     0.003 A 
ENDROOT
TORSDOF 0
ENDMDL
