MODEL 1
REMARK minimizedAffinity 16.1609192
REMARK minimizedRMSD -1
REMARK  0 active torsions:
REMARK  status: ('A' for Active; 'I' for Inactive)
ROOT
ATOM      1  C2' OXE d   1       3.826   3.768  -0.107  0.00  0.00     0.078 C 
ATOM      2  C1' OXE d   1       3.873   1.489   1.531  0.00  0.00     0.078 C 
ATOM      3  C1  OXE d   1       3.115   1.405   0.230  0.00  0.00    -0.078 A 
ATOM      4  C2  OXE d   1       3.058   2.539  -0.543  0.00  0.00    -0.078 A 
ATOM      5  C3  OXE d   1       2.417   2.500  -1.778  0.00  0.00     0.003 A 
ATOM      6  C4  OXE d   1       1.700   1.362  -2.170  0.00  0.00    -0.002 A 
ATOM      7  C5  OXE d   1       1.712   0.209  -1.378  0.00  0.00    -0.002 A 
ATOM      8  C6  OXE d   1       2.448   0.200  -0.198  0.00  0.00     0.003 A 
ENDROOT
TORSDOF 0
ENDMDL
