MODEL 1
REMARK minimizedAffinity 10.6364298
REMARK minimizedRMSD -1
REMARK  0 active torsions:
REMARK  status: ('A' for Active; 'I' for Inactive)
ROOT
ATOM      1  C2' OXE d   1      -3.828  -0.420   0.498  0.00  0.00     0.078 C 
ATOM      2  C1' OXE d   1      -4.837  -2.703   1.781  0.00  0.00     0.078 C 
ATOM      3  C1  OXE d   1      -3.378  -2.697   1.400  0.00  0.00    -0.078 A 
ATOM      4  C2  OXE d   1      -2.904  -1.595   0.731  0.00  0.00    -0.078 A 
ATOM      5  C3  OXE d   1      -1.553  -1.515   0.405  0.00  0.00     0.003 A 
ATOM      6  C4  OXE d   1      -0.707  -2.610   0.615  0.00  0.00    -0.002 A 
ATOM      7  C5  OXE d   1      -1.179  -3.758   1.260  0.00  0.00    -0.002 A 
ATOM      8  C6  OXE d   1      -2.499  -3.801   1.696  0.00  0.00     0.003 A 
ENDROOT
TORSDOF 0
ENDMDL
