MODEL 1
REMARK minimizedAffinity 10.9501495
REMARK minimizedRMSD -1
REMARK  0 active torsions:
REMARK  status: ('A' for Active; 'I' for Inactive)
ROOT
ATOM      1  C2' OXE d   1      -5.082  -1.761   5.732  0.00  0.00     0.078 C 
ATOM      2  C1' OXE d   1      -2.289  -1.485   5.714  0.00  0.00     0.078 C 
ATOM      3  C1  OXE d   1      -3.119  -0.231   5.832  0.00  0.00    -0.078 A 
ATOM      4  C2  OXE d   1      -4.485  -0.372   5.793  0.00  0.00    -0.078 A 
ATOM      5  C3  OXE d   1      -5.298   0.747   5.953  0.00  0.00     0.003 A 
ATOM      6  C4  OXE d   1      -4.738   2.029   5.999  0.00  0.00    -0.002 A 
ATOM      7  C5  OXE d   1      -3.349   2.198   6.000  0.00  0.00    -0.002 A 
ATOM      8  C6  OXE d   1      -2.526   1.077   5.960  0.00  0.00     0.003 A 
ENDROOT
TORSDOF 0
ENDMDL
