MODEL 1
REMARK minimizedAffinity 11.3193102
REMARK minimizedRMSD -1
REMARK  0 active torsions:
REMARK  status: ('A' for Active; 'I' for Inactive)
ROOT
ATOM      1  C2' OXE d   1      -2.425   3.320  -3.750  0.00  0.00     0.078 C 
ATOM      2  C1' OXE d   1      -3.775   2.322  -6.000  0.00  0.00     0.078 C 
ATOM      3  C1  OXE d   1      -4.256   3.625  -5.412  0.00  0.00    -0.078 A 
ATOM      4  C2  OXE d   1      -3.619   4.082  -4.283  0.00  0.00    -0.078 A 
ATOM      5  C3  OXE d   1      -3.988   5.306  -3.732  0.00  0.00     0.003 A 
ATOM      6  C4  OXE d   1      -5.100   5.999  -4.225  0.00  0.00    -0.002 A 
ATOM      7  C5  OXE d   1      -5.787   5.531  -5.350  0.00  0.00    -0.002 A 
ATOM      8  C6  OXE d   1      -5.352   4.370  -5.979  0.00  0.00     0.003 A 
ENDROOT
TORSDOF 0
ENDMDL
