MODEL 1
REMARK minimizedAffinity -5.52014828
REMARK minimizedRMSD -1
REMARK  2 active torsions:
REMARK  status: ('A' for Active; 'I' for Inactive)
REMARK    1  A    between atoms: C2'_3  and  C1'_4 
REMARK    2  A    between atoms: C1'_4  and  C1_5 
ROOT
ATOM      1  C1  I4B d   1       0.147  -0.109  -0.179  0.00  0.00    -0.075 A 
ATOM      2  C2  I4B d   1      -1.213  -0.268  -0.269  0.00  0.00     0.003 A 
ATOM      3  C3  I4B d   1      -2.054   0.183   0.777  0.00  0.00     0.002 A 
ATOM      4  C4  I4B d   1      -1.493   0.739   1.908  0.00  0.00    -0.004 A 
ATOM      5  C5  I4B d   1      -0.115   0.921   1.988  0.00  0.00     0.002 A 
ATOM      6  C6  I4B d   1       0.710   0.506   0.932  0.00  0.00     0.003 A 
ENDROOT
BRANCH   1   7
ATOM      7  C1' I4B d   1       1.009  -0.627  -1.287  0.00  0.00     0.060 C 
BRANCH   7   8
ATOM      8  C2' I4B d   1       0.582   0.058  -2.569  0.00  0.00    -0.013 C 
ATOM      9  C4' I4B d   1       1.692   0.907  -3.130  0.00  0.00     0.013 C 
ATOM     10  C3' I4B d   1       0.167  -1.003  -3.545  0.00  0.00     0.013 C 
ENDBRANCH   7   8
ENDBRANCH   1   7
TORSDOF 2
ENDMDL
