MODEL 1
REMARK minimizedAffinity 1.76363397
REMARK minimizedRMSD -1
REMARK  2 active torsions:
REMARK  status: ('A' for Active; 'I' for Inactive)
REMARK    1  A    between atoms: C2'_3  and  C1'_4 
REMARK    2  A    between atoms: C1'_4  and  C1_5 
ROOT
ATOM      1  C1  I4B d   1       0.876  -0.128  -2.492  0.00  0.00    -0.075 A 
ATOM      2  C2  I4B d   1       0.121  -0.134  -3.638  0.00  0.00     0.003 A 
ATOM      3  C3  I4B d   1       0.374   0.811  -4.663  0.00  0.00     0.002 A 
ATOM      4  C4  I4B d   1       1.351   1.768  -4.479  0.00  0.00    -0.004 A 
ATOM      5  C5  I4B d   1       2.130   1.758  -3.326  0.00  0.00     0.002 A 
ATOM      6  C6  I4B d   1       1.900   0.796  -2.331  0.00  0.00     0.003 A 
ENDROOT
BRANCH   1   7
ATOM      7  C1' I4B d   1       0.560  -1.118  -1.416  0.00  0.00     0.060 C 
BRANCH   7   8
ATOM      8  C2' I4B d   1       0.567  -0.386  -0.090  0.00  0.00    -0.013 C 
ATOM      9  C4' I4B d   1      -0.759  -0.516   0.612  0.00  0.00     0.013 C 
ATOM     10  C3' I4B d   1       1.679  -0.948   0.744  0.00  0.00     0.013 C 
ENDBRANCH   7   8
ENDBRANCH   1   7
TORSDOF 2
ENDMDL
