MODEL 1
REMARK minimizedAffinity -4.91610622
REMARK minimizedRMSD -1
REMARK  2 active torsions:
REMARK  status: ('A' for Active; 'I' for Inactive)
REMARK    1  A    between atoms: C2'_3  and  C1'_4 
REMARK    2  A    between atoms: C1'_4  and  C1_5 
ROOT
ATOM      1  C1  I4B d   1      -0.745   0.380   0.089  0.00  0.00    -0.075 A 
ATOM      2  C2  I4B d   1      -1.833   0.049   0.858  0.00  0.00     0.003 A 
ATOM      3  C3  I4B d   1      -1.934   0.520   2.189  0.00  0.00     0.002 A 
ATOM      4  C4  I4B d   1      -0.909   1.272   2.725  0.00  0.00    -0.004 A 
ATOM      5  C5  I4B d   1       0.183   1.626   1.936  0.00  0.00     0.002 A 
ATOM      6  C6  I4B d   1       0.260   1.188   0.606  0.00  0.00     0.003 A 
ENDROOT
BRANCH   1   7
ATOM      7  C1' I4B d   1      -0.654  -0.162  -1.302  0.00  0.00     0.060 C 
BRANCH   7   8
ATOM      8  C2' I4B d   1       0.800  -0.119  -1.725  0.00  0.00    -0.013 C 
ATOM      9  C4' I4B d   1       1.562  -1.297  -1.177  0.00  0.00     0.013 C 
ATOM     10  C3' I4B d   1       0.846  -0.096  -3.224  0.00  0.00     0.013 C 
ENDBRANCH   7   8
ENDBRANCH   1   7
TORSDOF 2
ENDMDL
