MODEL 1
REMARK minimizedAffinity -1.58639252
REMARK minimizedRMSD -1
REMARK  2 active torsions:
REMARK  status: ('A' for Active; 'I' for Inactive)
REMARK    1  A    between atoms: C2'_3  and  C1'_4 
REMARK    2  A    between atoms: C1'_4  and  C1_5 
ROOT
ATOM      1  C1  I4B d   1      -0.340  -0.560  -0.737  0.00  0.00    -0.075 A 
ATOM      2  C2  I4B d   1      -1.699  -0.596  -0.925  0.00  0.00     0.003 A 
ATOM      3  C3  I4B d   1      -2.566   0.004   0.020  0.00  0.00     0.002 A 
ATOM      4  C4  I4B d   1      -2.037   0.581   1.156  0.00  0.00    -0.004 A 
ATOM      5  C5  I4B d   1      -0.658   0.637   1.334  0.00  0.00     0.002 A 
ATOM      6  C6  I4B d   1       0.197   0.074   0.376  0.00  0.00     0.003 A 
ENDROOT
BRANCH   1   7
ATOM      7  C1' I4B d   1       0.544  -1.232  -1.739  0.00  0.00     0.060 C 
BRANCH   7   8
ATOM      8  C2' I4B d   1       0.793  -0.257  -2.871  0.00  0.00    -0.013 C 
ATOM      9  C4' I4B d   1       2.240   0.156  -2.927  0.00  0.00     0.013 C 
ATOM     10  C3' I4B d   1       0.368  -0.914  -4.150  0.00  0.00     0.013 C 
ENDBRANCH   7   8
ENDBRANCH   1   7
TORSDOF 2
ENDMDL
