MODEL 1
REMARK minimizedAffinity 7.77670813
REMARK minimizedRMSD -1
REMARK  0 active torsions:
REMARK  status: ('A' for Active; 'I' for Inactive)
ROOT
ATOM      1  C   UNL d   1       1.306  -2.784   0.842  0.00  0.00     0.020 A 
ATOM      2  C1  UNL d   1       1.800  -3.705  -0.081  0.00  0.00     0.020 A 
ATOM      3  C2  UNL d   1       3.146  -3.669  -0.451  0.00  0.00     0.034 A 
ATOM      4  C3  UNL d   1       4.003  -2.710   0.101  0.00  0.00     0.017 A 
ATOM      5  C4  UNL d   1       3.506  -1.785   1.027  0.00  0.00     0.017 A 
ATOM      6  C5  UNL d   1       2.157  -1.826   1.395  0.00  0.00     0.034 A 
ATOM      7 Cl   UNL d   1       4.501  -0.572   1.751  0.00  0.00    -0.070 Cl
ATOM      8 Cl1  UNL d   1       5.655  -2.723  -0.403  0.00  0.00    -0.070 Cl
ENDROOT
TORSDOF 0
ENDMDL
