MODEL 1
REMARK minimizedAffinity 8.51575756
REMARK minimizedRMSD -1
REMARK  0 active torsions:
REMARK  status: ('A' for Active; 'I' for Inactive)
ROOT
ATOM      1  C   UNL d   1       6.000  -0.053  -0.248  0.00  0.00     0.020 A 
ATOM      2  C1  UNL d   1       5.999   1.306   0.063  0.00  0.00     0.020 A 
ATOM      3  C2  UNL d   1       4.838   1.910   0.552  0.00  0.00     0.034 A 
ATOM      4  C3  UNL d   1       3.674   1.154   0.731  0.00  0.00     0.017 A 
ATOM      5  C4  UNL d   1       3.676  -0.211   0.420  0.00  0.00     0.017 A 
ATOM      6  C5  UNL d   1       4.841  -0.810  -0.069  0.00  0.00     0.034 A 
ATOM      7 Cl   UNL d   1       2.278  -1.208   0.615  0.00  0.00    -0.070 Cl
ATOM      8 Cl1  UNL d   1       2.275   1.966   1.340  0.00  0.00    -0.070 Cl
ENDROOT
TORSDOF 0
ENDMDL
