MODEL 1
REMARK minimizedAffinity 7.25286484
REMARK minimizedRMSD -1
REMARK  0 active torsions:
REMARK  status: ('A' for Active; 'I' for Inactive)
ROOT
ATOM      1  C   UNL d   1      -1.994   1.384  -2.110  0.00  0.00     0.020 A 
ATOM      2  C1  UNL d   1      -0.608   1.238  -2.167  0.00  0.00     0.020 A 
ATOM      3  C2  UNL d   1       0.164   2.169  -2.865  0.00  0.00     0.034 A 
ATOM      4  C3  UNL d   1      -0.449   3.251  -3.507  0.00  0.00     0.017 A 
ATOM      5  C4  UNL d   1      -1.840   3.397  -3.448  0.00  0.00     0.017 A 
ATOM      6  C5  UNL d   1      -2.608   2.462  -2.749  0.00  0.00     0.034 A 
ATOM      7 Cl   UNL d   1      -2.668   4.706  -4.216  0.00  0.00    -0.070 Cl
ATOM      8 Cl1  UNL d   1       0.567   4.365  -4.351  0.00  0.00    -0.070 Cl
ENDROOT
TORSDOF 0
ENDMDL
