MODEL 1
REMARK minimizedAffinity 7.63490009
REMARK minimizedRMSD -1
REMARK  0 active torsions:
REMARK  status: ('A' for Active; 'I' for Inactive)
ROOT
ATOM      1  C   UNL d   1      -0.748  -0.666  -1.770  0.00  0.00     0.020 A 
ATOM      2  C1  UNL d   1      -1.955  -0.516  -1.087  0.00  0.00     0.020 A 
ATOM      3  C2  UNL d   1      -2.088  -1.012   0.212  0.00  0.00     0.034 A 
ATOM      4  C3  UNL d   1      -1.013  -1.659   0.832  0.00  0.00     0.017 A 
ATOM      5  C4  UNL d   1       0.197  -1.808   0.146  0.00  0.00     0.017 A 
ATOM      6  C5  UNL d   1       0.325  -1.311  -1.155  0.00  0.00     0.034 A 
ATOM      7 Cl   UNL d   1       1.568  -2.595   0.845  0.00  0.00    -0.070 Cl
ATOM      8 Cl1  UNL d   1      -1.249  -2.246   2.440  0.00  0.00    -0.070 Cl
ENDROOT
TORSDOF 0
ENDMDL
