MODEL 1
REMARK minimizedAffinity 5.28813314
REMARK minimizedRMSD -1
REMARK  0 active torsions:
REMARK  status: ('A' for Active; 'I' for Inactive)
ROOT
ATOM      1  C   UNL d   1      -2.868   0.024   3.152  0.00  0.00     0.020 A 
ATOM      2  C1  UNL d   1      -2.958  -0.899   2.111  0.00  0.00     0.020 A 
ATOM      3  C2  UNL d   1      -1.830  -1.622   1.719  0.00  0.00     0.034 A 
ATOM      4  C3  UNL d   1      -0.606  -1.425   2.370  0.00  0.00     0.017 A 
ATOM      5  C4  UNL d   1      -0.517  -0.498   3.415  0.00  0.00     0.017 A 
ATOM      6  C5  UNL d   1      -1.650   0.224   3.803  0.00  0.00     0.034 A 
ATOM      7 Cl   UNL d   1       0.958  -0.200   4.265  0.00  0.00    -0.070 Cl
ATOM      8 Cl1  UNL d   1       0.748  -2.354   1.834  0.00  0.00    -0.070 Cl
ENDROOT
TORSDOF 0
ENDMDL
