MODEL 1
REMARK minimizedAffinity 5.14537621
REMARK minimizedRMSD -1
REMARK  0 active torsions:
REMARK  status: ('A' for Active; 'I' for Inactive)
ROOT
ATOM      1  C   UNL d   1      -1.744  -0.510   3.265  0.00  0.00     0.020 A 
ATOM      2  C1  UNL d   1      -1.757  -1.782   2.695  0.00  0.00     0.020 A 
ATOM      3  C2  UNL d   1      -0.590  -2.311   2.139  0.00  0.00     0.034 A 
ATOM      4  C3  UNL d   1       0.595  -1.566   2.152  0.00  0.00     0.017 A 
ATOM      5  C4  UNL d   1       0.607  -0.289   2.725  0.00  0.00     0.017 A 
ATOM      6  C5  UNL d   1      -0.564   0.235   3.280  0.00  0.00     0.034 A 
ATOM      7 Cl   UNL d   1       2.031   0.689   2.779  0.00  0.00    -0.070 Cl
ATOM      8 Cl1  UNL d   1       2.001  -2.282   1.447  0.00  0.00    -0.070 Cl
ENDROOT
TORSDOF 0
ENDMDL
