MODEL 1
REMARK minimizedAffinity 3.47016692
REMARK minimizedRMSD -1
REMARK  0 active torsions:
REMARK  status: ('A' for Active; 'I' for Inactive)
ROOT
ATOM      1  C   UNL d   1       5.734   3.222   0.784  0.00  0.00     0.020 A 
ATOM      2  C1  UNL d   1       5.997   3.827  -0.445  0.00  0.00     0.020 A 
ATOM      3  C2  UNL d   1       5.999   3.062  -1.613  0.00  0.00     0.034 A 
ATOM      4  C3  UNL d   1       5.738   1.689  -1.556  0.00  0.00     0.017 A 
ATOM      5  C4  UNL d   1       5.474   1.082  -0.322  0.00  0.00     0.017 A 
ATOM      6  C5  UNL d   1       5.473   1.853   0.845  0.00  0.00     0.034 A 
ATOM      7 Cl   UNL d   1       5.142  -0.607  -0.172  0.00  0.00    -0.070 Cl
ATOM      8 Cl1  UNL d   1       5.756   0.804  -3.040  0.00  0.00    -0.070 Cl
ENDROOT
TORSDOF 0
ENDMDL
