MODEL 1
REMARK minimizedAffinity 5.87519026
REMARK minimizedRMSD -1
REMARK  0 active torsions:
REMARK  status: ('A' for Active; 'I' for Inactive)
ROOT
ATOM      1  C   UNL d   1      -3.395   0.448  -0.281  0.00  0.00     0.020 A 
ATOM      2  C1  UNL d   1      -2.526  -0.610  -0.544  0.00  0.00     0.020 A 
ATOM      3  C2  UNL d   1      -1.857  -1.242   0.506  0.00  0.00     0.034 A 
ATOM      4  C3  UNL d   1      -2.055  -0.817   1.825  0.00  0.00     0.017 A 
ATOM      5  C4  UNL d   1      -2.928   0.245   2.088  0.00  0.00     0.017 A 
ATOM      6  C5  UNL d   1      -3.595   0.875   1.033  0.00  0.00     0.034 A 
ATOM      7 Cl   UNL d   1      -3.224   0.826   3.689  0.00  0.00    -0.070 Cl
ATOM      8 Cl1  UNL d   1      -1.196  -1.644   3.074  0.00  0.00    -0.070 Cl
ENDROOT
TORSDOF 0
ENDMDL
