MODEL 1
REMARK minimizedAffinity 11.1276779
REMARK minimizedRMSD -1
REMARK  0 active torsions:
REMARK  status: ('A' for Active; 'I' for Inactive)
ROOT
ATOM      1  C   UNL d   1       1.636  -1.389   1.126  0.00  0.00     0.020 A 
ATOM      2  C1  UNL d   1       1.708  -2.725   1.516  0.00  0.00     0.020 A 
ATOM      3  C2  UNL d   1       2.935  -3.392   1.505  0.00  0.00     0.034 A 
ATOM      4  C3  UNL d   1       4.096  -2.722   1.102  0.00  0.00     0.017 A 
ATOM      5  C4  UNL d   1       4.023  -1.380   0.710  0.00  0.00     0.017 A 
ATOM      6  C5  UNL d   1       2.792  -0.718   0.723  0.00  0.00     0.034 A 
ATOM      7 Cl   UNL d   1       5.413  -0.487   0.200  0.00  0.00    -0.070 Cl
ATOM      8 Cl1  UNL d   1       5.579  -3.607   1.113  0.00  0.00    -0.070 Cl
ENDROOT
TORSDOF 0
ENDMDL
