MODEL 1
REMARK minimizedAffinity -0.200016916
REMARK minimizedRMSD -1
REMARK  0 active torsions:
REMARK  status: ('A' for Active; 'I' for Inactive)
ROOT
ATOM      1  C   UNL d   1       3.122  -5.069   1.483  0.00  0.00     0.020 A 
ATOM      2  C1  UNL d   1       4.497  -4.874   1.605  0.00  0.00     0.020 A 
ATOM      3  C2  UNL d   1       5.068  -3.662   1.210  0.00  0.00     0.034 A 
ATOM      4  C3  UNL d   1       4.263  -2.642   0.691  0.00  0.00     0.017 A 
ATOM      5  C4  UNL d   1       2.883  -2.839   0.568  0.00  0.00     0.017 A 
ATOM      6  C5  UNL d   1       2.317  -4.054   0.965  0.00  0.00     0.034 A 
ATOM      7 Cl   UNL d   1       1.826  -1.626  -0.063  0.00  0.00    -0.070 Cl
ATOM      8 Cl1  UNL d   1       5.037  -1.169   0.223  0.00  0.00    -0.070 Cl
ENDROOT
TORSDOF 0
ENDMDL
