MODEL 1
REMARK minimizedAffinity 10.5363855
REMARK minimizedRMSD -1
REMARK  0 active torsions:
REMARK  status: ('A' for Active; 'I' for Inactive)
ROOT
ATOM      1  C   UNL d   1       1.611  -1.349   1.010  0.00  0.00     0.020 A 
ATOM      2  C1  UNL d   1       0.382  -0.984   1.558  0.00  0.00     0.020 A 
ATOM      3  C2  UNL d   1      -0.463  -1.961   2.089  0.00  0.00     0.034 A 
ATOM      4  C3  UNL d   1      -0.080  -3.308   2.072  0.00  0.00     0.017 A 
ATOM      5  C4  UNL d   1       1.154  -3.672   1.521  0.00  0.00     0.017 A 
ATOM      6  C5  UNL d   1       1.996  -2.690   0.991  0.00  0.00     0.034 A 
ATOM      7 Cl   UNL d   1       1.695  -5.313   1.465  0.00  0.00    -0.070 Cl
ATOM      8 Cl1  UNL d   1      -1.174  -4.463   2.746  0.00  0.00    -0.070 Cl
ENDROOT
TORSDOF 0
ENDMDL
