MODEL 1
REMARK minimizedAffinity 5.10086918
REMARK minimizedRMSD -1
REMARK  0 active torsions:
REMARK  status: ('A' for Active; 'I' for Inactive)
ROOT
ATOM      1  N1  IND d   1      -0.397  -1.390  -1.381  0.00  0.00    -0.196 N 
ATOM      2  C2  IND d   1      -0.603  -1.917  -0.137  0.00  0.00     0.054 A 
ATOM      3  C3  IND d   1      -0.716  -3.263  -0.208  0.00  0.00    -0.031 A 
ATOM      4  C4  IND d   1      -0.495  -4.816  -2.249  0.00  0.00     0.051 A 
ATOM      5  C5  IND d   1      -0.344  -4.796  -3.607  0.00  0.00    -0.031 A 
ATOM      6  C6  IND d   1      -0.197  -3.615  -4.307  0.00  0.00     0.015 A 
ATOM      7  C7  IND d   1      -0.184  -2.407  -3.670  0.00  0.00    -0.016 A 
ATOM      8  C8  IND d   1      -0.345  -2.423  -2.291  0.00  0.00    -0.047 A 
ATOM      9  C9  IND d   1      -0.537  -3.615  -1.581  0.00  0.00    -0.096 A 
ATOM     10  HN1 IND d   1      -0.315  -0.554  -1.565  0.00  0.00     0.298 HD
ENDROOT
TORSDOF 0
ENDMDL
