MODEL 1
REMARK minimizedAffinity 0.426737666
REMARK minimizedRMSD -1
REMARK  0 active torsions:
REMARK  status: ('A' for Active; 'I' for Inactive)
ROOT
ATOM      1  N1  IND d   1       4.359   5.996  -2.273  0.00  0.00    -0.196 N 
ATOM      2  C2  IND d   1       5.290   5.318  -1.537  0.00  0.00     0.054 A 
ATOM      3  C3  IND d   1       6.000   4.484  -2.329  0.00  0.00    -0.031 A 
ATOM      4  C4  IND d   1       5.873   4.148  -4.879  0.00  0.00     0.051 A 
ATOM      5  C5  IND d   1       5.153   4.519  -5.980  0.00  0.00    -0.031 A 
ATOM      6  C6  IND d   1       4.113   5.422  -5.900  0.00  0.00     0.015 A 
ATOM      7  C7  IND d   1       3.759   5.999  -4.713  0.00  0.00    -0.016 A 
ATOM      8  C8  IND d   1       4.483   5.619  -3.592  0.00  0.00    -0.047 A 
ATOM      9  C9  IND d   1       5.512   4.671  -3.659  0.00  0.00    -0.096 A 
ATOM     10  HN1 IND d   1       3.792   6.564  -1.964  0.00  0.00     0.298 HD
ENDROOT
TORSDOF 0
ENDMDL
