MODEL 1
REMARK minimizedAffinity 0.136098176
REMARK minimizedRMSD -1
REMARK  0 active torsions:
REMARK  status: ('A' for Active; 'I' for Inactive)
ROOT
ATOM      1  N1  IND d   1       6.000   4.990  -5.119  0.00  0.00    -0.196 N 
ATOM      2  C2  IND d   1       5.180   4.098  -5.752  0.00  0.00     0.054 A 
ATOM      3  C3  IND d   1       4.187   3.703  -4.925  0.00  0.00    -0.031 A 
ATOM      4  C4  IND d   1       3.655   4.469  -2.525  0.00  0.00     0.051 A 
ATOM      5  C5  IND d   1       4.141   5.243  -1.509  0.00  0.00    -0.031 A 
ATOM      6  C6  IND d   1       5.292   5.990  -1.648  0.00  0.00     0.015 A 
ATOM      7  C7  IND d   1       5.999   5.999  -2.818  0.00  0.00    -0.016 A 
ATOM      8  C8  IND d   1       5.512   5.209  -3.849  0.00  0.00    -0.047 A 
ATOM      9  C9  IND d   1       4.368   4.415  -3.700  0.00  0.00    -0.096 A 
ATOM     10  HN1 IND d   1       6.702   5.354  -5.457  0.00  0.00     0.298 HD
ENDROOT
TORSDOF 0
ENDMDL
