MODEL 1
REMARK minimizedAffinity 12.7051544
REMARK minimizedRMSD -1
REMARK  0 active torsions:
REMARK  status: ('A' for Active; 'I' for Inactive)
ROOT
ATOM      1  N1  IND d   1       5.962   5.747  -1.523  0.00  0.00    -0.196 N 
ATOM      2  C2  IND d   1       4.998   5.483  -0.590  0.00  0.00     0.054 A 
ATOM      3  C3  IND d   1       3.794   5.336  -1.187  0.00  0.00    -0.031 A 
ATOM      4  C4  IND d   1       3.192   5.388  -3.690  0.00  0.00     0.051 A 
ATOM      5  C5  IND d   1       3.729   5.632  -4.922  0.00  0.00    -0.031 A 
ATOM      6  C6  IND d   1       5.066   5.930  -5.088  0.00  0.00     0.015 A 
ATOM      7  C7  IND d   1       5.922   5.985  -4.024  0.00  0.00    -0.016 A 
ATOM      8  C8  IND d   1       5.378   5.744  -2.771  0.00  0.00    -0.047 A 
ATOM      9  C9  IND d   1       4.013   5.483  -2.591  0.00  0.00    -0.096 A 
ATOM     10  HN1 IND d   1       6.794   5.891  -1.358  0.00  0.00     0.298 HD
ENDROOT
TORSDOF 0
ENDMDL
