MODEL 1
REMARK minimizedAffinity 1.85274482
REMARK minimizedRMSD -1
REMARK  0 active torsions:
REMARK  status: ('A' for Active; 'I' for Inactive)
ROOT
ATOM      1  N1  IND d   1       3.876   3.725  -4.644  0.00  0.00    -0.196 N 
ATOM      2  C2  IND d   1       5.013   3.692  -5.402  0.00  0.00     0.054 A 
ATOM      3  C3  IND d   1       6.000   4.394  -4.801  0.00  0.00    -0.031 A 
ATOM      4  C4  IND d   1       5.999   5.594  -2.523  0.00  0.00     0.051 A 
ATOM      5  C5  IND d   1       5.179   5.931  -1.484  0.00  0.00    -0.031 A 
ATOM      6  C6  IND d   1       3.856   5.540  -1.442  0.00  0.00     0.015 A 
ATOM      7  C7  IND d   1       3.305   4.784  -2.438  0.00  0.00    -0.016 A 
ATOM      8  C8  IND d   1       4.133   4.446  -3.499  0.00  0.00    -0.047 A 
ATOM      9  C9  IND d   1       5.465   4.875  -3.567  0.00  0.00    -0.096 A 
ATOM     10  HN1 IND d   1       3.126   3.358  -4.849  0.00  0.00     0.298 HD
ENDROOT
TORSDOF 0
ENDMDL
