MODEL 1
REMARK minimizedAffinity 4.65479946
REMARK minimizedRMSD -1
REMARK  0 active torsions:
REMARK  status: ('A' for Active; 'I' for Inactive)
ROOT
ATOM      1  N1  IND d   1       0.395  -2.550  -3.944  0.00  0.00    -0.196 N 
ATOM      2  C2  IND d   1       1.643  -1.994  -3.902  0.00  0.00     0.054 A 
ATOM      3  C3  IND d   1       1.939  -1.594  -2.645  0.00  0.00    -0.031 A 
ATOM      4  C4  IND d   1       0.564  -1.846  -0.483  0.00  0.00     0.051 A 
ATOM      5  C5  IND d   1      -0.656  -2.258  -0.024  0.00  0.00    -0.031 A 
ATOM      6  C6  IND d   1      -1.606  -2.801  -0.865  0.00  0.00     0.015 A 
ATOM      7  C7  IND d   1      -1.366  -2.964  -2.200  0.00  0.00    -0.016 A 
ATOM      8  C8  IND d   1      -0.131  -2.541  -2.671  0.00  0.00    -0.047 A 
ATOM      9  C9  IND d   1       0.821  -1.950  -1.830  0.00  0.00    -0.096 A 
ATOM     10  HN1 IND d   1       0.005  -2.854  -4.647  0.00  0.00     0.298 HD
ENDROOT
TORSDOF 0
ENDMDL
