MODEL 1
REMARK minimizedAffinity 7.67176294
REMARK minimizedRMSD -1
REMARK  0 active torsions:
REMARK  status: ('A' for Active; 'I' for Inactive)
ROOT
ATOM      1  N1  IND d   1      -1.410  -2.300   3.946  0.00  0.00    -0.196 N 
ATOM      2  C2  IND d   1      -2.159  -1.919   5.024  0.00  0.00     0.054 A 
ATOM      3  C3  IND d   1      -1.363  -1.425   5.999  0.00  0.00    -0.031 A 
ATOM      4  C4  IND d   1       1.184  -1.053   5.999  0.00  0.00     0.051 A 
ATOM      5  C5  IND d   1       2.306  -1.280   5.252  0.00  0.00    -0.031 A 
ATOM      6  C6  IND d   1       2.245  -1.867   4.005  0.00  0.00     0.015 A 
ATOM      7  C7  IND d   1       1.053  -2.242   3.451  0.00  0.00    -0.016 A 
ATOM      8  C8  IND d   1      -0.087  -2.019   4.210  0.00  0.00    -0.047 A 
ATOM      9  C9  IND d   1      -0.028  -1.462   5.494  0.00  0.00    -0.096 A 
ATOM     10  HN1 IND d   1      -1.714  -2.655   3.224  0.00  0.00     0.298 HD
ENDROOT
TORSDOF 0
ENDMDL
