MODEL 1
REMARK minimizedAffinity 9.01901913
REMARK minimizedRMSD -1
REMARK  0 active torsions:
REMARK  status: ('A' for Active; 'I' for Inactive)
ROOT
ATOM      1  N1  IND d   1       3.976   5.065  -1.502  0.00  0.00    -0.196 N 
ATOM      2  C2  IND d   1       5.037   5.584  -0.815  0.00  0.00     0.054 A 
ATOM      3  C3  IND d   1       5.999   5.993  -1.672  0.00  0.00    -0.031 A 
ATOM      4  C4  IND d   1       5.999   5.999  -4.247  0.00  0.00     0.051 A 
ATOM      5  C5  IND d   1       5.265   5.591  -5.325  0.00  0.00    -0.031 A 
ATOM      6  C6  IND d   1       4.038   4.976  -5.181  0.00  0.00     0.015 A 
ATOM      7  C7  IND d   1       3.491   4.757  -3.949  0.00  0.00    -0.016 A 
ATOM      8  C8  IND d   1       4.237   5.164  -2.851  0.00  0.00    -0.047 A 
ATOM      9  C9  IND d   1       5.502   5.749  -2.989  0.00  0.00    -0.096 A 
ATOM     10  HN1 IND d   1       3.265   4.733  -1.151  0.00  0.00     0.298 HD
ENDROOT
TORSDOF 0
ENDMDL
