MODEL 1
REMARK minimizedAffinity 2.82189655
REMARK minimizedRMSD -1
REMARK  0 active torsions:
REMARK  status: ('A' for Active; 'I' for Inactive)
ROOT
ATOM      1  N1  IND d   1       5.662  -3.301   5.974  0.00  0.00    -0.196 N 
ATOM      2  C2  IND d   1       5.996  -4.269   5.069  0.00  0.00     0.054 A 
ATOM      3  C3  IND d   1       5.187  -4.201   3.988  0.00  0.00    -0.031 A 
ATOM      4  C4  IND d   1       3.316  -2.518   3.449  0.00  0.00     0.051 A 
ATOM      5  C5  IND d   1       2.619  -1.473   3.987  0.00  0.00    -0.031 A 
ATOM      6  C6  IND d   1       2.909  -0.972   5.240  0.00  0.00     0.015 A 
ATOM      7  C7  IND d   1       3.918  -1.492   5.999  0.00  0.00    -0.016 A 
ATOM      8  C8  IND d   1       4.623  -2.558   5.459  0.00  0.00    -0.047 A 
ATOM      9  C9  IND d   1       4.306  -3.098   4.206  0.00  0.00    -0.096 A 
ATOM     10  HN1 IND d   1       6.038  -3.177   6.738  0.00  0.00     0.298 HD
ENDROOT
TORSDOF 0
ENDMDL
