MODEL 1
REMARK minimizedAffinity 1.49288774
REMARK minimizedRMSD -1
REMARK  0 active torsions:
REMARK  status: ('A' for Active; 'I' for Inactive)
ROOT
ATOM      1  N1  IND d   1       5.347   6.000  -1.222  0.00  0.00    -0.196 N 
ATOM      2  C2  IND d   1       5.728   5.047  -0.319  0.00  0.00     0.054 A 
ATOM      3  C3  IND d   1       6.000   3.883  -0.951  0.00  0.00    -0.031 A 
ATOM      4  C4  IND d   1       5.986   3.345  -3.468  0.00  0.00     0.051 A 
ATOM      5  C5  IND d   1       5.669   3.885  -4.683  0.00  0.00    -0.031 A 
ATOM      6  C6  IND d   1       5.223   5.185  -4.810  0.00  0.00     0.015 A 
ATOM      7  C7  IND d   1       5.086   6.000  -3.722  0.00  0.00    -0.016 A 
ATOM      8  C8  IND d   1       5.400   5.453  -2.486  0.00  0.00    -0.047 A 
ATOM      9  C9  IND d   1       5.813   4.122  -2.347  0.00  0.00    -0.096 A 
ATOM     10  HN1 IND d   1       5.114   6.805  -1.033  0.00  0.00     0.298 HD
ENDROOT
TORSDOF 0
ENDMDL
