MODEL 1
REMARK minimizedAffinity 7.21360636
REMARK minimizedRMSD -1
REMARK  0 active torsions:
REMARK  status: ('A' for Active; 'I' for Inactive)
ROOT
ATOM      1  N1  IND d   1      -0.982  -1.873  -3.432  0.00  0.00    -0.196 N 
ATOM      2  C2  IND d   1       0.351  -2.089  -3.645  0.00  0.00     0.054 A 
ATOM      3  C3  IND d   1       0.983  -2.321  -2.472  0.00  0.00    -0.031 A 
ATOM      4  C4  IND d   1       0.009  -2.493  -0.096  0.00  0.00     0.051 A 
ATOM      5  C5  IND d   1      -1.153  -2.334   0.606  0.00  0.00    -0.031 A 
ATOM      6  C6  IND d   1      -2.342  -2.010  -0.015  0.00  0.00     0.015 A 
ATOM      7  C7  IND d   1      -2.415  -1.842  -1.369  0.00  0.00    -0.016 A 
ATOM      8  C8  IND d   1      -1.236  -1.996  -2.084  0.00  0.00    -0.047 A 
ATOM      9  C9  IND d   1      -0.018  -2.283  -1.454  0.00  0.00    -0.096 A 
ATOM     10  HN1 IND d   1      -1.564  -1.690  -4.039  0.00  0.00     0.298 HD
ENDROOT
TORSDOF 0
ENDMDL
