MODEL 1
REMARK minimizedAffinity 1.15703452
REMARK minimizedRMSD -1
REMARK  0 active torsions:
REMARK  status: ('A' for Active; 'I' for Inactive)
ROOT
ATOM      1  N1  IND d   1       3.814   4.435  -4.885  0.00  0.00    -0.196 N 
ATOM      2  C2  IND d   1       4.981   4.397  -5.597  0.00  0.00     0.054 A 
ATOM      3  C3  IND d   1       5.999   4.892  -4.858  0.00  0.00    -0.031 A 
ATOM      4  C4  IND d   1       5.998   5.725  -2.422  0.00  0.00     0.051 A 
ATOM      5  C5  IND d   1       5.162   5.986  -1.373  0.00  0.00    -0.031 A 
ATOM      6  C6  IND d   1       3.807   5.735  -1.441  0.00  0.00     0.015 A 
ATOM      7  C7  IND d   1       3.236   5.201  -2.562  0.00  0.00    -0.016 A 
ATOM      8  C8  IND d   1       4.082   4.942  -3.632  0.00  0.00    -0.047 A 
ATOM      9  C9  IND d   1       5.451   5.234  -3.584  0.00  0.00    -0.096 A 
ATOM     10  HN1 IND d   1       3.043   4.185  -5.171  0.00  0.00     0.298 HD
ENDROOT
TORSDOF 0
ENDMDL
