MODEL 1
REMARK minimizedAffinity 3.08127904
REMARK minimizedRMSD -1
REMARK  0 active torsions:
REMARK  status: ('A' for Active; 'I' for Inactive)
ROOT
ATOM      1  N1  IND d   1      -2.157  -3.074  -1.086  0.00  0.00    -0.196 N 
ATOM      2  C2  IND d   1      -2.220  -2.919   0.270  0.00  0.00     0.054 A 
ATOM      3  C3  IND d   1      -1.082  -2.356   0.733  0.00  0.00    -0.031 A 
ATOM      4  C4  IND d   1       0.974  -1.516  -0.569  0.00  0.00     0.051 A 
ATOM      5  C5  IND d   1       1.510  -1.475  -1.825  0.00  0.00    -0.031 A 
ATOM      6  C6  IND d   1       0.837  -1.971  -2.922  0.00  0.00     0.015 A 
ATOM      7  C7  IND d   1      -0.409  -2.520  -2.805  0.00  0.00    -0.016 A 
ATOM      8  C8  IND d   1      -0.953  -2.571  -1.529  0.00  0.00    -0.047 A 
ATOM      9  C9  IND d   1      -0.256  -2.107  -0.406  0.00  0.00    -0.096 A 
ATOM     10  HN1 IND d   1      -2.766  -3.426  -1.580  0.00  0.00     0.298 HD
ENDROOT
TORSDOF 0
ENDMDL
