MODEL 1
REMARK minimizedAffinity 11.9802513
REMARK minimizedRMSD -1
REMARK  0 active torsions:
REMARK  status: ('A' for Active; 'I' for Inactive)
ROOT
ATOM      1  N1  IND d   1       2.490  -1.952  -2.081  0.00  0.00    -0.196 N 
ATOM      2  C2  IND d   1       3.132  -2.001  -3.287  0.00  0.00     0.054 A 
ATOM      3  C3  IND d   1       2.239  -2.157  -4.289  0.00  0.00    -0.031 A 
ATOM      4  C4  IND d   1      -0.332  -2.252  -4.189  0.00  0.00     0.051 A 
ATOM      5  C5  IND d   1      -1.375  -2.285  -3.306  0.00  0.00    -0.031 A 
ATOM      6  C6  IND d   1      -1.179  -2.204  -1.943  0.00  0.00     0.015 A 
ATOM      7  C7  IND d   1       0.072  -2.075  -1.409  0.00  0.00    -0.016 A 
ATOM      8  C8  IND d   1       1.134  -2.049  -2.302  0.00  0.00    -0.047 A 
ATOM      9  C9  IND d   1       0.945  -2.174  -3.684  0.00  0.00    -0.096 A 
ATOM     10  HN1 IND d   1       2.870  -1.874  -1.313  0.00  0.00     0.298 HD
ENDROOT
TORSDOF 0
ENDMDL
