MODEL 1
REMARK minimizedAffinity -1.48483634
REMARK minimizedRMSD -1
REMARK  0 active torsions:
REMARK  status: ('A' for Active; 'I' for Inactive)
ROOT
ATOM      1  N1  IND d   1       5.997   5.584  -2.362  0.00  0.00    -0.196 N 
ATOM      2  C2  IND d   1       5.009   5.958  -1.495  0.00  0.00     0.054 A 
ATOM      3  C3  IND d   1       3.805   5.540  -1.946  0.00  0.00    -0.031 A 
ATOM      4  C4  IND d   1       3.235   4.137  -4.028  0.00  0.00     0.051 A 
ATOM      5  C5  IND d   1       3.801   3.589  -5.145  0.00  0.00    -0.031 A 
ATOM      6  C6  IND d   1       5.155   3.677  -5.395  0.00  0.00     0.015 A 
ATOM      7  C7  IND d   1       6.000   4.310  -4.528  0.00  0.00    -0.016 A 
ATOM      8  C8  IND d   1       5.428   4.874  -3.396  0.00  0.00    -0.047 A 
ATOM      9  C9  IND d   1       4.049   4.825  -3.159  0.00  0.00    -0.096 A 
ATOM     10  HN1 IND d   1       6.834   5.763  -2.276  0.00  0.00     0.298 HD
ENDROOT
TORSDOF 0
ENDMDL
