MODEL 1
REMARK minimizedAffinity 3.60716176
REMARK minimizedRMSD -1
REMARK  0 active torsions:
REMARK  status: ('A' for Active; 'I' for Inactive)
ROOT
ATOM      1  N1  IND d   1       4.675   5.949  -2.491  0.00  0.00    -0.196 N 
ATOM      2  C2  IND d   1       5.406   5.247  -1.574  0.00  0.00     0.054 A 
ATOM      3  C3  IND d   1       5.999   4.182  -2.160  0.00  0.00    -0.031 A 
ATOM      4  C4  IND d   1       5.988   3.460  -4.631  0.00  0.00     0.051 A 
ATOM      5  C5  IND d   1       5.430   3.766  -5.841  0.00  0.00    -0.031 A 
ATOM      6  C6  IND d   1       4.577   4.839  -5.999  0.00  0.00     0.015 A 
ATOM      7  C7  IND d   1       4.257   5.656  -4.952  0.00  0.00    -0.016 A 
ATOM      8  C8  IND d   1       4.816   5.344  -3.721  0.00  0.00    -0.047 A 
ATOM      9  C9  IND d   1       5.649   4.231  -3.545  0.00  0.00    -0.096 A 
ATOM     10  HN1 IND d   1       4.206   6.650  -2.328  0.00  0.00     0.298 HD
ENDROOT
TORSDOF 0
ENDMDL
