MODEL 1
REMARK minimizedAffinity 0.383508146
REMARK minimizedRMSD -1
REMARK  0 active torsions:
REMARK  status: ('A' for Active; 'I' for Inactive)
ROOT
ATOM      1  N1  IND d   1       4.241   4.408  -5.624  0.00  0.00    -0.196 N 
ATOM      2  C2  IND d   1       5.160   3.467  -5.997  0.00  0.00     0.054 A 
ATOM      3  C3  IND d   1       6.000   3.198  -4.972  0.00  0.00    -0.031 A 
ATOM      4  C4  IND d   1       5.987   4.109  -2.564  0.00  0.00     0.051 A 
ATOM      5  C5  IND d   1       5.360   5.020  -1.761  0.00  0.00    -0.031 A 
ATOM      6  C6  IND d   1       4.305   5.786  -2.212  0.00  0.00     0.015 A 
ATOM      7  C7  IND d   1       3.828   5.662  -3.486  0.00  0.00    -0.016 A 
ATOM      8  C8  IND d   1       4.467   4.744  -4.307  0.00  0.00    -0.047 A 
ATOM      9  C9  IND d   1       5.565   3.994  -3.868  0.00  0.00    -0.096 A 
ATOM     10  HN1 IND d   1       3.626   4.735  -6.128  0.00  0.00     0.298 HD
ENDROOT
TORSDOF 0
ENDMDL
