MODEL 1
REMARK minimizedAffinity -4.29698372
REMARK minimizedRMSD -1
REMARK  0 active torsions:
REMARK  status: ('A' for Active; 'I' for Inactive)
ROOT
ATOM      1  C4' PXY d   1       1.412  -0.391   3.689  0.00  0.00     0.077 C 
ATOM      2  C1' PXY d   1      -2.182   1.352  -0.490  0.00  0.00     0.077 C 
ATOM      3  C1  PXY d   1      -1.244   0.904   0.614  0.00  0.00    -0.082 A 
ATOM      4  C2  PXY d   1      -0.138   0.246   0.306  0.00  0.00     0.003 A 
ATOM      5  C3  PXY d   1       0.705  -0.195   1.293  0.00  0.00     0.003 A 
ATOM      6  C4  PXY d   1       0.441   0.089   2.607  0.00  0.00    -0.082 A 
ATOM      7  C5  PXY d   1      -0.680   0.769   2.928  0.00  0.00     0.003 A 
ATOM      8  C6  PXY d   1      -1.543   1.172   1.914  0.00  0.00     0.003 A 
ENDROOT
TORSDOF 0
ENDMDL
