MODEL 1
REMARK minimizedAffinity -3.98109317
REMARK minimizedRMSD -1
REMARK  0 active torsions:
REMARK  status: ('A' for Active; 'I' for Inactive)
ROOT
ATOM      1  C4' PXY d   1      -0.959   0.729   3.173  0.00  0.00     0.077 C 
ATOM      2  C1' PXY d   1       0.263   0.012  -2.431  0.00  0.00     0.077 C 
ATOM      3  C1  PXY d   1      -0.048   0.193  -0.959  0.00  0.00    -0.082 A 
ATOM      4  C2  PXY d   1      -1.278   0.501  -0.582  0.00  0.00     0.003 A 
ATOM      5  C3  PXY d   1      -1.569   0.699   0.743  0.00  0.00     0.003 A 
ATOM      6  C4  PXY d   1      -0.602   0.528   1.698  0.00  0.00    -0.082 A 
ATOM      7  C5  PXY d   1       0.653   0.204   1.322  0.00  0.00     0.003 A 
ATOM      8  C6  PXY d   1       0.937   0.047  -0.031  0.00  0.00     0.003 A 
ENDROOT
TORSDOF 0
ENDMDL
