MODEL 1
REMARK minimizedAffinity -3.1418159
REMARK minimizedRMSD -1
REMARK  0 active torsions:
REMARK  status: ('A' for Active; 'I' for Inactive)
ROOT
ATOM      1  C4' PXY d   1       1.509   0.083  -4.027  0.00  0.00     0.077 C 
ATOM      2  C1' PXY d   1      -0.849  -0.013   1.250  0.00  0.00     0.077 C 
ATOM      3  C1  PXY d   1      -0.225   0.001  -0.131  0.00  0.00    -0.082 A 
ATOM      4  C2  PXY d   1      -0.042   1.154  -0.755  0.00  0.00     0.003 A 
ATOM      5  C3  PXY d   1       0.492   1.182  -2.018  0.00  0.00     0.003 A 
ATOM      6  C4  PXY d   1       0.891   0.022  -2.627  0.00  0.00    -0.082 A 
ATOM      7  C5  PXY d   1       0.718  -1.157  -1.993  0.00  0.00     0.003 A 
ATOM      8  C6  PXY d   1       0.136  -1.167  -0.728  0.00  0.00     0.003 A 
ENDROOT
TORSDOF 0
ENDMDL
