MODEL 1
REMARK minimizedAffinity -4.30979061
REMARK minimizedRMSD -1
REMARK  0 active torsions:
REMARK  status: ('A' for Active; 'I' for Inactive)
ROOT
ATOM      1  C4' PXY d   1       1.525   0.105  -3.226  0.00  0.00     0.077 C 
ATOM      2  C1' PXY d   1      -1.634   0.162   1.614  0.00  0.00     0.077 C 
ATOM      3  C1  PXY d   1      -0.796   0.141   0.351  0.00  0.00    -0.082 A 
ATOM      4  C2  PXY d   1      -1.022   1.034  -0.599  0.00  0.00     0.003 A 
ATOM      5  C3  PXY d   1      -0.295   1.009  -1.761  0.00  0.00     0.003 A 
ATOM      6  C4  PXY d   1       0.710   0.095  -1.930  0.00  0.00    -0.082 A 
ATOM      7  C5  PXY d   1       0.954  -0.813  -0.961  0.00  0.00     0.003 A 
ATOM      8  C6  PXY d   1       0.177  -0.797   0.194  0.00  0.00     0.003 A 
ENDROOT
TORSDOF 0
ENDMDL
