MODEL 1
REMARK minimizedAffinity 0.662122369
REMARK minimizedRMSD -1
REMARK  0 active torsions:
REMARK  status: ('A' for Active; 'I' for Inactive)
ROOT
ATOM      1  C4' PXY d   1       0.827  -0.050  -3.212  0.00  0.00     0.077 C 
ATOM      2  C1' PXY d   1      -2.180   0.523   1.691  0.00  0.00     0.077 C 
ATOM      3  C1  PXY d   1      -1.381   0.371   0.412  0.00  0.00    -0.082 A 
ATOM      4  C2  PXY d   1      -1.812   0.941  -0.701  0.00  0.00     0.003 A 
ATOM      5  C3  PXY d   1      -1.119   0.786  -1.873  0.00  0.00     0.003 A 
ATOM      6  C4  PXY d   1       0.057   0.085  -1.895  0.00  0.00    -0.082 A 
ATOM      7  C5  PXY d   1       0.510  -0.490  -0.762  0.00  0.00     0.003 A 
ATOM      8  C6  PXY d   1      -0.230  -0.356   0.409  0.00  0.00     0.003 A 
ENDROOT
TORSDOF 0
ENDMDL
