MODEL 1
REMARK minimizedAffinity -2.10542345
REMARK minimizedRMSD -1
REMARK  0 active torsions:
REMARK  status: ('A' for Active; 'I' for Inactive)
ROOT
ATOM      1  C4' PXY d   1       0.182  -0.438  -2.952  0.00  0.00     0.077 C 
ATOM      2  C1' PXY d   1      -1.237   0.610   2.553  0.00  0.00     0.077 C 
ATOM      3  C1  PXY d   1      -0.852   0.334   1.113  0.00  0.00    -0.082 A 
ATOM      4  C2  PXY d   1      -1.605   0.806   0.133  0.00  0.00     0.003 A 
ATOM      5  C3  PXY d   1      -1.290   0.538  -1.174  0.00  0.00     0.003 A 
ATOM      6  C4  PXY d   1      -0.163  -0.175  -1.483  0.00  0.00    -0.082 A 
ATOM      7  C5  PXY d   1       0.616  -0.651  -0.489  0.00  0.00     0.003 A 
ATOM      8  C6  PXY d   1       0.256  -0.404   0.833  0.00  0.00     0.003 A 
ENDROOT
TORSDOF 0
ENDMDL
