MODEL 1
REMARK minimizedAffinity -1.84617233
REMARK minimizedRMSD -1
REMARK  0 active torsions:
REMARK  status: ('A' for Active; 'I' for Inactive)
ROOT
ATOM      1  C4' PXY d   1       0.345  -0.349  -3.019  0.00  0.00     0.077 C 
ATOM      2  C1' PXY d   1      -1.775   0.150   2.336  0.00  0.00     0.077 C 
ATOM      3  C1  PXY d   1      -1.214   0.008   0.935  0.00  0.00    -0.082 A 
ATOM      4  C2  PXY d   1      -1.011   1.088   0.199  0.00  0.00     0.003 A 
ATOM      5  C3  PXY d   1      -0.534   0.975  -1.082  0.00  0.00     0.003 A 
ATOM      6  C4  PXY d   1      -0.211  -0.252  -1.595  0.00  0.00    -0.082 A 
ATOM      7  C5  PXY d   1      -0.405  -1.358  -0.847  0.00  0.00     0.003 A 
ATOM      8  C6  PXY d   1      -0.928  -1.226   0.436  0.00  0.00     0.003 A 
ENDROOT
TORSDOF 0
ENDMDL
