MODEL 1
REMARK minimizedAffinity -4.339221
REMARK minimizedRMSD -1
REMARK  0 active torsions:
REMARK  status: ('A' for Active; 'I' for Inactive)
ROOT
ATOM      1  C4' PXY d   1       1.604   0.408  -2.984  0.00  0.00     0.077 C 
ATOM      2  C1' PXY d   1      -1.948   0.317   1.575  0.00  0.00     0.077 C 
ATOM      3  C1  PXY d   1      -1.012   0.330   0.383  0.00  0.00    -0.082 A 
ATOM      4  C2  PXY d   1      -0.662   1.483  -0.162  0.00  0.00     0.003 A 
ATOM      5  C3  PXY d   1       0.159   1.511  -1.260  0.00  0.00     0.003 A 
ATOM      6  C4  PXY d   1       0.668   0.348  -1.774  0.00  0.00    -0.082 A 
ATOM      7  C5  PXY d   1       0.324  -0.832  -1.217  0.00  0.00     0.003 A 
ATOM      8  C6  PXY d   1      -0.543  -0.841  -0.128  0.00  0.00     0.003 A 
ENDROOT
TORSDOF 0
ENDMDL
