MODEL 1
REMARK minimizedAffinity -1.46420896
REMARK minimizedRMSD -1
REMARK  0 active torsions:
REMARK  status: ('A' for Active; 'I' for Inactive)
ROOT
ATOM      1  C4' PXY d   1      -1.236  -0.158   1.257  0.00  0.00     0.077 C 
ATOM      2  C1' PXY d   1       1.646   0.249  -3.737  0.00  0.00     0.077 C 
ATOM      3  C1  PXY d   1       0.890   0.129  -2.428  0.00  0.00    -0.082 A 
ATOM      4  C2  PXY d   1       0.148   1.140  -2.006  0.00  0.00     0.003 A 
ATOM      5  C3  PXY d   1      -0.516   1.061  -0.810  0.00  0.00     0.003 A 
ATOM      6  C4  PXY d   1      -0.464  -0.085  -0.062  0.00  0.00    -0.082 A 
ATOM      7  C5  PXY d   1       0.283  -1.125  -0.491  0.00  0.00     0.003 A 
ATOM      8  C6  PXY d   1       0.983  -1.009  -1.688  0.00  0.00     0.003 A 
ENDROOT
TORSDOF 0
ENDMDL
