MODEL 1
REMARK minimizedAffinity -0.00897202734
REMARK minimizedRMSD -1
REMARK  0 active torsions:
REMARK  status: ('A' for Active; 'I' for Inactive)
ROOT
ATOM      1  C4' PXY d   1       0.887  -0.230  -3.721  0.00  0.00     0.077 C 
ATOM      2  C1' PXY d   1      -1.749  -0.165   1.423  0.00  0.00     0.077 C 
ATOM      3  C1  PXY d   1      -1.046  -0.181   0.080  0.00  0.00    -0.082 A 
ATOM      4  C2  PXY d   1      -1.716   0.147  -1.013  0.00  0.00     0.003 A 
ATOM      5  C3  PXY d   1      -1.105   0.108  -2.240  0.00  0.00     0.003 A 
ATOM      6  C4  PXY d   1       0.221  -0.220  -2.343  0.00  0.00    -0.082 A 
ATOM      7  C5  PXY d   1       0.914  -0.546  -1.231  0.00  0.00     0.003 A 
ATOM      8  C6  PXY d   1       0.264  -0.539  -0.001  0.00  0.00     0.003 A 
ENDROOT
TORSDOF 0
ENDMDL
