MODEL 1
REMARK minimizedAffinity -3.79970527
REMARK minimizedRMSD -1
REMARK  0 active torsions:
REMARK  status: ('A' for Active; 'I' for Inactive)
ROOT
ATOM      1  C4' PXY d   1      -1.518   0.709   1.857  0.00  0.00     0.077 C 
ATOM      2  C1' PXY d   1       0.947  -0.029  -3.320  0.00  0.00     0.077 C 
ATOM      3  C1  PXY d   1       0.297   0.177  -1.966  0.00  0.00    -0.082 A 
ATOM      4  C2  PXY d   1       0.719  -0.523  -0.925  0.00  0.00     0.003 A 
ATOM      5  C3  PXY d   1       0.121  -0.372   0.300  0.00  0.00     0.003 A 
ATOM      6  C4  PXY d   1      -0.884   0.542   0.473  0.00  0.00    -0.082 A 
ATOM      7  C5  PXY d   1      -1.313   1.267  -0.582  0.00  0.00     0.003 A 
ATOM      8  C6  PXY d   1      -0.720   1.070  -1.826  0.00  0.00     0.003 A 
ENDROOT
TORSDOF 0
ENDMDL
