MODEL 1
REMARK minimizedAffinity -4.08195734
REMARK minimizedRMSD -1
REMARK  0 active torsions:
REMARK  status: ('A' for Active; 'I' for Inactive)
ROOT
ATOM      1  C4' PXY d   1       0.492  -0.299   4.042  0.00  0.00     0.077 C 
ATOM      2  C1' PXY d   1      -0.147  -0.726  -1.687  0.00  0.00     0.077 C 
ATOM      3  C1  PXY d   1       0.012  -0.605  -0.184  0.00  0.00    -0.082 A 
ATOM      4  C2  PXY d   1       1.153  -0.958   0.384  0.00  0.00     0.003 A 
ATOM      5  C3  PXY d   1       1.302  -0.885   1.745  0.00  0.00     0.003 A 
ATOM      6  C4  PXY d   1       0.291  -0.395   2.528  0.00  0.00    -0.082 A 
ATOM      7  C5  PXY d   1      -0.873  -0.023   1.954  0.00  0.00     0.003 A 
ATOM      8  C6  PXY d   1      -1.019  -0.143   0.575  0.00  0.00     0.003 A 
ENDROOT
TORSDOF 0
ENDMDL
