MODEL 1
REMARK minimizedAffinity -3.07035756
REMARK minimizedRMSD -1
REMARK  1 active torsions:
REMARK  status: ('A' for Active; 'I' for Inactive)
REMARK    1  A    between atoms: C1_2  and  C2_3 
ROOT
ATOM      1  C2  UNL d   1      -0.533  -0.113   0.575  0.00  0.00    -0.081 A 
ATOM      2  C3  UNL d   1      -0.246  -1.392   0.081  0.00  0.00     0.006 A 
ATOM      3  C4  UNL d   1       0.927  -1.625  -0.641  0.00  0.00     0.002 A 
ATOM      4  C5  UNL d   1       1.835  -0.586  -0.875  0.00  0.00    -0.080 A 
ATOM      5  C6  UNL d   1       3.112  -0.830  -1.622  0.00  0.00     0.076 C 
ATOM      6  C7  UNL d   1       1.539   0.695  -0.396  0.00  0.00     0.002 A 
ATOM      7  C8  UNL d   1       0.367   0.928   0.325  0.00  0.00     0.006 A 
ENDROOT
BRANCH   1   8
ATOM      8  C1  UNL d   1      -1.766   0.127   1.409  0.00  0.00     0.054 C 
ATOM      9  C   UNL d   1      -1.419   0.242   2.887  0.00  0.00     0.018 C 
ENDBRANCH   1   8
TORSDOF 1
ENDMDL
