MODEL 1
REMARK minimizedAffinity -2.927984
REMARK minimizedRMSD -1
REMARK  1 active torsions:
REMARK  status: ('A' for Active; 'I' for Inactive)
REMARK    1  A    between atoms: C1_2  and  C2_3 
ROOT
ATOM      1  C2  UNL d   1      -0.517  -0.003  -0.540  0.00  0.00    -0.081 A 
ATOM      2  C3  UNL d   1       0.043   1.156  -1.090  0.00  0.00     0.006 A 
ATOM      3  C4  UNL d   1       1.349   1.146  -1.585  0.00  0.00     0.002 A 
ATOM      4  C5  UNL d   1       2.114  -0.025  -1.544  0.00  0.00    -0.080 A 
ATOM      5  C6  UNL d   1       3.507  -0.058  -2.099  0.00  0.00     0.076 C 
ATOM      6  C7  UNL d   1       1.561  -1.179  -0.978  0.00  0.00     0.002 A 
ATOM      7  C8  UNL d   1       0.255  -1.168  -0.483  0.00  0.00     0.006 A 
ENDROOT
BRANCH   1   8
ATOM      8  C1  UNL d   1      -1.948  -0.012  -0.065  0.00  0.00     0.054 C 
ATOM      9  C   UNL d   1      -2.027  -0.147   1.449  0.00  0.00     0.018 C 
ENDBRANCH   1   8
TORSDOF 1
ENDMDL
