MODEL 1
REMARK minimizedAffinity -0.797664702
REMARK minimizedRMSD -1
REMARK  1 active torsions:
REMARK  status: ('A' for Active; 'I' for Inactive)
REMARK    1  A    between atoms: C1_2  and  C2_3 
ROOT
ATOM      1  C2  UNL d   1       0.194   0.384   1.262  0.00  0.00    -0.081 A 
ATOM      2  C3  UNL d   1       1.434   0.722   0.705  0.00  0.00     0.006 A 
ATOM      3  C4  UNL d   1       1.904   0.060  -0.431  0.00  0.00     0.002 A 
ATOM      4  C5  UNL d   1       1.140  -0.945  -1.034  0.00  0.00    -0.080 A 
ATOM      5  C6  UNL d   1       1.619  -1.643  -2.272  0.00  0.00     0.076 C 
ATOM      6  C7  UNL d   1      -0.091  -1.295  -0.468  0.00  0.00     0.002 A 
ATOM      7  C8  UNL d   1      -0.561  -0.633   0.668  0.00  0.00     0.006 A 
ENDROOT
BRANCH   1   8
ATOM      8  C1  UNL d   1      -0.345   1.141   2.449  0.00  0.00     0.054 C 
ATOM      9  C   UNL d   1      -1.696   0.594   2.887  0.00  0.00     0.018 C 
ENDBRANCH   1   8
TORSDOF 1
ENDMDL
