MODEL 1
REMARK minimizedAffinity -2.01680946
REMARK minimizedRMSD -1
REMARK  1 active torsions:
REMARK  status: ('A' for Active; 'I' for Inactive)
REMARK    1  A    between atoms: C1_2  and  C2_3 
ROOT
ATOM      1  C2  UNL d   1      -0.451  -0.188   0.159  0.00  0.00    -0.081 A 
ATOM      2  C3  UNL d   1      -0.132  -1.330  -0.586  0.00  0.00     0.006 A 
ATOM      3  C4  UNL d   1       1.158  -1.508  -1.093  0.00  0.00     0.002 A 
ATOM      4  C5  UNL d   1       2.151  -0.551  -0.857  0.00  0.00    -0.080 A 
ATOM      5  C6  UNL d   1       3.547  -0.744  -1.370  0.00  0.00     0.076 C 
ATOM      6  C7  UNL d   1       1.828   0.598  -0.128  0.00  0.00     0.002 A 
ATOM      7  C8  UNL d   1       0.539   0.777   0.379  0.00  0.00     0.006 A 
ENDROOT
BRANCH   1   8
ATOM      8  C1  UNL d   1      -1.823  -0.025   0.762  0.00  0.00     0.054 C 
ATOM      9  C   UNL d   1      -1.752   0.655   2.122  0.00  0.00     0.018 C 
ENDBRANCH   1   8
TORSDOF 1
ENDMDL
