MODEL 1
REMARK minimizedAffinity -4.12306023
REMARK minimizedRMSD -1
REMARK  1 active torsions:
REMARK  status: ('A' for Active; 'I' for Inactive)
REMARK    1  A    between atoms: C1_2  and  C2_3 
ROOT
ATOM      1  C2  UNL d   1      -0.732   0.279   0.610  0.00  0.00    -0.081 A 
ATOM      2  C3  UNL d   1      -0.118  -0.976   0.700  0.00  0.00     0.006 A 
ATOM      3  C4  UNL d   1       1.089  -1.223   0.042  0.00  0.00     0.002 A 
ATOM      4  C5  UNL d   1       1.706  -0.217  -0.709  0.00  0.00    -0.080 A 
ATOM      5  C6  UNL d   1       3.017  -0.460  -1.396  0.00  0.00     0.076 C 
ATOM      6  C7  UNL d   1       1.084   1.031  -0.814  0.00  0.00     0.002 A 
ATOM      7  C8  UNL d   1      -0.124   1.278  -0.157  0.00  0.00     0.006 A 
ENDROOT
BRANCH   1   8
ATOM      8  C1  UNL d   1      -2.001   0.568   1.371  0.00  0.00     0.054 C 
ATOM      9  C   UNL d   1      -1.701   1.099   2.766  0.00  0.00     0.018 C 
ENDBRANCH   1   8
TORSDOF 1
ENDMDL
