MODEL 1
REMARK minimizedAffinity -4.62251186
REMARK minimizedRMSD -1
REMARK  1 active torsions:
REMARK  status: ('A' for Active; 'I' for Inactive)
REMARK    1  A    between atoms: C1_2  and  C2_3 
ROOT
ATOM      1  C2  UNL d   1      -0.870  -0.084   0.770  0.00  0.00    -0.081 A 
ATOM      2  C3  UNL d   1      -0.373  -1.335   0.386  0.00  0.00     0.006 A 
ATOM      3  C4  UNL d   1       0.834  -1.434  -0.311  0.00  0.00     0.002 A 
ATOM      4  C5  UNL d   1       1.567  -0.286  -0.628  0.00  0.00    -0.080 A 
ATOM      5  C6  UNL d   1       2.878  -0.380  -1.350  0.00  0.00     0.076 C 
ATOM      6  C7  UNL d   1       1.062   0.966  -0.260  0.00  0.00     0.002 A 
ATOM      7  C8  UNL d   1      -0.145   1.066   0.436  0.00  0.00     0.006 A 
ENDROOT
BRANCH   1   8
ATOM      8  C1  UNL d   1      -2.138   0.022   1.578  0.00  0.00     0.054 C 
ATOM      9  C   UNL d   1      -1.909   0.796   2.869  0.00  0.00     0.018 C 
ENDBRANCH   1   8
TORSDOF 1
ENDMDL
