MODEL 1
REMARK minimizedAffinity -2.42014432
REMARK minimizedRMSD -1
REMARK  1 active torsions:
REMARK  status: ('A' for Active; 'I' for Inactive)
REMARK    1  A    between atoms: C1_2  and  C2_3 
ROOT
ATOM      1  C2  UNL d   1      -2.591   3.530   3.993  0.00  0.00    -0.081 A 
ATOM      2  C3  UNL d   1      -3.310   4.454   3.225  0.00  0.00     0.006 A 
ATOM      3  C4  UNL d   1      -4.299   5.246   3.812  0.00  0.00     0.002 A 
ATOM      4  C5  UNL d   1      -4.580   5.134   5.178  0.00  0.00    -0.080 A 
ATOM      5  C6  UNL d   1      -5.618   5.999   5.827  0.00  0.00     0.076 C 
ATOM      6  C7  UNL d   1      -3.874   4.198   5.942  0.00  0.00     0.002 A 
ATOM      7  C8  UNL d   1      -2.885   3.405   5.355  0.00  0.00     0.006 A 
ENDROOT
BRANCH   1   8
ATOM      8  C1  UNL d   1      -1.479   2.720   3.376  0.00  0.00     0.054 C 
ATOM      9  C   UNL d   1      -1.814   1.236   3.369  0.00  0.00     0.018 C 
ENDBRANCH   1   8
TORSDOF 1
ENDMDL
