MODEL 1
REMARK minimizedAffinity -3.47427535
REMARK minimizedRMSD -1
REMARK  1 active torsions:
REMARK  status: ('A' for Active; 'I' for Inactive)
REMARK    1  A    between atoms: C1_2  and  C2_3 
ROOT
ATOM      1  C2  UNL d   1      -1.054  -0.178   0.091  0.00  0.00    -0.081 A 
ATOM      2  C3  UNL d   1      -0.436  -1.433   0.036  0.00  0.00     0.006 A 
ATOM      3  C4  UNL d   1       0.827  -1.575  -0.545  0.00  0.00     0.002 A 
ATOM      4  C5  UNL d   1       1.495  -0.465  -1.072  0.00  0.00    -0.080 A 
ATOM      5  C6  UNL d   1       2.864  -0.598  -1.670  0.00  0.00     0.076 C 
ATOM      6  C7  UNL d   1       0.869   0.786  -1.032  0.00  0.00     0.002 A 
ATOM      7  C8  UNL d   1      -0.393   0.929  -0.453  0.00  0.00     0.006 A 
ENDROOT
BRANCH   1   8
ATOM      8  C1  UNL d   1      -2.388  -0.010   0.774  0.00  0.00     0.054 C 
ATOM      9  C   UNL d   1      -2.216   0.282   2.258  0.00  0.00     0.018 C 
ENDBRANCH   1   8
TORSDOF 1
ENDMDL
