MODEL 1
REMARK minimizedAffinity -4.96672773
REMARK minimizedRMSD -1
REMARK  1 active torsions:
REMARK  status: ('A' for Active; 'I' for Inactive)
REMARK    1  A    between atoms: C1_2  and  C2_3 
ROOT
ATOM      1  C2  UNL d   1      -0.716   0.084   0.510  0.00  0.00    -0.081 A 
ATOM      2  C3  UNL d   1      -0.373  -1.106  -0.143  0.00  0.00     0.006 A 
ATOM      3  C4  UNL d   1       0.845  -1.218  -0.818  0.00  0.00     0.002 A 
ATOM      4  C5  UNL d   1       1.743  -0.145  -0.845  0.00  0.00    -0.080 A 
ATOM      5  C6  UNL d   1       3.067  -0.261  -1.540  0.00  0.00     0.076 C 
ATOM      6  C7  UNL d   1       1.392   1.050  -0.207  0.00  0.00     0.002 A 
ATOM      7  C8  UNL d   1       0.174   1.162   0.467  0.00  0.00     0.006 A 
ENDROOT
BRANCH   1   8
ATOM      8  C1  UNL d   1      -2.000   0.185   1.293  0.00  0.00     0.054 C 
ATOM      9  C   UNL d   1      -1.746   0.677   2.711  0.00  0.00     0.018 C 
ENDBRANCH   1   8
TORSDOF 1
ENDMDL
