MODEL 1
REMARK minimizedAffinity -5.12078285
REMARK minimizedRMSD -1
REMARK  1 active torsions:
REMARK  status: ('A' for Active; 'I' for Inactive)
REMARK    1  A    between atoms: C1_2  and  C2_3 
ROOT
ATOM      1  C2  UNL d   1      -0.863   0.009   0.469  0.00  0.00    -0.081 A 
ATOM      2  C3  UNL d   1      -0.585  -1.299   0.051  0.00  0.00     0.006 A 
ATOM      3  C4  UNL d   1       0.584  -1.582  -0.659  0.00  0.00     0.002 A 
ATOM      4  C5  UNL d   1       1.497  -0.565  -0.956  0.00  0.00    -0.080 A 
ATOM      5  C6  UNL d   1       2.771  -0.861  -1.692  0.00  0.00     0.076 C 
ATOM      6  C7  UNL d   1       1.211   0.744  -0.555  0.00  0.00     0.002 A 
ATOM      7  C8  UNL d   1       0.042   1.028   0.155  0.00  0.00     0.006 A 
ENDROOT
BRANCH   1   8
ATOM      8  C1  UNL d   1      -2.092   0.306   1.291  0.00  0.00     0.054 C 
ATOM      9  C   UNL d   1      -1.786   1.298   2.403  0.00  0.00     0.018 C 
ENDBRANCH   1   8
TORSDOF 1
ENDMDL
