MODEL 1
REMARK minimizedAffinity -5.83021307
REMARK minimizedRMSD -1
REMARK  1 active torsions:
REMARK  status: ('A' for Active; 'I' for Inactive)
REMARK    1  A    between atoms: C1_2  and  C2_3 
ROOT
ATOM      1  C2  UNL d   1      -0.929  -0.008   1.050  0.00  0.00    -0.081 A 
ATOM      2  C3  UNL d   1      -0.540  -1.223   0.472  0.00  0.00     0.006 A 
ATOM      3  C4  UNL d   1       0.575  -1.283  -0.367  0.00  0.00     0.002 A 
ATOM      4  C5  UNL d   1       1.324  -0.132  -0.635  0.00  0.00    -0.080 A 
ATOM      5  C6  UNL d   1       2.541  -0.189  -1.510  0.00  0.00     0.076 C 
ATOM      6  C7  UNL d   1       0.926   1.085  -0.072  0.00  0.00     0.002 A 
ATOM      7  C8  UNL d   1      -0.190   1.145   0.766  0.00  0.00     0.006 A 
ENDROOT
BRANCH   1   8
ATOM      8  C1  UNL d   1      -2.092   0.048   2.007  0.00  0.00     0.054 C 
ATOM      9  C   UNL d   1      -2.008   1.270   2.909  0.00  0.00     0.018 C 
ENDBRANCH   1   8
TORSDOF 1
ENDMDL
