MODEL 1
REMARK minimizedAffinity -2.72559071
REMARK minimizedRMSD -1
REMARK  1 active torsions:
REMARK  status: ('A' for Active; 'I' for Inactive)
REMARK    1  A    between atoms: C1_2  and  C2_3 
ROOT
ATOM      1  C2  UNL d   1       0.634  -0.423  -0.729  0.00  0.00    -0.081 A 
ATOM      2  C3  UNL d   1       1.130  -0.029   0.520  0.00  0.00     0.006 A 
ATOM      3  C4  UNL d   1       0.256   0.357   1.539  0.00  0.00     0.002 A 
ATOM      4  C5  UNL d   1      -1.127   0.348   1.330  0.00  0.00    -0.080 A 
ATOM      5  C6  UNL d   1      -2.077   0.731   2.425  0.00  0.00     0.076 C 
ATOM      6  C7  UNL d   1      -1.622  -0.028   0.077  0.00  0.00     0.002 A 
ATOM      7  C8  UNL d   1      -0.749  -0.414  -0.943  0.00  0.00     0.006 A 
ENDROOT
BRANCH   1   8
ATOM      8  C1  UNL d   1       1.570  -0.901  -1.809  0.00  0.00     0.054 C 
ATOM      9  C   UNL d   1       3.024  -0.675  -1.421  0.00  0.00     0.018 C 
ENDBRANCH   1   8
TORSDOF 1
ENDMDL
