MODEL 1
REMARK minimizedAffinity 0.402627826
REMARK minimizedRMSD -1
REMARK  1 active torsions:
REMARK  status: ('A' for Active; 'I' for Inactive)
REMARK    1  A    between atoms: C1_2  and  C2_3 
ROOT
ATOM      1  C2  UNL d   1      -0.653  -0.044   0.317  0.00  0.00    -0.081 A 
ATOM      2  C3  UNL d   1      -0.056   1.086   0.889  0.00  0.00     0.006 A 
ATOM      3  C4  UNL d   1      -0.598   1.667   2.038  0.00  0.00     0.002 A 
ATOM      4  C5  UNL d   1      -1.739   1.125   2.637  0.00  0.00    -0.080 A 
ATOM      5  C6  UNL d   1      -2.313   1.722   3.888  0.00  0.00     0.076 C 
ATOM      6  C7  UNL d   1      -2.346   0.006   2.056  0.00  0.00     0.002 A 
ATOM      7  C8  UNL d   1      -1.805  -0.575   0.907  0.00  0.00     0.006 A 
ENDROOT
BRANCH   1   8
ATOM      8  C1  UNL d   1      -0.034  -0.713  -0.884  0.00  0.00     0.054 C 
ATOM      9  C   UNL d   1       1.241  -1.454  -0.509  0.00  0.00     0.018 C 
ENDBRANCH   1   8
TORSDOF 1
ENDMDL
