MODEL 1
REMARK minimizedAffinity -1.09124613
REMARK minimizedRMSD -1
REMARK  1 active torsions:
REMARK  status: ('A' for Active; 'I' for Inactive)
REMARK    1  A    between atoms: C1_2  and  C2_3 
ROOT
ATOM      1  C2  UNL d   1      -0.938   0.258   0.553  0.00  0.00    -0.081 A 
ATOM      2  C3  UNL d   1      -0.942  -0.873  -0.272  0.00  0.00     0.006 A 
ATOM      3  C4  UNL d   1       0.213  -1.251  -0.961  0.00  0.00     0.002 A 
ATOM      4  C5  UNL d   1       1.392  -0.510  -0.830  0.00  0.00    -0.080 A 
ATOM      5  C6  UNL d   1       2.647  -0.923  -1.540  0.00  0.00     0.076 C 
ATOM      6  C7  UNL d   1       1.391   0.630  -0.020  0.00  0.00     0.002 A 
ATOM      7  C8  UNL d   1       0.237   1.009   0.669  0.00  0.00     0.006 A 
ENDROOT
BRANCH   1   8
ATOM      8  C1  UNL d   1      -2.163   0.632   1.348  0.00  0.00     0.054 C 
ATOM      9  C   UNL d   1      -1.835   1.661   2.420  0.00  0.00     0.018 C 
ENDBRANCH   1   8
TORSDOF 1
ENDMDL
