MODEL 1
REMARK minimizedAffinity -3.58590603
REMARK minimizedRMSD -1
REMARK  1 active torsions:
REMARK  status: ('A' for Active; 'I' for Inactive)
REMARK    1  A    between atoms: C1_2  and  C2_3 
ROOT
ATOM      1  C2  UNL d   1      -1.448  -0.120   1.002  0.00  0.00    -0.081 A 
ATOM      2  C3  UNL d   1      -0.454  -1.106   0.975  0.00  0.00     0.006 A 
ATOM      3  C4  UNL d   1       0.666  -0.960   0.152  0.00  0.00     0.002 A 
ATOM      4  C5  UNL d   1       0.814   0.177  -0.649  0.00  0.00    -0.080 A 
ATOM      5  C6  UNL d   1       2.026   0.361  -1.514  0.00  0.00     0.076 C 
ATOM      6  C7  UNL d   1      -0.187   1.154  -0.635  0.00  0.00     0.002 A 
ATOM      7  C8  UNL d   1      -1.307   1.008   0.186  0.00  0.00     0.006 A 
ENDROOT
BRANCH   1   8
ATOM      8  C1  UNL d   1      -2.625  -0.244   1.936  0.00  0.00     0.054 C 
ATOM      9  C   UNL d   1      -2.192  -0.125   3.390  0.00  0.00     0.018 C 
ENDBRANCH   1   8
TORSDOF 1
ENDMDL
