MODEL 1
REMARK minimizedAffinity -4.3625741
REMARK minimizedRMSD -1
REMARK  1 active torsions:
REMARK  status: ('A' for Active; 'I' for Inactive)
REMARK    1  A    between atoms: C1_2  and  C2_3 
ROOT
ATOM      1  C2  UNL d   1      -1.075   0.541   0.760  0.00  0.00    -0.081 A 
ATOM      2  C3  UNL d   1      -0.155  -0.336   1.348  0.00  0.00     0.006 A 
ATOM      3  C4  UNL d   1       0.981  -0.745   0.647  0.00  0.00     0.002 A 
ATOM      4  C5  UNL d   1       1.221  -0.279  -0.650  0.00  0.00    -0.080 A 
ATOM      5  C6  UNL d   1       2.452  -0.687  -1.403  0.00  0.00     0.076 C 
ATOM      6  C7  UNL d   1       0.293   0.583  -1.245  0.00  0.00     0.002 A 
ATOM      7  C8  UNL d   1      -0.844   0.992  -0.544  0.00  0.00     0.006 A 
ENDROOT
BRANCH   1   8
ATOM      8  C1  UNL d   1      -2.268   1.035   1.538  0.00  0.00     0.054 C 
ATOM      9  C   UNL d   1      -1.840   1.880   2.730  0.00  0.00     0.018 C 
ENDBRANCH   1   8
TORSDOF 1
ENDMDL
