MODEL 1
REMARK minimizedAffinity 12.0962925
REMARK minimizedRMSD -1
REMARK  0 active torsions:
REMARK  status: ('A' for Active; 'I' for Inactive)
ROOT
ATOM      1  C   UNL d   1      -1.418   1.859  -3.658  0.00  0.00     0.124 A 
ATOM      2  C1  UNL d   1      -0.246   2.525  -3.328  0.00  0.00     0.062 A 
ATOM      3  C2  UNL d   1       0.957   1.829  -3.250  0.00  0.00     0.162 A 
ATOM      4  C3  UNL d   1       0.995   0.458  -3.505  0.00  0.00    -0.034 A 
ATOM      5  C4  UNL d   1      -0.189  -0.205  -3.835  0.00  0.00     0.162 A 
ATOM      6  C5  UNL d   1      -1.388   0.495  -3.911  0.00  0.00     0.062 A 
ATOM      7  F   UNL d   1      -2.519  -0.151  -4.231  0.00  0.00    -0.097 F 
ATOM      8  F1  UNL d   1      -0.188  -1.523  -4.086  0.00  0.00    -0.096 F 
ATOM      9  I   UNL d   1       2.791  -0.586  -3.390  0.00  0.00    -0.060 I 
ATOM     10  F2  UNL d   1       2.074   2.498  -2.929  0.00  0.00    -0.096 F 
ATOM     11  F3  UNL d   1      -0.272   3.843  -3.081  0.00  0.00    -0.097 F 
ATOM     12  F4  UNL d   1      -2.574   2.531  -3.731  0.00  0.00    -0.092 F 
ENDROOT
TORSDOF 0
ENDMDL
