MODEL 1
REMARK minimizedAffinity 4.87254143
REMARK minimizedRMSD -1
REMARK  0 active torsions:
REMARK  status: ('A' for Active; 'I' for Inactive)
ROOT
ATOM      1  C   UNL d   1      -1.226   1.615  -3.216  0.00  0.00     0.124 A 
ATOM      2  C1  UNL d   1       0.062   1.916  -2.795  0.00  0.00     0.062 A 
ATOM      3  C2  UNL d   1       1.092   1.000  -2.986  0.00  0.00     0.162 A 
ATOM      4  C3  UNL d   1       0.840  -0.226  -3.602  0.00  0.00    -0.034 A 
ATOM      5  C4  UNL d   1      -0.459  -0.522  -4.021  0.00  0.00     0.162 A 
ATOM      6  C5  UNL d   1      -1.485   0.397  -3.828  0.00  0.00     0.062 A 
ATOM      7  F   UNL d   1      -2.729   0.104  -4.236  0.00  0.00    -0.097 F 
ATOM      8  F1  UNL d   1      -0.737  -1.691  -4.617  0.00  0.00    -0.096 F 
ATOM      9  I   UNL d   1       2.378  -1.598  -3.889  0.00  0.00    -0.060 I 
ATOM     10  F2  UNL d   1       2.327   1.317  -2.569  0.00  0.00    -0.096 F 
ATOM     11  F3  UNL d   1       0.314   3.091  -2.203  0.00  0.00    -0.097 F 
ATOM     12  F4  UNL d   1      -2.216   2.497  -3.031  0.00  0.00    -0.092 F 
ENDROOT
TORSDOF 0
ENDMDL
