MODEL 1
REMARK minimizedAffinity 9.52529049
REMARK minimizedRMSD -1
REMARK  0 active torsions:
REMARK  status: ('A' for Active; 'I' for Inactive)
ROOT
ATOM      1  C   UNL d   1       1.456   0.799  -3.157  0.00  0.00     0.124 A 
ATOM      2  C1  UNL d   1       0.864  -0.351  -3.662  0.00  0.00     0.062 A 
ATOM      3  C2  UNL d   1      -0.479  -0.345  -4.027  0.00  0.00     0.162 A 
ATOM      4  C3  UNL d   1      -1.240   0.817  -3.891  0.00  0.00    -0.034 A 
ATOM      5  C4  UNL d   1      -0.638   1.969  -3.382  0.00  0.00     0.162 A 
ATOM      6  C5  UNL d   1       0.704   1.957  -3.018  0.00  0.00     0.062 A 
ATOM      7  F   UNL d   1       1.274   3.069  -2.531  0.00  0.00    -0.097 F 
ATOM      8  F1  UNL d   1      -1.341   3.102  -3.238  0.00  0.00    -0.096 F 
ATOM      9  I   UNL d   1      -3.249   0.830  -4.436  0.00  0.00    -0.060 I 
ATOM     10  F2  UNL d   1      -1.025  -1.470  -4.512  0.00  0.00    -0.096 F 
ATOM     11  F3  UNL d   1       1.587  -1.472  -3.796  0.00  0.00    -0.097 F 
ATOM     12  F4  UNL d   1       2.748   0.789  -2.805  0.00  0.00    -0.092 F 
ENDROOT
TORSDOF 0
ENDMDL
