MODEL 1
REMARK minimizedAffinity 16.2836456
REMARK minimizedRMSD -1
REMARK  0 active torsions:
REMARK  status: ('A' for Active; 'I' for Inactive)
ROOT
ATOM      1  C   UNL d   1      -1.811   0.886  -0.493  0.00  0.00     0.124 A 
ATOM      2  C1  UNL d   1      -2.609  -0.186  -0.869  0.00  0.00     0.062 A 
ATOM      3  C2  UNL d   1      -3.804  -0.438  -0.201  0.00  0.00     0.162 A 
ATOM      4  C3  UNL d   1      -4.209   0.386   0.850  0.00  0.00    -0.034 A 
ATOM      5  C4  UNL d   1      -3.401   1.461   1.223  0.00  0.00     0.162 A 
ATOM      6  C5  UNL d   1      -2.208   1.708   0.552  0.00  0.00     0.062 A 
ATOM      7  F   UNL d   1      -1.439   2.744   0.916  0.00  0.00    -0.097 F 
ATOM      8  F1  UNL d   1      -3.761   2.273   2.228  0.00  0.00    -0.096 F 
ATOM      9  I   UNL d   1      -5.995   0.013   1.852  0.00  0.00    -0.060 I 
ATOM     10  F2  UNL d   1      -4.555  -1.480  -0.585  0.00  0.00    -0.096 F 
ATOM     11  F3  UNL d   1      -2.228  -0.983  -1.877  0.00  0.00    -0.097 F 
ATOM     12  F4  UNL d   1      -0.662   1.125  -1.137  0.00  0.00    -0.092 F 
ENDROOT
TORSDOF 0
ENDMDL
