MODEL 1
REMARK minimizedAffinity 10.0544577
REMARK minimizedRMSD -1
REMARK  0 active torsions:
REMARK  status: ('A' for Active; 'I' for Inactive)
ROOT
ATOM      1  C   UNL d   1      -2.769   0.730  -2.492  0.00  0.00     0.124 A 
ATOM      2  C1  UNL d   1      -1.859   1.644  -3.007  0.00  0.00     0.062 A 
ATOM      3  C2  UNL d   1      -0.739   2.010  -2.267  0.00  0.00     0.162 A 
ATOM      4  C3  UNL d   1      -0.521   1.462  -1.003  0.00  0.00    -0.034 A 
ATOM      5  C4  UNL d   1      -1.440   0.545  -0.491  0.00  0.00     0.162 A 
ATOM      6  C5  UNL d   1      -2.558   0.182  -1.235  0.00  0.00     0.062 A 
ATOM      7  F   UNL d   1      -3.436  -0.701  -0.736  0.00  0.00    -0.097 F 
ATOM      8  F1  UNL d   1      -1.261  -0.002   0.721  0.00  0.00    -0.096 F 
ATOM      9  I   UNL d   1       1.153   2.007   0.108  0.00  0.00    -0.060 I 
ATOM     10  F2  UNL d   1       0.123   2.895  -2.789  0.00  0.00    -0.096 F 
ATOM     11  F3  UNL d   1      -2.061   2.176  -4.221  0.00  0.00    -0.097 F 
ATOM     12  F4  UNL d   1      -3.846   0.380  -3.206  0.00  0.00    -0.092 F 
ENDROOT
TORSDOF 0
ENDMDL
