MODEL 1
REMARK minimizedAffinity 9.89276314
REMARK minimizedRMSD -1
REMARK  0 active torsions:
REMARK  status: ('A' for Active; 'I' for Inactive)
ROOT
ATOM      1  C   UNL d   1      -1.455   1.195  -0.136  0.00  0.00     0.124 A 
ATOM      2  C1  UNL d   1      -0.900   1.050   1.128  0.00  0.00     0.062 A 
ATOM      3  C2  UNL d   1       0.478   1.135   1.302  0.00  0.00     0.162 A 
ATOM      4  C3  UNL d   1       1.312   1.368   0.209  0.00  0.00    -0.034 A 
ATOM      5  C4  UNL d   1       0.748   1.511  -1.060  0.00  0.00     0.162 A 
ATOM      6  C5  UNL d   1      -0.630   1.425  -1.229  0.00  0.00     0.062 A 
ATOM      7  F   UNL d   1      -1.164   1.565  -2.451  0.00  0.00    -0.097 F 
ATOM      8  F1  UNL d   1       1.521   1.736  -2.133  0.00  0.00    -0.096 F 
ATOM      9  I   UNL d   1       3.374   1.496   0.465  0.00  0.00    -0.060 I 
ATOM     10  F2  UNL d   1       0.986   0.991   2.535  0.00  0.00    -0.096 F 
ATOM     11  F3  UNL d   1      -1.695   0.826   2.185  0.00  0.00    -0.097 F 
ATOM     12  F4  UNL d   1      -2.781   1.111  -0.301  0.00  0.00    -0.092 F 
ENDROOT
TORSDOF 0
ENDMDL
