MODEL 1
REMARK minimizedAffinity 14.2614679
REMARK minimizedRMSD -1
REMARK  0 active torsions:
REMARK  status: ('A' for Active; 'I' for Inactive)
ROOT
ATOM      1  C   UNL d   1       2.702   1.363  -2.506  0.00  0.00     0.124 A 
ATOM      2  C1  UNL d   1       3.537   1.381  -3.614  0.00  0.00     0.062 A 
ATOM      3  C2  UNL d   1       3.393   2.368  -4.584  0.00  0.00     0.162 A 
ATOM      4  C3  UNL d   1       2.409   3.348  -4.450  0.00  0.00    -0.034 A 
ATOM      5  C4  UNL d   1       1.572   3.323  -3.333  0.00  0.00     0.162 A 
ATOM      6  C5  UNL d   1       1.720   2.334  -2.366  0.00  0.00     0.062 A 
ATOM      7  F   UNL d   1       0.911   2.318  -1.297  0.00  0.00    -0.097 F 
ATOM      8  F1  UNL d   1       0.615   4.250  -3.173  0.00  0.00    -0.096 F 
ATOM      9  I   UNL d   1       2.190   4.826  -5.898  0.00  0.00    -0.060 I 
ATOM     10  F2  UNL d   1       4.215   2.361  -5.644  0.00  0.00    -0.096 F 
ATOM     11  F3  UNL d   1       4.486   0.443  -3.751  0.00  0.00    -0.097 F 
ATOM     12  F4  UNL d   1       2.842   0.411  -1.574  0.00  0.00    -0.092 F 
ENDROOT
TORSDOF 0
ENDMDL
