MODEL 1
REMARK minimizedAffinity 18.5071697
REMARK minimizedRMSD -1
REMARK  0 active torsions:
REMARK  status: ('A' for Active; 'I' for Inactive)
ROOT
ATOM      1  C   UNL d   1       1.701   3.301  -2.962  0.00  0.00     0.124 A 
ATOM      2  C1  UNL d   1       1.804   2.235  -2.078  0.00  0.00     0.062 A 
ATOM      3  C2  UNL d   1       2.592   1.134  -2.399  0.00  0.00     0.162 A 
ATOM      4  C3  UNL d   1       3.284   1.092  -3.610  0.00  0.00    -0.034 A 
ATOM      5  C4  UNL d   1       3.174   2.167  -4.494  0.00  0.00     0.162 A 
ATOM      6  C5  UNL d   1       2.385   3.266  -4.168  0.00  0.00     0.062 A 
ATOM      7  F   UNL d   1       2.286   4.294  -5.023  0.00  0.00    -0.097 F 
ATOM      8  F1  UNL d   1       3.825   2.159  -5.666  0.00  0.00    -0.096 F 
ATOM      9  I   UNL d   1       4.463  -0.553  -4.093  0.00  0.00    -0.060 I 
ATOM     10  F2  UNL d   1       2.674   0.119  -1.526  0.00  0.00    -0.096 F 
ATOM     11  F3  UNL d   1       1.143   2.267  -0.912  0.00  0.00    -0.097 F 
ATOM     12  F4  UNL d   1       0.941   4.359  -2.651  0.00  0.00    -0.092 F 
ENDROOT
TORSDOF 0
ENDMDL
