MODEL 1
REMARK minimizedAffinity 23.2422161
REMARK minimizedRMSD -1
REMARK  0 active torsions:
REMARK  status: ('A' for Active; 'I' for Inactive)
ROOT
ATOM      1  C   UNL d   1      -2.500   0.401  -1.982  0.00  0.00     0.124 A 
ATOM      2  C1  UNL d   1      -1.402   0.813  -1.239  0.00  0.00     0.062 A 
ATOM      3  C2  UNL d   1      -0.559   1.807  -1.727  0.00  0.00     0.162 A 
ATOM      4  C3  UNL d   1      -0.811   2.398  -2.965  0.00  0.00    -0.034 A 
ATOM      5  C4  UNL d   1      -1.917   1.979  -3.707  0.00  0.00     0.162 A 
ATOM      6  C5  UNL d   1      -2.756   0.985  -3.215  0.00  0.00     0.062 A 
ATOM      7  F   UNL d   1      -3.817   0.589  -3.934  0.00  0.00    -0.097 F 
ATOM      8  F1  UNL d   1      -2.189   2.526  -4.901  0.00  0.00    -0.096 F 
ATOM      9  I   UNL d   1       0.447   3.886  -3.698  0.00  0.00    -0.060 I 
ATOM     10  F2  UNL d   1       0.495   2.184  -0.988  0.00  0.00    -0.096 F 
ATOM     11  F3  UNL d   1      -1.151   0.250  -0.048  0.00  0.00    -0.097 F 
ATOM     12  F4  UNL d   1      -3.308  -0.556  -1.511  0.00  0.00    -0.092 F 
ENDROOT
TORSDOF 0
ENDMDL
