MODEL 1
REMARK minimizedAffinity 3.38123775
REMARK minimizedRMSD -1
REMARK  0 active torsions:
REMARK  status: ('A' for Active; 'I' for Inactive)
ROOT
ATOM      1  C   UNL d   1       1.848  -0.785   1.976  0.00  0.00     0.124 A 
ATOM      2  C1  UNL d   1       1.316   0.357   1.392  0.00  0.00     0.062 A 
ATOM      3  C2  UNL d   1       2.154   1.390   0.985  0.00  0.00     0.162 A 
ATOM      4  C3  UNL d   1       3.534   1.287   1.159  0.00  0.00    -0.034 A 
ATOM      5  C4  UNL d   1       4.062   0.137   1.748  0.00  0.00     0.162 A 
ATOM      6  C5  UNL d   1       3.220  -0.894   2.153  0.00  0.00     0.062 A 
ATOM      7  F   UNL d   1       3.736  -1.996   2.717  0.00  0.00    -0.097 F 
ATOM      8  F1  UNL d   1       5.385   0.005   1.930  0.00  0.00    -0.096 F 
ATOM      9  I   UNL d   1       4.791   2.831   0.551  0.00  0.00    -0.060 I 
ATOM     10  F2  UNL d   1       1.612   2.482   0.424  0.00  0.00    -0.096 F 
ATOM     11  F3  UNL d   1      -0.009   0.464   1.221  0.00  0.00    -0.097 F 
ATOM     12  F4  UNL d   1       1.039  -1.778   2.368  0.00  0.00    -0.092 F 
ENDROOT
TORSDOF 0
ENDMDL
