MODEL 1
REMARK minimizedAffinity 29.4325848
REMARK minimizedRMSD -1
REMARK  0 active torsions:
REMARK  status: ('A' for Active; 'I' for Inactive)
ROOT
ATOM      1  C   UNL d   1      -1.425   2.060  -4.426  0.00  0.00     0.124 A 
ATOM      2  C1  UNL d   1      -2.298   1.061  -4.017  0.00  0.00     0.062 A 
ATOM      3  C2  UNL d   1      -2.400   0.730  -2.669  0.00  0.00     0.162 A 
ATOM      4  C3  UNL d   1      -1.629   1.399  -1.719  0.00  0.00    -0.034 A 
ATOM      5  C4  UNL d   1      -0.753   2.402  -2.138  0.00  0.00     0.162 A 
ATOM      6  C5  UNL d   1      -0.654   2.730  -3.487  0.00  0.00     0.062 A 
ATOM      7  F   UNL d   1       0.189   3.695  -3.880  0.00  0.00    -0.097 F 
ATOM      8  F1  UNL d   1       0.004   3.066  -1.252  0.00  0.00    -0.096 F 
ATOM      9  I   UNL d   1      -1.779   0.907   0.297  0.00  0.00    -0.060 I 
ATOM     10  F2  UNL d   1      -3.251  -0.240  -2.302  0.00  0.00    -0.096 F 
ATOM     11  F3  UNL d   1      -3.043   0.411  -4.923  0.00  0.00    -0.097 F 
ATOM     12  F4  UNL d   1      -1.328   2.376  -5.724  0.00  0.00    -0.092 F 
ENDROOT
TORSDOF 0
ENDMDL
