MODEL 1
REMARK minimizedAffinity 20.8750725
REMARK minimizedRMSD -1
REMARK  0 active torsions:
REMARK  status: ('A' for Active; 'I' for Inactive)
ROOT
ATOM      1  C   UNL d   1      -2.256   0.334  -0.417  0.00  0.00     0.124 A 
ATOM      2  C1  UNL d   1      -3.424  -0.415  -0.440  0.00  0.00     0.062 A 
ATOM      3  C2  UNL d   1      -4.494  -0.069   0.380  0.00  0.00     0.162 A 
ATOM      4  C3  UNL d   1      -4.402   1.034   1.229  0.00  0.00    -0.034 A 
ATOM      5  C4  UNL d   1      -3.223   1.782   1.247  0.00  0.00     0.162 A 
ATOM      6  C5  UNL d   1      -2.157   1.432   0.426  0.00  0.00     0.062 A 
ATOM      7  F   UNL d   1      -1.029   2.157   0.449  0.00  0.00    -0.097 F 
ATOM      8  F1  UNL d   1      -3.101   2.848   2.052  0.00  0.00    -0.096 F 
ATOM      9  I   UNL d   1      -6.000   1.555   2.457  0.00  0.00    -0.060 I 
ATOM     10  F2  UNL d   1      -5.611  -0.811   0.337  0.00  0.00    -0.096 F 
ATOM     11  F3  UNL d   1      -3.523  -1.477  -1.253  0.00  0.00    -0.097 F 
ATOM     12  F4  UNL d   1      -1.228  -0.002  -1.207  0.00  0.00    -0.092 F 
ENDROOT
TORSDOF 0
ENDMDL
