MODEL 1
REMARK minimizedAffinity 23.4678345
REMARK minimizedRMSD -1
REMARK  0 active torsions:
REMARK  status: ('A' for Active; 'I' for Inactive)
ROOT
ATOM      1  C   UNL d   1       2.570  -0.401  -3.535  0.00  0.00     0.124 A 
ATOM      2  C1  UNL d   1       3.958  -0.419  -3.522  0.00  0.00     0.062 A 
ATOM      3  C2  UNL d   1       4.659   0.334  -2.585  0.00  0.00     0.162 A 
ATOM      4  C3  UNL d   1       3.974   1.110  -1.650  0.00  0.00    -0.034 A 
ATOM      5  C4  UNL d   1       2.578   1.123  -1.670  0.00  0.00     0.162 A 
ATOM      6  C5  UNL d   1       1.882   0.369  -2.609  0.00  0.00     0.062 A 
ATOM      7  F   UNL d   1       0.541   0.388  -2.619  0.00  0.00    -0.097 F 
ATOM      8  F1  UNL d   1       1.887   1.859  -0.786  0.00  0.00    -0.096 F 
ATOM      9  I   UNL d   1       5.018   2.237  -0.247  0.00  0.00    -0.060 I 
ATOM     10  F2  UNL d   1       6.000   0.297  -2.596  0.00  0.00    -0.096 F 
ATOM     11  F3  UNL d   1       4.626  -1.162  -4.416  0.00  0.00    -0.097 F 
ATOM     12  F4  UNL d   1       1.898  -1.126  -4.439  0.00  0.00    -0.092 F 
ENDROOT
TORSDOF 0
ENDMDL
