MODEL 1
REMARK minimizedAffinity 23.2236309
REMARK minimizedRMSD -1
REMARK  0 active torsions:
REMARK  status: ('A' for Active; 'I' for Inactive)
ROOT
ATOM      1  C   UNL d   1       1.866  -0.818  -3.087  0.00  0.00     0.124 A 
ATOM      2  C1  UNL d   1       3.058  -0.463  -2.469  0.00  0.00     0.062 A 
ATOM      3  C2  UNL d   1       3.059   0.464  -1.431  0.00  0.00     0.162 A 
ATOM      4  C3  UNL d   1       1.864   1.042  -1.002  0.00  0.00    -0.034 A 
ATOM      5  C4  UNL d   1       0.670   0.681  -1.629  0.00  0.00     0.162 A 
ATOM      6  C5  UNL d   1       0.674  -0.246  -2.667  0.00  0.00     0.062 A 
ATOM      7  F   UNL d   1      -0.478  -0.587  -3.262  0.00  0.00    -0.097 F 
ATOM      8  F1  UNL d   1      -0.497   1.217  -1.242  0.00  0.00    -0.096 F 
ATOM      9  I   UNL d   1       1.861   2.428   0.550  0.00  0.00    -0.060 I 
ATOM     10  F2  UNL d   1       4.225   0.788  -0.852  0.00  0.00    -0.096 F 
ATOM     11  F3  UNL d   1       4.211  -1.014  -2.874  0.00  0.00    -0.097 F 
ATOM     12  F4  UNL d   1       1.868  -1.709  -4.087  0.00  0.00    -0.092 F 
ENDROOT
TORSDOF 0
ENDMDL
