MODEL 1
REMARK minimizedAffinity 14.5067282
REMARK minimizedRMSD -1
REMARK  0 active torsions:
REMARK  status: ('A' for Active; 'I' for Inactive)
ROOT
ATOM      1  C   UNL d   1      -3.070   0.172  -2.018  0.00  0.00     0.020 A 
ATOM      2  C1  UNL d   1      -3.282   1.504  -1.664  0.00  0.00     0.020 A 
ATOM      3  C2  UNL d   1      -3.909   1.815  -0.456  0.00  0.00     0.034 A 
ATOM      4  C3  UNL d   1      -4.325   0.792   0.404  0.00  0.00     0.017 A 
ATOM      5  C4  UNL d   1      -4.112  -0.545   0.049  0.00  0.00     0.017 A 
ATOM      6  C5  UNL d   1      -3.484  -0.850  -1.162  0.00  0.00     0.034 A 
ATOM      7 Cl   UNL d   1      -4.598  -1.861   1.058  0.00  0.00    -0.070 Cl
ATOM      8 Cl1  UNL d   1      -5.093   1.249   1.883  0.00  0.00    -0.070 Cl
ENDROOT
TORSDOF 0
ENDMDL
