MODEL 1
REMARK minimizedAffinity 2.91091585
REMARK minimizedRMSD -1
REMARK  0 active torsions:
REMARK  status: ('A' for Active; 'I' for Inactive)
ROOT
ATOM      1  C   UNL d   1       1.963  -4.036   0.869  0.00  0.00     0.020 A 
ATOM      2  C1  UNL d   1       2.422  -2.720   0.914  0.00  0.00     0.020 A 
ATOM      3  C2  UNL d   1       1.705  -1.755   1.624  0.00  0.00     0.034 A 
ATOM      4  C3  UNL d   1       0.526  -2.104   2.292  0.00  0.00     0.017 A 
ATOM      5  C4  UNL d   1       0.066  -3.425   2.247  0.00  0.00     0.017 A 
ATOM      6  C5  UNL d   1       0.788  -4.388   1.534  0.00  0.00     0.034 A 
ATOM      7 Cl   UNL d   1      -1.380  -3.931   3.046  0.00  0.00    -0.070 Cl
ATOM      8 Cl1  UNL d   1      -0.310  -0.859   3.151  0.00  0.00    -0.070 Cl
ENDROOT
TORSDOF 0
ENDMDL
