MODEL 1
REMARK minimizedAffinity 10.5165977
REMARK minimizedRMSD -1
REMARK  0 active torsions:
REMARK  status: ('A' for Active; 'I' for Inactive)
ROOT
ATOM      1  C   UNL d   1      -5.801  -1.561  -3.945  0.00  0.00     0.020 A 
ATOM      2  C1  UNL d   1      -5.960  -0.355  -4.626  0.00  0.00     0.020 A 
ATOM      3  C2  UNL d   1      -5.098   0.713  -4.366  0.00  0.00     0.034 A 
ATOM      4  C3  UNL d   1      -4.073   0.576  -3.423  0.00  0.00     0.017 A 
ATOM      5  C4  UNL d   1      -3.914  -0.635  -2.740  0.00  0.00     0.017 A 
ATOM      6  C5  UNL d   1      -4.780  -1.700  -3.004  0.00  0.00     0.034 A 
ATOM      7 Cl   UNL d   1      -2.673  -0.879  -1.562  0.00  0.00    -0.070 Cl
ATOM      8 Cl1  UNL d   1      -3.043   1.937  -3.152  0.00  0.00    -0.070 Cl
ENDROOT
TORSDOF 0
ENDMDL
