MODEL 1
REMARK minimizedAffinity 11.7328901
REMARK minimizedRMSD -1
REMARK  0 active torsions:
REMARK  status: ('A' for Active; 'I' for Inactive)
ROOT
ATOM      1  C   UNL d   1      -3.924   1.142  -3.397  0.00  0.00     0.020 A 
ATOM      2  C1  UNL d   1      -2.925   1.903  -2.791  0.00  0.00     0.020 A 
ATOM      3  C2  UNL d   1      -2.863   3.280  -3.015  0.00  0.00     0.034 A 
ATOM      4  C3  UNL d   1      -3.803   3.901  -3.847  0.00  0.00     0.017 A 
ATOM      5  C4  UNL d   1      -4.805   3.136  -4.455  0.00  0.00     0.017 A 
ATOM      6  C5  UNL d   1      -4.862   1.757  -4.227  0.00  0.00     0.034 A 
ATOM      7 Cl   UNL d   1      -5.999   3.830  -5.493  0.00  0.00    -0.070 Cl
ATOM      8 Cl1  UNL d   1      -3.667   5.608  -4.079  0.00  0.00    -0.070 Cl
ENDROOT
TORSDOF 0
ENDMDL
