MODEL 1
REMARK minimizedAffinity 10.5922155
REMARK minimizedRMSD -1
REMARK  0 active torsions:
REMARK  status: ('A' for Active; 'I' for Inactive)
ROOT
ATOM      1  C   UNL d   1      -4.629  -2.251  -2.362  0.00  0.00     0.020 A 
ATOM      2  C1  UNL d   1      -5.595  -2.402  -3.356  0.00  0.00     0.020 A 
ATOM      3  C2  UNL d   1      -6.000  -1.298  -4.109  0.00  0.00     0.034 A 
ATOM      4  C3  UNL d   1      -5.439  -0.038  -3.870  0.00  0.00     0.017 A 
ATOM      5  C4  UNL d   1      -4.469   0.112  -2.872  0.00  0.00     0.017 A 
ATOM      6  C5  UNL d   1      -4.067  -0.997  -2.121  0.00  0.00     0.034 A 
ATOM      7 Cl   UNL d   1      -3.731   1.635  -2.519  0.00  0.00    -0.070 Cl
ATOM      8 Cl1  UNL d   1      -5.987   1.283  -4.840  0.00  0.00    -0.070 Cl
ENDROOT
TORSDOF 0
ENDMDL
