MODEL 1
REMARK minimizedAffinity 9.32302952
REMARK minimizedRMSD -1
REMARK  0 active torsions:
REMARK  status: ('A' for Active; 'I' for Inactive)
ROOT
ATOM      1  C   UNL d   1       2.507  -2.324   0.872  0.00  0.00     0.020 A 
ATOM      2  C1  UNL d   1       1.296  -2.879   0.459  0.00  0.00     0.020 A 
ATOM      3  C2  UNL d   1       0.093  -2.391   0.973  0.00  0.00     0.034 A 
ATOM      4  C3  UNL d   1       0.098  -1.346   1.904  0.00  0.00     0.017 A 
ATOM      5  C4  UNL d   1       1.314  -0.790   2.318  0.00  0.00     0.017 A 
ATOM      6  C5  UNL d   1       2.515  -1.282   1.800  0.00  0.00     0.034 A 
ATOM      7 Cl   UNL d   1       1.400   0.502   3.463  0.00  0.00    -0.070 Cl
ATOM      8 Cl1  UNL d   1      -1.427  -0.792   2.498  0.00  0.00    -0.070 Cl
ENDROOT
TORSDOF 0
ENDMDL
