MODEL 1
REMARK minimizedAffinity 3.58883929
REMARK minimizedRMSD -1
REMARK  0 active torsions:
REMARK  status: ('A' for Active; 'I' for Inactive)
ROOT
ATOM      1  C   UNL d   1      -4.354   5.166  -6.000  0.00  0.00     0.020 A 
ATOM      2  C1  UNL d   1      -2.994   5.263  -5.711  0.00  0.00     0.020 A 
ATOM      3  C2  UNL d   1      -2.271   4.120  -5.361  0.00  0.00     0.034 A 
ATOM      4  C3  UNL d   1      -2.908   2.876  -5.301  0.00  0.00     0.017 A 
ATOM      5  C4  UNL d   1      -4.274   2.780  -5.591  0.00  0.00     0.017 A 
ATOM      6  C5  UNL d   1      -4.993   3.927  -5.940  0.00  0.00     0.034 A 
ATOM      7 Cl   UNL d   1      -5.130   1.279  -5.538  0.00  0.00    -0.070 Cl
ATOM      8 Cl1  UNL d   1      -1.953   1.504  -4.862  0.00  0.00    -0.070 Cl
ENDROOT
TORSDOF 0
ENDMDL
