MODEL 1
REMARK minimizedAffinity 9.17758942
REMARK minimizedRMSD -1
REMARK  0 active torsions:
REMARK  status: ('A' for Active; 'I' for Inactive)
ROOT
ATOM      1  C   UNL d   1       0.312  -1.496   2.253  0.00  0.00     0.020 A 
ATOM      2  C1  UNL d   1       0.406  -1.519   0.862  0.00  0.00     0.020 A 
ATOM      3  C2  UNL d   1       1.655  -1.418   0.244  0.00  0.00     0.034 A 
ATOM      4  C3  UNL d   1       2.815  -1.293   1.018  0.00  0.00     0.017 A 
ATOM      5  C4  UNL d   1       2.719  -1.271   2.414  0.00  0.00     0.017 A 
ATOM      6  C5  UNL d   1       1.467  -1.373   3.027  0.00  0.00     0.034 A 
ATOM      7 Cl   UNL d   1       4.106  -1.120   3.436  0.00  0.00    -0.070 Cl
ATOM      8 Cl1  UNL d   1       4.325  -1.173   0.188  0.00  0.00    -0.070 Cl
ENDROOT
TORSDOF 0
ENDMDL
