MODEL 1
REMARK minimizedAffinity 11.3068113
REMARK minimizedRMSD -1
REMARK  0 active torsions:
REMARK  status: ('A' for Active; 'I' for Inactive)
ROOT
ATOM      1  C   UNL d   1       3.524  -5.999   5.947  0.00  0.00     0.020 A 
ATOM      2  C1  UNL d   1       4.914  -5.998   5.842  0.00  0.00     0.020 A 
ATOM      3  C2  UNL d   1       5.601  -4.792   5.685  0.00  0.00     0.034 A 
ATOM      4  C3  UNL d   1       4.898  -3.583   5.633  0.00  0.00     0.017 A 
ATOM      5  C4  UNL d   1       3.503  -3.585   5.738  0.00  0.00     0.017 A 
ATOM      6  C5  UNL d   1       2.820  -4.795   5.895  0.00  0.00     0.034 A 
ATOM      7 Cl   UNL d   1       2.566  -2.134   5.683  0.00  0.00    -0.070 Cl
ATOM      8 Cl1  UNL d   1       5.813  -2.130   5.438  0.00  0.00    -0.070 Cl
ENDROOT
TORSDOF 0
ENDMDL
