MODEL 1
REMARK minimizedAffinity 13.6834612
REMARK minimizedRMSD -1
REMARK  0 active torsions:
REMARK  status: ('A' for Active; 'I' for Inactive)
ROOT
ATOM      1  C   UNL d   1      -1.351  -0.024  -1.622  0.00  0.00     0.020 A 
ATOM      2  C1  UNL d   1      -2.731   0.175  -1.580  0.00  0.00     0.020 A 
ATOM      3  C2  UNL d   1      -3.290   1.312  -2.166  0.00  0.00     0.034 A 
ATOM      4  C3  UNL d   1      -2.470   2.255  -2.797  0.00  0.00     0.017 A 
ATOM      5  C4  UNL d   1      -1.086   2.054  -2.839  0.00  0.00     0.017 A 
ATOM      6  C5  UNL d   1      -0.531   0.914  -2.250  0.00  0.00     0.034 A 
ATOM      7 Cl   UNL d   1      -0.010   3.173  -3.600  0.00  0.00    -0.070 Cl
ATOM      8 Cl1  UNL d   1      -3.230   3.638  -3.502  0.00  0.00    -0.070 Cl
ENDROOT
TORSDOF 0
ENDMDL
