MODEL 1
REMARK minimizedAffinity -1.02806497
REMARK minimizedRMSD -1
REMARK  0 active torsions:
REMARK  status: ('A' for Active; 'I' for Inactive)
ROOT
ATOM      1  N1  IND d   1      -0.816  -3.908   0.751  0.00  0.00    -0.196 N 
ATOM      2  C2  IND d   1      -0.955  -2.775   1.504  0.00  0.00     0.054 A 
ATOM      3  C3  IND d   1      -1.452  -1.768   0.752  0.00  0.00    -0.031 A 
ATOM      4  C4  IND d   1      -2.207  -1.785  -1.709  0.00  0.00     0.051 A 
ATOM      5  C5  IND d   1      -2.240  -2.579  -2.821  0.00  0.00    -0.031 A 
ATOM      6  C6  IND d   1      -1.793  -3.885  -2.797  0.00  0.00     0.015 A 
ATOM      7  C7  IND d   1      -1.306  -4.450  -1.653  0.00  0.00    -0.016 A 
ATOM      8  C8  IND d   1      -1.264  -3.644  -0.524  0.00  0.00    -0.047 A 
ATOM      9  C9  IND d   1      -1.676  -2.305  -0.553  0.00  0.00    -0.096 A 
ATOM     10  HN1 IND d   1      -0.502  -4.659   1.028  0.00  0.00     0.298 HD
ENDROOT
TORSDOF 0
ENDMDL
