MODEL 1
REMARK minimizedAffinity 8.95307636
REMARK minimizedRMSD -1
REMARK  0 active torsions:
REMARK  status: ('A' for Active; 'I' for Inactive)
ROOT
ATOM      1  N1  IND d   1      -4.555   4.596   5.251  0.00  0.00    -0.196 N 
ATOM      2  C2  IND d   1      -5.348   5.694   5.434  0.00  0.00     0.054 A 
ATOM      3  C3  IND d   1      -6.000   5.999   4.289  0.00  0.00    -0.031 A 
ATOM      4  C4  IND d   1      -5.992   4.773   2.026  0.00  0.00     0.051 A 
ATOM      5  C5  IND d   1      -5.392   3.739   1.363  0.00  0.00    -0.031 A 
ATOM      6  C6  IND d   1      -4.466   2.919   1.976  0.00  0.00     0.015 A 
ATOM      7  C7  IND d   1      -4.112   3.097   3.283  0.00  0.00    -0.016 A 
ATOM      8  C8  IND d   1      -4.714   4.151   3.957  0.00  0.00    -0.047 A 
ATOM      9  C9  IND d   1      -5.622   5.012   3.328  0.00  0.00    -0.096 A 
ATOM     10  HN1 IND d   1      -4.043   4.243   5.845  0.00  0.00     0.298 HD
ENDROOT
TORSDOF 0
ENDMDL
