MODEL 1
REMARK minimizedAffinity -0.707525671
REMARK minimizedRMSD -1
REMARK  0 active torsions:
REMARK  status: ('A' for Active; 'I' for Inactive)
ROOT
ATOM      1  N1  IND d   1      -3.447  -3.774  -5.955  0.00  0.00    -0.196 N 
ATOM      2  C2  IND d   1      -2.276  -4.478  -6.000  0.00  0.00     0.054 A 
ATOM      3  C3  IND d   1      -2.244  -5.401  -5.013  0.00  0.00    -0.031 A 
ATOM      4  C4  IND d   1      -4.046  -5.999  -3.274  0.00  0.00     0.051 A 
ATOM      5  C5  IND d   1      -5.272  -5.607  -2.815  0.00  0.00    -0.031 A 
ATOM      6  C6  IND d   1      -5.967  -4.564  -3.392  0.00  0.00     0.015 A 
ATOM      7  C7  IND d   1      -5.465  -3.879  -4.462  0.00  0.00    -0.016 A 
ATOM      8  C8  IND d   1      -4.218  -4.270  -4.927  0.00  0.00    -0.047 A 
ATOM      9  C9  IND d   1      -3.488  -5.300  -4.319  0.00  0.00    -0.096 A 
ATOM     10  HN1 IND d   1      -3.665  -3.129  -6.481  0.00  0.00     0.298 HD
ENDROOT
TORSDOF 0
ENDMDL
