MODEL 1
REMARK minimizedAffinity 13.9696608
REMARK minimizedRMSD -1
REMARK  0 active torsions:
REMARK  status: ('A' for Active; 'I' for Inactive)
ROOT
ATOM      1  N1  IND d   1       3.775  -0.105   1.501  0.00  0.00    -0.196 N 
ATOM      2  C2  IND d   1       4.956  -0.751   1.743  0.00  0.00     0.054 A 
ATOM      3  C3  IND d   1       6.000   0.078   1.517  0.00  0.00    -0.031 A 
ATOM      4  C4  IND d   1       5.999   2.563   0.843  0.00  0.00     0.051 A 
ATOM      5  C5  IND d   1       5.163   3.578   0.473  0.00  0.00    -0.031 A 
ATOM      6  C6  IND d   1       3.794   3.416   0.429  0.00  0.00     0.015 A 
ATOM      7  C7  IND d   1       3.206   2.229   0.765  0.00  0.00    -0.016 A 
ATOM      8  C8  IND d   1       4.053   1.193   1.134  0.00  0.00    -0.047 A 
ATOM      9  C9  IND d   1       5.446   1.340   1.141  0.00  0.00    -0.096 A 
ATOM     10  HN1 IND d   1       2.991  -0.452   1.567  0.00  0.00     0.298 HD
ENDROOT
TORSDOF 0
ENDMDL
