MODEL 1
REMARK minimizedAffinity 4.22348976
REMARK minimizedRMSD -1
REMARK  0 active torsions:
REMARK  status: ('A' for Active; 'I' for Inactive)
ROOT
ATOM      1  N1  IND d   1       2.413  -0.747   1.104  0.00  0.00    -0.196 N 
ATOM      2  C2  IND d   1       1.485   0.189   0.740  0.00  0.00     0.054 A 
ATOM      3  C3  IND d   1       2.095   1.334   0.362  0.00  0.00    -0.031 A 
ATOM      4  C4  IND d   1       4.607   1.861   0.166  0.00  0.00     0.051 A 
ATOM      5  C5  IND d   1       5.842   1.334   0.422  0.00  0.00    -0.031 A 
ATOM      6  C6  IND d   1       6.000   0.059   0.926  0.00  0.00     0.015 A 
ATOM      7  C7  IND d   1       4.924  -0.743   1.184  0.00  0.00    -0.016 A 
ATOM      8  C8  IND d   1       3.669  -0.208   0.932  0.00  0.00    -0.047 A 
ATOM      9  C9  IND d   1       3.501   1.100   0.460  0.00  0.00    -0.096 A 
ATOM     10  HN1 IND d   1       2.241  -1.538   1.393  0.00  0.00     0.298 HD
ENDROOT
TORSDOF 0
ENDMDL
