MODEL 1
REMARK minimizedAffinity 2.59205484
REMARK minimizedRMSD -1
REMARK  0 active torsions:
REMARK  status: ('A' for Active; 'I' for Inactive)
ROOT
ATOM      1  N1  IND d   1      -3.793  -5.999  -2.129  0.00  0.00    -0.196 N 
ATOM      2  C2  IND d   1      -4.893  -5.835  -1.334  0.00  0.00     0.054 A 
ATOM      3  C3  IND d   1      -5.901  -5.271  -2.036  0.00  0.00    -0.031 A 
ATOM      4  C4  IND d   1      -5.999  -4.628  -4.527  0.00  0.00     0.051 A 
ATOM      5  C5  IND d   1      -5.227  -4.556  -5.652  0.00  0.00    -0.031 A 
ATOM      6  C6  IND d   1      -3.911  -4.972  -5.661  0.00  0.00     0.015 A 
ATOM      7  C7  IND d   1      -3.320  -5.488  -4.543  0.00  0.00    -0.016 A 
ATOM      8  C8  IND d   1      -4.099  -5.557  -3.397  0.00  0.00    -0.047 A 
ATOM      9  C9  IND d   1      -5.422  -5.097  -3.371  0.00  0.00    -0.096 A 
ATOM     10  HN1 IND d   1      -3.037  -6.324  -1.879  0.00  0.00     0.298 HD
ENDROOT
TORSDOF 0
ENDMDL
