MODEL 1
REMARK minimizedAffinity 4.04336166
REMARK minimizedRMSD -1
REMARK  0 active torsions:
REMARK  status: ('A' for Active; 'I' for Inactive)
ROOT
ATOM      1  N1  IND d   1      -1.549  -1.618  -2.031  0.00  0.00    -0.196 N 
ATOM      2  C2  IND d   1      -2.691  -2.216  -2.489  0.00  0.00     0.054 A 
ATOM      3  C3  IND d   1      -3.137  -3.125  -1.594  0.00  0.00    -0.031 A 
ATOM      4  C4  IND d   1      -2.207  -3.724   0.731  0.00  0.00     0.051 A 
ATOM      5  C5  IND d   1      -1.158  -3.471   1.570  0.00  0.00    -0.031 A 
ATOM      6  C6  IND d   1      -0.168  -2.566   1.246  0.00  0.00     0.015 A 
ATOM      7  C7  IND d   1      -0.195  -1.870   0.070  0.00  0.00    -0.016 A 
ATOM      8  C8  IND d   1      -1.255  -2.131  -0.787  0.00  0.00    -0.047 A 
ATOM      9  C9  IND d   1      -2.240  -3.078  -0.482  0.00  0.00    -0.096 A 
ATOM     10  HN1 IND d   1      -1.092  -1.023  -2.451  0.00  0.00     0.298 HD
ENDROOT
TORSDOF 0
ENDMDL
