MODEL 1
REMARK minimizedAffinity 8.02351475
REMARK minimizedRMSD -1
REMARK  0 active torsions:
REMARK  status: ('A' for Active; 'I' for Inactive)
ROOT
ATOM      1  N1  IND d   1       5.999   2.451  -0.749  0.00  0.00    -0.196 N 
ATOM      2  C2  IND d   1       5.985   3.457   0.177  0.00  0.00     0.054 A 
ATOM      3  C3  IND d   1       5.945   2.945   1.428  0.00  0.00    -0.031 A 
ATOM      4  C4  IND d   1       5.998   0.486   2.191  0.00  0.00     0.051 A 
ATOM      5  C5  IND d   1       5.975  -0.792   1.708  0.00  0.00    -0.031 A 
ATOM      6  C6  IND d   1       5.961  -1.060   0.354  0.00  0.00     0.015 A 
ATOM      7  C7  IND d   1       5.981  -0.055  -0.571  0.00  0.00    -0.016 A 
ATOM      8  C8  IND d   1       5.998   1.244  -0.085  0.00  0.00    -0.047 A 
ATOM      9  C9  IND d   1       5.969   1.523   1.288  0.00  0.00    -0.096 A 
ATOM     10  HN1 IND d   1       6.007   2.555  -1.602  0.00  0.00     0.298 HD
ENDROOT
TORSDOF 0
ENDMDL
