MODEL 1
REMARK minimizedAffinity 9.58965588
REMARK minimizedRMSD -1
REMARK  0 active torsions:
REMARK  status: ('A' for Active; 'I' for Inactive)
ROOT
ATOM      1  N1  IND d   1      -5.415  -3.984  -5.166  0.00  0.00    -0.196 N 
ATOM      2  C2  IND d   1      -4.371  -4.287  -5.995  0.00  0.00     0.054 A 
ATOM      3  C3  IND d   1      -3.462  -5.048  -5.346  0.00  0.00    -0.031 A 
ATOM      4  C4  IND d   1      -3.532  -5.999  -2.955  0.00  0.00     0.051 A 
ATOM      5  C5  IND d   1      -4.267  -5.965  -1.803  0.00  0.00    -0.031 A 
ATOM      6  C6  IND d   1      -5.448  -5.257  -1.713  0.00  0.00     0.015 A 
ATOM      7  C7  IND d   1      -5.945  -4.562  -2.779  0.00  0.00    -0.016 A 
ATOM      8  C8  IND d   1      -5.198  -4.589  -3.948  0.00  0.00    -0.047 A 
ATOM      9  C9  IND d   1      -3.978  -5.271  -4.033  0.00  0.00    -0.096 A 
ATOM     10  HN1 IND d   1      -6.094  -3.497  -5.371  0.00  0.00     0.298 HD
ENDROOT
TORSDOF 0
ENDMDL
