MODEL 1
REMARK minimizedAffinity 10.1888151
REMARK minimizedRMSD -1
REMARK  0 active torsions:
REMARK  status: ('A' for Active; 'I' for Inactive)
ROOT
ATOM      1  N1  IND d   1       5.987   2.757  -0.704  0.00  0.00    -0.196 N 
ATOM      2  C2  IND d   1       5.956   3.654   0.328  0.00  0.00     0.054 A 
ATOM      3  C3  IND d   1       5.917   3.006   1.513  0.00  0.00    -0.031 A 
ATOM      4  C4  IND d   1       5.998   0.479   1.999  0.00  0.00     0.051 A 
ATOM      5  C5  IND d   1       5.993  -0.738   1.378  0.00  0.00    -0.031 A 
ATOM      6  C6  IND d   1       5.988  -0.855   0.003  0.00  0.00     0.015 A 
ATOM      7  C7  IND d   1       6.000   0.247  -0.805  0.00  0.00    -0.016 A 
ATOM      8  C8  IND d   1       5.998   1.484  -0.178  0.00  0.00    -0.047 A 
ATOM      9  C9  IND d   1       5.960   1.609   1.217  0.00  0.00    -0.096 A 
ATOM     10  HN1 IND d   1       5.997   2.955  -1.541  0.00  0.00     0.298 HD
ENDROOT
TORSDOF 0
ENDMDL
