MODEL 1
REMARK minimizedAffinity 4.61622286
REMARK minimizedRMSD -1
REMARK  0 active torsions:
REMARK  status: ('A' for Active; 'I' for Inactive)
ROOT
ATOM      1  N1  IND d   1      -3.428  -4.133  -5.871  0.00  0.00    -0.196 N 
ATOM      2  C2  IND d   1      -2.191  -4.714  -5.911  0.00  0.00     0.054 A 
ATOM      3  C3  IND d   1      -1.995  -5.478  -4.813  0.00  0.00    -0.031 A 
ATOM      4  C4  IND d   1      -3.605  -5.999  -2.873  0.00  0.00     0.051 A 
ATOM      5  C5  IND d   1      -4.835  -5.671  -2.377  0.00  0.00    -0.031 A 
ATOM      6  C6  IND d   1      -5.678  -4.797  -3.034  0.00  0.00     0.015 A 
ATOM      7  C7  IND d   1      -5.324  -4.226  -4.224  0.00  0.00    -0.016 A 
ATOM      8  C8  IND d   1      -4.072  -4.552  -4.727  0.00  0.00    -0.047 A 
ATOM      9  C9  IND d   1      -3.196  -5.405  -4.043  0.00  0.00    -0.096 A 
ATOM     10  HN1 IND d   1      -3.749  -3.596  -6.460  0.00  0.00     0.298 HD
ENDROOT
TORSDOF 0
ENDMDL
