MODEL 1
REMARK minimizedAffinity 4.08474684
REMARK minimizedRMSD -1
REMARK  0 active torsions:
REMARK  status: ('A' for Active; 'I' for Inactive)
ROOT
ATOM      1  N1  IND d   1       2.249  -4.097  -5.907  0.00  0.00    -0.196 N 
ATOM      2  C2  IND d   1       3.039  -2.981  -5.926  0.00  0.00     0.054 A 
ATOM      3  C3  IND d   1       2.277  -1.866  -5.991  0.00  0.00    -0.031 A 
ATOM      4  C4  IND d   1      -0.287  -1.634  -5.972  0.00  0.00     0.051 A 
ATOM      5  C5  IND d   1      -1.436  -2.373  -6.000  0.00  0.00    -0.031 A 
ATOM      6  C6  IND d   1      -1.415  -3.753  -5.995  0.00  0.00     0.015 A 
ATOM      7  C7  IND d   1      -0.239  -4.447  -5.951  0.00  0.00    -0.016 A 
ATOM      8  C8  IND d   1       0.930  -3.700  -5.930  0.00  0.00    -0.047 A 
ATOM      9  C9  IND d   1       0.916  -2.300  -5.977  0.00  0.00    -0.096 A 
ATOM     10  HN1 IND d   1       2.528  -4.909  -5.884  0.00  0.00     0.298 HD
ENDROOT
TORSDOF 0
ENDMDL
