MODEL 1
REMARK minimizedAffinity 12.7938738
REMARK minimizedRMSD -1
REMARK  0 active torsions:
REMARK  status: ('A' for Active; 'I' for Inactive)
ROOT
ATOM      1  N1  IND d   1       0.017  -3.835   0.406  0.00  0.00    -0.196 N 
ATOM      2  C2  IND d   1      -0.488  -3.409   1.603  0.00  0.00     0.054 A 
ATOM      3  C3  IND d   1      -1.765  -2.991   1.452  0.00  0.00    -0.031 A 
ATOM      4  C4  IND d   1      -3.256  -3.012  -0.646  0.00  0.00     0.051 A 
ATOM      5  C5  IND d   1      -3.225  -3.276  -1.987  0.00  0.00    -0.031 A 
ATOM      6  C6  IND d   1      -2.090  -3.752  -2.610  0.00  0.00     0.015 A 
ATOM      7  C7  IND d   1      -0.941  -3.994  -1.911  0.00  0.00    -0.016 A 
ATOM      8  C8  IND d   1      -0.967  -3.720  -0.551  0.00  0.00    -0.047 A 
ATOM      9  C9  IND d   1      -2.103  -3.196   0.079  0.00  0.00    -0.096 A 
ATOM     10  HN1 IND d   1       0.816  -4.125   0.273  0.00  0.00     0.298 HD
ENDROOT
TORSDOF 0
ENDMDL
