MODEL 1
REMARK minimizedAffinity -2.44825816
REMARK minimizedRMSD -1
REMARK  0 active torsions:
REMARK  status: ('A' for Active; 'I' for Inactive)
ROOT
ATOM      1  N1  IND d   1       4.682   5.992   3.171  0.00  0.00    -0.196 N 
ATOM      2  C2  IND d   1       5.387   5.994   4.342  0.00  0.00     0.054 A 
ATOM      3  C3  IND d   1       5.975   4.793   4.539  0.00  0.00    -0.031 A 
ATOM      4  C4  IND d   1       5.999   2.714   3.020  0.00  0.00     0.051 A 
ATOM      5  C5  IND d   1       5.467   2.220   1.862  0.00  0.00    -0.031 A 
ATOM      6  C6  IND d   1       4.632   2.974   1.064  0.00  0.00     0.015 A 
ATOM      7  C7  IND d   1       4.305   4.260   1.389  0.00  0.00    -0.016 A 
ATOM      8  C8  IND d   1       4.837   4.763   2.568  0.00  0.00    -0.047 A 
ATOM      9  C9  IND d   1       5.651   3.988   3.404  0.00  0.00    -0.096 A 
ATOM     10  HN1 IND d   1       4.220   6.648   2.862  0.00  0.00     0.298 HD
ENDROOT
TORSDOF 0
ENDMDL
