MODEL 1
REMARK minimizedAffinity 7.09255743
REMARK minimizedRMSD -1
REMARK  0 active torsions:
REMARK  status: ('A' for Active; 'I' for Inactive)
ROOT
ATOM      1  N1  IND d   1      -5.265  -5.591  -4.079  0.00  0.00    -0.196 N 
ATOM      2  C2  IND d   1      -6.000  -5.995  -3.000  0.00  0.00     0.054 A 
ATOM      3  C3  IND d   1      -5.519  -5.436  -1.867  0.00  0.00    -0.031 A 
ATOM      4  C4  IND d   1      -3.598  -3.750  -1.563  0.00  0.00     0.051 A 
ATOM      5  C5  IND d   1      -2.606  -3.110  -2.254  0.00  0.00    -0.031 A 
ATOM      6  C6  IND d   1      -2.449  -3.267  -3.616  0.00  0.00     0.015 A 
ATOM      7  C7  IND d   1      -3.288  -4.062  -4.343  0.00  0.00    -0.016 A 
ATOM      8  C8  IND d   1      -4.291  -4.718  -3.644  0.00  0.00    -0.047 A 
ATOM      9  C9  IND d   1      -4.430  -4.597  -2.256  0.00  0.00    -0.096 A 
ATOM     10  HN1 IND d   1      -5.389  -5.840  -4.893  0.00  0.00     0.298 HD
ENDROOT
TORSDOF 0
ENDMDL
