MODEL 1
REMARK minimizedAffinity 15.5903568
REMARK minimizedRMSD -1
REMARK  0 active torsions:
REMARK  status: ('A' for Active; 'I' for Inactive)
ROOT
ATOM      1  N1  IND d   1       1.736   2.079   1.135  0.00  0.00    -0.196 N 
ATOM      2  C2  IND d   1       0.892   1.360   1.933  0.00  0.00     0.054 A 
ATOM      3  C3  IND d   1       1.486   0.213   2.334  0.00  0.00    -0.031 A 
ATOM      4  C4  IND d   1       3.874  -0.636   1.883  0.00  0.00     0.051 A 
ATOM      5  C5  IND d   1       5.006  -0.342   1.176  0.00  0.00    -0.031 A 
ATOM      6  C6  IND d   1       5.109   0.798   0.405  0.00  0.00     0.015 A 
ATOM      7  C7  IND d   1       4.083   1.697   0.322  0.00  0.00    -0.016 A 
ATOM      8  C8  IND d   1       2.930   1.398   1.033  0.00  0.00    -0.047 A 
ATOM      9  C9  IND d   1       2.804   0.222   1.783  0.00  0.00    -0.096 A 
ATOM     10  HN1 IND d   1       1.553   2.830   0.759  0.00  0.00     0.298 HD
ENDROOT
TORSDOF 0
ENDMDL
