MODEL 1
REMARK minimizedAffinity 2.76937366
REMARK minimizedRMSD -1
REMARK  0 active torsions:
REMARK  status: ('A' for Active; 'I' for Inactive)
ROOT
ATOM      1  N1  IND d   1      -1.583  -1.880  -4.813  0.00  0.00    -0.196 N 
ATOM      2  C2  IND d   1      -1.623  -2.559  -5.999  0.00  0.00     0.054 A 
ATOM      3  C3  IND d   1      -2.361  -3.685  -5.872  0.00  0.00    -0.031 A 
ATOM      4  C4  IND d   1      -3.677  -4.556  -3.838  0.00  0.00     0.051 A 
ATOM      5  C5  IND d   1      -3.914  -4.298  -2.517  0.00  0.00    -0.031 A 
ATOM      6  C6  IND d   1      -3.377  -3.197  -1.881  0.00  0.00     0.015 A 
ATOM      7  C7  IND d   1      -2.589  -2.303  -2.550  0.00  0.00    -0.016 A 
ATOM      8  C8  IND d   1      -2.341  -2.566  -3.890  0.00  0.00    -0.047 A 
ATOM      9  C9  IND d   1      -2.848  -3.704  -4.529  0.00  0.00    -0.096 A 
ATOM     10  HN1 IND d   1      -1.156  -1.148  -4.669  0.00  0.00     0.298 HD
ENDROOT
TORSDOF 0
ENDMDL
