MODEL 1
REMARK minimizedAffinity -2.08121395
REMARK minimizedRMSD -1
REMARK  0 active torsions:
REMARK  status: ('A' for Active; 'I' for Inactive)
ROOT
ATOM      1  N1  IND d   1      -4.121  -4.792  -5.999  0.00  0.00    -0.196 N 
ATOM      2  C2  IND d   1      -2.755  -4.839  -5.997  0.00  0.00     0.054 A 
ATOM      3  C3  IND d   1      -2.299  -5.211  -4.780  0.00  0.00    -0.031 A 
ATOM      4  C4  IND d   1      -3.619  -5.888  -2.676  0.00  0.00     0.051 A 
ATOM      5  C5  IND d   1      -4.891  -5.967  -2.181  0.00  0.00    -0.031 A 
ATOM      6  C6  IND d   1      -5.993  -5.654  -2.950  0.00  0.00     0.015 A 
ATOM      7  C7  IND d   1      -5.865  -5.260  -4.252  0.00  0.00    -0.016 A 
ATOM      8  C8  IND d   1      -4.575  -5.172  -4.756  0.00  0.00    -0.047 A 
ATOM      9  C9  IND d   1      -3.450  -5.448  -3.967  0.00  0.00    -0.096 A 
ATOM     10  HN1 IND d   1      -4.614  -4.563  -6.666  0.00  0.00     0.298 HD
ENDROOT
TORSDOF 0
ENDMDL
