MODEL 1
REMARK minimizedAffinity 6.6115303
REMARK minimizedRMSD -1
REMARK  0 active torsions:
REMARK  status: ('A' for Active; 'I' for Inactive)
ROOT
ATOM      1  N1  IND d   1       1.999  -1.860  -5.987  0.00  0.00    -0.196 N 
ATOM      2  C2  IND d   1       3.010  -2.780  -5.961  0.00  0.00     0.054 A 
ATOM      3  C3  IND d   1       2.504  -4.033  -5.923  0.00  0.00    -0.031 A 
ATOM      4  C4  IND d   1       0.051  -4.810  -5.998  0.00  0.00     0.051 A 
ATOM      5  C5  IND d   1      -1.230  -4.335  -5.988  0.00  0.00    -0.031 A 
ATOM      6  C6  IND d   1      -1.506  -2.982  -5.980  0.00  0.00     0.015 A 
ATOM      7  C7  IND d   1      -0.507  -2.051  -5.993  0.00  0.00    -0.016 A 
ATOM      8  C8  IND d   1       0.796  -2.531  -5.996  0.00  0.00    -0.047 A 
ATOM      9  C9  IND d   1       1.082  -3.902  -5.961  0.00  0.00    -0.096 A 
ATOM     10  HN1 IND d   1       2.098  -1.006  -5.997  0.00  0.00     0.298 HD
ENDROOT
TORSDOF 0
ENDMDL
