MODEL 1
REMARK minimizedAffinity 6.3014679
REMARK minimizedRMSD -1
REMARK  0 active torsions:
REMARK  status: ('A' for Active; 'I' for Inactive)
ROOT
ATOM      1  C   UNL d   1      -1.105   1.854  -0.025  0.00  0.00     0.172 C 
ATOM      2  N   UNL d   1      -1.047   0.703  -0.895  0.00  0.00    -0.070 N 
ATOM      3  C1  UNL d   1      -0.229   0.565  -1.984  0.00  0.00    -0.004 A 
ATOM      4  C2  UNL d   1      -0.475  -0.670  -2.543  0.00  0.00    -0.047 A 
ATOM      5  C3  UNL d   1      -1.476  -1.296  -1.764  0.00  0.00    -0.047 A 
ATOM      6  C4  UNL d   1      -1.812  -0.424  -0.750  0.00  0.00    -0.004 A 
ENDROOT
TORSDOF 0
ENDMDL
