MODEL 1
REMARK minimizedAffinity 2.24020839
REMARK minimizedRMSD -1
REMARK  0 active torsions:
REMARK  status: ('A' for Active; 'I' for Inactive)
ROOT
ATOM      1  C   UNL d   1      -0.012   2.193   1.933  0.00  0.00     0.172 C 
ATOM      2  N   UNL d   1      -0.229   2.919   0.704  0.00  0.00    -0.070 N 
ATOM      3  C1  UNL d   1      -0.329   4.280   0.588  0.00  0.00    -0.004 A 
ATOM      4  C2  UNL d   1      -0.534   4.575  -0.743  0.00  0.00    -0.047 A 
ATOM      5  C3  UNL d   1      -0.559   3.350  -1.450  0.00  0.00    -0.047 A 
ATOM      6  C4  UNL d   1      -0.368   2.341  -0.530  0.00  0.00    -0.004 A 
ENDROOT
TORSDOF 0
ENDMDL
