MODEL 1
REMARK minimizedAffinity 0.384152025
REMARK minimizedRMSD -1
REMARK  0 active torsions:
REMARK  status: ('A' for Active; 'I' for Inactive)
ROOT
ATOM      1  C   UNL d   1      -0.276   2.101   2.878  0.00  0.00     0.172 C 
ATOM      2  N   UNL d   1       0.041   2.717   1.611  0.00  0.00    -0.070 N 
ATOM      3  C1  UNL d   1      -0.570   2.445   0.416  0.00  0.00    -0.004 A 
ATOM      4  C2  UNL d   1       0.016   3.237  -0.548  0.00  0.00    -0.047 A 
ATOM      5  C3  UNL d   1       1.015   4.011   0.090  0.00  0.00    -0.047 A 
ATOM      6  C4  UNL d   1       1.009   3.669   1.426  0.00  0.00    -0.004 A 
ENDROOT
TORSDOF 0
ENDMDL
