MODEL 1
REMARK minimizedAffinity -0.266524822
REMARK minimizedRMSD -1
REMARK  0 active torsions:
REMARK  status: ('A' for Active; 'I' for Inactive)
ROOT
ATOM      1  C   UNL d   1      -4.222  -0.761   2.473  0.00  0.00     0.172 C 
ATOM      2  N   UNL d   1      -4.104  -0.487   1.060  0.00  0.00    -0.070 N 
ATOM      3  C1  UNL d   1      -4.206   0.746   0.474  0.00  0.00    -0.004 A 
ATOM      4  C2  UNL d   1      -4.035   0.584  -0.884  0.00  0.00    -0.047 A 
ATOM      5  C3  UNL d   1      -3.823  -0.794  -1.122  0.00  0.00    -0.047 A 
ATOM      6  C4  UNL d   1      -3.871  -1.435   0.098  0.00  0.00    -0.004 A 
ENDROOT
TORSDOF 0
ENDMDL
