MODEL 1
REMARK minimizedAffinity 2.31244326
REMARK minimizedRMSD -1
REMARK  0 active torsions:
REMARK  status: ('A' for Active; 'I' for Inactive)
ROOT
ATOM      1  C   UNL d   1      -0.518   2.166   2.212  0.00  0.00     0.172 C 
ATOM      2  N   UNL d   1      -0.500   2.911   0.975  0.00  0.00    -0.070 N 
ATOM      3  C1  UNL d   1      -0.177   4.236   0.846  0.00  0.00    -0.004 A 
ATOM      4  C2  UNL d   1      -0.279   4.567  -0.488  0.00  0.00    -0.047 A 
ATOM      5  C3  UNL d   1      -0.678   3.401  -1.185  0.00  0.00    -0.047 A 
ATOM      6  C4  UNL d   1      -0.807   2.391  -0.255  0.00  0.00    -0.004 A 
ENDROOT
TORSDOF 0
ENDMDL
