MODEL 1
REMARK minimizedAffinity 1.63308048
REMARK minimizedRMSD -1
REMARK  0 active torsions:
REMARK  status: ('A' for Active; 'I' for Inactive)
ROOT
ATOM      1  C   UNL d   1       2.967  -3.956  -1.181  0.00  0.00     0.172 C 
ATOM      2  N   UNL d   1       4.039  -2.993  -1.078  0.00  0.00    -0.070 N 
ATOM      3  C1  UNL d   1       4.022  -1.859  -0.312  0.00  0.00    -0.004 A 
ATOM      4  C2  UNL d   1       5.227  -1.213  -0.487  0.00  0.00    -0.047 A 
ATOM      5  C3  UNL d   1       5.994  -1.986  -1.391  0.00  0.00    -0.047 A 
ATOM      6  C4  UNL d   1       5.235  -3.082  -1.741  0.00  0.00    -0.004 A 
ENDROOT
TORSDOF 0
ENDMDL
