MODEL 1
REMARK minimizedAffinity 0.269276053
REMARK minimizedRMSD -1
REMARK  0 active torsions:
REMARK  status: ('A' for Active; 'I' for Inactive)
ROOT
ATOM      1  C   UNL d   1       1.546   3.259   3.447  0.00  0.00     0.172 C 
ATOM      2  N   UNL d   1       0.649   3.000   2.345  0.00  0.00    -0.070 N 
ATOM      3  C1  UNL d   1       0.550   3.750   1.204  0.00  0.00    -0.004 A 
ATOM      4  C2  UNL d   1      -0.415   3.176   0.404  0.00  0.00    -0.047 A 
ATOM      5  C3  UNL d   1      -0.914   2.043   1.089  0.00  0.00    -0.047 A 
ATOM      6  C4  UNL d   1      -0.238   1.958   2.288  0.00  0.00    -0.004 A 
ENDROOT
TORSDOF 0
ENDMDL
