MODEL 1
REMARK minimizedAffinity -0.678934693
REMARK minimizedRMSD -1
REMARK  0 active torsions:
REMARK  status: ('A' for Active; 'I' for Inactive)
ROOT
ATOM      1  C   UNL d   1       0.179   3.219   2.378  0.00  0.00     0.172 C 
ATOM      2  N   UNL d   1       0.132   3.681   1.010  0.00  0.00    -0.070 N 
ATOM      3  C1  UNL d   1       0.174   2.885  -0.103  0.00  0.00    -0.004 A 
ATOM      4  C2  UNL d   1       0.105   3.703  -1.210  0.00  0.00    -0.047 A 
ATOM      5  C3  UNL d   1       0.019   5.037  -0.746  0.00  0.00    -0.047 A 
ATOM      6  C4  UNL d   1       0.038   4.994   0.633  0.00  0.00    -0.004 A 
ENDROOT
TORSDOF 0
ENDMDL
