MODEL 1
REMARK minimizedAffinity -0.848473728
REMARK minimizedRMSD -1
REMARK  0 active torsions:
REMARK  status: ('A' for Active; 'I' for Inactive)
ROOT
ATOM      1  C   UNL d   1      -0.405   5.439  -0.931  0.00  0.00     0.172 C 
ATOM      2  N   UNL d   1      -0.481   4.002  -0.803  0.00  0.00    -0.070 N 
ATOM      3  C1  UNL d   1      -0.169   3.283   0.320  0.00  0.00    -0.004 A 
ATOM      4  C2  UNL d   1      -0.374   1.950   0.037  0.00  0.00    -0.047 A 
ATOM      5  C3  UNL d   1      -0.823   1.865  -1.302  0.00  0.00    -0.047 A 
ATOM      6  C4  UNL d   1      -0.881   3.150  -1.798  0.00  0.00    -0.004 A 
ENDROOT
TORSDOF 0
ENDMDL
