MODEL 1
REMARK minimizedAffinity 3.86441231
REMARK minimizedRMSD -1
REMARK  0 active torsions:
REMARK  status: ('A' for Active; 'I' for Inactive)
ROOT
ATOM      1  C   UNL d   1      -0.314   4.417  -0.047  0.00  0.00     0.172 C 
ATOM      2  N   UNL d   1       0.043   3.602   1.090  0.00  0.00    -0.070 N 
ATOM      3  C1  UNL d   1      -0.670   2.532   1.561  0.00  0.00    -0.004 A 
ATOM      4  C2  UNL d   1       0.000   2.027   2.654  0.00  0.00    -0.047 A 
ATOM      5  C3  UNL d   1       1.155   2.821   2.847  0.00  0.00    -0.047 A 
ATOM      6  C4  UNL d   1       1.157   3.789   1.865  0.00  0.00    -0.004 A 
ENDROOT
TORSDOF 0
ENDMDL
