MODEL 1
REMARK minimizedAffinity 0.338625371
REMARK minimizedRMSD -1
REMARK  0 active torsions:
REMARK  status: ('A' for Active; 'I' for Inactive)
ROOT
ATOM      1  C   UNL d   1      -0.986   2.135  -0.637  0.00  0.00     0.172 C 
ATOM      2  N   UNL d   1      -1.467   0.792  -0.863  0.00  0.00    -0.070 N 
ATOM      3  C1  UNL d   1      -2.768   0.380  -0.748  0.00  0.00    -0.004 A 
ATOM      4  C2  UNL d   1      -2.812  -0.965  -1.045  0.00  0.00    -0.047 A 
ATOM      5  C3  UNL d   1      -1.492  -1.376  -1.348  0.00  0.00    -0.047 A 
ATOM      6  C4  UNL d   1      -0.680  -0.268  -1.227  0.00  0.00    -0.004 A 
ENDROOT
TORSDOF 0
ENDMDL
