MODEL 1
REMARK minimizedAffinity 4.63310337
REMARK minimizedRMSD -1
REMARK  0 active torsions:
REMARK  status: ('A' for Active; 'I' for Inactive)
ROOT
ATOM      1  N1  IND d   1      -6.000  -0.246  -0.334  0.00  0.00    -0.196 N 
ATOM      2  C2  IND d   1      -5.030   0.517  -0.924  0.00  0.00     0.054 A 
ATOM      3  C3  IND d   1      -3.852   0.358  -0.281  0.00  0.00    -0.031 A 
ATOM      4  C4  IND d   1      -3.262  -1.179   1.698  0.00  0.00     0.051 A 
ATOM      5  C5  IND d   1      -3.825  -2.039   2.599  0.00  0.00    -0.031 A 
ATOM      6  C6  IND d   1      -5.168  -2.354   2.566  0.00  0.00     0.015 A 
ATOM      7  C7  IND d   1      -6.000  -1.826   1.619  0.00  0.00    -0.016 A 
ATOM      8  C8  IND d   1      -5.433  -0.947   0.707  0.00  0.00    -0.047 A 
ATOM      9  C9  IND d   1      -4.079  -0.591   0.762  0.00  0.00    -0.096 A 
ATOM     10  HN1 IND d   1      -6.825  -0.281  -0.574  0.00  0.00     0.298 HD
ENDROOT
TORSDOF 0
ENDMDL
