MODEL 1
REMARK minimizedAffinity 9.26088333
REMARK minimizedRMSD -1
REMARK  0 active torsions:
REMARK  status: ('A' for Active; 'I' for Inactive)
ROOT
ATOM      1  N1  IND d   1       2.963   2.884   0.312  0.00  0.00    -0.196 N 
ATOM      2  C2  IND d   1       2.721   2.177   1.457  0.00  0.00     0.054 A 
ATOM      3  C3  IND d   1       1.405   1.886   1.561  0.00  0.00    -0.031 A 
ATOM      4  C4  IND d   1      -0.515   2.384  -0.081  0.00  0.00     0.051 A 
ATOM      5  C5  IND d   1      -0.791   3.040  -1.247  0.00  0.00    -0.031 A 
ATOM      6  C6  IND d   1       0.190   3.688  -1.970  0.00  0.00     0.015 A 
ATOM      7  C7  IND d   1       1.492   3.695  -1.556  0.00  0.00    -0.016 A 
ATOM      8  C8  IND d   1       1.775   3.036  -0.368  0.00  0.00    -0.047 A 
ATOM      9  C9  IND d   1       0.777   2.413   0.391  0.00  0.00    -0.096 A 
ATOM     10  HN1 IND d   1       3.729   3.184   0.060  0.00  0.00     0.298 HD
ENDROOT
TORSDOF 0
ENDMDL
