MODEL 1
REMARK minimizedAffinity 0.382956266
REMARK minimizedRMSD -1
REMARK  0 active torsions:
REMARK  status: ('A' for Active; 'I' for Inactive)
ROOT
ATOM      1  N1  IND d   1       0.120   4.766  -2.226  0.00  0.00    -0.196 N 
ATOM      2  C2  IND d   1       0.674   5.968  -1.885  0.00  0.00     0.054 A 
ATOM      3  C3  IND d   1       1.123   5.934  -0.610  0.00  0.00    -0.031 A 
ATOM      4  C4  IND d   1       1.142   3.979   1.065  0.00  0.00     0.051 A 
ATOM      5  C5  IND d   1       0.712   2.691   1.223  0.00  0.00    -0.031 A 
ATOM      6  C6  IND d   1       0.052   2.015   0.218  0.00  0.00     0.015 A 
ATOM      7  C7  IND d   1      -0.194   2.600  -0.992  0.00  0.00    -0.016 A 
ATOM      8  C8  IND d   1       0.235   3.910  -1.153  0.00  0.00    -0.047 A 
ATOM      9  C9  IND d   1       0.868   4.616  -0.122  0.00  0.00    -0.096 A 
ATOM     10  HN1 IND d   1      -0.240   4.577  -2.984  0.00  0.00     0.298 HD
ENDROOT
TORSDOF 0
ENDMDL
