MODEL 1
REMARK minimizedAffinity 1.2927289
REMARK minimizedRMSD -1
REMARK  0 active torsions:
REMARK  status: ('A' for Active; 'I' for Inactive)
ROOT
ATOM      1  N1  IND d   1       5.819  -3.109  -0.661  0.00  0.00    -0.196 N 
ATOM      2  C2  IND d   1       4.996  -2.269   0.036  0.00  0.00     0.054 A 
ATOM      3  C3  IND d   1       3.710  -2.668  -0.077  0.00  0.00    -0.031 A 
ATOM      4  C4  IND d   1       2.737  -4.731  -1.272  0.00  0.00     0.051 A 
ATOM      5  C5  IND d   1       3.092  -5.775  -2.078  0.00  0.00    -0.031 A 
ATOM      6  C6  IND d   1       4.400  -5.991  -2.459  0.00  0.00     0.015 A 
ATOM      7  C7  IND d   1       5.409  -5.172  -2.036  0.00  0.00    -0.016 A 
ATOM      8  C8  IND d   1       5.052  -4.106  -1.223  0.00  0.00    -0.047 A 
ATOM      9  C9  IND d   1       3.720  -3.858  -0.868  0.00  0.00    -0.096 A 
ATOM     10  HN1 IND d   1       6.671  -3.029  -0.736  0.00  0.00     0.298 HD
ENDROOT
TORSDOF 0
ENDMDL
