MODEL 1
REMARK minimizedAffinity 8.00732231
REMARK minimizedRMSD -1
REMARK  0 active torsions:
REMARK  status: ('A' for Active; 'I' for Inactive)
ROOT
ATOM      1  N1  IND d   1       4.065  -1.967  -1.444  0.00  0.00    -0.196 N 
ATOM      2  C2  IND d   1       3.781  -1.489  -2.692  0.00  0.00     0.054 A 
ATOM      3  C3  IND d   1       3.823  -2.490  -3.600  0.00  0.00    -0.031 A 
ATOM      4  C4  IND d   1       4.236  -5.006  -3.243  0.00  0.00     0.051 A 
ATOM      5  C5  IND d   1       4.576  -5.916  -2.282  0.00  0.00    -0.031 A 
ATOM      6  C6  IND d   1       4.765  -5.549  -0.965  0.00  0.00     0.015 A 
ATOM      7  C7  IND d   1       4.608  -4.255  -0.556  0.00  0.00    -0.016 A 
ATOM      8  C8  IND d   1       4.269  -3.327  -1.531  0.00  0.00    -0.047 A 
ATOM      9  C9  IND d   1       4.118  -3.686  -2.877  0.00  0.00    -0.096 A 
ATOM     10  HN1 IND d   1       4.108  -1.498  -0.724  0.00  0.00     0.298 HD
ENDROOT
TORSDOF 0
ENDMDL
