MODEL 1
REMARK minimizedAffinity -1.39706969
REMARK minimizedRMSD -1
REMARK  0 active torsions:
REMARK  status: ('A' for Active; 'I' for Inactive)
ROOT
ATOM      1  N1  IND d   1       4.401  -1.748  -1.683  0.00  0.00    -0.196 N 
ATOM      2  C2  IND d   1       4.307  -1.810  -0.321  0.00  0.00     0.054 A 
ATOM      3  C3  IND d   1       3.921  -3.046   0.067  0.00  0.00    -0.031 A 
ATOM      4  C4  IND d   1       3.485  -5.147  -1.356  0.00  0.00     0.051 A 
ATOM      5  C5  IND d   1       3.408  -5.572  -2.653  0.00  0.00    -0.031 A 
ATOM      6  C6  IND d   1       3.665  -4.728  -3.714  0.00  0.00     0.015 A 
ATOM      7  C7  IND d   1       4.022  -3.424  -3.516  0.00  0.00    -0.016 A 
ATOM      8  C8  IND d   1       4.095  -2.987  -2.201  0.00  0.00    -0.047 A 
ATOM      9  C9  IND d   1       3.794  -3.827  -1.122  0.00  0.00    -0.096 A 
ATOM     10  HN1 IND d   1       4.614  -1.051  -2.140  0.00  0.00     0.298 HD
ENDROOT
TORSDOF 0
ENDMDL
