MODEL 1
REMARK minimizedAffinity 3.16776919
REMARK minimizedRMSD -1
REMARK  0 active torsions:
REMARK  status: ('A' for Active; 'I' for Inactive)
ROOT
ATOM      1  N1  IND d   1       1.713   4.055  -0.010  0.00  0.00    -0.196 N 
ATOM      2  C2  IND d   1       0.711   4.082  -0.940  0.00  0.00     0.054 A 
ATOM      3  C3  IND d   1      -0.308   3.282  -0.557  0.00  0.00    -0.031 A 
ATOM      4  C4  IND d   1      -0.590   1.913   1.605  0.00  0.00     0.051 A 
ATOM      5  C5  IND d   1       0.076   1.543   2.740  0.00  0.00    -0.031 A 
ATOM      6  C6  IND d   1       1.345   2.003   3.023  0.00  0.00     0.015 A 
ATOM      7  C7  IND d   1       1.995   2.863   2.184  0.00  0.00    -0.016 A 
ATOM      8  C8  IND d   1       1.325   3.235   1.027  0.00  0.00    -0.047 A 
ATOM      9  C9  IND d   1       0.054   2.738   0.713  0.00  0.00    -0.096 A 
ATOM     10  HN1 IND d   1       2.459   4.478  -0.064  0.00  0.00     0.298 HD
ENDROOT
TORSDOF 0
ENDMDL
