MODEL 1
REMARK minimizedAffinity 3.13569212
REMARK minimizedRMSD -1
REMARK  0 active torsions:
REMARK  status: ('A' for Active; 'I' for Inactive)
ROOT
ATOM      1  N1  IND d   1       0.194   3.365  -1.099  0.00  0.00    -0.196 N 
ATOM      2  C2  IND d   1       0.335   4.658  -0.680  0.00  0.00     0.054 A 
ATOM      3  C3  IND d   1       0.439   4.708   0.667  0.00  0.00    -0.031 A 
ATOM      4  C4  IND d   1       0.505   2.782   2.374  0.00  0.00     0.051 A 
ATOM      5  C5  IND d   1       0.375   1.425   2.473  0.00  0.00    -0.031 A 
ATOM      6  C6  IND d   1       0.176   0.629   1.363  0.00  0.00     0.015 A 
ATOM      7  C7  IND d   1       0.112   1.162   0.107  0.00  0.00    -0.016 A 
ATOM      8  C8  IND d   1       0.236   2.540   0.003  0.00  0.00    -0.047 A 
ATOM      9  C9  IND d   1       0.396   3.357   1.130  0.00  0.00    -0.096 A 
ATOM     10  HN1 IND d   1       0.095   3.110  -1.914  0.00  0.00     0.298 HD
ENDROOT
TORSDOF 0
ENDMDL
