MODEL 1
REMARK minimizedAffinity -0.0899292454
REMARK minimizedRMSD -1
REMARK  0 active torsions:
REMARK  status: ('A' for Active; 'I' for Inactive)
ROOT
ATOM      1  O1  BZF d   1       0.567   1.835   0.087  0.00  0.00    -0.204 OA
ATOM      2  C2  BZF d   1       0.720   2.736   1.123  0.00  0.00     0.174 A 
ATOM      3  C3  BZF d   1       1.570   2.254   2.053  0.00  0.00    -0.012 A 
ATOM      4  C3A BZF d   1       2.044   1.013   1.524  0.00  0.00    -0.107 A 
ATOM      5  C4  BZF d   1       2.924   0.073   1.979  0.00  0.00     0.055 A 
ATOM      6  C5  BZF d   1       3.112  -1.062   1.254  0.00  0.00    -0.016 A 
ATOM      7  C6  BZF d   1       2.433  -1.291   0.075  0.00  0.00     0.022 A 
ATOM      8  C7  BZF d   1       1.554  -0.386  -0.418  0.00  0.00     0.029 A 
ATOM      9  C7A BZF d   1       1.387   0.777   0.294  0.00  0.00     0.058 A 
ENDROOT
TORSDOF 0
ENDMDL
