MODEL 1
REMARK minimizedAffinity -3.04093409
REMARK minimizedRMSD -1
REMARK  0 active torsions:
REMARK  status: ('A' for Active; 'I' for Inactive)
ROOT
ATOM      1  O1  BZF d   1       3.389   1.167  -0.274  0.00  0.00    -0.204 OA
ATOM      2  C2  BZF d   1       2.474   1.527   0.696  0.00  0.00     0.174 A 
ATOM      3  C3  BZF d   1       1.534   0.571   0.847  0.00  0.00    -0.012 A 
ATOM      4  C3A BZF d   1       1.936  -0.492  -0.023  0.00  0.00    -0.107 A 
ATOM      5  C4  BZF d   1       1.416  -1.723  -0.303  0.00  0.00     0.055 A 
ATOM      6  C5  BZF d   1       2.010  -2.489  -1.255  0.00  0.00    -0.016 A 
ATOM      7  C6  BZF d   1       3.121  -2.055  -1.949  0.00  0.00     0.022 A 
ATOM      8  C7  BZF d   1       3.676  -0.843  -1.702  0.00  0.00     0.029 A 
ATOM      9  C7A BZF d   1       3.097  -0.080  -0.717  0.00  0.00     0.058 A 
ENDROOT
TORSDOF 0
ENDMDL
