MODEL 1
REMARK minimizedAffinity -2.94971561
REMARK minimizedRMSD -1
REMARK  0 active torsions:
REMARK  status: ('A' for Active; 'I' for Inactive)
ROOT
ATOM      1  O1  BZF d   1       3.552   1.235  -0.310  0.00  0.00    -0.204 OA
ATOM      2  C2  BZF d   1       2.647   1.507   0.698  0.00  0.00     0.174 A 
ATOM      3  C3  BZF d   1       1.881   0.427   0.957  0.00  0.00    -0.012 A 
ATOM      4  C3A BZF d   1       2.398  -0.611   0.118  0.00  0.00    -0.107 A 
ATOM      5  C4  BZF d   1       2.065  -1.922  -0.066  0.00  0.00     0.055 A 
ATOM      6  C5  BZF d   1       2.719  -2.643  -1.015  0.00  0.00    -0.016 A 
ATOM      7  C6  BZF d   1       3.706  -2.083  -1.800  0.00  0.00     0.022 A 
ATOM      8  C7  BZF d   1       4.074  -0.787  -1.650  0.00  0.00     0.029 A 
ATOM      9  C7A BZF d   1       3.438  -0.066  -0.670  0.00  0.00     0.058 A 
ENDROOT
TORSDOF 0
ENDMDL
