MODEL 1
REMARK minimizedAffinity 6.52016401
REMARK minimizedRMSD -1
REMARK  0 active torsions:
REMARK  status: ('A' for Active; 'I' for Inactive)
ROOT
ATOM      1  O1  BZF d   1       0.211   0.906  -0.037  0.00  0.00    -0.204 OA
ATOM      2  C2  BZF d   1      -1.047   1.120  -0.567  0.00  0.00     0.174 A 
ATOM      3  C3  BZF d   1      -1.524  -0.006  -1.135  0.00  0.00    -0.012 A 
ATOM      4  C3A BZF d   1      -0.539  -1.009  -0.868  0.00  0.00    -0.107 A 
ATOM      5  C4  BZF d   1      -0.450  -2.339  -1.164  0.00  0.00     0.055 A 
ATOM      6  C5  BZF d   1       0.677  -3.017  -0.824  0.00  0.00    -0.016 A 
ATOM      7  C6  BZF d   1       1.735  -2.396  -0.192  0.00  0.00     0.022 A 
ATOM      8  C7  BZF d   1       1.691  -1.080   0.127  0.00  0.00     0.029 A 
ATOM      9  C7A BZF d   1       0.539  -0.399  -0.187  0.00  0.00     0.058 A 
ENDROOT
TORSDOF 0
ENDMDL
