MODEL 1
REMARK minimizedAffinity 3.49834013
REMARK minimizedRMSD -1
REMARK  0 active torsions:
REMARK  status: ('A' for Active; 'I' for Inactive)
ROOT
ATOM      1  O1  BZF d   1      -0.977   1.327  -0.971  0.00  0.00    -0.204 OA
ATOM      2  C2  BZF d   1       0.229   1.778  -0.470  0.00  0.00     0.174 A 
ATOM      3  C3  BZF d   1       0.093   2.185   0.808  0.00  0.00    -0.012 A 
ATOM      4  C3A BZF d   1      -1.262   1.888   1.156  0.00  0.00    -0.107 A 
ATOM      5  C4  BZF d   1      -1.995   2.046   2.298  0.00  0.00     0.055 A 
ATOM      6  C5  BZF d   1      -3.315   1.722   2.286  0.00  0.00    -0.016 A 
ATOM      7  C6  BZF d   1      -3.935   1.244   1.150  0.00  0.00     0.022 A 
ATOM      8  C7  BZF d   1      -3.248   1.065  -0.005  0.00  0.00     0.029 A 
ATOM      9  C7A BZF d   1      -1.907   1.360   0.013  0.00  0.00     0.058 A 
ENDROOT
TORSDOF 0
ENDMDL
