MODEL 1
REMARK minimizedAffinity -3.50461173
REMARK minimizedRMSD -1
REMARK  0 active torsions:
REMARK  status: ('A' for Active; 'I' for Inactive)
ROOT
ATOM      1  O1  BZF d   1       0.518   1.120  -0.099  0.00  0.00    -0.204 OA
ATOM      2  C2  BZF d   1      -0.433   0.121  -0.019  0.00  0.00     0.174 A 
ATOM      3  C3  BZF d   1       0.145  -1.096  -0.084  0.00  0.00    -0.012 A 
ATOM      4  C3A BZF d   1       1.553  -0.842  -0.120  0.00  0.00    -0.107 A 
ATOM      5  C4  BZF d   1       2.652  -1.652  -0.171  0.00  0.00     0.055 A 
ATOM      6  C5  BZF d   1       3.884  -1.087  -0.269  0.00  0.00    -0.016 A 
ATOM      7  C6  BZF d   1       4.054   0.281  -0.323  0.00  0.00     0.022 A 
ATOM      8  C7  BZF d   1       2.994   1.125  -0.270  0.00  0.00     0.029 A 
ATOM      9  C7A BZF d   1       1.750   0.558  -0.138  0.00  0.00     0.058 A 
ENDROOT
TORSDOF 0
ENDMDL
