MODEL 1
REMARK minimizedAffinity 2.86112428
REMARK minimizedRMSD -1
REMARK  0 active torsions:
REMARK  status: ('A' for Active; 'I' for Inactive)
ROOT
ATOM      1  O1  BZF d   1      -0.387   1.617  -0.169  0.00  0.00    -0.204 OA
ATOM      2  C2  BZF d   1       0.503   1.656   0.887  0.00  0.00     0.174 A 
ATOM      3  C3  BZF d   1       1.061   0.445   1.087  0.00  0.00    -0.012 A 
ATOM      4  C3A BZF d   1       0.554  -0.382   0.036  0.00  0.00    -0.107 A 
ATOM      5  C4  BZF d   1       0.753  -1.688  -0.311  0.00  0.00     0.055 A 
ATOM      6  C5  BZF d   1       0.049  -2.210  -1.350  0.00  0.00    -0.016 A 
ATOM      7  C6  BZF d   1      -0.865  -1.458  -2.059  0.00  0.00     0.022 A 
ATOM      8  C7  BZF d   1      -1.093  -0.157  -1.754  0.00  0.00     0.029 A 
ATOM      9  C7A BZF d   1      -0.359   0.383  -0.727  0.00  0.00     0.058 A 
ENDROOT
TORSDOF 0
ENDMDL
