MODEL 1
REMARK minimizedAffinity 8.25367737
REMARK minimizedRMSD -1
REMARK  0 active torsions:
REMARK  status: ('A' for Active; 'I' for Inactive)
ROOT
ATOM      1  C1  BNZ d   1       4.822   4.279  -1.067  0.00  0.00     0.000 A 
ATOM      2  C2  BNZ d   1       3.657   3.562  -1.123  0.00  0.00     0.000 A 
ATOM      3  C3  BNZ d   1       3.659   2.253  -1.517  0.00  0.00     0.000 A 
ATOM      4  C4  BNZ d   1       4.818   1.676  -1.893  0.00  0.00     0.000 A 
ATOM      5  C5  BNZ d   1       6.000   2.388  -1.852  0.00  0.00     0.000 A 
ATOM      6  C6  BNZ d   1       6.000   3.694  -1.417  0.00  0.00     0.000 A 
ENDROOT
TORSDOF 0
ENDMDL
