MODEL 1
REMARK minimizedAffinity 5.66403294
REMARK minimizedRMSD -1
REMARK  0 active torsions:
REMARK  status: ('A' for Active; 'I' for Inactive)
ROOT
ATOM      1  C1  BNZ d   1       2.212   0.669   0.835  0.00  0.00     0.000 A 
ATOM      2  C2  BNZ d   1       2.473   0.638   2.178  0.00  0.00     0.000 A 
ATOM      3  C3  BNZ d   1       2.330   1.760   2.946  0.00  0.00     0.000 A 
ATOM      4  C4  BNZ d   1       1.964   2.919   2.363  0.00  0.00     0.000 A 
ATOM      5  C5  BNZ d   1       1.706   2.969   1.007  0.00  0.00     0.000 A 
ATOM      6  C6  BNZ d   1       1.814   1.829   0.245  0.00  0.00     0.000 A 
ENDROOT
TORSDOF 0
ENDMDL
