MODEL 1
REMARK minimizedAffinity -0.895714581
REMARK minimizedRMSD -1
REMARK  0 active torsions:
REMARK  status: ('A' for Active; 'I' for Inactive)
ROOT
ATOM      1  C1  BNZ d   1      -0.825   2.248   1.296  0.00  0.00     0.000 A 
ATOM      2  C2  BNZ d   1      -0.787   1.750   2.571  0.00  0.00     0.000 A 
ATOM      3  C3  BNZ d   1       0.364   1.217   3.081  0.00  0.00     0.000 A 
ATOM      4  C4  BNZ d   1       1.463   1.146   2.302  0.00  0.00     0.000 A 
ATOM      5  C5  BNZ d   1       1.438   1.636   1.011  0.00  0.00     0.000 A 
ATOM      6  C6  BNZ d   1       0.289   2.206   0.515  0.00  0.00     0.000 A 
ENDROOT
TORSDOF 0
ENDMDL
