MODEL 1
REMARK minimizedAffinity 0.388517499
REMARK minimizedRMSD -1
REMARK  0 active torsions:
REMARK  status: ('A' for Active; 'I' for Inactive)
ROOT
ATOM      1  C1  BNZ d   1       0.193   1.606  -0.204  0.00  0.00     0.000 A 
ATOM      2  C2  BNZ d   1       0.514   2.927  -0.043  0.00  0.00     0.000 A 
ATOM      3  C3  BNZ d   1       1.763   3.298   0.373  0.00  0.00     0.000 A 
ATOM      4  C4  BNZ d   1       2.674   2.347   0.665  0.00  0.00     0.000 A 
ATOM      5  C5  BNZ d   1       2.362   1.011   0.516  0.00  0.00     0.000 A 
ATOM      6  C6  BNZ d   1       1.117   0.642   0.060  0.00  0.00     0.000 A 
ENDROOT
TORSDOF 0
ENDMDL
