MODEL 1
REMARK minimizedAffinity 4.42169333
REMARK minimizedRMSD -1
REMARK  0 active torsions:
REMARK  status: ('A' for Active; 'I' for Inactive)
ROOT
ATOM      1  C1  BNZ d   1       2.040   0.237   0.596  0.00  0.00     0.000 A 
ATOM      2  C2  BNZ d   1       2.584   0.230   1.852  0.00  0.00     0.000 A 
ATOM      3  C3  BNZ d   1       3.323  -0.834   2.289  0.00  0.00     0.000 A 
ATOM      4  C4  BNZ d   1       3.482  -1.905   1.485  0.00  0.00     0.000 A 
ATOM      5  C5  BNZ d   1       2.931  -1.917   0.219  0.00  0.00     0.000 A 
ATOM      6  C6  BNZ d   1       2.221  -0.828  -0.231  0.00  0.00     0.000 A 
ENDROOT
TORSDOF 0
ENDMDL
