MODEL 1
REMARK minimizedAffinity -0.512826145
REMARK minimizedRMSD -1
REMARK  0 active torsions:
REMARK  status: ('A' for Active; 'I' for Inactive)
ROOT
ATOM      1  C1  BNZ d   1       1.563   1.355   0.292  0.00  0.00     0.000 A 
ATOM      2  C2  BNZ d   1       2.509   2.345   0.288  0.00  0.00     0.000 A 
ATOM      3  C3  BNZ d   1       3.836   2.045   0.156  0.00  0.00     0.000 A 
ATOM      4  C4  BNZ d   1       4.218   0.755   0.068  0.00  0.00     0.000 A 
ATOM      5  C5  BNZ d   1       3.277  -0.255   0.079  0.00  0.00     0.000 A 
ATOM      6  C6  BNZ d   1       1.939   0.053   0.173  0.00  0.00     0.000 A 
ENDROOT
TORSDOF 0
ENDMDL
