MODEL 1
REMARK minimizedAffinity 0.0753526241
REMARK minimizedRMSD -1
REMARK  0 active torsions:
REMARK  status: ('A' for Active; 'I' for Inactive)
ROOT
ATOM      1  C1  BNZ d   1      -4.494   1.127  -2.928  0.00  0.00     0.000 A 
ATOM      2  C2  BNZ d   1      -4.497   0.794  -1.600  0.00  0.00     0.000 A 
ATOM      3  C3  BNZ d   1      -5.267   1.485  -0.707  0.00  0.00     0.000 A 
ATOM      4  C4  BNZ d   1      -6.000   2.533  -1.134  0.00  0.00     0.000 A 
ATOM      5  C5  BNZ d   1      -6.000   2.888  -2.469  0.00  0.00     0.000 A 
ATOM      6  C6  BNZ d   1      -5.254   2.165  -3.372  0.00  0.00     0.000 A 
ENDROOT
TORSDOF 0
ENDMDL
