MODEL 1
REMARK minimizedAffinity -1.64231431
REMARK minimizedRMSD -1
REMARK  0 active torsions:
REMARK  status: ('A' for Active; 'I' for Inactive)
ROOT
ATOM      1  C1  BNZ d   1       1.936   1.133   0.371  0.00  0.00     0.000 A 
ATOM      2  C2  BNZ d   1       3.152   1.613  -0.036  0.00  0.00     0.000 A 
ATOM      3  C3  BNZ d   1       4.129   0.763  -0.474  0.00  0.00     0.000 A 
ATOM      4  C4  BNZ d   1       3.903  -0.567  -0.466  0.00  0.00     0.000 A 
ATOM      5  C5  BNZ d   1       2.686  -1.067  -0.050  0.00  0.00     0.000 A 
ATOM      6  C6  BNZ d   1       1.691  -0.206   0.353  0.00  0.00     0.000 A 
ENDROOT
TORSDOF 0
ENDMDL
