MODEL 1
REMARK minimizedAffinity -4.22231722
REMARK minimizedRMSD -1
REMARK  0 active torsions:
REMARK  status: ('A' for Active; 'I' for Inactive)
ROOT
ATOM      1  C   UNL d   1       0.158   0.600   0.058  0.00  0.00     0.078 C 
ATOM      2  C1  UNL d   1      -0.089  -0.872  -0.084  0.00  0.00    -0.077 A 
ATOM      3  C2  UNL d   1       0.053  -1.511  -1.322  0.00  0.00    -0.001 A 
ATOM      4  C3  UNL d   1      -0.189  -2.880  -1.442  0.00  0.00     0.003 A 
ATOM      5  C4  UNL d   1      -0.576  -3.622  -0.327  0.00  0.00    -0.005 A 
ATOM      6  C5  UNL d   1      -0.722  -2.995   0.908  0.00  0.00     0.003 A 
ATOM      7  C6  UNL d   1      -0.480  -1.625   1.030  0.00  0.00    -0.001 A 
ENDROOT
TORSDOF 0
ENDMDL
