MODEL 1
REMARK minimizedAffinity -3.01905155
REMARK minimizedRMSD -1
REMARK  0 active torsions:
REMARK  status: ('A' for Active; 'I' for Inactive)
ROOT
ATOM      1  C   UNL d   1      -0.322  -3.371   0.381  0.00  0.00     0.078 C 
ATOM      2  C1  UNL d   1      -0.249  -1.876   0.293  0.00  0.00    -0.077 A 
ATOM      3  C2  UNL d   1      -0.887  -1.066   1.240  0.00  0.00    -0.001 A 
ATOM      4  C3  UNL d   1      -0.819   0.324   1.141  0.00  0.00     0.003 A 
ATOM      5  C4  UNL d   1      -0.115   0.917   0.095  0.00  0.00    -0.005 A 
ATOM      6  C5  UNL d   1       0.521   0.119  -0.854  0.00  0.00     0.003 A 
ATOM      7  C6  UNL d   1       0.454  -1.271  -0.756  0.00  0.00    -0.001 A 
ENDROOT
TORSDOF 0
ENDMDL
