MODEL 1
REMARK minimizedAffinity -4.20298386
REMARK minimizedRMSD -1
REMARK  0 active torsions:
REMARK  status: ('A' for Active; 'I' for Inactive)
ROOT
ATOM      1  C   UNL d   1       0.463   1.016  -0.558  0.00  0.00     0.078 C 
ATOM      2  C1  UNL d   1       0.156  -0.440  -0.372  0.00  0.00    -0.077 A 
ATOM      3  C2  UNL d   1       0.824  -1.420  -1.117  0.00  0.00    -0.001 A 
ATOM      4  C3  UNL d   1       0.520  -2.770  -0.940  0.00  0.00     0.003 A 
ATOM      5  C4  UNL d   1      -0.453  -3.154  -0.019  0.00  0.00    -0.005 A 
ATOM      6  C5  UNL d   1      -1.125  -2.187   0.725  0.00  0.00     0.003 A 
ATOM      7  C6  UNL d   1      -0.823  -0.835   0.550  0.00  0.00    -0.001 A 
ENDROOT
TORSDOF 0
ENDMDL
