MODEL 1
REMARK minimizedAffinity -5.68401575
REMARK minimizedRMSD -1
REMARK  0 active torsions:
REMARK  status: ('A' for Active; 'I' for Inactive)
ROOT
ATOM      1  C   UNL d   1      -0.086  -0.026   1.065  0.00  0.00     0.078 C 
ATOM      2  C1  UNL d   1      -0.095  -1.173   0.099  0.00  0.00    -0.077 A 
ATOM      3  C2  UNL d   1      -0.401  -2.472   0.523  0.00  0.00    -0.001 A 
ATOM      4  C3  UNL d   1      -0.396  -3.531  -0.385  0.00  0.00     0.003 A 
ATOM      5  C4  UNL d   1      -0.085  -3.303  -1.724  0.00  0.00    -0.005 A 
ATOM      6  C5  UNL d   1       0.224  -2.015  -2.156  0.00  0.00     0.003 A 
ATOM      7  C6  UNL d   1       0.219  -0.954  -1.248  0.00  0.00    -0.001 A 
ENDROOT
TORSDOF 0
ENDMDL
