MODEL 1
REMARK minimizedAffinity -4.34244251
REMARK minimizedRMSD -1
REMARK  0 active torsions:
REMARK  status: ('A' for Active; 'I' for Inactive)
ROOT
ATOM      1  C   UNL d   1       0.549   1.018  -0.399  0.00  0.00     0.078 C 
ATOM      2  C1  UNL d   1       0.333  -0.427  -0.733  0.00  0.00    -0.077 A 
ATOM      3  C2  UNL d   1       0.579  -0.914  -2.023  0.00  0.00    -0.001 A 
ATOM      4  C3  UNL d   1       0.365  -2.261  -2.322  0.00  0.00     0.003 A 
ATOM      5  C4  UNL d   1      -0.097  -3.131  -1.337  0.00  0.00    -0.005 A 
ATOM      6  C5  UNL d   1      -0.346  -2.656  -0.051  0.00  0.00     0.003 A 
ATOM      7  C6  UNL d   1      -0.133  -1.310   0.250  0.00  0.00    -0.001 A 
ENDROOT
TORSDOF 0
ENDMDL
