MODEL 1
REMARK minimizedAffinity -6.39123344
REMARK minimizedRMSD -1
REMARK  0 active torsions:
REMARK  status: ('A' for Active; 'I' for Inactive)
ROOT
ATOM      1  C   UNL d   1       0.303   0.884  -0.650  0.00  0.00     0.078 C 
ATOM      2  C1  UNL d   1       0.239  -0.610  -0.532  0.00  0.00    -0.077 A 
ATOM      3  C2  UNL d   1       0.509  -1.432  -1.633  0.00  0.00    -0.001 A 
ATOM      4  C3  UNL d   1       0.436  -2.821  -1.511  0.00  0.00     0.003 A 
ATOM      5  C4  UNL d   1       0.093  -3.399  -0.291  0.00  0.00    -0.005 A 
ATOM      6  C5  UNL d   1      -0.179  -2.589   0.810  0.00  0.00     0.003 A 
ATOM      7  C6  UNL d   1      -0.107  -1.200   0.690  0.00  0.00    -0.001 A 
ENDROOT
TORSDOF 0
ENDMDL
