MODEL 1
REMARK minimizedAffinity -5.074121
REMARK minimizedRMSD -1
REMARK  0 active torsions:
REMARK  status: ('A' for Active; 'I' for Inactive)
ROOT
ATOM      1  C   UNL d   1       0.596  -1.048  -3.057  0.00  0.00     0.078 C 
ATOM      2  C1  UNL d   1       0.133  -1.601  -1.742  0.00  0.00    -0.077 A 
ATOM      3  C2  UNL d   1      -0.091  -0.760  -0.646  0.00  0.00    -0.001 A 
ATOM      4  C3  UNL d   1      -0.512  -1.289   0.575  0.00  0.00     0.003 A 
ATOM      5  C4  UNL d   1      -0.711  -2.661   0.712  0.00  0.00    -0.005 A 
ATOM      6  C5  UNL d   1      -0.488  -3.507  -0.373  0.00  0.00     0.003 A 
ATOM      7  C6  UNL d   1      -0.067  -2.979  -1.595  0.00  0.00    -0.001 A 
ENDROOT
TORSDOF 0
ENDMDL
