MODEL 1
REMARK minimizedAffinity -5.88147163
REMARK minimizedRMSD -1
REMARK  0 active torsions:
REMARK  status: ('A' for Active; 'I' for Inactive)
ROOT
ATOM      1  C   UNL d   1       0.052   1.159  -0.231  0.00  0.00     0.078 C 
ATOM      2  C1  UNL d   1       0.041  -0.340  -0.193  0.00  0.00    -0.077 A 
ATOM      3  C2  UNL d   1       0.622  -1.092  -1.221  0.00  0.00    -0.001 A 
ATOM      4  C3  UNL d   1       0.596  -2.487  -1.177  0.00  0.00     0.003 A 
ATOM      5  C4  UNL d   1      -0.011  -3.141  -0.107  0.00  0.00    -0.005 A 
ATOM      6  C5  UNL d   1      -0.594  -2.402   0.920  0.00  0.00     0.003 A 
ATOM      7  C6  UNL d   1      -0.569  -1.007   0.877  0.00  0.00    -0.001 A 
ENDROOT
TORSDOF 0
ENDMDL
