MODEL 1
REMARK minimizedAffinity -2.33056593
REMARK minimizedRMSD -1
REMARK  0 active torsions:
REMARK  status: ('A' for Active; 'I' for Inactive)
ROOT
ATOM      1  C   UNL d   1       0.589   1.671   0.019  0.00  0.00     0.078 C 
ATOM      2  C1  UNL d   1       0.085   0.282   0.269  0.00  0.00    -0.077 A 
ATOM      3  C2  UNL d   1      -0.865   0.028   1.266  0.00  0.00    -0.001 A 
ATOM      4  C3  UNL d   1      -1.318  -1.273   1.495  0.00  0.00     0.003 A 
ATOM      5  C4  UNL d   1      -0.825  -2.329   0.732  0.00  0.00    -0.005 A 
ATOM      6  C5  UNL d   1       0.122  -2.087  -0.261  0.00  0.00     0.003 A 
ATOM      7  C6  UNL d   1       0.576  -0.787  -0.491  0.00  0.00    -0.001 A 
ENDROOT
TORSDOF 0
ENDMDL
