MODEL 1
REMARK minimizedAffinity -4.09611797
REMARK minimizedRMSD -1
REMARK  0 active torsions:
REMARK  status: ('A' for Active; 'I' for Inactive)
ROOT
ATOM      1  C   UNL d   1      -0.541  -0.945   0.700  0.00  0.00     0.078 C 
ATOM      2  C1  UNL d   1       0.157   0.374   0.550  0.00  0.00    -0.077 A 
ATOM      3  C2  UNL d   1       1.421   0.589   1.115  0.00  0.00    -0.001 A 
ATOM      4  C3  UNL d   1       2.055   1.825   0.976  0.00  0.00     0.003 A 
ATOM      5  C4  UNL d   1       1.432   2.855   0.274  0.00  0.00    -0.005 A 
ATOM      6  C5  UNL d   1       0.175   2.651  -0.290  0.00  0.00     0.003 A 
ATOM      7  C6  UNL d   1      -0.461   1.416  -0.152  0.00  0.00    -0.001 A 
ENDROOT
TORSDOF 0
ENDMDL
