MODEL 1
REMARK minimizedAffinity -5.7420187
REMARK minimizedRMSD -1
REMARK  0 active torsions:
REMARK  status: ('A' for Active; 'I' for Inactive)
ROOT
ATOM      1  C   UNL d   1       0.715   0.307   0.087  0.00  0.00     0.078 C 
ATOM      2  C1  UNL d   1       0.322  -1.129  -0.092  0.00  0.00    -0.077 A 
ATOM      3  C2  UNL d   1       0.272  -1.709  -1.366  0.00  0.00    -0.001 A 
ATOM      4  C3  UNL d   1      -0.105  -3.044  -1.519  0.00  0.00     0.003 A 
ATOM      5  C4  UNL d   1      -0.437  -3.810  -0.403  0.00  0.00    -0.005 A 
ATOM      6  C5  UNL d   1      -0.393  -3.240   0.868  0.00  0.00     0.003 A 
ATOM      7  C6  UNL d   1      -0.015  -1.905   1.023  0.00  0.00    -0.001 A 
ENDROOT
TORSDOF 0
ENDMDL
