MODEL 1
REMARK minimizedAffinity -4.32902622
REMARK minimizedRMSD -1
REMARK  0 active torsions:
REMARK  status: ('A' for Active; 'I' for Inactive)
ROOT
ATOM      1  C   UNL d   1       0.472   1.708   0.360  0.00  0.00     0.078 C 
ATOM      2  C1  UNL d   1       0.076   0.275   0.550  0.00  0.00    -0.077 A 
ATOM      3  C2  UNL d   1      -0.719  -0.117   1.634  0.00  0.00    -0.001 A 
ATOM      4  C3  UNL d   1      -1.071  -1.457   1.804  0.00  0.00     0.003 A 
ATOM      5  C4  UNL d   1      -0.632  -2.416   0.894  0.00  0.00    -0.005 A 
ATOM      6  C5  UNL d   1       0.161  -2.037  -0.187  0.00  0.00     0.003 A 
ATOM      7  C6  UNL d   1       0.515  -0.697  -0.358  0.00  0.00    -0.001 A 
ENDROOT
TORSDOF 0
ENDMDL
