MODEL 1
REMARK minimizedAffinity -5.58830309
REMARK minimizedRMSD -1
REMARK  0 active torsions:
REMARK  status: ('A' for Active; 'I' for Inactive)
ROOT
ATOM      1  C   UNL d   1       0.465  -2.528  -2.474  0.00  0.00     0.078 C 
ATOM      2  C1  UNL d   1      -0.007  -1.987  -1.158  0.00  0.00    -0.077 A 
ATOM      3  C2  UNL d   1      -0.483  -2.841  -0.156  0.00  0.00    -0.001 A 
ATOM      4  C3  UNL d   1      -0.928  -2.322   1.061  0.00  0.00     0.003 A 
ATOM      5  C4  UNL d   1      -0.903  -0.947   1.287  0.00  0.00    -0.005 A 
ATOM      6  C5  UNL d   1      -0.434  -0.089   0.294  0.00  0.00     0.003 A 
ATOM      7  C6  UNL d   1       0.012  -0.606  -0.923  0.00  0.00    -0.001 A 
ENDROOT
TORSDOF 0
ENDMDL
