MODEL 1
REMARK minimizedAffinity -5.47220707
REMARK minimizedRMSD -1
REMARK  0 active torsions:
REMARK  status: ('A' for Active; 'I' for Inactive)
ROOT
ATOM      1  C   UNL d   1       0.079   0.097   0.088  0.00  0.00     0.078 C 
ATOM      2  C1  UNL d   1       0.040  -1.314  -0.420  0.00  0.00    -0.077 A 
ATOM      3  C2  UNL d   1       0.414  -1.618  -1.735  0.00  0.00    -0.001 A 
ATOM      4  C3  UNL d   1       0.363  -2.934  -2.197  0.00  0.00     0.003 A 
ATOM      5  C4  UNL d   1      -0.063  -3.957  -1.351  0.00  0.00    -0.005 A 
ATOM      6  C5  UNL d   1      -0.439  -3.663  -0.042  0.00  0.00     0.003 A 
ATOM      7  C6  UNL d   1      -0.389  -2.348   0.422  0.00  0.00    -0.001 A 
ENDROOT
TORSDOF 0
ENDMDL
