MODEL 1
REMARK minimizedAffinity -5.47363043
REMARK minimizedRMSD -1
REMARK  0 active torsions:
REMARK  status: ('A' for Active; 'I' for Inactive)
ROOT
ATOM      1  C   UNL d   1      -0.155  -2.642  -2.510  0.00  0.00     0.078 C 
ATOM      2  C1  UNL d   1      -0.212  -2.018  -1.148  0.00  0.00    -0.077 A 
ATOM      3  C2  UNL d   1      -0.320  -2.808   0.003  0.00  0.00    -0.001 A 
ATOM      4  C3  UNL d   1      -0.381  -2.213   1.264  0.00  0.00     0.003 A 
ATOM      5  C4  UNL d   1      -0.336  -0.826   1.387  0.00  0.00    -0.005 A 
ATOM      6  C5  UNL d   1      -0.230  -0.031   0.247  0.00  0.00     0.003 A 
ATOM      7  C6  UNL d   1      -0.169  -0.624  -1.015  0.00  0.00    -0.001 A 
ENDROOT
TORSDOF 0
ENDMDL
