MODEL 1
REMARK minimizedAffinity 1.27431047
REMARK minimizedRMSD -1
REMARK  0 active torsions:
REMARK  status: ('A' for Active; 'I' for Inactive)
ROOT
ATOM      1  C4' PXY d   1       2.760  -3.526  -3.531  0.00  0.00     0.077 C 
ATOM      2  C1' PXY d   1       0.497  -0.606   0.915  0.00  0.00     0.077 C 
ATOM      3  C1  PXY d   1       1.094  -1.382  -0.243  0.00  0.00    -0.082 A 
ATOM      4  C2  PXY d   1       1.526  -0.732  -1.311  0.00  0.00     0.003 A 
ATOM      5  C3  PXY d   1       2.038  -1.420  -2.381  0.00  0.00     0.003 A 
ATOM      6  C4  PXY d   1       2.159  -2.783  -2.334  0.00  0.00    -0.082 A 
ATOM      7  C5  PXY d   1       1.730  -3.452  -1.243  0.00  0.00     0.003 A 
ATOM      8  C6  PXY d   1       1.175  -2.739  -0.185  0.00  0.00     0.003 A 
ENDROOT
TORSDOF 0
ENDMDL
