MODEL 1
REMARK minimizedAffinity 4.80850649
REMARK minimizedRMSD -1
REMARK  0 active torsions:
REMARK  status: ('A' for Active; 'I' for Inactive)
ROOT
ATOM      1  C4' PXY d   1       3.785  -5.794  -3.988  0.00  0.00     0.077 C 
ATOM      2  C1' PXY d   1       4.570  -1.670  -0.013  0.00  0.00     0.077 C 
ATOM      3  C1  PXY d   1       4.356  -2.744  -1.062  0.00  0.00    -0.082 A 
ATOM      4  C2  PXY d   1       4.578  -4.012  -0.755  0.00  0.00     0.003 A 
ATOM      5  C3  PXY d   1       4.421  -4.992  -1.701  0.00  0.00     0.003 A 
ATOM      6  C4  PXY d   1       3.979  -4.677  -2.958  0.00  0.00    -0.082 A 
ATOM      7  C5  PXY d   1       3.739  -3.387  -3.276  0.00  0.00     0.003 A 
ATOM      8  C6  PXY d   1       3.945  -2.403  -2.314  0.00  0.00     0.003 A 
ENDROOT
TORSDOF 0
ENDMDL
