MODEL 1
REMARK minimizedAffinity -1.19492066
REMARK minimizedRMSD -1
REMARK  0 active torsions:
REMARK  status: ('A' for Active; 'I' for Inactive)
ROOT
ATOM      1  C4' PXY d   1       3.009  -2.965  -4.300  0.00  0.00     0.077 C 
ATOM      2  C1' PXY d   1       6.000  -5.583  -0.103  0.00  0.00     0.077 C 
ATOM      3  C1  PXY d   1       5.212  -4.888  -1.195  0.00  0.00    -0.082 A 
ATOM      4  C2  PXY d   1       4.815  -5.575  -2.254  0.00  0.00     0.003 A 
ATOM      5  C3  PXY d   1       4.129  -4.954  -3.266  0.00  0.00     0.003 A 
ATOM      6  C4  PXY d   1       3.799  -3.629  -3.169  0.00  0.00    -0.082 A 
ATOM      7  C5  PXY d   1       4.191  -2.923  -2.086  0.00  0.00     0.003 A 
ATOM      8  C6  PXY d   1       4.922  -3.562  -1.089  0.00  0.00     0.003 A 
ENDROOT
TORSDOF 0
ENDMDL
