MODEL 1
REMARK minimizedAffinity 2.29016209
REMARK minimizedRMSD -1
REMARK  0 active torsions:
REMARK  status: ('A' for Active; 'I' for Inactive)
ROOT
ATOM      1  C4' PXY d   1       1.247  -5.746  -1.537  0.00  0.00     0.077 C 
ATOM      2  C1' PXY d   1       5.509  -1.989  -0.474  0.00  0.00     0.077 C 
ATOM      3  C1  PXY d   1       4.395  -2.981  -0.743  0.00  0.00    -0.082 A 
ATOM      4  C2  PXY d   1       3.902  -3.097  -1.965  0.00  0.00     0.003 A 
ATOM      5  C3  PXY d   1       2.873  -3.966  -2.219  0.00  0.00     0.003 A 
ATOM      6  C4  PXY d   1       2.378  -4.764  -1.222  0.00  0.00    -0.082 A 
ATOM      7  C5  PXY d   1       2.883  -4.660   0.026  0.00  0.00     0.003 A 
ATOM      8  C6  PXY d   1       3.900  -3.742   0.271  0.00  0.00     0.003 A 
ENDROOT
TORSDOF 0
ENDMDL
