MODEL 1
REMARK minimizedAffinity -1.71360445
REMARK minimizedRMSD -1
REMARK  0 active torsions:
REMARK  status: ('A' for Active; 'I' for Inactive)
ROOT
ATOM      1  C4' PXY d   1       5.970  -2.844  -1.044  0.00  0.00     0.077 C 
ATOM      2  C1' PXY d   1       0.790  -5.409  -1.082  0.00  0.00     0.077 C 
ATOM      3  C1  PXY d   1       2.151  -4.741  -1.084  0.00  0.00    -0.082 A 
ATOM      4  C2  PXY d   1       2.736  -4.447   0.065  0.00  0.00     0.003 A 
ATOM      5  C3  PXY d   1       3.953  -3.814   0.082  0.00  0.00     0.003 A 
ATOM      6  C4  PXY d   1       4.600  -3.527  -1.090  0.00  0.00    -0.082 A 
ATOM      7  C5  PXY d   1       4.014  -3.834  -2.267  0.00  0.00     0.003 A 
ATOM      8  C6  PXY d   1       2.760  -4.439  -2.262  0.00  0.00     0.003 A 
ENDROOT
TORSDOF 0
ENDMDL
