MODEL 1
REMARK minimizedAffinity 7.37599802
REMARK minimizedRMSD -1
REMARK  0 active torsions:
REMARK  status: ('A' for Active; 'I' for Inactive)
ROOT
ATOM      1  C4' PXY d   1       0.561   5.352  -1.604  0.00  0.00     0.077 C 
ATOM      2  C1' PXY d   1      -1.150   0.318   0.666  0.00  0.00     0.077 C 
ATOM      3  C1  PXY d   1      -0.699   1.633   0.059  0.00  0.00    -0.082 A 
ATOM      4  C2  PXY d   1      -0.192   2.574   0.839  0.00  0.00     0.003 A 
ATOM      5  C3  PXY d   1       0.190   3.780   0.311  0.00  0.00     0.003 A 
ATOM      6  C4  PXY d   1       0.102   4.006  -1.036  0.00  0.00    -0.082 A 
ATOM      7  C5  PXY d   1      -0.404   3.047  -1.840  0.00  0.00     0.003 A 
ATOM      8  C6  PXY d   1      -0.825   1.845  -1.279  0.00  0.00     0.003 A 
ENDROOT
TORSDOF 0
ENDMDL
