MODEL 1
REMARK minimizedAffinity 5.24815989
REMARK minimizedRMSD -1
REMARK  0 active torsions:
REMARK  status: ('A' for Active; 'I' for Inactive)
ROOT
ATOM      1  C4' PXY d   1      -0.840   1.571  -2.681  0.00  0.00     0.077 C 
ATOM      2  C1' PXY d   1       0.007   2.481   2.965  0.00  0.00     0.077 C 
ATOM      3  C1  PXY d   1      -0.214   2.256   1.482  0.00  0.00    -0.082 A 
ATOM      4  C2  PXY d   1      -0.840   1.164   1.073  0.00  0.00     0.003 A 
ATOM      5  C3  PXY d   1      -1.021   0.929  -0.266  0.00  0.00     0.003 A 
ATOM      6  C4  PXY d   1      -0.603   1.845  -1.193  0.00  0.00    -0.082 A 
ATOM      7  C5  PXY d   1       0.028   2.966  -0.783  0.00  0.00     0.003 A 
ATOM      8  C6  PXY d   1       0.238   3.167   0.578  0.00  0.00     0.003 A 
ENDROOT
TORSDOF 0
ENDMDL
