MODEL 1
REMARK minimizedAffinity 7.93844128
REMARK minimizedRMSD -1
REMARK  0 active torsions:
REMARK  status: ('A' for Active; 'I' for Inactive)
ROOT
ATOM      1  C4' PXY d   1      -0.588   1.815   1.978  0.00  0.00     0.077 C 
ATOM      2  C1' PXY d   1       0.592   5.504  -2.313  0.00  0.00     0.077 C 
ATOM      3  C1  PXY d   1       0.277   4.528  -1.196  0.00  0.00    -0.082 A 
ATOM      4  C2  PXY d   1       0.220   4.961   0.053  0.00  0.00     0.003 A 
ATOM      5  C3  PXY d   1      -0.033   4.086   1.079  0.00  0.00     0.003 A 
ATOM      6  C4  PXY d   1      -0.282   2.765   0.818  0.00  0.00    -0.082 A 
ATOM      7  C5  PXY d   1      -0.236   2.319  -0.455  0.00  0.00     0.003 A 
ATOM      8  C6  PXY d   1       0.062   3.214  -1.478  0.00  0.00     0.003 A 
ENDROOT
TORSDOF 0
ENDMDL
