MODEL 1
REMARK minimizedAffinity 5.68442917
REMARK minimizedRMSD -1
REMARK  1 active torsions:
REMARK  status: ('A' for Active; 'I' for Inactive)
REMARK    1  A    between atoms: C1_2  and  C2_3 
ROOT
ATOM      1  C2  UNL d   1      -5.257  -3.574  -0.216  0.00  0.00    -0.077 A 
ATOM      2  C3  UNL d   1      -5.996  -4.717   0.119  0.00  0.00     0.002 A 
ATOM      3  C4  UNL d   1      -5.348  -5.925   0.385  0.00  0.00     0.002 A 
ATOM      4  C5  UNL d   1      -3.958  -6.000   0.323  0.00  0.00    -0.004 A 
ATOM      5  C6  UNL d   1      -3.214  -4.869  -0.012  0.00  0.00     0.002 A 
ATOM      6  C7  UNL d   1      -3.860  -3.661  -0.279  0.00  0.00     0.002 A 
ENDROOT
BRANCH   1   7
ATOM      7  C1  UNL d   1      -5.951  -2.259  -0.455  0.00  0.00     0.055 C 
ATOM      8  C   UNL d   1      -5.226  -1.116   0.241  0.00  0.00     0.019 C 
ENDBRANCH   1   7
TORSDOF 1
ENDMDL
