MODEL 1
REMARK minimizedAffinity -3.28381705
REMARK minimizedRMSD -1
REMARK  1 active torsions:
REMARK  status: ('A' for Active; 'I' for Inactive)
REMARK    1  A    between atoms: C1_2  and  C2_3 
ROOT
ATOM      1  C2  UNL d   1      -4.821  -4.265   1.489  0.00  0.00    -0.077 A 
ATOM      2  C3  UNL d   1      -5.830  -3.348   1.816  0.00  0.00     0.002 A 
ATOM      3  C4  UNL d   1      -5.999  -2.186   1.061  0.00  0.00     0.002 A 
ATOM      4  C5  UNL d   1      -5.167  -1.932  -0.027  0.00  0.00    -0.004 A 
ATOM      5  C6  UNL d   1      -4.159  -2.836  -0.359  0.00  0.00     0.002 A 
ATOM      6  C7  UNL d   1      -3.987  -3.998   0.395  0.00  0.00     0.002 A 
ENDROOT
BRANCH   1   7
ATOM      7  C1  UNL d   1      -4.668  -5.543   2.272  0.00  0.00     0.055 C 
ATOM      8  C   UNL d   1      -5.998  -5.998   2.854  0.00  0.00     0.019 C 
ENDBRANCH   1   7
TORSDOF 1
ENDMDL
