MODEL 1
REMARK minimizedAffinity 4.81589985
REMARK minimizedRMSD -1
REMARK  1 active torsions:
REMARK  status: ('A' for Active; 'I' for Inactive)
REMARK    1  A    between atoms: C1_2  and  C2_3 
ROOT
ATOM      1  C2  UNL d   1      -5.020  -3.472   0.255  0.00  0.00    -0.077 A 
ATOM      2  C3  UNL d   1      -3.892  -4.260  -0.018  0.00  0.00     0.002 A 
ATOM      3  C4  UNL d   1      -3.750  -5.518   0.572  0.00  0.00     0.002 A 
ATOM      4  C5  UNL d   1      -4.732  -6.000   1.434  0.00  0.00    -0.004 A 
ATOM      5  C6  UNL d   1      -5.856  -5.223   1.714  0.00  0.00     0.002 A 
ATOM      6  C7  UNL d   1      -6.000  -3.966   1.126  0.00  0.00     0.002 A 
ENDROOT
BRANCH   1   7
ATOM      7  C1  UNL d   1      -5.199  -2.137  -0.418  0.00  0.00     0.055 C 
ATOM      8  C   UNL d   1      -5.997  -1.179   0.455  0.00  0.00     0.019 C 
ENDBRANCH   1   7
TORSDOF 1
ENDMDL
