MODEL 1
REMARK minimizedAffinity 6.35918093
REMARK minimizedRMSD -1
REMARK  1 active torsions:
REMARK  status: ('A' for Active; 'I' for Inactive)
REMARK    1  A    between atoms: C1_2  and  C2_3 
ROOT
ATOM      1  C2  UNL d   1      -5.067  -4.235   0.607  0.00  0.00    -0.077 A 
ATOM      2  C3  UNL d   1      -4.907  -3.161   1.494  0.00  0.00     0.002 A 
ATOM      3  C4  UNL d   1      -5.289  -1.872   1.119  0.00  0.00     0.002 A 
ATOM      4  C5  UNL d   1      -5.837  -1.645  -0.142  0.00  0.00    -0.004 A 
ATOM      5  C6  UNL d   1      -5.999  -2.706  -1.032  0.00  0.00     0.002 A 
ATOM      6  C7  UNL d   1      -5.616  -3.995  -0.659  0.00  0.00     0.002 A 
ENDROOT
BRANCH   1   7
ATOM      7  C1  UNL d   1      -4.701  -5.634   1.028  0.00  0.00     0.055 C 
ATOM      8  C   UNL d   1      -3.296  -5.999   0.574  0.00  0.00     0.019 C 
ENDBRANCH   1   7
TORSDOF 1
ENDMDL
