MODEL 1
REMARK minimizedAffinity 3.30452442
REMARK minimizedRMSD -1
REMARK  1 active torsions:
REMARK  status: ('A' for Active; 'I' for Inactive)
REMARK    1  A    between atoms: C1_2  and  C2_3 
ROOT
ATOM      1  C2  UNL d   1      -2.411   2.128   2.074  0.00  0.00    -0.077 A 
ATOM      2  C3  UNL d   1      -2.897   1.459   0.941  0.00  0.00     0.002 A 
ATOM      3  C4  UNL d   1      -2.462   0.166   0.644  0.00  0.00     0.002 A 
ATOM      4  C5  UNL d   1      -1.544  -0.471   1.476  0.00  0.00    -0.004 A 
ATOM      5  C6  UNL d   1      -1.053   0.187   2.604  0.00  0.00     0.002 A 
ATOM      6  C7  UNL d   1      -1.486   1.480   2.902  0.00  0.00     0.002 A 
ENDROOT
BRANCH   1   7
ATOM      7  C1  UNL d   1      -2.916   3.503   2.423  0.00  0.00     0.055 C 
ATOM      8  C   UNL d   1      -4.391   3.474   2.796  0.00  0.00     0.019 C 
ENDBRANCH   1   7
TORSDOF 1
ENDMDL
