MODEL 1
REMARK minimizedAffinity 13.0247946
REMARK minimizedRMSD -1
REMARK  1 active torsions:
REMARK  status: ('A' for Active; 'I' for Inactive)
REMARK    1  A    between atoms: C1_2  and  C2_3 
ROOT
ATOM      1  C2  UNL d   1      -2.642  -1.013   1.213  0.00  0.00    -0.077 A 
ATOM      2  C3  UNL d   1      -3.933  -1.554   1.150  0.00  0.00     0.002 A 
ATOM      3  C4  UNL d   1      -4.119  -2.904   0.846  0.00  0.00     0.002 A 
ATOM      4  C5  UNL d   1      -3.018  -3.724   0.607  0.00  0.00    -0.004 A 
ATOM      5  C6  UNL d   1      -1.730  -3.195   0.665  0.00  0.00     0.002 A 
ATOM      6  C7  UNL d   1      -1.542  -1.845   0.967  0.00  0.00     0.002 A 
ENDROOT
BRANCH   1   7
ATOM      7  C1  UNL d   1      -2.437   0.432   1.588  0.00  0.00     0.055 C 
ATOM      8  C   UNL d   1      -1.164   0.617   2.402  0.00  0.00     0.019 C 
ENDBRANCH   1   7
TORSDOF 1
ENDMDL
