MODEL 1
REMARK minimizedAffinity 8.33585548
REMARK minimizedRMSD -1
REMARK  1 active torsions:
REMARK  status: ('A' for Active; 'I' for Inactive)
REMARK    1  A    between atoms: C1_2  and  C2_3 
ROOT
ATOM      1  C2  UNL d   1       4.039   2.460  -5.956  0.00  0.00    -0.077 A 
ATOM      2  C3  UNL d   1       3.225   3.601  -5.987  0.00  0.00     0.002 A 
ATOM      3  C4  UNL d   1       3.795   4.875  -5.992  0.00  0.00     0.002 A 
ATOM      4  C5  UNL d   1       5.181   5.021  -5.971  0.00  0.00    -0.004 A 
ATOM      5  C6  UNL d   1       5.999   3.892  -5.938  0.00  0.00     0.002 A 
ATOM      6  C7  UNL d   1       5.431   2.618  -5.932  0.00  0.00     0.002 A 
ENDROOT
BRANCH   1   7
ATOM      7  C1  UNL d   1       3.428   1.084  -5.999  0.00  0.00     0.055 C 
ATOM      8  C   UNL d   1       4.497   0.002  -5.987  0.00  0.00     0.019 C 
ENDBRANCH   1   7
TORSDOF 1
ENDMDL
