MODEL 1
REMARK minimizedAffinity 6.9609437
REMARK minimizedRMSD -1
REMARK  1 active torsions:
REMARK  status: ('A' for Active; 'I' for Inactive)
REMARK    1  A    between atoms: C1_2  and  C2_3 
ROOT
ATOM      1  C2  UNL d   1      -1.602   1.171   2.243  0.00  0.00    -0.077 A 
ATOM      2  C3  UNL d   1      -1.316  -0.048   2.873  0.00  0.00     0.002 A 
ATOM      3  C4  UNL d   1      -0.028  -0.315   3.342  0.00  0.00     0.002 A 
ATOM      4  C5  UNL d   1       0.982   0.633   3.188  0.00  0.00    -0.004 A 
ATOM      5  C6  UNL d   1       0.707   1.848   2.560  0.00  0.00     0.002 A 
ATOM      6  C7  UNL d   1      -0.579   2.116   2.090  0.00  0.00     0.002 A 
ENDROOT
BRANCH   1   7
ATOM      7  C1  UNL d   1      -3.002   1.481   1.781  0.00  0.00     0.055 C 
ATOM      8  C   UNL d   1      -3.291   2.973   1.850  0.00  0.00     0.019 C 
ENDBRANCH   1   7
TORSDOF 1
ENDMDL
