MODEL 1
REMARK minimizedAffinity 10.3439598
REMARK minimizedRMSD -1
REMARK  1 active torsions:
REMARK  status: ('A' for Active; 'I' for Inactive)
REMARK    1  A    between atoms: C1_2  and  C2_3 
ROOT
ATOM      1  C2  UNL d   1       5.897  -3.021   3.622  0.00  0.00    -0.077 A 
ATOM      2  C3  UNL d   1       5.914  -4.392   3.326  0.00  0.00     0.002 A 
ATOM      3  C4  UNL d   1       5.965  -5.335   4.354  0.00  0.00     0.002 A 
ATOM      4  C5  UNL d   1       5.995  -4.919   5.683  0.00  0.00    -0.004 A 
ATOM      5  C6  UNL d   1       5.980  -3.558   5.987  0.00  0.00     0.002 A 
ATOM      6  C7  UNL d   1       5.931  -2.614   4.961  0.00  0.00     0.002 A 
ENDROOT
BRANCH   1   7
ATOM      7  C1  UNL d   1       5.792  -2.003   2.516  0.00  0.00     0.055 C 
ATOM      8  C   UNL d   1       4.942  -0.813   2.938  0.00  0.00     0.019 C 
ENDBRANCH   1   7
TORSDOF 1
ENDMDL
