MODEL 1
REMARK minimizedAffinity 6.54229927
REMARK minimizedRMSD -1
REMARK  1 active torsions:
REMARK  status: ('A' for Active; 'I' for Inactive)
REMARK    1  A    between atoms: C1_2  and  C2_3 
ROOT
ATOM      1  C2  UNL d   1       2.829   4.579  -3.232  0.00  0.00    -0.077 A 
ATOM      2  C3  UNL d   1       1.771   4.915  -4.088  0.00  0.00     0.002 A 
ATOM      3  C4  UNL d   1       1.979   5.003  -5.466  0.00  0.00     0.002 A 
ATOM      4  C5  UNL d   1       3.241   4.752  -6.000  0.00  0.00    -0.004 A 
ATOM      5  C6  UNL d   1       4.300   4.419  -5.156  0.00  0.00     0.002 A 
ATOM      6  C7  UNL d   1       4.095   4.332  -3.778  0.00  0.00     0.002 A 
ENDROOT
BRANCH   1   7
ATOM      7  C1  UNL d   1       2.595   4.436  -1.750  0.00  0.00     0.055 C 
ATOM      8  C   UNL d   1       2.286   2.994  -1.376  0.00  0.00     0.019 C 
ENDBRANCH   1   7
TORSDOF 1
ENDMDL
