MODEL 1
REMARK minimizedAffinity 10.7364368
REMARK minimizedRMSD -1
REMARK  1 active torsions:
REMARK  status: ('A' for Active; 'I' for Inactive)
REMARK    1  A    between atoms: C1_2  and  C2_3 
ROOT
ATOM      1  C2  UNL d   1       2.477   1.740  -5.365  0.00  0.00    -0.077 A 
ATOM      2  C3  UNL d   1       1.273   1.180  -5.814  0.00  0.00     0.002 A 
ATOM      3  C4  UNL d   1       0.749   0.043  -5.196  0.00  0.00     0.002 A 
ATOM      4  C5  UNL d   1       1.421  -0.541  -4.125  0.00  0.00    -0.004 A 
ATOM      5  C6  UNL d   1       2.621   0.007  -3.672  0.00  0.00     0.002 A 
ATOM      6  C7  UNL d   1       3.146   1.143  -4.289  0.00  0.00     0.002 A 
ENDROOT
BRANCH   1   7
ATOM      7  C1  UNL d   1       3.018   2.996  -5.998  0.00  0.00     0.055 C 
ATOM      8  C   UNL d   1       3.806   3.826  -4.995  0.00  0.00     0.019 C 
ENDBRANCH   1   7
TORSDOF 1
ENDMDL
