MODEL 1
REMARK minimizedAffinity 6.40293455
REMARK minimizedRMSD -1
REMARK  1 active torsions:
REMARK  status: ('A' for Active; 'I' for Inactive)
REMARK    1  A    between atoms: C1_2  and  C2_3 
ROOT
ATOM      1  C2  UNL d   1      -0.149  -2.137  -5.200  0.00  0.00    -0.077 A 
ATOM      2  C3  UNL d   1      -0.750  -0.917  -5.542  0.00  0.00     0.002 A 
ATOM      3  C4  UNL d   1      -0.191   0.290  -5.115  0.00  0.00     0.002 A 
ATOM      4  C5  UNL d   1       0.972   0.287  -4.348  0.00  0.00    -0.004 A 
ATOM      5  C6  UNL d   1       1.575  -0.921  -4.001  0.00  0.00     0.002 A 
ATOM      6  C7  UNL d   1       1.018  -2.127  -4.426  0.00  0.00     0.002 A 
ENDROOT
BRANCH   1   7
ATOM      7  C1  UNL d   1      -0.723  -3.436  -5.702  0.00  0.00     0.055 C 
ATOM      8  C   UNL d   1      -2.213  -3.312  -5.983  0.00  0.00     0.019 C 
ENDBRANCH   1   7
TORSDOF 1
ENDMDL
