MODEL 1
REMARK minimizedAffinity 6.10410452
REMARK minimizedRMSD -1
REMARK  1 active torsions:
REMARK  status: ('A' for Active; 'I' for Inactive)
REMARK    1  A    between atoms: C1_2  and  C2_3 
ROOT
ATOM      1  C2  UNL d   1      -3.379  -2.075  -5.491  0.00  0.00    -0.077 A 
ATOM      2  C3  UNL d   1      -4.092  -3.169  -6.000  0.00  0.00     0.002 A 
ATOM      3  C4  UNL d   1      -5.393  -3.429  -5.563  0.00  0.00     0.002 A 
ATOM      4  C5  UNL d   1      -5.992  -2.597  -4.620  0.00  0.00    -0.004 A 
ATOM      5  C6  UNL d   1      -5.291  -1.507  -4.107  0.00  0.00     0.002 A 
ATOM      6  C7  UNL d   1      -3.990  -1.246  -4.541  0.00  0.00     0.002 A 
ENDROOT
BRANCH   1   7
ATOM      7  C1  UNL d   1      -1.994  -1.764  -5.996  0.00  0.00     0.055 C 
ATOM      8  C   UNL d   1      -1.105  -2.998  -5.968  0.00  0.00     0.019 C 
ENDBRANCH   1   7
TORSDOF 1
ENDMDL
