MODEL 1
REMARK minimizedAffinity -1.00826466
REMARK minimizedRMSD -1
REMARK  1 active torsions:
REMARK  status: ('A' for Active; 'I' for Inactive)
REMARK    1  A    between atoms: C1_2  and  C2_3 
ROOT
ATOM      1  C2  UNL d   1      -2.435   1.851   4.457  0.00  0.00    -0.077 A 
ATOM      2  C3  UNL d   1      -2.674   1.069   3.318  0.00  0.00     0.002 A 
ATOM      3  C4  UNL d   1      -1.743   1.033   2.278  0.00  0.00     0.002 A 
ATOM      4  C5  UNL d   1      -0.565   1.773   2.369  0.00  0.00    -0.004 A 
ATOM      5  C6  UNL d   1      -0.320   2.555   3.497  0.00  0.00     0.002 A 
ATOM      6  C7  UNL d   1      -1.250   2.594   4.536  0.00  0.00     0.002 A 
ENDROOT
BRANCH   1   7
ATOM      7  C1  UNL d   1      -3.416   1.853   5.601  0.00  0.00     0.055 C 
ATOM      8  C   UNL d   1      -3.803   0.437   6.000  0.00  0.00     0.019 C 
ENDBRANCH   1   7
TORSDOF 1
ENDMDL
