MODEL 1
REMARK minimizedAffinity -2.2927599
REMARK minimizedRMSD -1
REMARK  0 active torsions:
REMARK  status: ('A' for Active; 'I' for Inactive)
ROOT
ATOM      1  N1  IND d   1       0.657   4.400  -2.040  0.00  0.00    -0.196 N 
ATOM      2  C2  IND d   1      -0.492   4.386  -2.781  0.00  0.00     0.054 A 
ATOM      3  C3  IND d   1      -1.212   3.274  -2.512  0.00  0.00    -0.031 A 
ATOM      4  C4  IND d   1      -0.745   1.395  -0.816  0.00  0.00     0.051 A 
ATOM      5  C5  IND d   1       0.199   0.950   0.066  0.00  0.00    -0.031 A 
ATOM      6  C6  IND d   1       1.367   1.648   0.298  0.00  0.00     0.015 A 
ATOM      7  C7  IND d   1       1.629   2.828  -0.338  0.00  0.00    -0.016 A 
ATOM      8  C8  IND d   1       0.676   3.279  -1.240  0.00  0.00    -0.047 A 
ATOM      9  C9  IND d   1      -0.491   2.553  -1.511  0.00  0.00    -0.096 A 
ATOM     10  HN1 IND d   1       1.265   5.007  -2.069  0.00  0.00     0.298 HD
ENDROOT
TORSDOF 0
ENDMDL
