MODEL 1
REMARK minimizedAffinity -1.77265799
REMARK minimizedRMSD -1
REMARK  0 active torsions:
REMARK  status: ('A' for Active; 'I' for Inactive)
ROOT
ATOM      1  N1  IND d   1       2.263  -0.302   1.938  0.00  0.00    -0.196 N 
ATOM      2  C2  IND d   1       1.216   0.269   2.605  0.00  0.00     0.054 A 
ATOM      3  C3  IND d   1       0.181   0.484   1.761  0.00  0.00    -0.031 A 
ATOM      4  C4  IND d   1      -0.048  -0.118  -0.732  0.00  0.00     0.051 A 
ATOM      5  C5  IND d   1       0.659  -0.621  -1.788  0.00  0.00    -0.031 A 
ATOM      6  C6  IND d   1       1.963  -1.054  -1.653  0.00  0.00     0.015 A 
ATOM      7  C7  IND d   1       2.606  -1.011  -0.449  0.00  0.00    -0.016 A 
ATOM      8  C8  IND d   1       1.894  -0.495   0.624  0.00  0.00    -0.047 A 
ATOM      9  C9  IND d   1       0.585  -0.014   0.484  0.00  0.00    -0.096 A 
ATOM     10  HN1 IND d   1       3.025  -0.506   2.280  0.00  0.00     0.298 HD
ENDROOT
TORSDOF 0
ENDMDL
