MODEL 1
REMARK minimizedAffinity -5.11932707
REMARK minimizedRMSD -1
REMARK  0 active torsions:
REMARK  status: ('A' for Active; 'I' for Inactive)
ROOT
ATOM      1  N1  IND d   1       0.328   0.473  -0.215  0.00  0.00    -0.196 N 
ATOM      2  C2  IND d   1       0.387   0.202   1.124  0.00  0.00     0.054 A 
ATOM      3  C3  IND d   1      -0.759  -0.388   1.535  0.00  0.00    -0.031 A 
ATOM      4  C4  IND d   1      -2.819  -1.094   0.162  0.00  0.00     0.051 A 
ATOM      5  C5  IND d   1      -3.352  -1.022  -1.094  0.00  0.00    -0.031 A 
ATOM      6  C6  IND d   1      -2.671  -0.440  -2.143  0.00  0.00     0.015 A 
ATOM      7  C7  IND d   1      -1.421   0.086  -1.977  0.00  0.00    -0.016 A 
ATOM      8  C8  IND d   1      -0.879   0.021  -0.701  0.00  0.00    -0.047 A 
ATOM      9  C9  IND d   1      -1.583  -0.530   0.377  0.00  0.00    -0.096 A 
ATOM     10  HN1 IND d   1       0.942   0.861  -0.675  0.00  0.00     0.298 HD
ENDROOT
TORSDOF 0
ENDMDL
