MODEL 1
REMARK minimizedAffinity -4.6807127
REMARK minimizedRMSD -1
REMARK  0 active torsions:
REMARK  status: ('A' for Active; 'I' for Inactive)
ROOT
ATOM      1  N1  IND d   1      -2.262  -0.828  -0.112  0.00  0.00    -0.196 N 
ATOM      2  C2  IND d   1      -2.889  -0.893   1.101  0.00  0.00     0.054 A 
ATOM      3  C3  IND d   1      -2.017  -0.614   2.096  0.00  0.00    -0.031 A 
ATOM      4  C4  IND d   1       0.460   0.074   1.956  0.00  0.00     0.051 A 
ATOM      5  C5  IND d   1       1.485   0.234   1.066  0.00  0.00    -0.031 A 
ATOM      6  C6  IND d   1       1.309   0.047  -0.289  0.00  0.00     0.015 A 
ATOM      7  C7  IND d   1       0.093  -0.298  -0.809  0.00  0.00    -0.016 A 
ATOM      8  C8  IND d   1      -0.948  -0.468   0.092  0.00  0.00    -0.047 A 
ATOM      9  C9  IND d   1      -0.766  -0.321   1.473  0.00  0.00    -0.096 A 
ATOM     10  HN1 IND d   1      -2.627  -0.986  -0.875  0.00  0.00     0.298 HD
ENDROOT
TORSDOF 0
ENDMDL
