MODEL 1
REMARK minimizedAffinity -3.48130012
REMARK minimizedRMSD -1
REMARK  0 active torsions:
REMARK  status: ('A' for Active; 'I' for Inactive)
ROOT
ATOM      1  N1  IND d   1      -1.102  -0.392  -0.278  0.00  0.00    -0.196 N 
ATOM      2  C2  IND d   1      -0.638  -0.507  -1.559  0.00  0.00     0.054 A 
ATOM      3  C3  IND d   1       0.714  -0.528  -1.569  0.00  0.00    -0.031 A 
ATOM      4  C4  IND d   1       2.365  -0.489   0.405  0.00  0.00     0.051 A 
ATOM      5  C5  IND d   1       2.416  -0.354   1.764  0.00  0.00    -0.031 A 
ATOM      6  C6  IND d   1       1.274  -0.224   2.528  0.00  0.00     0.015 A 
ATOM      7  C7  IND d   1       0.031  -0.237   1.959  0.00  0.00    -0.016 A 
ATOM      8  C8  IND d   1      -0.024  -0.367   0.578  0.00  0.00    -0.047 A 
ATOM      9  C9  IND d   1       1.134  -0.456  -0.206  0.00  0.00    -0.096 A 
ATOM     10  HN1 IND d   1      -1.929  -0.344  -0.047  0.00  0.00     0.298 HD
ENDROOT
TORSDOF 0
ENDMDL
