MODEL 1
REMARK minimizedAffinity 5.25767851
REMARK minimizedRMSD -1
REMARK  0 active torsions:
REMARK  status: ('A' for Active; 'I' for Inactive)
ROOT
ATOM      1  N1  IND d   1      -0.408   0.315  -1.478  0.00  0.00    -0.196 N 
ATOM      2  C2  IND d   1      -1.082   1.036  -0.531  0.00  0.00     0.054 A 
ATOM      3  C3  IND d   1      -0.450   0.953   0.661  0.00  0.00    -0.031 A 
ATOM      4  C4  IND d   1       1.757  -0.228   1.264  0.00  0.00     0.051 A 
ATOM      5  C5  IND d   1       2.718  -1.048   0.741  0.00  0.00    -0.031 A 
ATOM      6  C6  IND d   1       2.686  -1.461  -0.575  0.00  0.00     0.015 A 
ATOM      7  C7  IND d   1       1.694  -1.059  -1.424  0.00  0.00    -0.016 A 
ATOM      8  C8  IND d   1       0.714  -0.233  -0.895  0.00  0.00    -0.047 A 
ATOM      9  C9  IND d   1       0.717   0.156   0.450  0.00  0.00    -0.096 A 
ATOM     10  HN1 IND d   1      -0.646   0.220  -2.299  0.00  0.00     0.298 HD
ENDROOT
TORSDOF 0
ENDMDL
