MODEL 1
REMARK minimizedAffinity -2.03172135
REMARK minimizedRMSD -1
REMARK  0 active torsions:
REMARK  status: ('A' for Active; 'I' for Inactive)
ROOT
ATOM      1  N1  IND d   1       0.409  -0.230  -2.293  0.00  0.00    -0.196 N 
ATOM      2  C2  IND d   1       0.107  -0.139  -0.963  0.00  0.00     0.054 A 
ATOM      3  C3  IND d   1      -0.193   1.138  -0.635  0.00  0.00    -0.031 A 
ATOM      4  C4  IND d   1      -0.348   3.220  -2.141  0.00  0.00     0.051 A 
ATOM      5  C5  IND d   1      -0.125   3.642  -3.422  0.00  0.00    -0.031 A 
ATOM      6  C6  IND d   1       0.293   2.777  -4.412  0.00  0.00     0.015 A 
ATOM      7  C7  IND d   1       0.494   1.449  -4.160  0.00  0.00    -0.016 A 
ATOM      8  C8  IND d   1       0.276   1.019  -2.860  0.00  0.00    -0.047 A 
ATOM      9  C9  IND d   1      -0.108   1.900  -1.841  0.00  0.00    -0.096 A 
ATOM     10  HN1 IND d   1       0.644  -0.947  -2.707  0.00  0.00     0.298 HD
ENDROOT
TORSDOF 0
ENDMDL
