MODEL 1
REMARK minimizedAffinity -3.49039674
REMARK minimizedRMSD -1
REMARK  1 active torsions:
REMARK  status: ('A' for Active; 'I' for Inactive)
REMARK    1  A    between atoms: C1_2  and  C2_3 
ROOT
ATOM      1  C2  UNL d   1       0.286  -1.095  -1.072  0.00  0.00    -0.081 A 
ATOM      2  C3  UNL d   1      -0.630  -1.474  -0.083  0.00  0.00     0.006 A 
ATOM      3  C4  UNL d   1      -1.067  -0.551   0.870  0.00  0.00     0.002 A 
ATOM      4  C5  UNL d   1      -0.601   0.768   0.846  0.00  0.00    -0.080 A 
ATOM      5  C6  UNL d   1      -1.085   1.777   1.845  0.00  0.00     0.076 C 
ATOM      6  C7  UNL d   1       0.327   1.143  -0.131  0.00  0.00     0.002 A 
ATOM      7  C8  UNL d   1       0.765   0.220  -1.084  0.00  0.00     0.006 A 
ENDROOT
BRANCH   1   8
ATOM      8  C1  UNL d   1       0.709  -2.070  -2.140  0.00  0.00     0.054 C 
ATOM      9  C   UNL d   1       0.419  -3.506  -1.724  0.00  0.00     0.018 C 
ENDBRANCH   1   8
TORSDOF 1
ENDMDL
