MODEL 1
REMARK minimizedAffinity -2.5730803
REMARK minimizedRMSD -1
REMARK  1 active torsions:
REMARK  status: ('A' for Active; 'I' for Inactive)
REMARK    1  A    between atoms: C1_2  and  C2_3 
ROOT
ATOM      1  C2  UNL d   1       0.387  -1.201  -0.750  0.00  0.00    -0.081 A 
ATOM      2  C3  UNL d   1      -0.122  -1.492   0.521  0.00  0.00     0.006 A 
ATOM      3  C4  UNL d   1      -0.841  -0.530   1.234  0.00  0.00     0.002 A 
ATOM      4  C5  UNL d   1      -1.069   0.737   0.685  0.00  0.00    -0.080 A 
ATOM      5  C6  UNL d   1      -1.865   1.769   1.427  0.00  0.00     0.076 C 
ATOM      6  C7  UNL d   1      -0.545   1.034  -0.578  0.00  0.00     0.002 A 
ATOM      7  C8  UNL d   1       0.174   0.072  -1.291  0.00  0.00     0.006 A 
ENDROOT
BRANCH   1   8
ATOM      8  C1  UNL d   1       1.107  -2.257  -1.548  0.00  0.00     0.054 C 
ATOM      9  C   UNL d   1       0.235  -2.787  -2.678  0.00  0.00     0.018 C 
ENDBRANCH   1   8
TORSDOF 1
ENDMDL
