MODEL 1
REMARK minimizedAffinity -2.40274835
REMARK minimizedRMSD -1
REMARK  1 active torsions:
REMARK  status: ('A' for Active; 'I' for Inactive)
REMARK    1  A    between atoms: C1_2  and  C2_3 
ROOT
ATOM      1  C2  UNL d   1       0.142  -0.881  -0.383  0.00  0.00    -0.081 A 
ATOM      2  C3  UNL d   1      -0.716  -1.219   0.671  0.00  0.00     0.006 A 
ATOM      3  C4  UNL d   1      -1.376  -0.223   1.395  0.00  0.00     0.002 A 
ATOM      4  C5  UNL d   1      -1.196   1.126   1.072  0.00  0.00    -0.080 A 
ATOM      5  C6  UNL d   1      -1.922   2.203   1.822  0.00  0.00     0.076 C 
ATOM      6  C7  UNL d   1      -0.326   1.465   0.031  0.00  0.00     0.002 A 
ATOM      7  C8  UNL d   1       0.335   0.470  -0.693  0.00  0.00     0.006 A 
ENDROOT
BRANCH   1   8
ATOM      8  C1  UNL d   1       0.805  -1.955  -1.207  0.00  0.00     0.054 C 
ATOM      9  C   UNL d   1      -0.159  -3.094  -1.509  0.00  0.00     0.018 C 
ENDBRANCH   1   8
TORSDOF 1
ENDMDL
