MODEL 1
REMARK minimizedAffinity -5.88550997
REMARK minimizedRMSD -1
REMARK  1 active torsions:
REMARK  status: ('A' for Active; 'I' for Inactive)
REMARK    1  A    between atoms: C1_2  and  C2_3 
ROOT
ATOM      1  C2  UNL d   1       0.036  -1.416  -0.902  0.00  0.00    -0.081 A 
ATOM      2  C3  UNL d   1      -1.042  -1.522  -0.013  0.00  0.00     0.006 A 
ATOM      3  C4  UNL d   1      -1.303  -0.505   0.907  0.00  0.00     0.002 A 
ATOM      4  C5  UNL d   1      -0.498   0.638   0.949  0.00  0.00    -0.080 A 
ATOM      5  C6  UNL d   1      -0.786   1.752   1.912  0.00  0.00     0.076 C 
ATOM      6  C7  UNL d   1       0.589   0.736   0.074  0.00  0.00     0.002 A 
ATOM      7  C8  UNL d   1       0.851  -0.281  -0.846  0.00  0.00     0.006 A 
ENDROOT
BRANCH   1   8
ATOM      8  C1  UNL d   1       0.282  -2.482  -1.939  0.00  0.00     0.054 C 
ATOM      9  C   UNL d   1      -0.900  -3.436  -2.044  0.00  0.00     0.018 C 
ENDBRANCH   1   8
TORSDOF 1
ENDMDL
