MODEL 1
REMARK minimizedAffinity -5.14489603
REMARK minimizedRMSD -1
REMARK  1 active torsions:
REMARK  status: ('A' for Active; 'I' for Inactive)
REMARK    1  A    between atoms: C1_2  and  C2_3 
ROOT
ATOM      1  C2  UNL d   1      -0.086  -1.350  -0.770  0.00  0.00    -0.081 A 
ATOM      2  C3  UNL d   1       0.141   0.012  -1.001  0.00  0.00     0.006 A 
ATOM      3  C4  UNL d   1      -0.233   0.963  -0.048  0.00  0.00     0.002 A 
ATOM      4  C5  UNL d   1      -0.833   0.568   1.152  0.00  0.00    -0.080 A 
ATOM      5  C6  UNL d   1      -1.212   1.577   2.196  0.00  0.00     0.076 C 
ATOM      6  C7  UNL d   1      -1.076  -0.792   1.375  0.00  0.00     0.002 A 
ATOM      7  C8  UNL d   1      -0.703  -1.743   0.423  0.00  0.00     0.006 A 
ENDROOT
BRANCH   1   8
ATOM      8  C1  UNL d   1       0.375  -2.383  -1.767  0.00  0.00     0.054 C 
ATOM      9  C   UNL d   1      -0.634  -3.516  -1.897  0.00  0.00     0.018 C 
ENDBRANCH   1   8
TORSDOF 1
ENDMDL
