MODEL 1
REMARK minimizedAffinity -5.43725681
REMARK minimizedRMSD -1
REMARK  1 active torsions:
REMARK  status: ('A' for Active; 'I' for Inactive)
REMARK    1  A    between atoms: C1_2  and  C2_3 
ROOT
ATOM      1  C2  UNL d   1       0.222  -0.955  -0.640  0.00  0.00    -0.081 A 
ATOM      2  C3  UNL d   1      -0.605  -1.319   0.429  0.00  0.00     0.006 A 
ATOM      3  C4  UNL d   1      -1.351  -0.353   1.108  0.00  0.00     0.002 A 
ATOM      4  C5  UNL d   1      -1.288   0.991   0.725  0.00  0.00    -0.080 A 
ATOM      5  C6  UNL d   1      -2.107   2.034   1.426  0.00  0.00     0.076 C 
ATOM      6  C7  UNL d   1      -0.448   1.357  -0.332  0.00  0.00     0.002 A 
ATOM      7  C8  UNL d   1       0.299   0.392  -1.011  0.00  0.00     0.006 A 
ENDROOT
BRANCH   1   8
ATOM      8  C1  UNL d   1       0.978  -2.004  -1.416  0.00  0.00     0.054 C 
ATOM      9  C   UNL d   1       0.134  -2.570  -2.549  0.00  0.00     0.018 C 
ENDBRANCH   1   8
TORSDOF 1
ENDMDL
