MODEL 1
REMARK minimizedAffinity -5.16753674
REMARK minimizedRMSD -1
REMARK  1 active torsions:
REMARK  status: ('A' for Active; 'I' for Inactive)
REMARK    1  A    between atoms: C1_2  and  C2_3 
ROOT
ATOM      1  C2  UNL d   1       0.408  -0.773  -0.447  0.00  0.00    -0.081 A 
ATOM      2  C3  UNL d   1      -0.276  -0.997   0.754  0.00  0.00     0.006 A 
ATOM      3  C4  UNL d   1      -0.994   0.035   1.363  0.00  0.00     0.002 A 
ATOM      4  C5  UNL d   1      -1.047   1.304   0.778  0.00  0.00    -0.080 A 
ATOM      5  C6  UNL d   1      -1.839   2.412   1.406  0.00  0.00     0.076 C 
ATOM      6  C7  UNL d   1      -0.349   1.534  -0.412  0.00  0.00     0.002 A 
ATOM      7  C8  UNL d   1       0.370   0.503  -1.021  0.00  0.00     0.006 A 
ENDROOT
BRANCH   1   8
ATOM      8  C1  UNL d   1       1.130  -1.900  -1.140  0.00  0.00     0.054 C 
ATOM      9  C   UNL d   1       0.157  -2.816  -1.867  0.00  0.00     0.018 C 
ENDBRANCH   1   8
TORSDOF 1
ENDMDL
