MODEL 1
REMARK minimizedAffinity -3.40379
REMARK minimizedRMSD -1
REMARK  1 active torsions:
REMARK  status: ('A' for Active; 'I' for Inactive)
REMARK    1  A    between atoms: C1_2  and  C2_3 
ROOT
ATOM      1  C2  UNL d   1       0.248  -0.940  -0.111  0.00  0.00    -0.081 A 
ATOM      2  C3  UNL d   1      -0.227  -0.964   1.206  0.00  0.00     0.006 A 
ATOM      3  C4  UNL d   1      -1.072   0.046   1.672  0.00  0.00     0.002 A 
ATOM      4  C5  UNL d   1      -1.462   1.091   0.828  0.00  0.00    -0.080 A 
ATOM      5  C6  UNL d   1      -2.393   2.165   1.307  0.00  0.00     0.076 C 
ATOM      6  C7  UNL d   1      -0.974   1.124  -0.482  0.00  0.00     0.002 A 
ATOM      7  C8  UNL d   1      -0.129   0.115  -0.949  0.00  0.00     0.006 A 
ENDROOT
BRANCH   1   8
ATOM      8  C1  UNL d   1       1.107  -2.062  -0.636  0.00  0.00     0.054 C 
ATOM      9  C   UNL d   1       0.266  -3.127  -1.325  0.00  0.00     0.018 C 
ENDBRANCH   1   8
TORSDOF 1
ENDMDL
