MODEL 1
REMARK minimizedAffinity -5.10916185
REMARK minimizedRMSD -1
REMARK  1 active torsions:
REMARK  status: ('A' for Active; 'I' for Inactive)
REMARK    1  A    between atoms: C1_2  and  C2_3 
ROOT
ATOM      1  C2  UNL d   1       0.831  -3.497  -1.590  0.00  0.00    -0.081 A 
ATOM      2  C3  UNL d   1       1.759  -2.768  -0.836  0.00  0.00     0.006 A 
ATOM      3  C4  UNL d   1       2.634  -3.421   0.035  0.00  0.00     0.002 A 
ATOM      4  C5  UNL d   1       2.602  -4.814   0.161  0.00  0.00    -0.080 A 
ATOM      5  C6  UNL d   1       3.556  -5.530   1.070  0.00  0.00     0.076 C 
ATOM      6  C7  UNL d   1       1.663  -5.541  -0.578  0.00  0.00     0.002 A 
ATOM      7  C8  UNL d   1       0.787  -4.889  -1.449  0.00  0.00     0.006 A 
ENDROOT
BRANCH   1   8
ATOM      8  C1  UNL d   1      -0.070  -2.802  -2.578  0.00  0.00     0.054 C 
ATOM      9  C   UNL d   1      -0.964  -3.796  -3.306  0.00  0.00     0.018 C 
ENDBRANCH   1   8
TORSDOF 1
ENDMDL
