MODEL 1
REMARK minimizedAffinity -3.22227836
REMARK minimizedRMSD -1
REMARK  1 active torsions:
REMARK  status: ('A' for Active; 'I' for Inactive)
REMARK    1  A    between atoms: C1_2  and  C2_3 
ROOT
ATOM      1  C2  UNL d   1       0.169  -0.363   0.012  0.00  0.00    -0.081 A 
ATOM      2  C3  UNL d   1      -0.348  -0.392   1.313  0.00  0.00     0.006 A 
ATOM      3  C4  UNL d   1      -1.160   0.646   1.776  0.00  0.00     0.002 A 
ATOM      4  C5  UNL d   1      -1.475   1.726   0.944  0.00  0.00    -0.080 A 
ATOM      5  C6  UNL d   1      -2.371   2.831   1.419  0.00  0.00     0.076 C 
ATOM      6  C7  UNL d   1      -0.945   1.764  -0.350  0.00  0.00     0.002 A 
ATOM      7  C8  UNL d   1      -0.132   0.727  -0.813  0.00  0.00     0.006 A 
ENDROOT
BRANCH   1   8
ATOM      8  C1  UNL d   1       0.992  -1.512  -0.512  0.00  0.00     0.054 C 
ATOM      9  C   UNL d   1       0.237  -2.292  -1.579  0.00  0.00     0.018 C 
ENDBRANCH   1   8
TORSDOF 1
ENDMDL
