MODEL 1
REMARK minimizedAffinity -4.02214622
REMARK minimizedRMSD -1
REMARK  1 active torsions:
REMARK  status: ('A' for Active; 'I' for Inactive)
REMARK    1  A    between atoms: C1_2  and  C2_3 
ROOT
ATOM      1  C2  UNL d   1       0.525  -0.674  -0.390  0.00  0.00    -0.081 A 
ATOM      2  C3  UNL d   1      -0.282  -1.076   0.681  0.00  0.00     0.006 A 
ATOM      3  C4  UNL d   1      -1.109  -0.156   1.330  0.00  0.00     0.002 A 
ATOM      4  C5  UNL d   1      -1.149   1.179   0.913  0.00  0.00    -0.080 A 
ATOM      5  C6  UNL d   1      -2.055   2.171   1.581  0.00  0.00     0.076 C 
ATOM      6  C7  UNL d   1      -0.330   1.585  -0.147  0.00  0.00     0.002 A 
ATOM      7  C8  UNL d   1       0.497   0.665  -0.795  0.00  0.00     0.006 A 
ENDROOT
BRANCH   1   8
ATOM      8  C1  UNL d   1       1.369  -1.678  -1.133  0.00  0.00     0.054 C 
ATOM      9  C   UNL d   1       0.513  -2.578  -2.012  0.00  0.00     0.018 C 
ENDBRANCH   1   8
TORSDOF 1
ENDMDL
