MODEL 1
REMARK minimizedAffinity -3.34738827
REMARK minimizedRMSD -1
REMARK  1 active torsions:
REMARK  status: ('A' for Active; 'I' for Inactive)
REMARK    1  A    between atoms: C1_2  and  C2_3 
ROOT
ATOM      1  C2  UNL d   1       0.025  -1.114  -0.911  0.00  0.00    -0.081 A 
ATOM      2  C3  UNL d   1       0.810   0.015  -0.652  0.00  0.00     0.006 A 
ATOM      3  C4  UNL d   1       0.289   1.088   0.076  0.00  0.00     0.002 A 
ATOM      4  C5  UNL d   1      -1.022   1.045   0.562  0.00  0.00    -0.080 A 
ATOM      5  C6  UNL d   1      -1.584   2.177   1.370  0.00  0.00     0.076 C 
ATOM      6  C7  UNL d   1      -1.813  -0.076   0.288  0.00  0.00     0.002 A 
ATOM      7  C8  UNL d   1      -1.292  -1.148  -0.440  0.00  0.00     0.006 A 
ENDROOT
BRANCH   1   8
ATOM      8  C1  UNL d   1       0.605  -2.300  -1.640  0.00  0.00     0.054 C 
ATOM      9  C   UNL d   1      -0.471  -3.065  -2.397  0.00  0.00     0.018 C 
ENDBRANCH   1   8
TORSDOF 1
ENDMDL
