MODEL 1
REMARK minimizedAffinity -4.21957588
REMARK minimizedRMSD -1
REMARK  1 active torsions:
REMARK  status: ('A' for Active; 'I' for Inactive)
REMARK    1  A    between atoms: C1_2  and  C2_3 
ROOT
ATOM      1  C2  UNL d   1       0.326  -0.643  -0.226  0.00  0.00    -0.081 A 
ATOM      2  C3  UNL d   1      -0.151  -0.697   1.089  0.00  0.00     0.006 A 
ATOM      3  C4  UNL d   1      -0.938   0.338   1.600  0.00  0.00     0.002 A 
ATOM      4  C5  UNL d   1      -1.268   1.439   0.803  0.00  0.00    -0.080 A 
ATOM      5  C6  UNL d   1      -2.137   2.542   1.329  0.00  0.00     0.076 C 
ATOM      6  C7  UNL d   1      -0.777   1.502  -0.506  0.00  0.00     0.002 A 
ATOM      7  C8  UNL d   1       0.011   0.468  -1.017  0.00  0.00     0.006 A 
ENDROOT
BRANCH   1   8
ATOM      8  C1  UNL d   1       1.121  -1.787  -0.801  0.00  0.00     0.054 C 
ATOM      9  C   UNL d   1       0.459  -2.347  -2.052  0.00  0.00     0.018 C 
ENDBRANCH   1   8
TORSDOF 1
ENDMDL
