MODEL 1
REMARK minimizedAffinity -1.98381817
REMARK minimizedRMSD -1
REMARK  0 active torsions:
REMARK  status: ('A' for Active; 'I' for Inactive)
ROOT
ATOM      1  C2' OXE d   1       1.961   1.170   0.338  0.00  0.00     0.078 C 
ATOM      2  C1' OXE d   1       1.599  -1.598   0.631  0.00  0.00     0.078 C 
ATOM      3  C1  OXE d   1       0.416  -0.778   0.182  0.00  0.00    -0.078 A 
ATOM      4  C2  OXE d   1       0.590   0.582   0.087  0.00  0.00    -0.078 A 
ATOM      5  C3  OXE d   1      -0.454   1.379  -0.375  0.00  0.00     0.003 A 
ATOM      6  C4  OXE d   1      -1.722   0.829  -0.596  0.00  0.00    -0.002 A 
ATOM      7  C5  OXE d   1      -1.931  -0.548  -0.466  0.00  0.00    -0.002 A 
ATOM      8  C6  OXE d   1      -0.864  -1.369  -0.120  0.00  0.00     0.003 A 
ENDROOT
TORSDOF 0
ENDMDL
