MODEL 1
REMARK minimizedAffinity 0.444425613
REMARK minimizedRMSD -1
REMARK  0 active torsions:
REMARK  status: ('A' for Active; 'I' for Inactive)
ROOT
ATOM      1  C2' OXE d   1      -1.869   0.753   2.185  0.00  0.00     0.078 C 
ATOM      2  C1' OXE d   1      -2.495  -1.832   3.083  0.00  0.00     0.078 C 
ATOM      3  C1  OXE d   1      -1.074  -1.355   3.247  0.00  0.00    -0.078 A 
ATOM      4  C2  OXE d   1      -0.766  -0.106   2.763  0.00  0.00    -0.078 A 
ATOM      5  C3  OXE d   1       0.518   0.403   2.938  0.00  0.00     0.003 A 
ATOM      6  C4  OXE d   1       1.535  -0.402   3.464  0.00  0.00    -0.002 A 
ATOM      7  C5  OXE d   1       1.251  -1.691   3.927  0.00  0.00    -0.002 A 
ATOM      8  C6  OXE d   1      -0.054  -2.166   3.865  0.00  0.00     0.003 A 
ENDROOT
TORSDOF 0
ENDMDL
