MODEL 1
REMARK minimizedAffinity 6.9286685
REMARK minimizedRMSD -1
REMARK  0 active torsions:
REMARK  status: ('A' for Active; 'I' for Inactive)
ROOT
ATOM      1  C2' OXE d   1      -0.769   2.113   2.647  0.00  0.00     0.078 C 
ATOM      2  C1' OXE d   1      -2.090  -0.325   2.209  0.00  0.00     0.078 C 
ATOM      3  C1  OXE d   1      -0.626  -0.373   2.565  0.00  0.00    -0.078 A 
ATOM      4  C2  OXE d   1       0.024   0.826   2.732  0.00  0.00    -0.078 A 
ATOM      5  C3  OXE d   1       1.362   0.838   3.115  0.00  0.00     0.003 A 
ATOM      6  C4  OXE d   1       2.091  -0.356   3.182  0.00  0.00    -0.002 A 
ATOM      7  C5  OXE d   1       1.458  -1.586   2.977  0.00  0.00    -0.002 A 
ATOM      8  C6  OXE d   1       0.093  -1.615   2.710  0.00  0.00     0.003 A 
ENDROOT
TORSDOF 0
ENDMDL
