MODEL 1
REMARK minimizedAffinity 2.26486206
REMARK minimizedRMSD -1
REMARK  0 active torsions:
REMARK  status: ('A' for Active; 'I' for Inactive)
ROOT
ATOM      1  C2' OXE d   1      -0.552  -1.691  -0.971  0.00  0.00     0.078 C 
ATOM      2  C1' OXE d   1       0.549  -0.751   1.434  0.00  0.00     0.078 C 
ATOM      3  C1  OXE d   1      -0.753  -0.146   0.972  0.00  0.00    -0.078 A 
ATOM      4  C2  OXE d   1      -1.261  -0.579  -0.229  0.00  0.00    -0.078 A 
ATOM      5  C3  OXE d   1      -2.487  -0.093  -0.674  0.00  0.00     0.003 A 
ATOM      6  C4  OXE d   1      -3.131   0.943   0.013  0.00  0.00    -0.002 A 
ATOM      7  C5  OXE d   1      -2.611   1.426   1.218  0.00  0.00    -0.002 A 
ATOM      8  C6  OXE d   1      -1.447   0.864   1.732  0.00  0.00     0.003 A 
ENDROOT
TORSDOF 0
ENDMDL
