MODEL 1
REMARK minimizedAffinity 2.35477543
REMARK minimizedRMSD -1
REMARK  0 active torsions:
REMARK  status: ('A' for Active; 'I' for Inactive)
ROOT
ATOM      1  C2' OXE d   1      -1.424   0.426  -0.441  0.00  0.00     0.078 C 
ATOM      2  C1' OXE d   1      -2.817   0.653   1.985  0.00  0.00     0.078 C 
ATOM      3  C1  OXE d   1      -1.400   0.139   2.033  0.00  0.00    -0.078 A 
ATOM      4  C2  OXE d   1      -0.742  -0.013   0.836  0.00  0.00    -0.078 A 
ATOM      5  C3  OXE d   1       0.585  -0.432   0.828  0.00  0.00     0.003 A 
ATOM      6  C4  OXE d   1       1.206  -0.846   2.013  0.00  0.00    -0.002 A 
ATOM      7  C5  OXE d   1       0.540  -0.737   3.238  0.00  0.00    -0.002 A 
ATOM      8  C6  OXE d   1      -0.746  -0.207   3.271  0.00  0.00     0.003 A 
ENDROOT
TORSDOF 0
ENDMDL
