MODEL 1
REMARK minimizedAffinity 0.880386949
REMARK minimizedRMSD -1
REMARK  0 active torsions:
REMARK  status: ('A' for Active; 'I' for Inactive)
ROOT
ATOM      1  C2' OXE d   1       1.794  -0.267   3.691  0.00  0.00     0.078 C 
ATOM      2  C1' OXE d   1      -0.915  -0.236   4.427  0.00  0.00     0.078 C 
ATOM      3  C1  OXE d   1      -0.584  -0.159   2.957  0.00  0.00    -0.078 A 
ATOM      4  C2  OXE d   1       0.745  -0.127   2.609  0.00  0.00    -0.078 A 
ATOM      5  C3  OXE d   1       1.105  -0.112   1.265  0.00  0.00     0.003 A 
ATOM      6  C4  OXE d   1       0.128   0.027   0.271  0.00  0.00    -0.002 A 
ATOM      7  C5  OXE d   1      -1.230   0.037   0.607  0.00  0.00    -0.002 A 
ATOM      8  C6  OXE d   1      -1.603  -0.098   1.939  0.00  0.00     0.003 A 
ENDROOT
TORSDOF 0
ENDMDL
