MODEL 1
REMARK minimizedAffinity 1.06796563
REMARK minimizedRMSD -1
REMARK  0 active torsions:
REMARK  status: ('A' for Active; 'I' for Inactive)
ROOT
ATOM      1  C2' OXE d   1       0.515   0.811   0.473  0.00  0.00     0.078 C 
ATOM      2  C1' OXE d   1       1.503  -0.612   2.681  0.00  0.00     0.078 C 
ATOM      3  C1  OXE d   1       0.043  -0.233   2.685  0.00  0.00    -0.078 A 
ATOM      4  C2  OXE d   1      -0.421   0.504   1.622  0.00  0.00    -0.078 A 
ATOM      5  C3  OXE d   1      -1.771   0.834   1.549  0.00  0.00     0.003 A 
ATOM      6  C4  OXE d   1      -2.628   0.555   2.621  0.00  0.00    -0.002 A 
ATOM      7  C5  OXE d   1      -2.166  -0.160   3.731  0.00  0.00    -0.002 A 
ATOM      8  C6  OXE d   1      -0.847  -0.597   3.759  0.00  0.00     0.003 A 
ENDROOT
TORSDOF 0
ENDMDL
