MODEL 1
REMARK minimizedAffinity 3.04419255
REMARK minimizedRMSD -1
REMARK  0 active torsions:
REMARK  status: ('A' for Active; 'I' for Inactive)
ROOT
ATOM      1  C2' OXE d   1       1.590  -0.398   1.506  0.00  0.00     0.078 C 
ATOM      2  C1' OXE d   1       0.658  -1.161   4.042  0.00  0.00     0.078 C 
ATOM      3  C1  OXE d   1      -0.332  -0.547   3.084  0.00  0.00    -0.078 A 
ATOM      4  C2  OXE d   1       0.143  -0.134   1.863  0.00  0.00    -0.078 A 
ATOM      5  C3  OXE d   1      -0.739   0.389   0.922  0.00  0.00     0.003 A 
ATOM      6  C4  OXE d   1      -2.074   0.640   1.263  0.00  0.00    -0.002 A 
ATOM      7  C5  OXE d   1      -2.569   0.263   2.516  0.00  0.00    -0.002 A 
ATOM      8  C6  OXE d   1      -1.723  -0.369   3.421  0.00  0.00     0.003 A 
ENDROOT
TORSDOF 0
ENDMDL
