MODEL 1
REMARK minimizedAffinity 1.93190074
REMARK minimizedRMSD -1
REMARK  0 active torsions:
REMARK  status: ('A' for Active; 'I' for Inactive)
ROOT
ATOM      1  C2' OXE d   1       0.131  -5.611  -5.805  0.00  0.00     0.078 C 
ATOM      2  C1' OXE d   1      -0.889  -2.995  -5.788  0.00  0.00     0.078 C 
ATOM      3  C1  OXE d   1      -0.224  -3.499  -4.532  0.00  0.00    -0.078 A 
ATOM      4  C2  OXE d   1       0.230  -4.796  -4.534  0.00  0.00    -0.078 A 
ATOM      5  C3  OXE d   1       0.901  -5.293  -3.420  0.00  0.00     0.003 A 
ATOM      6  C4  OXE d   1       0.980  -4.536  -2.244  0.00  0.00    -0.002 A 
ATOM      7  C5  OXE d   1       0.488  -3.227  -2.208  0.00  0.00    -0.002 A 
ATOM      8  C6  OXE d   1      -0.077  -2.680  -3.354  0.00  0.00     0.003 A 
ENDROOT
TORSDOF 0
ENDMDL
