MODEL 1
REMARK minimizedAffinity 6.26896906
REMARK minimizedRMSD -1
REMARK  0 active torsions:
REMARK  status: ('A' for Active; 'I' for Inactive)
ROOT
ATOM      1  C2' OXE d   1       2.604   2.843   0.780  0.00  0.00     0.078 C 
ATOM      2  C1' OXE d   1       3.173   5.592   0.746  0.00  0.00     0.078 C 
ATOM      3  C1  OXE d   1       3.688   4.781   1.909  0.00  0.00    -0.078 A 
ATOM      4  C2  OXE d   1       3.366   3.445   1.941  0.00  0.00    -0.078 A 
ATOM      5  C3  OXE d   1       3.862   2.641   2.962  0.00  0.00     0.003 A 
ATOM      6  C4  OXE d   1       4.556   3.208   4.038  0.00  0.00    -0.002 A 
ATOM      7  C5  OXE d   1       4.861   4.573   4.045  0.00  0.00    -0.002 A 
ATOM      8  C6  OXE d   1       4.472   5.364   2.970  0.00  0.00     0.003 A 
ENDROOT
TORSDOF 0
ENDMDL
