MODEL 1
REMARK minimizedAffinity -4.27589417
REMARK minimizedRMSD -1
REMARK  1 active torsions:
REMARK  status: ('A' for Active; 'I' for Inactive)
REMARK    1  A    between atoms: N_2  and  C1_3 
ROOT
ATOM      1  C1  UNL d   1       0.014   0.205   0.025  0.00  0.00     0.143 A 
ATOM      2  C2  UNL d   1       1.395   0.361  -0.142  0.00  0.00    -0.057 A 
ATOM      3  C3  UNL d   1       2.286  -0.672   0.177  0.00  0.00     0.033 A 
ATOM      4  C4  UNL d   1       1.812  -1.872   0.697  0.00  0.00    -0.042 A 
ATOM      5  C5  UNL d   1       0.446  -2.039   0.895  0.00  0.00     0.033 A 
ATOM      6  C6  UNL d   1      -0.439  -1.007   0.569  0.00  0.00    -0.057 A 
ENDROOT
BRANCH   1   7
ATOM      7  N   UNL d   1      -0.914   1.228  -0.180  0.00  0.00    -0.732 N 
ATOM      8  C   UNL d   1      -1.337   1.583  -1.518  0.00  0.00     0.284 C 
ATOM      9  H3  UNL d   1      -1.668   1.212   0.504  0.00  0.00     0.395 HD
ENDBRANCH   1   7
TORSDOF 1
ENDMDL
