MODEL 1
REMARK minimizedAffinity -4.85095453
REMARK minimizedRMSD -1
REMARK  1 active torsions:
REMARK  status: ('A' for Active; 'I' for Inactive)
REMARK    1  A    between atoms: N_2  and  C1_3 
ROOT
ATOM      1  C1  UNL d   1       0.213  -0.380  -0.390  0.00  0.00     0.143 A 
ATOM      2  C2  UNL d   1       1.490  -0.046   0.075  0.00  0.00    -0.057 A 
ATOM      3  C3  UNL d   1       2.314  -1.000   0.684  0.00  0.00     0.033 A 
ATOM      4  C4  UNL d   1       1.863  -2.303   0.866  0.00  0.00    -0.042 A 
ATOM      5  C5  UNL d   1       0.588  -2.652   0.435  0.00  0.00     0.033 A 
ATOM      6  C6  UNL d   1      -0.228  -1.696  -0.179  0.00  0.00    -0.057 A 
ENDROOT
BRANCH   1   7
ATOM      7  N   UNL d   1      -0.691   0.546  -0.914  0.00  0.00    -0.732 N 
ATOM      8  C   UNL d   1      -0.877   1.835  -0.282  0.00  0.00     0.284 C 
ATOM      9  H3  UNL d   1      -0.664   0.583  -1.931  0.00  0.00     0.395 HD
ENDBRANCH   1   7
TORSDOF 1
ENDMDL
