MODEL 1
REMARK minimizedAffinity -4.62761545
REMARK minimizedRMSD -1
REMARK  1 active torsions:
REMARK  status: ('A' for Active; 'I' for Inactive)
REMARK    1  A    between atoms: N_2  and  C1_3 
ROOT
ATOM      1  C1  UNL d   1      -0.208   0.481   0.166  0.00  0.00     0.143 A 
ATOM      2  C2  UNL d   1       0.956   0.575  -0.605  0.00  0.00    -0.057 A 
ATOM      3  C3  UNL d   1       1.918  -0.442  -0.593  0.00  0.00     0.033 A 
ATOM      4  C4  UNL d   1       1.748  -1.560   0.216  0.00  0.00    -0.042 A 
ATOM      5  C5  UNL d   1       0.611  -1.663   1.010  0.00  0.00     0.033 A 
ATOM      6  C6  UNL d   1      -0.350  -0.647   0.989  0.00  0.00    -0.057 A 
ENDROOT
BRANCH   1   7
ATOM      7  N   UNL d   1      -1.154   1.503   0.273  0.00  0.00    -0.732 N 
ATOM      8  C   UNL d   1      -1.635   2.189  -0.908  0.00  0.00     0.284 C 
ATOM      9  H3  UNL d   1      -1.880   1.291   0.954  0.00  0.00     0.395 HD
ENDBRANCH   1   7
TORSDOF 1
ENDMDL
