MODEL 1
REMARK minimizedAffinity -3.85647559
REMARK minimizedRMSD -1
REMARK  1 active torsions:
REMARK  status: ('A' for Active; 'I' for Inactive)
REMARK    1  A    between atoms: N_2  and  C1_3 
ROOT
ATOM      1  C1  UNL d   1       0.266   0.344   0.405  0.00  0.00     0.143 A 
ATOM      2  C2  UNL d   1       1.587   0.167  -0.021  0.00  0.00    -0.057 A 
ATOM      3  C3  UNL d   1       2.246  -1.057   0.143  0.00  0.00     0.033 A 
ATOM      4  C4  UNL d   1       1.603  -2.121   0.766  0.00  0.00    -0.042 A 
ATOM      5  C5  UNL d   1       0.299  -1.961   1.220  0.00  0.00     0.033 A 
ATOM      6  C6  UNL d   1      -0.356  -0.738   1.047  0.00  0.00    -0.057 A 
ENDROOT
BRANCH   1   7
ATOM      7  N   UNL d   1      -0.409   1.565   0.359  0.00  0.00    -0.732 N 
ATOM      8  C   UNL d   1      -1.227   1.913  -0.784  0.00  0.00     0.284 C 
ATOM      9  H3  UNL d   1      -0.820   1.816   1.255  0.00  0.00     0.395 HD
ENDBRANCH   1   7
TORSDOF 1
ENDMDL
