MODEL 1
REMARK minimizedAffinity -1.30636716
REMARK minimizedRMSD -1
REMARK  1 active torsions:
REMARK  status: ('A' for Active; 'I' for Inactive)
REMARK    1  A    between atoms: N_2  and  C1_3 
ROOT
ATOM      1  C1  UNL d   1      -0.213  -0.788   0.594  0.00  0.00     0.143 A 
ATOM      2  C2  UNL d   1       1.171  -0.592   0.536  0.00  0.00    -0.057 A 
ATOM      3  C3  UNL d   1       2.043  -1.648   0.244  0.00  0.00     0.033 A 
ATOM      4  C4  UNL d   1       1.546  -2.930   0.032  0.00  0.00    -0.042 A 
ATOM      5  C5  UNL d   1       0.176  -3.153   0.110  0.00  0.00     0.033 A 
ATOM      6  C6  UNL d   1      -0.690  -2.094   0.396  0.00  0.00    -0.057 A 
ENDROOT
BRANCH   1   7
ATOM      7  N   UNL d   1      -1.123   0.199   0.977  0.00  0.00    -0.732 N 
ATOM      8  C   UNL d   1      -1.958   0.020   2.145  0.00  0.00     0.284 C 
ATOM      9  H3  UNL d   1      -0.743   1.138   0.878  0.00  0.00     0.395 HD
ENDBRANCH   1   7
TORSDOF 1
ENDMDL
