MODEL 1
REMARK minimizedAffinity -3.49612141
REMARK minimizedRMSD -1
REMARK  1 active torsions:
REMARK  status: ('A' for Active; 'I' for Inactive)
REMARK    1  A    between atoms: N_2  and  C1_3 
ROOT
ATOM      1  C1  UNL d   1      -0.155  -0.694   0.544  0.00  0.00     0.143 A 
ATOM      2  C2  UNL d   1       1.161  -0.479   0.121  0.00  0.00    -0.057 A 
ATOM      3  C3  UNL d   1       2.139  -1.472   0.259  0.00  0.00     0.033 A 
ATOM      4  C4  UNL d   1       1.823  -2.691   0.850  0.00  0.00    -0.042 A 
ATOM      5  C5  UNL d   1       0.527  -2.917   1.300  0.00  0.00     0.033 A 
ATOM      6  C6  UNL d   1      -0.447  -1.924   1.154  0.00  0.00    -0.057 A 
ENDROOT
BRANCH   1   7
ATOM      7  N   UNL d   1      -1.148   0.289   0.525  0.00  0.00    -0.732 N 
ATOM      8  C   UNL d   1      -2.189   0.304   1.530  0.00  0.00     0.284 C 
ATOM      9  H3  UNL d   1      -0.780   1.208   0.293  0.00  0.00     0.395 HD
ENDBRANCH   1   7
TORSDOF 1
ENDMDL
