MODEL 1
REMARK minimizedAffinity -4.11724758
REMARK minimizedRMSD -1
REMARK  1 active torsions:
REMARK  status: ('A' for Active; 'I' for Inactive)
REMARK    1  A    between atoms: N_2  and  C1_3 
ROOT
ATOM      1  C1  UNL d   1      -0.109   0.017  -0.034  0.00  0.00     0.143 A 
ATOM      2  C2  UNL d   1      -0.672  -1.173   0.439  0.00  0.00    -0.057 A 
ATOM      3  C3  UNL d   1       0.129  -2.274   0.769  0.00  0.00     0.033 A 
ATOM      4  C4  UNL d   1       1.509  -2.212   0.603  0.00  0.00    -0.042 A 
ATOM      5  C5  UNL d   1       2.087  -1.048   0.111  0.00  0.00     0.033 A 
ATOM      6  C6  UNL d   1       1.283   0.050  -0.211  0.00  0.00    -0.057 A 
ENDROOT
BRANCH   1   7
ATOM      7  N   UNL d   1      -0.859   1.111  -0.472  0.00  0.00    -0.732 N 
ATOM      8  C   UNL d   1      -1.737   0.993  -1.617  0.00  0.00     0.284 C 
ATOM      9  H3  UNL d   1      -1.252   1.646   0.299  0.00  0.00     0.395 HD
ENDBRANCH   1   7
TORSDOF 1
ENDMDL
