MODEL 1
REMARK minimizedAffinity -5.13907957
REMARK minimizedRMSD -1
REMARK  1 active torsions:
REMARK  status: ('A' for Active; 'I' for Inactive)
REMARK    1  A    between atoms: N_2  and  C1_3 
ROOT
ATOM      1  C1  UNL d   1      -0.040   0.117  -0.020  0.00  0.00     0.143 A 
ATOM      2  C2  UNL d   1      -0.807  -0.941   0.480  0.00  0.00    -0.057 A 
ATOM      3  C3  UNL d   1      -0.211  -2.143   0.882  0.00  0.00     0.033 A 
ATOM      4  C4  UNL d   1       1.163  -2.319   0.763  0.00  0.00    -0.042 A 
ATOM      5  C5  UNL d   1       1.942  -1.290   0.245  0.00  0.00     0.033 A 
ATOM      6  C6  UNL d   1       1.342  -0.090  -0.148  0.00  0.00    -0.057 A 
ENDROOT
BRANCH   1   7
ATOM      7  N   UNL d   1      -0.583   1.300  -0.527  0.00  0.00    -0.732 N 
ATOM      8  C   UNL d   1      -1.527   1.267  -1.624  0.00  0.00     0.284 C 
ATOM      9  H3  UNL d   1      -0.822   1.964   0.206  0.00  0.00     0.395 HD
ENDBRANCH   1   7
TORSDOF 1
ENDMDL
