MODEL 1
REMARK minimizedAffinity 12.9545393
REMARK minimizedRMSD -1
REMARK  0 active torsions:
REMARK  status: ('A' for Active; 'I' for Inactive)
ROOT
ATOM      1  C   UNL d   1       2.510  -4.455  -1.384  0.00  0.00     0.023 A 
ATOM      2  C1  UNL d   1       1.603  -4.990  -2.299  0.00  0.00     0.003 A 
ATOM      3  C2  UNL d   1       0.295  -5.273  -1.902  0.00  0.00     0.048 A 
ATOM      4  C3  UNL d   1      -0.100  -5.018  -0.589  0.00  0.00     0.023 A 
ATOM      5  C4  UNL d   1       0.804  -4.482   0.329  0.00  0.00     0.048 A 
ATOM      6  C5  UNL d   1       2.112  -4.202  -0.072  0.00  0.00     0.003 A 
ATOM      7  I   UNL d   1      -2.047  -5.439   0.004  0.00  0.00    -0.146 I 
ENDROOT
TORSDOF 0
ENDMDL
