MODEL 1
REMARK minimizedAffinity 8.39039612
REMARK minimizedRMSD -1
REMARK  0 active torsions:
REMARK  status: ('A' for Active; 'I' for Inactive)
ROOT
ATOM      1  C   UNL d   1       1.409  -0.207   2.902  0.00  0.00     0.023 A 
ATOM      2  C1  UNL d   1       1.875  -0.843   1.752  0.00  0.00     0.003 A 
ATOM      3  C2  UNL d   1       2.275  -2.180   1.806  0.00  0.00     0.048 A 
ATOM      4  C3  UNL d   1       2.204  -2.875   3.013  0.00  0.00     0.023 A 
ATOM      5  C4  UNL d   1       1.738  -2.242   4.166  0.00  0.00     0.048 A 
ATOM      6  C5  UNL d   1       1.340  -0.905   4.108  0.00  0.00     0.003 A 
ATOM      7  I   UNL d   1       2.798  -4.865   3.096  0.00  0.00    -0.146 I 
ENDROOT
TORSDOF 0
ENDMDL
