MODEL 1
REMARK minimizedAffinity 13.5213327
REMARK minimizedRMSD -1
REMARK  0 active torsions:
REMARK  status: ('A' for Active; 'I' for Inactive)
ROOT
ATOM      1  C   UNL d   1      -4.041   4.811  -4.218  0.00  0.00     0.023 A 
ATOM      2  C1  UNL d   1      -3.435   3.808  -4.974  0.00  0.00     0.003 A 
ATOM      3  C2  UNL d   1      -3.165   2.565  -4.398  0.00  0.00     0.048 A 
ATOM      4  C3  UNL d   1      -3.504   2.331  -3.066  0.00  0.00     0.023 A 
ATOM      5  C4  UNL d   1      -4.112   3.332  -2.306  0.00  0.00     0.048 A 
ATOM      6  C5  UNL d   1      -4.379   4.574  -2.886  0.00  0.00     0.003 A 
ATOM      7  I   UNL d   1      -3.104   0.482  -2.206  0.00  0.00    -0.146 I 
ENDROOT
TORSDOF 0
ENDMDL
