MODEL 1
REMARK minimizedAffinity 6.76958942
REMARK minimizedRMSD -1
REMARK  0 active torsions:
REMARK  status: ('A' for Active; 'I' for Inactive)
ROOT
ATOM      1  C   UNL d   1       1.692  -1.619   6.000  0.00  0.00     0.023 A 
ATOM      2  C1  UNL d   1       1.514  -0.785   4.896  0.00  0.00     0.003 A 
ATOM      3  C2  UNL d   1       1.921  -1.206   3.628  0.00  0.00     0.048 A 
ATOM      4  C3  UNL d   1       2.505  -2.463   3.472  0.00  0.00     0.023 A 
ATOM      5  C4  UNL d   1       2.684  -3.301   4.573  0.00  0.00     0.048 A 
ATOM      6  C5  UNL d   1       2.276  -2.876   5.839  0.00  0.00     0.003 A 
ATOM      7  I   UNL d   1       3.111  -3.092   1.586  0.00  0.00    -0.146 I 
ENDROOT
TORSDOF 0
ENDMDL
