MODEL 1
REMARK minimizedAffinity 13.797802
REMARK minimizedRMSD -1
REMARK  0 active torsions:
REMARK  status: ('A' for Active; 'I' for Inactive)
ROOT
ATOM      1  C   UNL d   1       1.852  -1.602   1.413  0.00  0.00     0.023 A 
ATOM      2  C1  UNL d   1       2.419  -2.806   1.833  0.00  0.00     0.003 A 
ATOM      3  C2  UNL d   1       2.245  -3.239   3.149  0.00  0.00     0.048 A 
ATOM      4  C3  UNL d   1       1.503  -2.463   4.040  0.00  0.00     0.023 A 
ATOM      5  C4  UNL d   1       0.934  -1.259   3.624  0.00  0.00     0.048 A 
ATOM      6  C5  UNL d   1       1.111  -0.830   2.307  0.00  0.00     0.003 A 
ATOM      7  I   UNL d   1       1.243  -3.105   5.999  0.00  0.00    -0.146 I 
ENDROOT
TORSDOF 0
ENDMDL
