MODEL 1
REMARK minimizedAffinity 2.93555379
REMARK minimizedRMSD -1
REMARK  0 active torsions:
REMARK  status: ('A' for Active; 'I' for Inactive)
ROOT
ATOM      1  C   UNL d   1       1.856  -1.170   1.519  0.00  0.00     0.023 A 
ATOM      2  C1  UNL d   1       2.262  -2.490   1.721  0.00  0.00     0.003 A 
ATOM      3  C2  UNL d   1       2.249  -3.037   3.005  0.00  0.00     0.048 A 
ATOM      4  C3  UNL d   1       1.828  -2.260   4.084  0.00  0.00     0.023 A 
ATOM      5  C4  UNL d   1       1.420  -0.940   3.887  0.00  0.00     0.048 A 
ATOM      6  C5  UNL d   1       1.435  -0.397   2.601  0.00  0.00     0.003 A 
ATOM      7  I   UNL d   1       1.808  -3.073   5.997  0.00  0.00    -0.146 I 
ENDROOT
TORSDOF 0
ENDMDL
