MODEL 1
REMARK minimizedAffinity 11.4476051
REMARK minimizedRMSD -1
REMARK  0 active torsions:
REMARK  status: ('A' for Active; 'I' for Inactive)
ROOT
ATOM      1  C   UNL d   1       2.000  -1.983   1.223  0.00  0.00     0.023 A 
ATOM      2  C1  UNL d   1       1.362  -0.913   1.850  0.00  0.00     0.003 A 
ATOM      3  C2  UNL d   1       1.100  -0.961   3.221  0.00  0.00     0.048 A 
ATOM      4  C3  UNL d   1       1.480  -2.082   3.958  0.00  0.00     0.023 A 
ATOM      5  C4  UNL d   1       2.121  -3.154   3.335  0.00  0.00     0.048 A 
ATOM      6  C5  UNL d   1       2.380  -3.102   1.964  0.00  0.00     0.003 A 
ATOM      7  I   UNL d   1       1.092  -2.156   5.999  0.00  0.00    -0.146 I 
ENDROOT
TORSDOF 0
ENDMDL
