MODEL 1
REMARK minimizedAffinity 0.249136135
REMARK minimizedRMSD -1
REMARK  2 active torsions:
REMARK  status: ('A' for Active; 'I' for Inactive)
REMARK    1  A    between atoms: C2'_3  and  C1'_4 
REMARK    2  A    between atoms: C1'_4  and  C1_5 
ROOT
ATOM      1  C1  I4B d   1       0.456  -0.353   1.727  0.00  0.00    -0.075 A 
ATOM      2  C2  I4B d   1      -0.682   0.179   1.174  0.00  0.00     0.003 A 
ATOM      3  C3  I4B d   1      -1.901   0.162   1.896  0.00  0.00     0.002 A 
ATOM      4  C4  I4B d   1      -1.947  -0.437   3.138  0.00  0.00    -0.004 A 
ATOM      5  C5  I4B d   1      -0.787  -0.956   3.706  0.00  0.00     0.002 A 
ATOM      6  C6  I4B d   1       0.425  -0.903   3.002  0.00  0.00     0.003 A 
ENDROOT
BRANCH   1   7
ATOM      7  C1' I4B d   1       1.718  -0.348   0.924  0.00  0.00     0.060 C 
BRANCH   7   8
ATOM      8  C2' I4B d   1       2.040   1.089   0.569  0.00  0.00    -0.013 C 
ATOM      9  C4' I4B d   1       2.581   1.836   1.760  0.00  0.00     0.013 C 
ATOM     10  C3' I4B d   1       3.028   1.078  -0.558  0.00  0.00     0.013 C 
ENDBRANCH   7   8
ENDBRANCH   1   7
TORSDOF 2
ENDMDL
