MODEL 1
REMARK minimizedAffinity -0.843413889
REMARK minimizedRMSD -1
REMARK  2 active torsions:
REMARK  status: ('A' for Active; 'I' for Inactive)
REMARK    1  A    between atoms: C2'_3  and  C1'_4 
REMARK    2  A    between atoms: C1'_4  and  C1_5 
ROOT
ATOM      1  C1  I4B d   1      -0.446   0.227  -0.157  0.00  0.00    -0.075 A 
ATOM      2  C2  I4B d   1      -0.557   0.624   1.152  0.00  0.00     0.003 A 
ATOM      3  C3  I4B d   1      -1.744   0.362   1.878  0.00  0.00     0.002 A 
ATOM      4  C4  I4B d   1      -2.806  -0.252   1.245  0.00  0.00    -0.004 A 
ATOM      5  C5  I4B d   1      -2.683  -0.674  -0.075  0.00  0.00     0.002 A 
ATOM      6  C6  I4B d   1      -1.491  -0.445  -0.778  0.00  0.00     0.003 A 
ENDROOT
BRANCH   1   7
ATOM      7  C1' I4B d   1       0.809   0.550  -0.904  0.00  0.00     0.060 C 
BRANCH   7   8
ATOM      8  C2' I4B d   1       1.982   0.288   0.019  0.00  0.00    -0.013 C 
ATOM      9  C4' I4B d   1       2.631  -1.036  -0.286  0.00  0.00     0.013 C 
ATOM     10  C3' I4B d   1       2.956   1.418  -0.138  0.00  0.00     0.013 C 
ENDBRANCH   7   8
ENDBRANCH   1   7
TORSDOF 2
ENDMDL
