MODEL 1
REMARK minimizedAffinity -2.38028717
REMARK minimizedRMSD -1
REMARK  2 active torsions:
REMARK  status: ('A' for Active; 'I' for Inactive)
REMARK    1  A    between atoms: C2'_3  and  C1'_4 
REMARK    2  A    between atoms: C1'_4  and  C1_5 
ROOT
ATOM      1  C1  I4B d   1      -0.324  -0.511   3.391  0.00  0.00    -0.075 A 
ATOM      2  C2  I4B d   1       0.621  -0.953   2.499  0.00  0.00     0.003 A 
ATOM      3  C3  I4B d   1       0.349  -0.948   1.110  0.00  0.00     0.002 A 
ATOM      4  C4  I4B d   1      -0.892  -0.542   0.662  0.00  0.00    -0.004 A 
ATOM      5  C5  I4B d   1      -1.841  -0.072   1.566  0.00  0.00     0.002 A 
ATOM      6  C6  I4B d   1      -1.551  -0.045   2.938  0.00  0.00     0.003 A 
ENDROOT
BRANCH   1   7
ATOM      7  C1' I4B d   1      -0.015  -0.561   4.853  0.00  0.00     0.060 C 
BRANCH   7   8
ATOM      8  C2' I4B d   1       0.614  -1.907   5.151  0.00  0.00    -0.013 C 
ATOM      9  C4' I4B d   1       1.849  -1.756   6.000  0.00  0.00     0.013 C 
ATOM     10  C3' I4B d   1      -0.414  -2.756   5.838  0.00  0.00     0.013 C 
ENDBRANCH   7   8
ENDBRANCH   1   7
TORSDOF 2
ENDMDL
