MODEL 1
REMARK minimizedAffinity 0.840777755
REMARK minimizedRMSD -1
REMARK  2 active torsions:
REMARK  status: ('A' for Active; 'I' for Inactive)
REMARK    1  A    between atoms: C2'_3  and  C1'_4 
REMARK    2  A    between atoms: C1'_4  and  C1_5 
ROOT
ATOM      1  C1  I4B d   1      -1.372  -0.122   2.405  0.00  0.00    -0.075 A 
ATOM      2  C2  I4B d   1      -0.292  -0.343   1.588  0.00  0.00     0.003 A 
ATOM      3  C3  I4B d   1      -0.426  -0.232   0.182  0.00  0.00     0.002 A 
ATOM      4  C4  I4B d   1      -1.662   0.050  -0.362  0.00  0.00    -0.004 A 
ATOM      5  C5  I4B d   1      -2.752   0.297   0.469  0.00  0.00     0.002 A 
ATOM      6  C6  I4B d   1      -2.603   0.222   1.861  0.00  0.00     0.003 A 
ENDROOT
BRANCH   1   7
ATOM      7  C1' I4B d   1      -1.203  -0.280   3.882  0.00  0.00     0.060 C 
BRANCH   7   8
ATOM      8  C2' I4B d   1      -0.782  -1.710   4.154  0.00  0.00    -0.013 C 
ATOM      9  C4' I4B d   1       0.256  -1.775   5.243  0.00  0.00     0.013 C 
ATOM     10  C3' I4B d   1      -2.008  -2.490   4.526  0.00  0.00     0.013 C 
ENDBRANCH   7   8
ENDBRANCH   1   7
TORSDOF 2
ENDMDL
