MODEL 1
REMARK minimizedAffinity -1.5337044
REMARK minimizedRMSD -1
REMARK  2 active torsions:
REMARK  status: ('A' for Active; 'I' for Inactive)
REMARK    1  A    between atoms: C2'_3  and  C1'_4 
REMARK    2  A    between atoms: C1'_4  and  C1_5 
ROOT
ATOM      1  C1  I4B d   1       1.825   0.543   0.097  0.00  0.00    -0.075 A 
ATOM      2  C2  I4B d   1       2.381   0.242  -1.121  0.00  0.00     0.003 A 
ATOM      3  C3  I4B d   1       3.358   1.095  -1.688  0.00  0.00     0.002 A 
ATOM      4  C4  I4B d   1       3.711   2.256  -1.032  0.00  0.00    -0.004 A 
ATOM      5  C5  I4B d   1       3.163   2.548   0.214  0.00  0.00     0.002 A 
ATOM      6  C6  I4B d   1       2.223   1.680   0.788  0.00  0.00     0.003 A 
ENDROOT
BRANCH   1   7
ATOM      7  C1' I4B d   1       0.771  -0.362   0.652  0.00  0.00     0.060 C 
BRANCH   7   8
ATOM      8  C2' I4B d   1      -0.465  -0.226  -0.214  0.00  0.00    -0.013 C 
ATOM      9  C4' I4B d   1      -0.859  -1.549  -0.815  0.00  0.00     0.013 C 
ATOM     10  C3' I4B d   1      -1.567   0.332   0.636  0.00  0.00     0.013 C 
ENDBRANCH   7   8
ENDBRANCH   1   7
TORSDOF 2
ENDMDL
