MODEL 1
REMARK minimizedAffinity -3.91826701
REMARK minimizedRMSD -1
REMARK  2 active torsions:
REMARK  status: ('A' for Active; 'I' for Inactive)
REMARK    1  A    between atoms: C2'_3  and  C1'_4 
REMARK    2  A    between atoms: C1'_4  and  C1_5 
ROOT
ATOM      1  C1  I4B d   1      -0.796  -0.535   1.169  0.00  0.00    -0.075 A 
ATOM      2  C2  I4B d   1      -1.945  -0.135   1.805  0.00  0.00     0.003 A 
ATOM      3  C3  I4B d   1      -1.991  -0.065   3.218  0.00  0.00     0.002 A 
ATOM      4  C4  I4B d   1      -0.889  -0.450   3.954  0.00  0.00    -0.004 A 
ATOM      5  C5  I4B d   1       0.283  -0.834   3.307  0.00  0.00     0.002 A 
ATOM      6  C6  I4B d   1       0.334  -0.865   1.906  0.00  0.00     0.003 A 
ENDROOT
BRANCH   1   7
ATOM      7  C1' I4B d   1      -0.793  -0.629  -0.324  0.00  0.00     0.060 C 
BRANCH   7   8
ATOM      8  C2' I4B d   1      -0.303   0.695  -0.873  0.00  0.00    -0.013 C 
ATOM      9  C4' I4B d   1      -0.001   0.596  -2.346  0.00  0.00     0.013 C 
ATOM     10  C3' I4B d   1      -1.357   1.727  -0.605  0.00  0.00     0.013 C 
ENDBRANCH   7   8
ENDBRANCH   1   7
TORSDOF 2
ENDMDL
