MODEL 1
REMARK minimizedAffinity 2.40422988
REMARK minimizedRMSD -1
REMARK  2 active torsions:
REMARK  status: ('A' for Active; 'I' for Inactive)
REMARK    1  A    between atoms: C2'_3  and  C1'_4 
REMARK    2  A    between atoms: C1'_4  and  C1_5 
ROOT
ATOM      1  C1  I4B d   1      -0.705  -0.479   0.602  0.00  0.00    -0.075 A 
ATOM      2  C2  I4B d   1      -0.905  -0.237   1.938  0.00  0.00     0.003 A 
ATOM      3  C3  I4B d   1      -2.172   0.190   2.404  0.00  0.00     0.002 A 
ATOM      4  C4  I4B d   1      -3.190   0.410   1.498  0.00  0.00    -0.004 A 
ATOM      5  C5  I4B d   1      -2.992   0.142   0.147  0.00  0.00     0.002 A 
ATOM      6  C6  I4B d   1      -1.746  -0.317  -0.303  0.00  0.00     0.003 A 
ENDROOT
BRANCH   1   7
ATOM      7  C1' I4B d   1       0.655  -0.898   0.140  0.00  0.00     0.060 C 
BRANCH   7   8
ATOM      8  C2' I4B d   1       1.671  -0.339   1.116  0.00  0.00    -0.013 C 
ATOM      9  C4' I4B d   1       2.852  -1.263   1.261  0.00  0.00     0.013 C 
ATOM     10  C3' I4B d   1       2.097   1.010   0.619  0.00  0.00     0.013 C 
ENDBRANCH   7   8
ENDBRANCH   1   7
TORSDOF 2
ENDMDL
