MODEL 1
REMARK minimizedAffinity -0.439519882
REMARK minimizedRMSD -1
REMARK  2 active torsions:
REMARK  status: ('A' for Active; 'I' for Inactive)
REMARK    1  A    between atoms: C2'_3  and  C1'_4 
REMARK    2  A    between atoms: C1'_4  and  C1_5 
ROOT
ATOM      1  C1  I4B d   1      -0.759  -0.291   2.596  0.00  0.00    -0.075 A 
ATOM      2  C2  I4B d   1       0.353  -0.503   1.821  0.00  0.00     0.003 A 
ATOM      3  C3  I4B d   1       0.260  -0.445   0.409  0.00  0.00     0.002 A 
ATOM      4  C4  I4B d   1      -0.967  -0.225  -0.183  0.00  0.00    -0.004 A 
ATOM      5  C5  I4B d   1      -2.089   0.012   0.605  0.00  0.00     0.002 A 
ATOM      6  C6  I4B d   1      -1.983  -0.009   2.003  0.00  0.00     0.003 A 
ENDROOT
BRANCH   1   7
ATOM      7  C1' I4B d   1      -0.632  -0.392   4.083  0.00  0.00     0.060 C 
BRANCH   7   8
ATOM      8  C2' I4B d   1       0.240  -1.591   4.396  0.00  0.00    -0.013 C 
ATOM      9  C4' I4B d   1       1.700  -1.259   4.240  0.00  0.00     0.013 C 
ATOM     10  C3' I4B d   1      -0.068  -2.034   5.796  0.00  0.00     0.013 C 
ENDBRANCH   7   8
ENDBRANCH   1   7
TORSDOF 2
ENDMDL
