MODEL 1
REMARK minimizedAffinity -1.23691654
REMARK minimizedRMSD -1
REMARK  2 active torsions:
REMARK  status: ('A' for Active; 'I' for Inactive)
REMARK    1  A    between atoms: C2'_3  and  C1'_4 
REMARK    2  A    between atoms: C1'_4  and  C1_5 
ROOT
ATOM      1  C1  I4B d   1      -0.312  -0.095   0.425  0.00  0.00    -0.075 A 
ATOM      2  C2  I4B d   1      -0.774   0.045   1.710  0.00  0.00     0.003 A 
ATOM      3  C3  I4B d   1      -2.098  -0.334   2.037  0.00  0.00     0.002 A 
ATOM      4  C4  I4B d   1      -2.937  -0.798   1.044  0.00  0.00    -0.004 A 
ATOM      5  C5  I4B d   1      -2.460  -0.960  -0.254  0.00  0.00     0.002 A 
ATOM      6  C6  I4B d   1      -1.136  -0.618  -0.563  0.00  0.00     0.003 A 
ENDROOT
BRANCH   1   7
ATOM      7  C1' I4B d   1       1.082   0.346   0.107  0.00  0.00     0.060 C 
BRANCH   7   8
ATOM      8  C2' I4B d   1       2.019  -0.798   0.435  0.00  0.00    -0.013 C 
ATOM      9  C4' I4B d   1       3.345  -0.632  -0.260  0.00  0.00     0.013 C 
ATOM     10  C3' I4B d   1       2.190  -0.844   1.924  0.00  0.00     0.013 C 
ENDBRANCH   7   8
ENDBRANCH   1   7
TORSDOF 2
ENDMDL
