MODEL 1
REMARK minimizedAffinity 1.85202456
REMARK minimizedRMSD -1
REMARK  2 active torsions:
REMARK  status: ('A' for Active; 'I' for Inactive)
REMARK    1  A    between atoms: C2'_3  and  C1'_4 
REMARK    2  A    between atoms: C1'_4  and  C1_5 
ROOT
ATOM      1  C1  I4B d   1       3.696   1.147  -2.043  0.00  0.00    -0.075 A 
ATOM      2  C2  I4B d   1       4.852   0.503  -2.410  0.00  0.00     0.003 A 
ATOM      3  C3  I4B d   1       5.559  -0.284  -1.469  0.00  0.00     0.002 A 
ATOM      4  C4  I4B d   1       5.106  -0.357  -0.167  0.00  0.00    -0.004 A 
ATOM      5  C5  I4B d   1       3.922   0.278   0.197  0.00  0.00     0.002 A 
ATOM      6  C6  I4B d   1       3.206   1.025  -0.749  0.00  0.00     0.003 A 
ENDROOT
BRANCH   1   7
ATOM      7  C1' I4B d   1       2.993   1.997  -3.053  0.00  0.00     0.060 C 
BRANCH   7   8
ATOM      8  C2' I4B d   1       2.458   1.084  -4.139  0.00  0.00    -0.013 C 
ATOM      9  C4' I4B d   1       3.256  -0.190  -4.221  0.00  0.00     0.013 C 
ATOM     10  C3' I4B d   1       1.016   0.803  -3.838  0.00  0.00     0.013 C 
ENDBRANCH   7   8
ENDBRANCH   1   7
TORSDOF 2
ENDMDL
