MODEL 1
REMARK minimizedAffinity -2.04490733
REMARK minimizedRMSD -1
REMARK  0 active torsions:
REMARK  status: ('A' for Active; 'I' for Inactive)
ROOT
ATOM      1  C   UNL d   1       2.156  -1.035   1.091  0.00  0.00     0.172 C 
ATOM      2  N   UNL d   1       0.830  -0.729   0.608  0.00  0.00    -0.070 N 
ATOM      3  C1  UNL d   1       0.319  -1.096  -0.609  0.00  0.00    -0.004 A 
ATOM      4  C2  UNL d   1      -0.970  -0.615  -0.688  0.00  0.00    -0.047 A 
ATOM      5  C3  UNL d   1      -1.243   0.065   0.523  0.00  0.00    -0.047 A 
ATOM      6  C4  UNL d   1      -0.112  -0.021   1.306  0.00  0.00    -0.004 A 
ENDROOT
TORSDOF 0
ENDMDL
