MODEL 1
REMARK minimizedAffinity -3.44574308
REMARK minimizedRMSD -1
REMARK  0 active torsions:
REMARK  status: ('A' for Active; 'I' for Inactive)
ROOT
ATOM      1  C   UNL d   1       1.401  -0.198   1.600  0.00  0.00     0.172 C 
ATOM      2  N   UNL d   1       0.018   0.112   1.323  0.00  0.00    -0.070 N 
ATOM      3  C1  UNL d   1      -0.879   0.630   2.219  0.00  0.00    -0.004 A 
ATOM      4  C2  UNL d   1      -2.085   0.781   1.570  0.00  0.00    -0.047 A 
ATOM      5  C3  UNL d   1      -1.907   0.338   0.238  0.00  0.00    -0.047 A 
ATOM      6  C4  UNL d   1      -0.596  -0.071   0.113  0.00  0.00    -0.004 A 
ENDROOT
TORSDOF 0
ENDMDL
