MODEL 1
REMARK minimizedAffinity -3.04855156
REMARK minimizedRMSD -1
REMARK  0 active torsions:
REMARK  status: ('A' for Active; 'I' for Inactive)
ROOT
ATOM      1  C   UNL d   1       0.777  -0.786  -0.359  0.00  0.00     0.172 C 
ATOM      2  N   UNL d   1       0.002  -0.124   0.664  0.00  0.00    -0.070 N 
ATOM      3  C1  UNL d   1       0.454   0.221   1.910  0.00  0.00    -0.004 A 
ATOM      4  C2  UNL d   1      -0.583   0.832   2.581  0.00  0.00    -0.047 A 
ATOM      5  C3  UNL d   1      -1.698   0.854   1.709  0.00  0.00    -0.047 A 
ATOM      6  C4  UNL d   1      -1.307   0.256   0.529  0.00  0.00    -0.004 A 
ENDROOT
TORSDOF 0
ENDMDL
