MODEL 1
REMARK minimizedAffinity -1.67083716
REMARK minimizedRMSD -1
REMARK  0 active torsions:
REMARK  status: ('A' for Active; 'I' for Inactive)
ROOT
ATOM      1  C   UNL d   1       0.792  -1.441  -0.920  0.00  0.00     0.172 C 
ATOM      2  N   UNL d   1      -0.236  -0.635  -0.305  0.00  0.00    -0.070 N 
ATOM      3  C1  UNL d   1      -0.156   0.709  -0.058  0.00  0.00    -0.004 A 
ATOM      4  C2  UNL d   1      -1.336   1.101   0.536  0.00  0.00    -0.047 A 
ATOM      5  C3  UNL d   1      -2.154  -0.049   0.651  0.00  0.00    -0.047 A 
ATOM      6  C4  UNL d   1      -1.449  -1.109   0.123  0.00  0.00    -0.004 A 
ENDROOT
TORSDOF 0
ENDMDL
