MODEL 1
REMARK minimizedAffinity -3.37366891
REMARK minimizedRMSD -1
REMARK  0 active torsions:
REMARK  status: ('A' for Active; 'I' for Inactive)
ROOT
ATOM      1  C   UNL d   1       0.627  -0.999  -1.069  0.00  0.00     0.172 C 
ATOM      2  N   UNL d   1      -0.073  -0.479   0.082  0.00  0.00    -0.070 N 
ATOM      3  C1  UNL d   1      -1.400  -0.144   0.124  0.00  0.00    -0.004 A 
ATOM      4  C2  UNL d   1      -1.680   0.310   1.395  0.00  0.00    -0.047 A 
ATOM      5  C3  UNL d   1      -0.480   0.245   2.142  0.00  0.00    -0.047 A 
ATOM      6  C4  UNL d   1       0.499  -0.246   1.304  0.00  0.00    -0.004 A 
ENDROOT
TORSDOF 0
ENDMDL
