MODEL 1
REMARK minimizedAffinity -2.52792954
REMARK minimizedRMSD -1
REMARK  0 active torsions:
REMARK  status: ('A' for Active; 'I' for Inactive)
ROOT
ATOM      1  C   UNL d   1       0.682  -0.298  -0.764  0.00  0.00     0.172 C 
ATOM      2  N   UNL d   1       0.926  -0.022  -2.160  0.00  0.00    -0.070 N 
ATOM      3  C1  UNL d   1       0.073  -0.309  -3.191  0.00  0.00    -0.004 A 
ATOM      4  C2  UNL d   1       0.669   0.109  -4.361  0.00  0.00    -0.047 A 
ATOM      5  C3  UNL d   1       1.925   0.665  -4.021  0.00  0.00    -0.047 A 
ATOM      6  C4  UNL d   1       2.059   0.571  -2.652  0.00  0.00    -0.004 A 
ENDROOT
TORSDOF 0
ENDMDL
