MODEL 1
REMARK minimizedAffinity -2.01817083
REMARK minimizedRMSD -1
REMARK  0 active torsions:
REMARK  status: ('A' for Active; 'I' for Inactive)
ROOT
ATOM      1  C   UNL d   1      -2.003   1.087   1.731  0.00  0.00     0.172 C 
ATOM      2  N   UNL d   1      -1.193   0.186   0.945  0.00  0.00    -0.070 N 
ATOM      3  C1  UNL d   1      -1.662  -0.706   0.018  0.00  0.00    -0.004 A 
ATOM      4  C2  UNL d   1      -0.578  -1.374  -0.510  0.00  0.00    -0.047 A 
ATOM      5  C3  UNL d   1       0.581  -0.867   0.122  0.00  0.00    -0.047 A 
ATOM      6  C4  UNL d   1       0.172   0.098   1.018  0.00  0.00    -0.004 A 
ENDROOT
TORSDOF 0
ENDMDL
