MODEL 1
REMARK minimizedAffinity -1.3699981
REMARK minimizedRMSD -1
REMARK  0 active torsions:
REMARK  status: ('A' for Active; 'I' for Inactive)
ROOT
ATOM      1  C   UNL d   1       0.517  -0.145  -2.798  0.00  0.00     0.172 C 
ATOM      2  N   UNL d   1      -0.007  -0.155  -1.452  0.00  0.00    -0.070 N 
ATOM      3  C1  UNL d   1      -1.144   0.482  -1.033  0.00  0.00    -0.004 A 
ATOM      4  C2  UNL d   1      -1.298   0.228   0.312  0.00  0.00    -0.047 A 
ATOM      5  C3  UNL d   1      -0.217  -0.590   0.716  0.00  0.00    -0.047 A 
ATOM      6  C4  UNL d   1       0.568  -0.812  -0.396  0.00  0.00    -0.004 A 
ENDROOT
TORSDOF 0
ENDMDL
