MODEL 1
REMARK minimizedAffinity 8.75805473
REMARK minimizedRMSD -1
REMARK  0 active torsions:
REMARK  status: ('A' for Active; 'I' for Inactive)
ROOT
ATOM      1  C   UNL d   1      -4.131  -0.395   2.062  0.00  0.00    -0.002 A 
ATOM      2  C1  UNL d   1      -5.156   0.326   2.659  0.00  0.00     0.010 A 
ATOM      3  C2  UNL d   1      -5.789  -0.156   3.806  0.00  0.00     0.041 A 
ATOM      4  C3  UNL d   1      -5.370  -1.386   4.350  0.00  0.00    -0.075 A 
ATOM      5  S   UNL d   1      -6.000  -2.172   5.750  0.00  0.00     0.015 SA
ATOM      6  C4  UNL d   1      -4.923  -3.483   5.590  0.00  0.00     0.022 A 
ATOM      7  C5  UNL d   1      -4.096  -3.341   4.500  0.00  0.00     0.026 A 
ATOM      8  C6  UNL d   1      -4.340  -2.130   3.768  0.00  0.00    -0.082 A 
ATOM      9  C7  UNL d   1      -3.718  -1.615   2.605  0.00  0.00     0.045 A 
ENDROOT
TORSDOF 0
ENDMDL
