MODEL 1
REMARK minimizedAffinity 6.24788237
REMARK minimizedRMSD -1
REMARK  0 active torsions:
REMARK  status: ('A' for Active; 'I' for Inactive)
ROOT
ATOM      1  C   UNL d   1      -4.323   3.521  -3.204  0.00  0.00    -0.002 A 
ATOM      2  C1  UNL d   1      -3.681   3.315  -4.418  0.00  0.00     0.010 A 
ATOM      3  C2  UNL d   1      -2.387   3.796  -4.627  0.00  0.00     0.041 A 
ATOM      4  C3  UNL d   1      -1.742   4.492  -3.586  0.00  0.00    -0.075 A 
ATOM      5  S   UNL d   1      -0.157   5.171  -3.615  0.00  0.00     0.015 SA
ATOM      6  C4  UNL d   1      -0.295   5.749  -2.018  0.00  0.00     0.022 A 
ATOM      7  C5  UNL d   1      -1.513   5.441  -1.461  0.00  0.00     0.026 A 
ATOM      8  C6  UNL d   1      -2.367   4.711  -2.355  0.00  0.00    -0.082 A 
ATOM      9  C7  UNL d   1      -3.680   4.212  -2.174  0.00  0.00     0.045 A 
ENDROOT
TORSDOF 0
ENDMDL
