MODEL 1
REMARK minimizedAffinity 13.8496695
REMARK minimizedRMSD -1
REMARK  0 active torsions:
REMARK  status: ('A' for Active; 'I' for Inactive)
ROOT
ATOM      1  C   UNL d   1      -2.789   4.881  -3.672  0.00  0.00    -0.002 A 
ATOM      2  C1  UNL d   1      -3.333   3.635  -3.394  0.00  0.00     0.010 A 
ATOM      3  C2  UNL d   1      -2.675   2.749  -2.538  0.00  0.00     0.041 A 
ATOM      4  C3  UNL d   1      -1.452   3.141  -1.960  0.00  0.00    -0.075 A 
ATOM      5  S   UNL d   1      -0.470   2.221  -0.881  0.00  0.00     0.015 SA
ATOM      6  C4  UNL d   1       0.693   3.462  -0.764  0.00  0.00     0.022 A 
ATOM      7  C5  UNL d   1       0.357   4.557  -1.523  0.00  0.00     0.026 A 
ATOM      8  C6  UNL d   1      -0.885   4.391  -2.224  0.00  0.00    -0.082 A 
ATOM      9  C7  UNL d   1      -1.576   5.266  -3.097  0.00  0.00     0.045 A 
ENDROOT
TORSDOF 0
ENDMDL
