MODEL 1
REMARK minimizedAffinity 2.26966453
REMARK minimizedRMSD -1
REMARK  0 active torsions:
REMARK  status: ('A' for Active; 'I' for Inactive)
ROOT
ATOM      1  C   UNL d   1      -5.996  -4.171   5.384  0.00  0.00    -0.002 A 
ATOM      2  C1  UNL d   1      -5.992  -4.272   4.000  0.00  0.00     0.010 A 
ATOM      3  C2  UNL d   1      -5.992  -3.124   3.204  0.00  0.00     0.041 A 
ATOM      4  C3  UNL d   1      -5.994  -1.862   3.829  0.00  0.00    -0.075 A 
ATOM      5  S   UNL d   1      -5.994  -0.320   3.057  0.00  0.00     0.015 SA
ATOM      6  C4  UNL d   1      -5.998   0.509   4.546  0.00  0.00     0.022 A 
ATOM      7  C5  UNL d   1      -6.000  -0.354   5.617  0.00  0.00     0.026 A 
ATOM      8  C6  UNL d   1      -5.997  -1.735   5.221  0.00  0.00    -0.082 A 
ATOM      9  C7  UNL d   1      -5.998  -2.917   6.000  0.00  0.00     0.045 A 
ENDROOT
TORSDOF 0
ENDMDL
