MODEL 1
REMARK minimizedAffinity 9.35032463
REMARK minimizedRMSD -1
REMARK  0 active torsions:
REMARK  status: ('A' for Active; 'I' for Inactive)
ROOT
ATOM      1  C   UNL d   1      -0.697   5.287  -2.429  0.00  0.00    -0.002 A 
ATOM      2  C1  UNL d   1      -1.062   5.992  -1.292  0.00  0.00     0.010 A 
ATOM      3  C2  UNL d   1      -1.028   5.382  -0.036  0.00  0.00     0.041 A 
ATOM      4  C3  UNL d   1      -0.614   4.039   0.058  0.00  0.00    -0.075 A 
ATOM      5  S   UNL d   1      -0.493   3.086   1.490  0.00  0.00     0.015 SA
ATOM      6  C4  UNL d   1       0.048   1.721   0.625  0.00  0.00     0.022 A 
ATOM      7  C5  UNL d   1       0.139   1.968  -0.724  0.00  0.00     0.026 A 
ATOM      8  C6  UNL d   1      -0.241   3.308  -1.073  0.00  0.00    -0.082 A 
ATOM      9  C7  UNL d   1      -0.287   3.954  -2.332  0.00  0.00     0.045 A 
ENDROOT
TORSDOF 0
ENDMDL
