MODEL 1
REMARK minimizedAffinity -2.38495278
REMARK minimizedRMSD -1
REMARK  0 active torsions:
REMARK  status: ('A' for Active; 'I' for Inactive)
ROOT
ATOM      1  C   UNL d   1      -1.140  -3.946  -5.990  0.00  0.00    -0.002 A 
ATOM      2  C1  UNL d   1      -1.282  -5.327  -5.989  0.00  0.00     0.010 A 
ATOM      3  C2  UNL d   1      -2.550  -5.911  -5.989  0.00  0.00     0.041 A 
ATOM      4  C3  UNL d   1      -3.685  -5.076  -5.993  0.00  0.00    -0.075 A 
ATOM      5  S   UNL d   1      -5.338  -5.568  -5.996  0.00  0.00     0.015 SA
ATOM      6  C4  UNL d   1      -5.894  -3.957  -6.000  0.00  0.00     0.022 A 
ATOM      7  C5  UNL d   1      -4.858  -3.053  -5.999  0.00  0.00     0.026 A 
ATOM      8  C6  UNL d   1      -3.568  -3.683  -5.996  0.00  0.00    -0.082 A 
ATOM      9  C7  UNL d   1      -2.268  -3.121  -5.994  0.00  0.00     0.045 A 
ENDROOT
TORSDOF 0
ENDMDL
