MODEL 1
REMARK minimizedAffinity 9.38675022
REMARK minimizedRMSD -1
REMARK  0 active torsions:
REMARK  status: ('A' for Active; 'I' for Inactive)
ROOT
ATOM      1  C   UNL d   1      -0.759  -1.742  -5.919  0.00  0.00    -0.002 A 
ATOM      2  C1  UNL d   1       0.185  -2.759  -5.908  0.00  0.00     0.010 A 
ATOM      3  C2  UNL d   1      -0.212  -4.097  -5.922  0.00  0.00     0.041 A 
ATOM      4  C3  UNL d   1      -1.588  -4.399  -5.948  0.00  0.00    -0.075 A 
ATOM      5  S   UNL d   1      -2.308  -5.966  -5.970  0.00  0.00     0.015 SA
ATOM      6  C4  UNL d   1      -3.886  -5.322  -5.995  0.00  0.00     0.022 A 
ATOM      7  C5  UNL d   1      -3.882  -3.947  -5.987  0.00  0.00     0.026 A 
ATOM      8  C6  UNL d   1      -2.558  -3.393  -5.961  0.00  0.00    -0.082 A 
ATOM      9  C7  UNL d   1      -2.123  -2.046  -5.946  0.00  0.00     0.045 A 
ENDROOT
TORSDOF 0
ENDMDL
