MODEL 1
REMARK minimizedAffinity 5.87032747
REMARK minimizedRMSD -1
REMARK  0 active torsions:
REMARK  status: ('A' for Active; 'I' for Inactive)
ROOT
ATOM      1  C   UNL d   1      -4.518  -4.476  -5.998  0.00  0.00    -0.002 A 
ATOM      2  C1  UNL d   1      -3.940  -5.737  -5.996  0.00  0.00     0.010 A 
ATOM      3  C2  UNL d   1      -2.552  -5.883  -5.997  0.00  0.00     0.041 A 
ATOM      4  C3  UNL d   1      -1.745  -4.728  -5.998  0.00  0.00    -0.075 A 
ATOM      5  S   UNL d   1      -0.023  -4.662  -5.998  0.00  0.00     0.015 SA
ATOM      6  C4  UNL d   1      -0.013  -2.958  -5.999  0.00  0.00     0.022 A 
ATOM      7  C5  UNL d   1      -1.284  -2.435  -5.999  0.00  0.00     0.026 A 
ATOM      8  C6  UNL d   1      -2.304  -3.446  -5.998  0.00  0.00    -0.082 A 
ATOM      9  C7  UNL d   1      -3.715  -3.332  -5.998  0.00  0.00     0.045 A 
ENDROOT
TORSDOF 0
ENDMDL
