MODEL 1
REMARK minimizedAffinity 3.9892087
REMARK minimizedRMSD -1
REMARK  1 active torsions:
REMARK  status: ('A' for Active; 'I' for Inactive)
REMARK    1  A    between atoms: C1_2  and  C2_3 
ROOT
ATOM      1  C2  UNL d   1      -5.012   3.104  -0.659  0.00  0.00    -0.076 A 
ATOM      2  C3  UNL d   1      -5.535   3.425   0.606  0.00  0.00     0.004 A 
ATOM      3  C4  UNL d   1      -4.701   3.563   1.713  0.00  0.00    -0.003 A 
ATOM      4  C5  UNL d   1      -3.329   3.383   1.574  0.00  0.00     0.000 A 
ATOM      5  C6  UNL d   1      -2.791   3.082   0.324  0.00  0.00     0.000 A 
ATOM      6  C7  UNL d   1      -3.616   2.956  -0.806  0.00  0.00    -0.073 A 
ATOM      7  C8  UNL d   1      -2.983   2.624  -2.130  0.00  0.00     0.078 C 
ENDROOT
BRANCH   1   8
ATOM      8  C1  UNL d   1      -5.969   2.941  -1.819  0.00  0.00     0.053 C 
ATOM      9  C   UNL d   1      -5.256   2.604  -3.119  0.00  0.00     0.018 C 
ENDBRANCH   1   8
TORSDOF 1
ENDMDL
