MODEL 1
REMARK minimizedAffinity 9.32495594
REMARK minimizedRMSD -1
REMARK  1 active torsions:
REMARK  status: ('A' for Active; 'I' for Inactive)
REMARK    1  A    between atoms: C1_2  and  C2_3 
ROOT
ATOM      1  C2  UNL d   1       2.236  -3.610   4.094  0.00  0.00    -0.076 A 
ATOM      2  C3  UNL d   1       1.519  -3.403   5.285  0.00  0.00     0.004 A 
ATOM      3  C4  UNL d   1       0.989  -4.476   6.000  0.00  0.00    -0.003 A 
ATOM      4  C5  UNL d   1       1.170  -5.775   5.535  0.00  0.00     0.000 A 
ATOM      5  C6  UNL d   1       1.894  -6.000   4.365  0.00  0.00     0.000 A 
ATOM      6  C7  UNL d   1       2.448  -4.930   3.641  0.00  0.00    -0.073 A 
ATOM      7  C8  UNL d   1       3.214  -5.230   2.382  0.00  0.00     0.078 C 
ENDROOT
BRANCH   1   8
ATOM      8  C1  UNL d   1       2.763  -2.406   3.347  0.00  0.00     0.053 C 
ATOM      9  C   UNL d   1       1.668  -1.408   3.003  0.00  0.00     0.018 C 
ENDBRANCH   1   8
TORSDOF 1
ENDMDL
