MODEL 1
REMARK minimizedAffinity 10.3441257
REMARK minimizedRMSD -1
REMARK  1 active torsions:
REMARK  status: ('A' for Active; 'I' for Inactive)
REMARK    1  A    between atoms: C1_2  and  C2_3 
ROOT
ATOM      1  C2  UNL d   1      -5.607  -0.210  -4.298  0.00  0.00    -0.076 A 
ATOM      2  C3  UNL d   1      -5.465   0.708  -5.353  0.00  0.00     0.004 A 
ATOM      3  C4  UNL d   1      -5.592   2.079  -5.132  0.00  0.00    -0.003 A 
ATOM      4  C5  UNL d   1      -5.863   2.553  -3.854  0.00  0.00     0.000 A 
ATOM      5  C6  UNL d   1      -5.989   1.658  -2.792  0.00  0.00     0.000 A 
ATOM      6  C7  UNL d   1      -5.848   0.274  -2.994  0.00  0.00    -0.073 A 
ATOM      7  C8  UNL d   1      -6.000  -0.647  -1.815  0.00  0.00     0.078 C 
ENDROOT
BRANCH   1   8
ATOM      8  C1  UNL d   1      -5.485  -1.686  -4.602  0.00  0.00     0.053 C 
ATOM      9  C   UNL d   1      -5.973  -2.036  -5.999  0.00  0.00     0.018 C 
ENDBRANCH   1   8
TORSDOF 1
ENDMDL
