MODEL 1
REMARK minimizedAffinity 13.5675926
REMARK minimizedRMSD -1
REMARK  1 active torsions:
REMARK  status: ('A' for Active; 'I' for Inactive)
REMARK    1  A    between atoms: C1_2  and  C2_3 
ROOT
ATOM      1  C2  UNL d   1       1.859  -2.589   3.799  0.00  0.00    -0.076 A 
ATOM      2  C3  UNL d   1       0.681  -3.303   4.080  0.00  0.00     0.004 A 
ATOM      3  C4  UNL d   1       0.705  -4.685   4.256  0.00  0.00    -0.003 A 
ATOM      4  C5  UNL d   1       1.907  -5.377   4.154  0.00  0.00     0.000 A 
ATOM      5  C6  UNL d   1       3.088  -4.683   3.893  0.00  0.00     0.000 A 
ATOM      6  C7  UNL d   1       3.084  -3.287   3.729  0.00  0.00    -0.073 A 
ATOM      7  C8  UNL d   1       4.386  -2.590   3.444  0.00  0.00     0.078 C 
ENDROOT
BRANCH   1   8
ATOM      8  C1  UNL d   1       1.768  -1.094   3.591  0.00  0.00     0.053 C 
ATOM      9  C   UNL d   1       1.550  -0.721   2.133  0.00  0.00     0.018 C 
ENDBRANCH   1   8
TORSDOF 1
ENDMDL
