MODEL 1
REMARK minimizedAffinity -1.0273844
REMARK minimizedRMSD -1
REMARK  1 active torsions:
REMARK  status: ('A' for Active; 'I' for Inactive)
REMARK    1  A    between atoms: C1_2  and  C2_3 
ROOT
ATOM      1  C2  UNL d   1       3.949   0.607  -4.559  0.00  0.00    -0.076 A 
ATOM      2  C3  UNL d   1       3.343   1.876  -4.552  0.00  0.00     0.004 A 
ATOM      3  C4  UNL d   1       4.058   3.013  -4.925  0.00  0.00    -0.003 A 
ATOM      4  C5  UNL d   1       5.389   2.900  -5.311  0.00  0.00     0.000 A 
ATOM      5  C6  UNL d   1       6.000   1.647  -5.340  0.00  0.00     0.000 A 
ATOM      6  C7  UNL d   1       5.289   0.489  -4.983  0.00  0.00    -0.073 A 
ATOM      7  C8  UNL d   1       6.000  -0.836  -5.027  0.00  0.00     0.078 C 
ENDROOT
BRANCH   1   8
ATOM      8  C1  UNL d   1       3.132  -0.587  -4.118  0.00  0.00     0.053 C 
ATOM      9  C   UNL d   1       3.077  -0.729  -2.605  0.00  0.00     0.018 C 
ENDBRANCH   1   8
TORSDOF 1
ENDMDL
