MODEL 1
REMARK minimizedAffinity 12.8932142
REMARK minimizedRMSD -1
REMARK  1 active torsions:
REMARK  status: ('A' for Active; 'I' for Inactive)
REMARK    1  A    between atoms: C1_2  and  C2_3 
ROOT
ATOM      1  C2  UNL d   1       0.719  -0.799   0.786  0.00  0.00    -0.076 A 
ATOM      2  C3  UNL d   1       1.325  -1.851   0.077  0.00  0.00     0.004 A 
ATOM      3  C4  UNL d   1       0.634  -2.535  -0.922  0.00  0.00    -0.003 A 
ATOM      4  C5  UNL d   1      -0.674  -2.177  -1.228  0.00  0.00     0.000 A 
ATOM      5  C6  UNL d   1      -1.285  -1.124  -0.548  0.00  0.00     0.000 A 
ATOM      6  C7  UNL d   1      -0.597  -0.414   0.451  0.00  0.00    -0.073 A 
ATOM      7  C8  UNL d   1      -1.306   0.709   1.157  0.00  0.00     0.078 C 
ENDROOT
BRANCH   1   8
ATOM      8  C1  UNL d   1       1.509  -0.112   1.877  0.00  0.00     0.053 C 
ATOM      9  C   UNL d   1       2.303  -1.092   2.727  0.00  0.00     0.018 C 
ENDBRANCH   1   8
TORSDOF 1
ENDMDL
