MODEL 1
REMARK minimizedAffinity -4.44183826
REMARK minimizedRMSD -1
REMARK  0 active torsions:
REMARK  status: ('A' for Active; 'I' for Inactive)
ROOT
ATOM      1  C1  BNZ d   1       0.590   0.276   1.756  0.00  0.00     0.000 A 
ATOM      2  C2  BNZ d   1      -0.195   0.126   0.645  0.00  0.00     0.000 A 
ATOM      3  C3  BNZ d   1      -1.480  -0.327   0.752  0.00  0.00     0.000 A 
ATOM      4  C4  BNZ d   1      -1.965  -0.667   1.964  0.00  0.00     0.000 A 
ATOM      5  C5  BNZ d   1      -1.182  -0.529   3.093  0.00  0.00     0.000 A 
ATOM      6  C6  BNZ d   1       0.098  -0.036   2.986  0.00  0.00     0.000 A 
ENDROOT
TORSDOF 0
ENDMDL
