MODEL 1
REMARK minimizedAffinity -4.35705376
REMARK minimizedRMSD -1
REMARK  0 active torsions:
REMARK  status: ('A' for Active; 'I' for Inactive)
ROOT
ATOM      1  C1  BNZ d   1      -0.855   0.085   1.746  0.00  0.00     0.000 A 
ATOM      2  C2  BNZ d   1      -1.488   0.197   0.537  0.00  0.00     0.000 A 
ATOM      3  C3  BNZ d   1      -0.789   0.529  -0.590  0.00  0.00     0.000 A 
ATOM      4  C4  BNZ d   1       0.531   0.788  -0.500  0.00  0.00     0.000 A 
ATOM      5  C5  BNZ d   1       1.182   0.689   0.714  0.00  0.00     0.000 A 
ATOM      6  C6  BNZ d   1       0.483   0.316   1.839  0.00  0.00     0.000 A 
ENDROOT
TORSDOF 0
ENDMDL
