MODEL 1
REMARK minimizedAffinity -4.63942242
REMARK minimizedRMSD -1
REMARK  0 active torsions:
REMARK  status: ('A' for Active; 'I' for Inactive)
ROOT
ATOM      1  C1  BNZ d   1      -1.060  -0.232   1.963  0.00  0.00     0.000 A 
ATOM      2  C2  BNZ d   1      -0.619  -0.203   0.667  0.00  0.00     0.000 A 
ATOM      3  C3  BNZ d   1       0.653   0.200   0.369  0.00  0.00     0.000 A 
ATOM      4  C4  BNZ d   1       1.467   0.612   1.362  0.00  0.00     0.000 A 
ATOM      5  C5  BNZ d   1       1.034   0.598   2.673  0.00  0.00     0.000 A 
ATOM      6  C6  BNZ d   1      -0.234   0.154   2.973  0.00  0.00     0.000 A 
ENDROOT
TORSDOF 0
ENDMDL
