MODEL 1
REMARK minimizedAffinity -4.80446053
REMARK minimizedRMSD -1
REMARK  0 active torsions:
REMARK  status: ('A' for Active; 'I' for Inactive)
ROOT
ATOM      1  C1  BNZ d   1       0.953   0.384   1.432  0.00  0.00     0.000 A 
ATOM      2  C2  BNZ d   1       0.171   0.172   0.327  0.00  0.00     0.000 A 
ATOM      3  C3  BNZ d   1      -1.150  -0.153   0.457  0.00  0.00     0.000 A 
ATOM      4  C4  BNZ d   1      -1.678  -0.303   1.689  0.00  0.00     0.000 A 
ATOM      5  C5  BNZ d   1      -0.901  -0.102   2.812  0.00  0.00     0.000 A 
ATOM      6  C6  BNZ d   1       0.419   0.263   2.678  0.00  0.00     0.000 A 
ENDROOT
TORSDOF 0
ENDMDL
