MODEL 1
REMARK minimizedAffinity -3.21973944
REMARK minimizedRMSD -1
REMARK  0 active torsions:
REMARK  status: ('A' for Active; 'I' for Inactive)
ROOT
ATOM      1  C1  BNZ d   1      -1.499  -1.330   2.566  0.00  0.00     0.000 A 
ATOM      2  C2  BNZ d   1      -0.798  -0.757   3.593  0.00  0.00     0.000 A 
ATOM      3  C3  BNZ d   1       0.167   0.179   3.346  0.00  0.00     0.000 A 
ATOM      4  C4  BNZ d   1       0.457   0.511   2.072  0.00  0.00     0.000 A 
ATOM      5  C5  BNZ d   1      -0.234  -0.064   1.024  0.00  0.00     0.000 A 
ATOM      6  C6  BNZ d   1      -1.232  -0.977   1.279  0.00  0.00     0.000 A 
ENDROOT
TORSDOF 0
ENDMDL
