MODEL 1
REMARK minimizedAffinity -4.74688339
REMARK minimizedRMSD -1
REMARK  0 active torsions:
REMARK  status: ('A' for Active; 'I' for Inactive)
ROOT
ATOM      1  C1  BNZ d   1       1.203   0.620   1.439  0.00  0.00     0.000 A 
ATOM      2  C2  BNZ d   1       0.714   0.090   2.603  0.00  0.00     0.000 A 
ATOM      3  C3  BNZ d   1      -0.510  -0.518   2.636  0.00  0.00     0.000 A 
ATOM      4  C4  BNZ d   1      -1.259  -0.559   1.515  0.00  0.00     0.000 A 
ATOM      5  C5  BNZ d   1      -0.784  -0.021   0.336  0.00  0.00     0.000 A 
ATOM      6  C6  BNZ d   1       0.465   0.556   0.298  0.00  0.00     0.000 A 
ENDROOT
TORSDOF 0
ENDMDL
