MODEL 1
REMARK minimizedAffinity -3.64275932
REMARK minimizedRMSD -1
REMARK  0 active torsions:
REMARK  status: ('A' for Active; 'I' for Inactive)
ROOT
ATOM      1  C1  BNZ d   1      -0.009   0.503  -0.532  0.00  0.00     0.000 A 
ATOM      2  C2  BNZ d   1       0.588   0.318   0.687  0.00  0.00     0.000 A 
ATOM      3  C3  BNZ d   1      -0.164   0.175   1.819  0.00  0.00     0.000 A 
ATOM      4  C4  BNZ d   1      -1.508   0.256   1.738  0.00  0.00     0.000 A 
ATOM      5  C5  BNZ d   1      -2.124   0.451   0.518  0.00  0.00     0.000 A 
ATOM      6  C6  BNZ d   1      -1.366   0.557  -0.625  0.00  0.00     0.000 A 
ENDROOT
TORSDOF 0
ENDMDL
