MODEL 1
REMARK minimizedAffinity -4.19977236
REMARK minimizedRMSD -1
REMARK  0 active torsions:
REMARK  status: ('A' for Active; 'I' for Inactive)
ROOT
ATOM      1  C1  BNZ d   1      -1.626  -0.758   1.156  0.00  0.00     0.000 A 
ATOM      2  C2  BNZ d   1      -1.411  -0.938   2.497  0.00  0.00     0.000 A 
ATOM      3  C3  BNZ d   1      -0.430  -0.244   3.148  0.00  0.00     0.000 A 
ATOM      4  C4  BNZ d   1       0.361   0.597   2.451  0.00  0.00     0.000 A 
ATOM      5  C5  BNZ d   1       0.163   0.782   1.097  0.00  0.00     0.000 A 
ATOM      6  C6  BNZ d   1      -0.851   0.111   0.453  0.00  0.00     0.000 A 
ENDROOT
TORSDOF 0
ENDMDL
