MODEL 1
REMARK minimizedAffinity -3.97464347
REMARK minimizedRMSD -1
REMARK  0 active torsions:
REMARK  status: ('A' for Active; 'I' for Inactive)
ROOT
ATOM      1  C1  BNZ d   1      -1.880  -0.340   1.815  0.00  0.00     0.000 A 
ATOM      2  C2  BNZ d   1      -1.228  -0.252   0.614  0.00  0.00     0.000 A 
ATOM      3  C3  BNZ d   1       0.087   0.117   0.557  0.00  0.00     0.000 A 
ATOM      4  C4  BNZ d   1       0.736   0.435   1.696  0.00  0.00     0.000 A 
ATOM      5  C5  BNZ d   1       0.090   0.360   2.913  0.00  0.00     0.000 A 
ATOM      6  C6  BNZ d   1      -1.223  -0.049   2.971  0.00  0.00     0.000 A 
ENDROOT
TORSDOF 0
ENDMDL
