MODEL 1
REMARK minimizedAffinity -4.11373138
REMARK minimizedRMSD -1
REMARK  0 active torsions:
REMARK  status: ('A' for Active; 'I' for Inactive)
ROOT
ATOM      1  C1  BNZ d   1       0.879   0.394   1.799  0.00  0.00     0.000 A 
ATOM      2  C2  BNZ d   1       0.236   0.329   0.591  0.00  0.00     0.000 A 
ATOM      3  C3  BNZ d   1      -1.084  -0.017   0.519  0.00  0.00     0.000 A 
ATOM      4  C4  BNZ d   1      -1.749  -0.335   1.648  0.00  0.00     0.000 A 
ATOM      5  C5  BNZ d   1      -1.112  -0.284   2.872  0.00  0.00     0.000 A 
ATOM      6  C6  BNZ d   1       0.207   0.102   2.945  0.00  0.00     0.000 A 
ENDROOT
TORSDOF 0
ENDMDL
