MODEL 1
REMARK minimizedAffinity -3.58072686
REMARK minimizedRMSD -1
REMARK  0 active torsions:
REMARK  status: ('A' for Active; 'I' for Inactive)
ROOT
ATOM      1  C1  BNZ d   1      -1.181  -0.184   0.208  0.00  0.00     0.000 A 
ATOM      2  C2  BNZ d   1      -0.607   0.311  -0.932  0.00  0.00     0.000 A 
ATOM      3  C3  BNZ d   1       0.700   0.712  -0.940  0.00  0.00     0.000 A 
ATOM      4  C4  BNZ d   1       1.418   0.654   0.200  0.00  0.00     0.000 A 
ATOM      5  C5  BNZ d   1       0.851   0.165   1.360  0.00  0.00     0.000 A 
ATOM      6  C6  BNZ d   1      -0.453  -0.274   1.354  0.00  0.00     0.000 A 
ENDROOT
TORSDOF 0
ENDMDL
