MODEL 1
REMARK minimizedAffinity -4.87448072
REMARK minimizedRMSD -1
REMARK  0 active torsions:
REMARK  status: ('A' for Active; 'I' for Inactive)
ROOT
ATOM      1  C1  BNZ d   1      -1.021  -0.050   0.481  0.00  0.00     0.000 A 
ATOM      2  C2  BNZ d   1      -2.334  -0.056   0.872  0.00  0.00     0.000 A 
ATOM      3  C3  BNZ d   1      -2.671  -0.180   2.191  0.00  0.00     0.000 A 
ATOM      4  C4  BNZ d   1      -1.698  -0.337   3.112  0.00  0.00     0.000 A 
ATOM      5  C5  BNZ d   1      -0.371  -0.342   2.733  0.00  0.00     0.000 A 
ATOM      6  C6  BNZ d   1      -0.034  -0.178   1.408  0.00  0.00     0.000 A 
ENDROOT
TORSDOF 0
ENDMDL
