MODEL 1
REMARK minimizedAffinity -4.01453733
REMARK minimizedRMSD -1
REMARK  0 active torsions:
REMARK  status: ('A' for Active; 'I' for Inactive)
ROOT
ATOM      1  C1  BNZ d   1       1.157   0.805   1.069  0.00  0.00     0.000 A 
ATOM      2  C2  BNZ d   1       0.521   0.226   2.134  0.00  0.00     0.000 A 
ATOM      3  C3  BNZ d   1      -0.728  -0.310   1.996  0.00  0.00     0.000 A 
ATOM      4  C4  BNZ d   1      -1.355  -0.232   0.804  0.00  0.00     0.000 A 
ATOM      5  C5  BNZ d   1      -0.731   0.357  -0.277  0.00  0.00     0.000 A 
ATOM      6  C6  BNZ d   1       0.543   0.861  -0.144  0.00  0.00     0.000 A 
ENDROOT
TORSDOF 0
ENDMDL
