MODEL 1
REMARK minimizedAffinity -4.70392513
REMARK minimizedRMSD -1
REMARK  0 active torsions:
REMARK  status: ('A' for Active; 'I' for Inactive)
ROOT
ATOM      1  C1  BNZ d   1       1.142  -0.010   2.281  0.00  0.00     0.000 A 
ATOM      2  C2  BNZ d   1      -0.074  -0.624   2.143  0.00  0.00     0.000 A 
ATOM      3  C3  BNZ d   1      -0.731  -0.614   0.944  0.00  0.00     0.000 A 
ATOM      4  C4  BNZ d   1      -0.191   0.043  -0.102  0.00  0.00     0.000 A 
ATOM      5  C5  BNZ d   1       1.030   0.675   0.024  0.00  0.00     0.000 A 
ATOM      6  C6  BNZ d   1       1.706   0.630   1.221  0.00  0.00     0.000 A 
ENDROOT
TORSDOF 0
ENDMDL
