MODEL 1
REMARK minimizedAffinity -5.1330595
REMARK minimizedRMSD -1
REMARK  0 active torsions:
REMARK  status: ('A' for Active; 'I' for Inactive)
ROOT
ATOM      1  C1  BNZ d   1       0.118  -0.786   2.952  0.00  0.00     0.000 A 
ATOM      2  C2  BNZ d   1       0.768   0.001   2.038  0.00  0.00     0.000 A 
ATOM      3  C3  BNZ d   1       0.126   0.446   0.916  0.00  0.00     0.000 A 
ATOM      4  C4  BNZ d   1      -1.149   0.071   0.689  0.00  0.00     0.000 A 
ATOM      5  C5  BNZ d   1      -1.815  -0.730   1.596  0.00  0.00     0.000 A 
ATOM      6  C6  BNZ d   1      -1.178  -1.144   2.743  0.00  0.00     0.000 A 
ENDROOT
TORSDOF 0
ENDMDL
