MODEL 1
REMARK minimizedAffinity -5.41603374
REMARK minimizedRMSD -1
REMARK  0 active torsions:
REMARK  status: ('A' for Active; 'I' for Inactive)
ROOT
ATOM      1  C1  BNZ d   1       0.198  -0.056   1.800  0.00  0.00     0.000 A 
ATOM      2  C2  BNZ d   1      -0.368  -0.150   3.044  0.00  0.00     0.000 A 
ATOM      3  C3  BNZ d   1      -1.726  -0.113   3.199  0.00  0.00     0.000 A 
ATOM      4  C4  BNZ d   1      -2.513   0.058   2.117  0.00  0.00     0.000 A 
ATOM      5  C5  BNZ d   1      -1.957   0.163   0.858  0.00  0.00     0.000 A 
ATOM      6  C6  BNZ d   1      -0.592   0.087   0.701  0.00  0.00     0.000 A 
ENDROOT
TORSDOF 0
ENDMDL
