MODEL 1
REMARK minimizedAffinity -4.79360914
REMARK minimizedRMSD -1
REMARK  0 active torsions:
REMARK  status: ('A' for Active; 'I' for Inactive)
ROOT
ATOM      1  C1  BNZ d   1      -1.946  -0.661   2.297  0.00  0.00     0.000 A 
ATOM      2  C2  BNZ d   1      -1.198  -0.464   3.428  0.00  0.00     0.000 A 
ATOM      3  C3  BNZ d   1       0.072   0.033   3.348  0.00  0.00     0.000 A 
ATOM      4  C4  BNZ d   1       0.607   0.295   2.138  0.00  0.00     0.000 A 
ATOM      5  C5  BNZ d   1      -0.131   0.093   0.989  0.00  0.00     0.000 A 
ATOM      6  C6  BNZ d   1      -1.423  -0.371   1.075  0.00  0.00     0.000 A 
ENDROOT
TORSDOF 0
ENDMDL
