MODEL 1
REMARK minimizedAffinity -5.37190676
REMARK minimizedRMSD -1
REMARK  0 active torsions:
REMARK  status: ('A' for Active; 'I' for Inactive)
ROOT
ATOM      1  C2' OXE d   1      -0.480   1.060   2.614  0.00  0.00     0.078 C 
ATOM      2  C1' OXE d   1       2.015  -0.218   2.473  0.00  0.00     0.078 C 
ATOM      3  C1  OXE d   1       1.111  -0.307   1.270  0.00  0.00    -0.078 A 
ATOM      4  C2  OXE d   1      -0.128   0.281   1.365  0.00  0.00    -0.078 A 
ATOM      5  C3  OXE d   1      -0.980   0.276   0.264  0.00  0.00     0.003 A 
ATOM      6  C4  OXE d   1      -0.650  -0.455  -0.884  0.00  0.00    -0.002 A 
ATOM      7  C5  OXE d   1       0.590  -1.095  -0.986  0.00  0.00    -0.002 A 
ATOM      8  C6  OXE d   1       1.497  -0.995   0.063  0.00  0.00     0.003 A 
ENDROOT
TORSDOF 0
ENDMDL
