MODEL 1
REMARK minimizedAffinity -1.67023635
REMARK minimizedRMSD -1
REMARK  0 active torsions:
REMARK  status: ('A' for Active; 'I' for Inactive)
ROOT
ATOM      1  C2' OXE d   1      -1.696   0.700   2.319  0.00  0.00     0.078 C 
ATOM      2  C1' OXE d   1      -2.780  -0.378  -0.036  0.00  0.00     0.078 C 
ATOM      3  C1  OXE d   1      -1.286  -0.185   0.026  0.00  0.00    -0.078 A 
ATOM      4  C2  OXE d   1      -0.769   0.386   1.164  0.00  0.00    -0.078 A 
ATOM      5  C3  OXE d   1       0.609   0.536   1.296  0.00  0.00     0.003 A 
ATOM      6  C4  OXE d   1       1.459   0.253   0.219  0.00  0.00    -0.002 A 
ATOM      7  C5  OXE d   1       0.948  -0.293  -0.963  0.00  0.00    -0.002 A 
ATOM      8  C6  OXE d   1      -0.413  -0.557  -1.060  0.00  0.00     0.003 A 
ENDROOT
TORSDOF 0
ENDMDL
