MODEL 1
REMARK minimizedAffinity -4.23985052
REMARK minimizedRMSD -1
REMARK  0 active torsions:
REMARK  status: ('A' for Active; 'I' for Inactive)
ROOT
ATOM      1  C2' OXE d   1       0.572  -0.271  -0.642  0.00  0.00     0.078 C 
ATOM      2  C1' OXE d   1      -2.093   0.100   0.157  0.00  0.00     0.078 C 
ATOM      3  C1  OXE d   1      -1.019   0.244   1.205  0.00  0.00    -0.078 A 
ATOM      4  C2  OXE d   1       0.279   0.014   0.816  0.00  0.00    -0.078 A 
ATOM      5  C3  OXE d   1       1.314   0.187   1.730  0.00  0.00     0.003 A 
ATOM      6  C4  OXE d   1       1.034   0.441   3.078  0.00  0.00    -0.002 A 
ATOM      7  C5  OXE d   1      -0.284   0.639   3.504  0.00  0.00    -0.002 A 
ATOM      8  C6  OXE d   1      -1.316   0.586   2.574  0.00  0.00     0.003 A 
ENDROOT
TORSDOF 0
ENDMDL
