MODEL 1
REMARK minimizedAffinity -1.76502848
REMARK minimizedRMSD -1
REMARK  0 active torsions:
REMARK  status: ('A' for Active; 'I' for Inactive)
ROOT
ATOM      1  C2' OXE d   1       0.438  -0.785  -1.158  0.00  0.00     0.078 C 
ATOM      2  C1' OXE d   1       1.692  -0.218   1.288  0.00  0.00     0.078 C 
ATOM      3  C1  OXE d   1       0.231   0.127   1.150  0.00  0.00    -0.078 A 
ATOM      4  C2  OXE d   1      -0.363  -0.111  -0.066  0.00  0.00    -0.078 A 
ATOM      5  C3  OXE d   1      -1.723   0.139  -0.230  0.00  0.00     0.003 A 
ATOM      6  C4  OXE d   1      -2.454   0.772   0.782  0.00  0.00    -0.002 A 
ATOM      7  C5  OXE d   1      -1.859   1.060   2.015  0.00  0.00    -0.002 A 
ATOM      8  C6  OXE d   1      -0.531   0.706   2.229  0.00  0.00     0.003 A 
ENDROOT
TORSDOF 0
ENDMDL
