MODEL 1
REMARK minimizedAffinity -6.10599852
REMARK minimizedRMSD -1
REMARK  0 active torsions:
REMARK  status: ('A' for Active; 'I' for Inactive)
ROOT
ATOM      1  C2' OXE d   1      -2.757  -0.162  -0.264  0.00  0.00     0.078 C 
ATOM      2  C1' OXE d   1      -0.067  -0.466  -1.007  0.00  0.00     0.078 C 
ATOM      3  C1  OXE d   1      -0.361   0.176   0.326  0.00  0.00    -0.078 A 
ATOM      4  C2  OXE d   1      -1.680   0.363   0.660  0.00  0.00    -0.078 A 
ATOM      5  C3  OXE d   1      -2.007   0.901   1.902  0.00  0.00     0.003 A 
ATOM      6  C4  OXE d   1      -1.005   1.393   2.747  0.00  0.00    -0.002 A 
ATOM      7  C5  OXE d   1       0.345   1.248   2.408  0.00  0.00    -0.002 A 
ATOM      8  C6  OXE d   1       0.684   0.605   1.223  0.00  0.00     0.003 A 
ENDROOT
TORSDOF 0
ENDMDL
