MODEL 1
REMARK minimizedAffinity -4.83107567
REMARK minimizedRMSD -1
REMARK  0 active torsions:
REMARK  status: ('A' for Active; 'I' for Inactive)
ROOT
ATOM      1  C2' OXE d   1       0.917  -0.998  -0.806  0.00  0.00     0.078 C 
ATOM      2  C1' OXE d   1       2.139   0.088   1.476  0.00  0.00     0.078 C 
ATOM      3  C1  OXE d   1       0.654   0.296   1.306  0.00  0.00    -0.078 A 
ATOM      4  C2  OXE d   1       0.074  -0.199   0.163  0.00  0.00    -0.078 A 
ATOM      5  C3  OXE d   1      -1.302  -0.082  -0.017  0.00  0.00     0.003 A 
ATOM      6  C4  OXE d   1      -2.073   0.667   0.879  0.00  0.00    -0.002 A 
ATOM      7  C5  OXE d   1      -1.494   1.213   2.030  0.00  0.00    -0.002 A 
ATOM      8  C6  OXE d   1      -0.143   1.001   2.279  0.00  0.00     0.003 A 
ENDROOT
TORSDOF 0
ENDMDL
