MODEL 1
REMARK minimizedAffinity -1.60650277
REMARK minimizedRMSD -1
REMARK  0 active torsions:
REMARK  status: ('A' for Active; 'I' for Inactive)
ROOT
ATOM      1  C2' OXE d   1      -0.803   1.604   2.550  0.00  0.00     0.078 C 
ATOM      2  C1' OXE d   1       1.849   0.928   1.927  0.00  0.00     0.078 C 
ATOM      3  C1  OXE d   1       0.768   0.492   0.969  0.00  0.00    -0.078 A 
ATOM      4  C2  OXE d   1      -0.531   0.786   1.306  0.00  0.00    -0.078 A 
ATOM      5  C3  OXE d   1      -1.562   0.454   0.432  0.00  0.00     0.003 A 
ATOM      6  C4  OXE d   1      -1.303  -0.311  -0.712  0.00  0.00    -0.002 A 
ATOM      7  C5  OXE d   1       0.010  -0.656  -1.053  0.00  0.00    -0.002 A 
ATOM      8  C6  OXE d   1       1.058  -0.227  -0.247  0.00  0.00     0.003 A 
ENDROOT
TORSDOF 0
ENDMDL
