MODEL 1
REMARK minimizedAffinity 2.93977189
REMARK minimizedRMSD -1
REMARK  0 active torsions:
REMARK  status: ('A' for Active; 'I' for Inactive)
ROOT
ATOM      1  C   UNL d   1      -0.724  -1.752   0.116  0.00  0.00     0.172 C 
ATOM      2  N   UNL d   1      -1.601  -2.898   0.052  0.00  0.00    -0.070 N 
ATOM      3  C1  UNL d   1      -1.240  -4.194   0.308  0.00  0.00    -0.004 A 
ATOM      4  C2  UNL d   1      -2.358  -4.983   0.141  0.00  0.00    -0.047 A 
ATOM      5  C3  UNL d   1      -3.426  -4.132  -0.229  0.00  0.00    -0.047 A 
ATOM      6  C4  UNL d   1      -2.930  -2.846  -0.276  0.00  0.00    -0.004 A 
ENDROOT
TORSDOF 0
ENDMDL
