MODEL 1
REMARK minimizedAffinity -0.272031218
REMARK minimizedRMSD -1
REMARK  0 active torsions:
REMARK  status: ('A' for Active; 'I' for Inactive)
ROOT
ATOM      1  C   UNL d   1      -0.051  -0.683  -0.570  0.00  0.00     0.172 C 
ATOM      2  N   UNL d   1       0.802  -1.040  -1.679  0.00  0.00    -0.070 N 
ATOM      3  C1  UNL d   1       1.376  -0.163  -2.559  0.00  0.00    -0.004 A 
ATOM      4  C2  UNL d   1       2.112  -0.895  -3.466  0.00  0.00    -0.047 A 
ATOM      5  C3  UNL d   1       1.975  -2.260  -3.119  0.00  0.00    -0.047 A 
ATOM      6  C4  UNL d   1       1.158  -2.321  -2.009  0.00  0.00    -0.004 A 
ENDROOT
TORSDOF 0
ENDMDL
