MODEL 1
REMARK minimizedAffinity -0.140357241
REMARK minimizedRMSD -1
REMARK  0 active torsions:
REMARK  status: ('A' for Active; 'I' for Inactive)
ROOT
ATOM      1  C   UNL d   1       5.188   2.255   4.511  0.00  0.00     0.172 C 
ATOM      2  N   UNL d   1       5.352   0.867   4.874  0.00  0.00    -0.070 N 
ATOM      3  C1  UNL d   1       4.895  -0.205   4.156  0.00  0.00    -0.004 A 
ATOM      4  C2  UNL d   1       5.252  -1.350   4.833  0.00  0.00    -0.047 A 
ATOM      5  C3  UNL d   1       5.947  -0.953   6.000  0.00  0.00    -0.047 A 
ATOM      6  C4  UNL d   1       5.995   0.425   6.000  0.00  0.00    -0.004 A 
ENDROOT
TORSDOF 0
ENDMDL
