MODEL 1
REMARK minimizedAffinity 0.858125985
REMARK minimizedRMSD -1
REMARK  0 active torsions:
REMARK  status: ('A' for Active; 'I' for Inactive)
ROOT
ATOM      1  C   UNL d   1       4.556   5.999  -2.016  0.00  0.00     0.172 C 
ATOM      2  N   UNL d   1       4.114   5.288  -0.840  0.00  0.00    -0.070 N 
ATOM      3  C1  UNL d   1       3.661   3.996  -0.811  0.00  0.00    -0.004 A 
ATOM      4  C2  UNL d   1       3.338   3.691   0.494  0.00  0.00    -0.047 A 
ATOM      5  C3  UNL d   1       3.605   4.840   1.276  0.00  0.00    -0.047 A 
ATOM      6  C4  UNL d   1       4.084   5.813   0.425  0.00  0.00    -0.004 A 
ENDROOT
TORSDOF 0
ENDMDL
