MODEL 1
REMARK minimizedAffinity -2.50708079
REMARK minimizedRMSD -1
REMARK  0 active torsions:
REMARK  status: ('A' for Active; 'I' for Inactive)
ROOT
ATOM      1  C   UNL d   1       5.957   0.374   5.255  0.00  0.00     0.172 C 
ATOM      2  N   UNL d   1       5.629  -1.014   5.027  0.00  0.00    -0.070 N 
ATOM      3  C1  UNL d   1       5.462  -1.964   5.998  0.00  0.00    -0.004 A 
ATOM      4  C2  UNL d   1       5.159  -3.156   5.376  0.00  0.00    -0.047 A 
ATOM      5  C3  UNL d   1       5.144  -2.913   3.981  0.00  0.00    -0.047 A 
ATOM      6  C4  UNL d   1       5.439  -1.579   3.794  0.00  0.00    -0.004 A 
ENDROOT
TORSDOF 0
ENDMDL
