MODEL 1
REMARK minimizedAffinity -0.680050254
REMARK minimizedRMSD -1
REMARK  0 active torsions:
REMARK  status: ('A' for Active; 'I' for Inactive)
ROOT
ATOM      1  C   UNL d   1      -0.408  -0.292  -0.266  0.00  0.00     0.172 C 
ATOM      2  N   UNL d   1       0.419  -0.763  -1.352  0.00  0.00    -0.070 N 
ATOM      3  C1  UNL d   1       0.797  -0.028  -2.444  0.00  0.00    -0.004 A 
ATOM      4  C2  UNL d   1       1.579  -0.833  -3.244  0.00  0.00    -0.047 A 
ATOM      5  C3  UNL d   1       1.674  -2.095  -2.611  0.00  0.00    -0.047 A 
ATOM      6  C4  UNL d   1       0.946  -2.024  -1.442  0.00  0.00    -0.004 A 
ENDROOT
TORSDOF 0
ENDMDL
