MODEL 1
REMARK minimizedAffinity 3.73214221
REMARK minimizedRMSD -1
REMARK  0 active torsions:
REMARK  status: ('A' for Active; 'I' for Inactive)
ROOT
ATOM      1  C   UNL d   1       1.112  -0.659  -1.973  0.00  0.00     0.172 C 
ATOM      2  N   UNL d   1       1.488  -1.754  -2.836  0.00  0.00    -0.070 N 
ATOM      3  C1  UNL d   1       0.726  -2.862  -3.098  0.00  0.00    -0.004 A 
ATOM      4  C2  UNL d   1       1.435  -3.665  -3.965  0.00  0.00    -0.047 A 
ATOM      5  C3  UNL d   1       2.665  -3.019  -4.232  0.00  0.00    -0.047 A 
ATOM      6  C4  UNL d   1       2.671  -1.838  -3.521  0.00  0.00    -0.004 A 
ENDROOT
TORSDOF 0
ENDMDL
