MODEL 1
REMARK minimizedAffinity 1.44165993
REMARK minimizedRMSD -1
REMARK  0 active torsions:
REMARK  status: ('A' for Active; 'I' for Inactive)
ROOT
ATOM      1  C   UNL d   1       5.986   5.998   5.869  0.00  0.00     0.172 C 
ATOM      2  N   UNL d   1       5.485   5.580   4.581  0.00  0.00    -0.070 N 
ATOM      3  C1  UNL d   1       4.433   4.729   4.371  0.00  0.00    -0.004 A 
ATOM      4  C2  UNL d   1       4.272   4.584   3.010  0.00  0.00    -0.047 A 
ATOM      5  C3  UNL d   1       5.262   5.375   2.380  0.00  0.00    -0.047 A 
ATOM      6  C4  UNL d   1       5.999   5.980   3.376  0.00  0.00    -0.004 A 
ENDROOT
TORSDOF 0
ENDMDL
