MODEL 1
REMARK minimizedAffinity -2.36585855
REMARK minimizedRMSD -1
REMARK  0 active torsions:
REMARK  status: ('A' for Active; 'I' for Inactive)
ROOT
ATOM      1  C   UNL d   1       4.128   4.219   0.002  0.00  0.00     0.172 C 
ATOM      2  N   UNL d   1       4.641   4.675   1.272  0.00  0.00    -0.070 N 
ATOM      3  C1  UNL d   1       5.333   3.912   2.174  0.00  0.00    -0.004 A 
ATOM      4  C2  UNL d   1       5.645   4.711   3.252  0.00  0.00    -0.047 A 
ATOM      5  C3  UNL d   1       5.123   6.000   2.989  0.00  0.00    -0.047 A 
ATOM      6  C4  UNL d   1       4.506   5.950   1.757  0.00  0.00    -0.004 A 
ENDROOT
TORSDOF 0
ENDMDL
