MODEL 1
REMARK minimizedAffinity 0.671094298
REMARK minimizedRMSD -1
REMARK  0 active torsions:
REMARK  status: ('A' for Active; 'I' for Inactive)
ROOT
ATOM      1  C   UNL d   1       0.063  -3.055  -0.259  0.00  0.00     0.172 C 
ATOM      2  N   UNL d   1      -1.238  -3.549  -0.644  0.00  0.00    -0.070 N 
ATOM      3  C1  UNL d   1      -2.241  -2.803  -1.204  0.00  0.00    -0.004 A 
ATOM      4  C2  UNL d   1      -3.316  -3.638  -1.423  0.00  0.00    -0.047 A 
ATOM      5  C3  UNL d   1      -2.946  -4.930  -0.979  0.00  0.00    -0.047 A 
ATOM      6  C4  UNL d   1      -1.655  -4.846  -0.502  0.00  0.00    -0.004 A 
ENDROOT
TORSDOF 0
ENDMDL
