MODEL 1
REMARK minimizedAffinity -0.210147962
REMARK minimizedRMSD -1
REMARK  0 active torsions:
REMARK  status: ('A' for Active; 'I' for Inactive)
ROOT
ATOM      1  C   UNL d   1      -0.140  -2.609  -0.174  0.00  0.00     0.172 C 
ATOM      2  N   UNL d   1      -1.361  -3.277  -0.560  0.00  0.00    -0.070 N 
ATOM      3  C1  UNL d   1      -1.626  -4.610  -0.399  0.00  0.00    -0.004 A 
ATOM      4  C2  UNL d   1      -2.891  -4.851  -0.891  0.00  0.00    -0.047 A 
ATOM      5  C3  UNL d   1      -3.402  -3.620  -1.365  0.00  0.00    -0.047 A 
ATOM      6  C4  UNL d   1      -2.435  -2.662  -1.148  0.00  0.00    -0.004 A 
ENDROOT
TORSDOF 0
ENDMDL
