MODEL 1
REMARK minimizedAffinity 6.58048964
REMARK minimizedRMSD -1
REMARK  0 active torsions:
REMARK  status: ('A' for Active; 'I' for Inactive)
ROOT
ATOM      1  C   UNL d   1       1.841  -2.278  -1.154  0.00  0.00     0.172 C 
ATOM      2  N   UNL d   1       1.786  -2.615  -2.557  0.00  0.00    -0.070 N 
ATOM      3  C1  UNL d   1       1.956  -1.740  -3.596  0.00  0.00    -0.004 A 
ATOM      4  C2  UNL d   1       1.831  -2.449  -4.771  0.00  0.00    -0.047 A 
ATOM      5  C3  UNL d   1       1.576  -3.798  -4.426  0.00  0.00    -0.047 A 
ATOM      6  C4  UNL d   1       1.553  -3.872  -3.049  0.00  0.00    -0.004 A 
ENDROOT
TORSDOF 0
ENDMDL
