MODEL 1
REMARK minimizedAffinity -2.92095113
REMARK minimizedRMSD -1
REMARK  0 active torsions:
REMARK  status: ('A' for Active; 'I' for Inactive)
ROOT
ATOM      1  C   UNL d   1       5.580   1.766   3.836  0.00  0.00     0.172 C 
ATOM      2  N   UNL d   1       5.574   0.381   4.242  0.00  0.00    -0.070 N 
ATOM      3  C1  UNL d   1       5.555  -0.072   5.535  0.00  0.00    -0.004 A 
ATOM      4  C2  UNL d   1       5.555  -1.450   5.499  0.00  0.00    -0.047 A 
ATOM      5  C3  UNL d   1       5.575  -1.838   4.138  0.00  0.00    -0.047 A 
ATOM      6  C4  UNL d   1       5.586  -0.685   3.382  0.00  0.00    -0.004 A 
ENDROOT
TORSDOF 0
ENDMDL
