MODEL 1
REMARK minimizedAffinity 1.06763268
REMARK minimizedRMSD -1
REMARK  0 active torsions:
REMARK  status: ('A' for Active; 'I' for Inactive)
ROOT
ATOM      1  C   UNL d   1       0.187  -2.200  -0.402  0.00  0.00     0.172 C 
ATOM      2  N   UNL d   1      -1.177  -2.477  -0.787  0.00  0.00    -0.070 N 
ATOM      3  C1  UNL d   1      -1.675  -3.703  -1.136  0.00  0.00    -0.004 A 
ATOM      4  C2  UNL d   1      -3.012  -3.547  -1.433  0.00  0.00    -0.047 A 
ATOM      5  C3  UNL d   1      -3.328  -2.179  -1.257  0.00  0.00    -0.047 A 
ATOM      6  C4  UNL d   1      -2.174  -1.539  -0.857  0.00  0.00    -0.004 A 
ENDROOT
TORSDOF 0
ENDMDL
