MODEL 1
REMARK minimizedAffinity -3.17937279
REMARK minimizedRMSD -1
REMARK  0 active torsions:
REMARK  status: ('A' for Active; 'I' for Inactive)
ROOT
ATOM      1  C   UNL d   1       1.802   0.645  -3.971  0.00  0.00     0.172 C 
ATOM      2  N   UNL d   1       1.813  -0.486  -3.073  0.00  0.00    -0.070 N 
ATOM      3  C1  UNL d   1       1.246  -0.521  -1.827  0.00  0.00    -0.004 A 
ATOM      4  C2  UNL d   1       1.472  -1.772  -1.296  0.00  0.00    -0.047 A 
ATOM      5  C3  UNL d   1       2.201  -2.515  -2.255  0.00  0.00    -0.047 A 
ATOM      6  C4  UNL d   1       2.398  -1.694  -3.346  0.00  0.00    -0.004 A 
ENDROOT
TORSDOF 0
ENDMDL
