MODEL 1
REMARK minimizedAffinity -0.419030756
REMARK minimizedRMSD -1
REMARK  0 active torsions:
REMARK  status: ('A' for Active; 'I' for Inactive)
ROOT
ATOM      1  C   UNL d   1       4.498   5.998   3.245  0.00  0.00     0.172 C 
ATOM      2  N   UNL d   1       4.499   5.388   1.936  0.00  0.00    -0.070 N 
ATOM      3  C1  UNL d   1       4.121   6.000   0.771  0.00  0.00    -0.004 A 
ATOM      4  C2  UNL d   1       4.266   5.087  -0.251  0.00  0.00    -0.047 A 
ATOM      5  C3  UNL d   1       4.747   3.885   0.319  0.00  0.00    -0.047 A 
ATOM      6  C4  UNL d   1       4.883   4.100   1.675  0.00  0.00    -0.004 A 
ENDROOT
TORSDOF 0
ENDMDL
