MODEL 1
REMARK minimizedAffinity 0.721583664
REMARK minimizedRMSD -1
REMARK  0 active torsions:
REMARK  status: ('A' for Active; 'I' for Inactive)
ROOT
ATOM      1  C   UNL d   1      -2.833  -0.906   0.045  0.00  0.00     0.172 C 
ATOM      2  N   UNL d   1      -1.443  -0.516   0.045  0.00  0.00    -0.070 N 
ATOM      3  C1  UNL d   1      -0.418  -1.213   0.628  0.00  0.00    -0.004 A 
ATOM      4  C2  UNL d   1       0.748  -0.513   0.408  0.00  0.00    -0.047 A 
ATOM      5  C3  UNL d   1       0.413   0.645  -0.333  0.00  0.00    -0.047 A 
ATOM      6  C4  UNL d   1      -0.950   0.618  -0.543  0.00  0.00    -0.004 A 
ENDROOT
TORSDOF 0
ENDMDL
