MODEL 1
REMARK minimizedAffinity 0.640136957
REMARK minimizedRMSD -1
REMARK  0 active torsions:
REMARK  status: ('A' for Active; 'I' for Inactive)
ROOT
ATOM      1  C   UNL d   1       6.000   6.000   4.355  0.00  0.00     0.172 C 
ATOM      2  N   UNL d   1       5.330   4.729   4.204  0.00  0.00    -0.070 N 
ATOM      3  C1  UNL d   1       5.382   3.689   5.093  0.00  0.00    -0.004 A 
ATOM      4  C2  UNL d   1       4.613   2.663   4.588  0.00  0.00    -0.047 A 
ATOM      5  C3  UNL d   1       4.082   3.101   3.351  0.00  0.00    -0.047 A 
ATOM      6  C4  UNL d   1       4.542   4.384   3.138  0.00  0.00    -0.004 A 
ENDROOT
TORSDOF 0
ENDMDL
