MODEL 1
REMARK minimizedAffinity 3.7337923
REMARK minimizedRMSD -1
REMARK  1 active torsions:
REMARK  status: ('A' for Active; 'I' for Inactive)
REMARK    1  A    between atoms: C1_2  and  C2_3 
ROOT
ATOM      1  C2  UNL d   1       5.363   4.632   1.194  0.00  0.00    -0.081 A 
ATOM      2  C3  UNL d   1       6.000   3.871   0.207  0.00  0.00     0.006 A 
ATOM      3  C4  UNL d   1       5.408   2.701  -0.276  0.00  0.00     0.002 A 
ATOM      4  C5  UNL d   1       4.168   2.278   0.213  0.00  0.00    -0.080 A 
ATOM      5  C6  UNL d   1       3.508   1.040  -0.318  0.00  0.00     0.076 C 
ATOM      6  C7  UNL d   1       3.540   3.029   1.212  0.00  0.00     0.002 A 
ATOM      7  C8  UNL d   1       4.131   4.199   1.696  0.00  0.00     0.006 A 
ENDROOT
BRANCH   1   8
ATOM      8  C1  UNL d   1       5.967   5.928   1.671  0.00  0.00     0.054 C 
ATOM      9  C   UNL d   1       5.999   5.998   3.191  0.00  0.00     0.018 C 
ENDBRANCH   1   8
TORSDOF 1
ENDMDL
