MODEL 1
REMARK minimizedAffinity 2.12133479
REMARK minimizedRMSD -1
REMARK  1 active torsions:
REMARK  status: ('A' for Active; 'I' for Inactive)
REMARK    1  A    between atoms: C1_2  and  C2_3 
ROOT
ATOM      1  C2  UNL d   1      -0.446   0.076   1.108  0.00  0.00    -0.081 A 
ATOM      2  C3  UNL d   1       0.728   0.682   0.642  0.00  0.00     0.006 A 
ATOM      3  C4  UNL d   1       1.416   0.146  -0.449  0.00  0.00     0.002 A 
ATOM      4  C5  UNL d   1       0.939  -0.997  -1.098  0.00  0.00    -0.080 A 
ATOM      5  C6  UNL d   1       1.651  -1.565  -2.290  0.00  0.00     0.076 C 
ATOM      6  C7  UNL d   1      -0.224  -1.612  -0.622  0.00  0.00     0.002 A 
ATOM      7  C8  UNL d   1      -0.913  -1.078   0.470  0.00  0.00     0.006 A 
ENDROOT
BRANCH   1   8
ATOM      8  C1  UNL d   1      -1.225   0.688   2.243  0.00  0.00     0.054 C 
ATOM      9  C   UNL d   1      -1.142  -0.170   3.497  0.00  0.00     0.018 C 
ENDBRANCH   1   8
TORSDOF 1
ENDMDL
