MODEL 1
REMARK minimizedAffinity -0.55039531
REMARK minimizedRMSD -1
REMARK  1 active torsions:
REMARK  status: ('A' for Active; 'I' for Inactive)
REMARK    1  A    between atoms: C1_2  and  C2_3 
ROOT
ATOM      1  C2  UNL d   1      -1.252  -0.309   0.840  0.00  0.00    -0.081 A 
ATOM      2  C3  UNL d   1      -0.702  -1.587   0.684  0.00  0.00     0.006 A 
ATOM      3  C4  UNL d   1       0.316  -1.812  -0.246  0.00  0.00     0.002 A 
ATOM      4  C5  UNL d   1       0.806  -0.762  -1.029  0.00  0.00    -0.080 A 
ATOM      5  C6  UNL d   1       1.919  -0.983  -2.009  0.00  0.00     0.076 C 
ATOM      6  C7  UNL d   1       0.245   0.512  -0.886  0.00  0.00     0.002 A 
ATOM      7  C8  UNL d   1      -0.773   0.737   0.043  0.00  0.00     0.006 A 
ENDROOT
BRANCH   1   8
ATOM      8  C1  UNL d   1      -2.305  -0.050   1.887  0.00  0.00     0.054 C 
ATOM      9  C   UNL d   1      -1.806   0.925   2.944  0.00  0.00     0.018 C 
ENDBRANCH   1   8
TORSDOF 1
ENDMDL
