MODEL 1
REMARK minimizedAffinity -3.38606191
REMARK minimizedRMSD -1
REMARK  1 active torsions:
REMARK  status: ('A' for Active; 'I' for Inactive)
REMARK    1  A    between atoms: C1_2  and  C2_3 
ROOT
ATOM      1  C2  UNL d   1      -0.029  -0.745  -0.271  0.00  0.00    -0.081 A 
ATOM      2  C3  UNL d   1       0.390   0.575  -0.476  0.00  0.00     0.006 A 
ATOM      3  C4  UNL d   1       1.721   0.854  -0.795  0.00  0.00     0.002 A 
ATOM      4  C5  UNL d   1       2.653  -0.181  -0.923  0.00  0.00    -0.080 A 
ATOM      5  C6  UNL d   1       4.078   0.102  -1.296  0.00  0.00     0.076 C 
ATOM      6  C7  UNL d   1       2.238  -1.499  -0.702  0.00  0.00     0.002 A 
ATOM      7  C8  UNL d   1       0.908  -1.779  -0.382  0.00  0.00     0.006 A 
ENDROOT
BRANCH   1   8
ATOM      8  C1  UNL d   1      -1.477  -1.055   0.010  0.00  0.00     0.054 C 
ATOM      9  C   UNL d   1      -1.764  -2.542  -0.143  0.00  0.00     0.018 C 
ENDBRANCH   1   8
TORSDOF 1
ENDMDL
