MODEL 1
REMARK minimizedAffinity -3.08321118
REMARK minimizedRMSD -1
REMARK  1 active torsions:
REMARK  status: ('A' for Active; 'I' for Inactive)
REMARK    1  A    between atoms: C1_2  and  C2_3 
ROOT
ATOM      1  C2  UNL d   1      -0.342   0.188   0.264  0.00  0.00    -0.081 A 
ATOM      2  C3  UNL d   1      -0.019  -1.171   0.167  0.00  0.00     0.006 A 
ATOM      3  C4  UNL d   1       1.209  -1.571  -0.363  0.00  0.00     0.002 A 
ATOM      4  C5  UNL d   1       2.138  -0.619  -0.798  0.00  0.00    -0.080 A 
ATOM      5  C6  UNL d   1       3.473  -1.034  -1.342  0.00  0.00     0.076 C 
ATOM      6  C7  UNL d   1       1.809   0.738  -0.718  0.00  0.00     0.002 A 
ATOM      7  C8  UNL d   1       0.580   1.138  -0.188  0.00  0.00     0.006 A 
ENDROOT
BRANCH   1   8
ATOM      8  C1  UNL d   1      -1.640   0.625   0.895  0.00  0.00     0.054 C 
ATOM      9  C   UNL d   1      -1.488   0.817   2.397  0.00  0.00     0.018 C 
ENDBRANCH   1   8
TORSDOF 1
ENDMDL
