MODEL 1
REMARK minimizedAffinity -2.68030858
REMARK minimizedRMSD -1
REMARK  1 active torsions:
REMARK  status: ('A' for Active; 'I' for Inactive)
REMARK    1  A    between atoms: C1_2  and  C2_3 
ROOT
ATOM      1  C2  UNL d   1       1.574  -0.670  -1.107  0.00  0.00    -0.081 A 
ATOM      2  C3  UNL d   1       0.395  -1.101  -0.486  0.00  0.00     0.006 A 
ATOM      3  C4  UNL d   1      -0.400  -0.199   0.227  0.00  0.00     0.002 A 
ATOM      4  C5  UNL d   1      -0.034   1.147   0.323  0.00  0.00    -0.080 A 
ATOM      5  C6  UNL d   1      -0.894   2.131   1.060  0.00  0.00     0.076 C 
ATOM      6  C7  UNL d   1       1.153   1.574  -0.282  0.00  0.00     0.002 A 
ATOM      7  C8  UNL d   1       1.948   0.673  -0.994  0.00  0.00     0.006 A 
ENDROOT
BRANCH   1   8
ATOM      8  C1  UNL d   1       2.399  -1.625  -1.930  0.00  0.00     0.054 C 
ATOM      9  C   UNL d   1       1.521  -2.648  -2.637  0.00  0.00     0.018 C 
ENDBRANCH   1   8
TORSDOF 1
ENDMDL
