MODEL 1
REMARK minimizedAffinity -4.86810303
REMARK minimizedRMSD -1
REMARK  1 active torsions:
REMARK  status: ('A' for Active; 'I' for Inactive)
REMARK    1  A    between atoms: C1_2  and  C2_3 
ROOT
ATOM      1  C2  UNL d   1      -0.367  -0.000   0.379  0.00  0.00    -0.081 A 
ATOM      2  C3  UNL d   1       0.258  -1.232   0.608  0.00  0.00     0.006 A 
ATOM      3  C4  UNL d   1       1.509  -1.506   0.049  0.00  0.00     0.002 A 
ATOM      4  C5  UNL d   1       2.158  -0.552  -0.741  0.00  0.00    -0.080 A 
ATOM      5  C6  UNL d   1       3.514  -0.822  -1.322  0.00  0.00     0.076 C 
ATOM      6  C7  UNL d   1       1.526   0.672  -0.984  0.00  0.00     0.002 A 
ATOM      7  C8  UNL d   1       0.275   0.947  -0.426  0.00  0.00     0.006 A 
ENDROOT
BRANCH   1   8
ATOM      8  C1  UNL d   1      -1.686   0.324   1.033  0.00  0.00     0.054 C 
ATOM      9  C   UNL d   1      -1.491   1.184   2.274  0.00  0.00     0.018 C 
ENDBRANCH   1   8
TORSDOF 1
ENDMDL
