MODEL 1
REMARK minimizedAffinity -5.09047985
REMARK minimizedRMSD -1
REMARK  1 active torsions:
REMARK  status: ('A' for Active; 'I' for Inactive)
REMARK    1  A    between atoms: C1_2  and  C2_3 
ROOT
ATOM      1  C2  UNL d   1      -1.759   0.339   1.889  0.00  0.00    -0.081 A 
ATOM      2  C3  UNL d   1      -2.077  -0.979   1.542  0.00  0.00     0.006 A 
ATOM      3  C4  UNL d   1      -2.796  -1.790   2.423  0.00  0.00     0.002 A 
ATOM      4  C5  UNL d   1      -3.216  -1.294   3.662  0.00  0.00    -0.080 A 
ATOM      5  C6  UNL d   1      -4.016  -2.144   4.604  0.00  0.00     0.076 C 
ATOM      6  C7  UNL d   1      -2.884   0.018   4.016  0.00  0.00     0.002 A 
ATOM      7  C8  UNL d   1      -2.164   0.829   3.136  0.00  0.00     0.006 A 
ENDROOT
BRANCH   1   8
ATOM      8  C1  UNL d   1      -1.039   1.236   0.915  0.00  0.00     0.054 C 
ATOM      9  C   UNL d   1      -0.687   0.493  -0.366  0.00  0.00     0.018 C 
ENDBRANCH   1   8
TORSDOF 1
ENDMDL
