MODEL 1
REMARK minimizedAffinity -4.62512159
REMARK minimizedRMSD -1
REMARK  1 active torsions:
REMARK  status: ('A' for Active; 'I' for Inactive)
REMARK    1  A    between atoms: C1_2  and  C2_3 
ROOT
ATOM      1  C2  UNL d   1      -0.235   0.115   0.046  0.00  0.00    -0.081 A 
ATOM      2  C3  UNL d   1       0.202  -1.196  -0.178  0.00  0.00     0.006 A 
ATOM      3  C4  UNL d   1       1.384  -1.438  -0.882  0.00  0.00     0.002 A 
ATOM      4  C5  UNL d   1       2.153  -0.374  -1.366  0.00  0.00    -0.080 A 
ATOM      5  C6  UNL d   1       3.439  -0.619  -2.097  0.00  0.00     0.076 C 
ATOM      6  C7  UNL d   1       1.707   0.936  -1.157  0.00  0.00     0.002 A 
ATOM      7  C8  UNL d   1       0.525   1.178  -0.454  0.00  0.00     0.006 A 
ENDROOT
BRANCH   1   8
ATOM      8  C1  UNL d   1      -1.475   0.381   0.861  0.00  0.00     0.054 C 
ATOM      9  C   UNL d   1      -1.126   0.926   2.239  0.00  0.00     0.018 C 
ENDBRANCH   1   8
TORSDOF 1
ENDMDL
