MODEL 1
REMARK minimizedAffinity -4.20296192
REMARK minimizedRMSD -1
REMARK  1 active torsions:
REMARK  status: ('A' for Active; 'I' for Inactive)
REMARK    1  A    between atoms: C1_2  and  C2_3 
ROOT
ATOM      1  C2  UNL d   1       1.458   0.555  -1.307  0.00  0.00    -0.081 A 
ATOM      2  C3  UNL d   1       2.127  -0.556  -1.835  0.00  0.00     0.006 A 
ATOM      3  C4  UNL d   1       1.731  -1.850  -1.490  0.00  0.00     0.002 A 
ATOM      4  C5  UNL d   1       0.657  -2.055  -0.617  0.00  0.00    -0.080 A 
ATOM      5  C6  UNL d   1       0.203  -3.440  -0.262  0.00  0.00     0.076 C 
ATOM      6  C7  UNL d   1       0.000  -0.945  -0.075  0.00  0.00     0.002 A 
ATOM      7  C8  UNL d   1       0.396   0.349  -0.420  0.00  0.00     0.006 A 
ENDROOT
BRANCH   1   8
ATOM      8  C1  UNL d   1       1.840   1.951  -1.728  0.00  0.00     0.054 C 
ATOM      9  C   UNL d   1       0.661   2.684  -2.352  0.00  0.00     0.018 C 
ENDBRANCH   1   8
TORSDOF 1
ENDMDL
