MODEL 1
REMARK minimizedAffinity -5.83299446
REMARK minimizedRMSD -1
REMARK  1 active torsions:
REMARK  status: ('A' for Active; 'I' for Inactive)
REMARK    1  A    between atoms: C1_2  and  C2_3 
ROOT
ATOM      1  C2  UNL d   1       1.335   0.633  -1.373  0.00  0.00    -0.081 A 
ATOM      2  C3  UNL d   1       0.389   1.659  -1.490  0.00  0.00     0.006 A 
ATOM      3  C4  UNL d   1      -0.783   1.632  -0.731  0.00  0.00     0.002 A 
ATOM      4  C5  UNL d   1      -1.026   0.583   0.163  0.00  0.00    -0.080 A 
ATOM      5  C6  UNL d   1      -2.266   0.558   1.006  0.00  0.00     0.076 C 
ATOM      6  C7  UNL d   1      -0.089  -0.451   0.267  0.00  0.00     0.002 A 
ATOM      7  C8  UNL d   1       1.082  -0.425  -0.493  0.00  0.00     0.006 A 
ENDROOT
BRANCH   1   8
ATOM      8  C1  UNL d   1       2.629   0.692  -2.143  0.00  0.00     0.054 C 
ATOM      9  C   UNL d   1       3.121  -0.701  -2.507  0.00  0.00     0.018 C 
ENDBRANCH   1   8
TORSDOF 1
ENDMDL
