MODEL 1
REMARK minimizedAffinity -3.51309681
REMARK minimizedRMSD -1
REMARK  1 active torsions:
REMARK  status: ('A' for Active; 'I' for Inactive)
REMARK    1  A    between atoms: C1_2  and  C2_3 
ROOT
ATOM      1  C2  UNL d   1       0.271  -1.930  -0.647  0.00  0.00    -0.081 A 
ATOM      2  C3  UNL d   1       1.583  -1.913  -1.135  0.00  0.00     0.006 A 
ATOM      3  C4  UNL d   1       2.400  -0.798  -0.932  0.00  0.00     0.002 A 
ATOM      4  C5  UNL d   1       1.921   0.314  -0.231  0.00  0.00    -0.080 A 
ATOM      5  C6  UNL d   1       2.797   1.505   0.021  0.00  0.00     0.076 C 
ATOM      6  C7  UNL d   1       0.604   0.304   0.242  0.00  0.00     0.002 A 
ATOM      7  C8  UNL d   1      -0.213  -0.811   0.038  0.00  0.00     0.006 A 
ENDROOT
BRANCH   1   8
ATOM      8  C1  UNL d   1      -0.591  -3.157  -0.809  0.00  0.00     0.054 C 
ATOM      9  C   UNL d   1       0.017  -4.357  -0.098  0.00  0.00     0.018 C 
ENDBRANCH   1   8
TORSDOF 1
ENDMDL
