MODEL 1
REMARK minimizedAffinity -5.01599407
REMARK minimizedRMSD -1
REMARK  1 active torsions:
REMARK  status: ('A' for Active; 'I' for Inactive)
REMARK    1  A    between atoms: C1_2  and  C2_3 
ROOT
ATOM      1  C2  UNL d   1      -0.650  -0.355   0.336  0.00  0.00    -0.081 A 
ATOM      2  C3  UNL d   1      -0.280  -1.474  -0.420  0.00  0.00     0.006 A 
ATOM      3  C4  UNL d   1       1.023  -1.601  -0.907  0.00  0.00     0.002 A 
ATOM      4  C5  UNL d   1       1.980  -0.616  -0.639  0.00  0.00    -0.080 A 
ATOM      5  C6  UNL d   1       3.390  -0.754  -1.129  0.00  0.00     0.076 C 
ATOM      6  C7  UNL d   1       1.606   0.511   0.102  0.00  0.00     0.002 A 
ATOM      7  C8  UNL d   1       0.303   0.638   0.588  0.00  0.00     0.006 A 
ENDROOT
BRANCH   1   8
ATOM      8  C1  UNL d   1      -2.036  -0.247   0.917  0.00  0.00     0.054 C 
ATOM      9  C   UNL d   1      -1.990   0.059   2.408  0.00  0.00     0.018 C 
ENDBRANCH   1   8
TORSDOF 1
ENDMDL
