MODEL 1
REMARK minimizedAffinity 3.73284101
REMARK minimizedRMSD -1
REMARK  1 active torsions:
REMARK  status: ('A' for Active; 'I' for Inactive)
REMARK    1  A    between atoms: C1_2  and  C2_3 
ROOT
ATOM      1  C2  UNL d   1      -1.980   0.024   1.708  0.00  0.00    -0.081 A 
ATOM      2  C3  UNL d   1      -2.277  -1.324   1.944  0.00  0.00     0.006 A 
ATOM      3  C4  UNL d   1      -2.966  -1.705   3.098  0.00  0.00     0.002 A 
ATOM      4  C5  UNL d   1      -3.375  -0.745   4.030  0.00  0.00    -0.080 A 
ATOM      5  C6  UNL d   1      -4.141  -1.138   5.258  0.00  0.00     0.076 C 
ATOM      6  C7  UNL d   1      -3.063   0.599   3.803  0.00  0.00     0.002 A 
ATOM      7  C8  UNL d   1      -2.374   0.981   2.649  0.00  0.00     0.006 A 
ENDROOT
BRANCH   1   8
ATOM      8  C1  UNL d   1      -1.295   0.446   0.433  0.00  0.00     0.054 C 
ATOM      9  C   UNL d   1      -0.746  -0.755  -0.324  0.00  0.00     0.018 C 
ENDBRANCH   1   8
TORSDOF 1
ENDMDL
