MODEL 1
REMARK minimizedAffinity 11.0412798
REMARK minimizedRMSD -1
REMARK  1 active torsions:
REMARK  status: ('A' for Active; 'I' for Inactive)
REMARK    1  A    between atoms: C3_4  and  O_7 
ROOT
ATOM      1  C   UNL d   1       2.128   0.225  -2.720  0.00  0.00    -0.033 A 
ATOM      2  C1  UNL d   1       2.275   1.510  -2.192  0.00  0.00     0.039 A 
ATOM      3  C2  UNL d   1       1.557   2.576  -2.737  0.00  0.00    -0.080 A 
ATOM      4  C3  UNL d   1       0.697   2.346  -3.807  0.00  0.00     0.150 A 
ATOM      5  C4  UNL d   1       0.543   1.068  -4.335  0.00  0.00    -0.007 A 
ATOM      6  C5  UNL d   1       1.261   0.004  -3.790  0.00  0.00     0.039 A 
ENDROOT
BRANCH   4   7
ATOM      7  O   UNL d   1      -0.021   3.356  -4.375  0.00  0.00    -0.526 OA
ATOM      8  H5  UNL d   1       0.208   4.187  -3.926  0.00  0.00     0.418 HD
ENDBRANCH   4   7
TORSDOF 1
ENDMDL
