MODEL 1
REMARK minimizedAffinity 12.2843304
REMARK minimizedRMSD -1
REMARK  1 active torsions:
REMARK  status: ('A' for Active; 'I' for Inactive)
REMARK    1  A    between atoms: C3_4  and  O_7 
ROOT
ATOM      1  C   UNL d   1      -2.686   1.734  -3.444  0.00  0.00    -0.033 A 
ATOM      2  C1  UNL d   1      -1.413   1.164  -3.524  0.00  0.00     0.039 A 
ATOM      3  C2  UNL d   1      -0.424   1.768  -4.303  0.00  0.00    -0.080 A 
ATOM      4  C3  UNL d   1      -0.719   2.940  -4.994  0.00  0.00     0.150 A 
ATOM      5  C4  UNL d   1      -1.983   3.515  -4.916  0.00  0.00    -0.007 A 
ATOM      6  C5  UNL d   1      -2.970   2.910  -4.138  0.00  0.00     0.039 A 
ENDROOT
BRANCH   4   7
ATOM      7  O   UNL d   1       0.212   3.562  -5.771  0.00  0.00    -0.526 OA
ATOM      8  H5  UNL d   1       1.029   3.037  -5.753  0.00  0.00     0.418 HD
ENDBRANCH   4   7
TORSDOF 1
ENDMDL
