MODEL 1
REMARK minimizedAffinity 6.89949799
REMARK minimizedRMSD -1
REMARK  1 active torsions:
REMARK  status: ('A' for Active; 'I' for Inactive)
REMARK    1  A    between atoms: C3_4  and  O_7 
ROOT
ATOM      1  C   UNL d   1       5.131   2.630  -1.368  0.00  0.00    -0.033 A 
ATOM      2  C1  UNL d   1       4.160   2.684  -0.366  0.00  0.00     0.039 A 
ATOM      3  C2  UNL d   1       4.058   3.813   0.449  0.00  0.00    -0.080 A 
ATOM      4  C3  UNL d   1       4.932   4.879   0.253  0.00  0.00     0.150 A 
ATOM      5  C4  UNL d   1       5.899   4.833  -0.746  0.00  0.00    -0.007 A 
ATOM      6  C5  UNL d   1       6.000   3.705  -1.558  0.00  0.00     0.039 A 
ENDROOT
BRANCH   4   7
ATOM      7  O   UNL d   1       4.874   6.000   1.027  0.00  0.00    -0.526 OA
ATOM      8  H5  UNL d   1       4.177   5.878   1.693  0.00  0.00     0.418 HD
ENDBRANCH   4   7
TORSDOF 1
ENDMDL
