MODEL 1
REMARK minimizedAffinity 7.48766041
REMARK minimizedRMSD -1
REMARK  1 active torsions:
REMARK  status: ('A' for Active; 'I' for Inactive)
REMARK    1  A    between atoms: C3_4  and  O_7 
ROOT
ATOM      1  C   UNL d   1       0.327   3.056  -4.204  0.00  0.00    -0.033 A 
ATOM      2  C1  UNL d   1       0.052   3.754  -5.382  0.00  0.00     0.039 A 
ATOM      3  C2  UNL d   1      -1.193   3.621  -6.000  0.00  0.00    -0.080 A 
ATOM      4  C3  UNL d   1      -2.153   2.789  -5.430  0.00  0.00     0.150 A 
ATOM      5  C4  UNL d   1      -1.887   2.094  -4.255  0.00  0.00    -0.007 A 
ATOM      6  C5  UNL d   1      -0.643   2.227  -3.640  0.00  0.00     0.039 A 
ENDROOT
BRANCH   4   7
ATOM      7  O   UNL d   1      -3.381   2.624  -5.999  0.00  0.00    -0.526 OA
ATOM      8  H5  UNL d   1      -3.412   3.142  -6.821  0.00  0.00     0.418 HD
ENDBRANCH   4   7
TORSDOF 1
ENDMDL
