MODEL 1
REMARK minimizedAffinity 8.09487057
REMARK minimizedRMSD -1
REMARK  1 active torsions:
REMARK  status: ('A' for Active; 'I' for Inactive)
REMARK    1  A    between atoms: C3_4  and  O_7 
ROOT
ATOM      1  C   UNL d   1      -5.035   6.000  -0.792  0.00  0.00    -0.033 A 
ATOM      2  C1  UNL d   1      -4.077   5.002  -0.986  0.00  0.00     0.039 A 
ATOM      3  C2  UNL d   1      -4.047   3.888  -0.144  0.00  0.00    -0.080 A 
ATOM      4  C3  UNL d   1      -4.979   3.784   0.884  0.00  0.00     0.150 A 
ATOM      5  C4  UNL d   1      -5.938   4.772   1.081  0.00  0.00    -0.007 A 
ATOM      6  C5  UNL d   1      -5.966   5.884   0.241  0.00  0.00     0.039 A 
ENDROOT
BRANCH   4   7
ATOM      7  O   UNL d   1      -4.986   2.717   1.734  0.00  0.00    -0.526 OA
ATOM      8  H5  UNL d   1      -4.249   2.129   1.496  0.00  0.00     0.418 HD
ENDBRANCH   4   7
TORSDOF 1
ENDMDL
