MODEL 1
REMARK minimizedAffinity 15.641325
REMARK minimizedRMSD -1
REMARK  1 active torsions:
REMARK  status: ('A' for Active; 'I' for Inactive)
REMARK    1  A    between atoms: C3_4  and  O_7 
ROOT
ATOM      1  C   UNL d   1      -4.895   5.601  -5.464  0.00  0.00    -0.033 A 
ATOM      2  C1  UNL d   1      -4.832   4.313  -5.999  0.00  0.00     0.039 A 
ATOM      3  C2  UNL d   1      -3.847   3.423  -5.567  0.00  0.00    -0.080 A 
ATOM      4  C3  UNL d   1      -2.934   3.832  -4.599  0.00  0.00     0.150 A 
ATOM      5  C4  UNL d   1      -2.993   5.112  -4.059  0.00  0.00    -0.007 A 
ATOM      6  C5  UNL d   1      -3.977   6.000  -4.492  0.00  0.00     0.039 A 
ENDROOT
BRANCH   4   7
ATOM      7  O   UNL d   1      -1.952   3.000  -4.150  0.00  0.00    -0.526 OA
ATOM      8  H5  UNL d   1      -2.015   2.159  -4.633  0.00  0.00     0.418 HD
ENDBRANCH   4   7
TORSDOF 1
ENDMDL
