MODEL 1
REMARK minimizedAffinity 5.39754105
REMARK minimizedRMSD -1
REMARK  1 active torsions:
REMARK  status: ('A' for Active; 'I' for Inactive)
REMARK    1  A    between atoms: C3_4  and  O_7 
ROOT
ATOM      1  C   UNL d   1      -5.139   1.814   5.969  0.00  0.00    -0.033 A 
ATOM      2  C1  UNL d   1      -5.486   0.462   5.941  0.00  0.00     0.039 A 
ATOM      3  C2  UNL d   1      -4.489  -0.516   5.937  0.00  0.00    -0.080 A 
ATOM      4  C3  UNL d   1      -3.152  -0.129   5.962  0.00  0.00     0.150 A 
ATOM      5  C4  UNL d   1      -2.800   1.216   5.994  0.00  0.00    -0.007 A 
ATOM      6  C5  UNL d   1      -3.796   2.191   5.997  0.00  0.00     0.039 A 
ENDROOT
BRANCH   4   7
ATOM      7  O   UNL d   1      -2.144  -1.047   5.954  0.00  0.00    -0.526 OA
ATOM      8  H5  UNL d   1      -2.537  -1.935   5.902  0.00  0.00     0.418 HD
ENDBRANCH   4   7
TORSDOF 1
ENDMDL
