MODEL 1
REMARK minimizedAffinity 5.11263275
REMARK minimizedRMSD -1
REMARK  1 active torsions:
REMARK  status: ('A' for Active; 'I' for Inactive)
REMARK    1  A    between atoms: C3_4  and  O_7 
ROOT
ATOM      1  C   UNL d   1       2.194   0.376  -3.537  0.00  0.00    -0.033 A 
ATOM      2  C1  UNL d   1       2.216   1.772  -3.572  0.00  0.00     0.039 A 
ATOM      3  C2  UNL d   1       1.037   2.485  -3.796  0.00  0.00    -0.080 A 
ATOM      4  C3  UNL d   1      -0.156   1.792  -3.982  0.00  0.00     0.150 A 
ATOM      5  C4  UNL d   1      -0.186   0.402  -3.945  0.00  0.00    -0.007 A 
ATOM      6  C5  UNL d   1       0.992  -0.309  -3.722  0.00  0.00     0.039 A 
ENDROOT
BRANCH   4   7
ATOM      7  O   UNL d   1      -1.332   2.444  -4.209  0.00  0.00    -0.526 OA
ATOM      8  H5  UNL d   1      -1.153   3.399  -4.237  0.00  0.00     0.418 HD
ENDBRANCH   4   7
TORSDOF 1
ENDMDL
