MODEL 1
REMARK minimizedAffinity 7.04237604
REMARK minimizedRMSD -1
REMARK  1 active torsions:
REMARK  status: ('A' for Active; 'I' for Inactive)
REMARK    1  A    between atoms: C3_4  and  O_7 
ROOT
ATOM      1  C   UNL d   1      -5.930   2.816   5.962  0.00  0.00    -0.033 A 
ATOM      2  C1  UNL d   1      -4.693   3.461   6.000  0.00  0.00     0.039 A 
ATOM      3  C2  UNL d   1      -3.518   2.734   5.794  0.00  0.00    -0.080 A 
ATOM      4  C3  UNL d   1      -3.595   1.366   5.551  0.00  0.00     0.150 A 
ATOM      5  C4  UNL d   1      -4.825   0.717   5.509  0.00  0.00    -0.007 A 
ATOM      6  C5  UNL d   1      -5.997   1.444   5.715  0.00  0.00     0.039 A 
ENDROOT
BRANCH   4   7
ATOM      7  O   UNL d   1      -2.476   0.614   5.350  0.00  0.00    -0.526 OA
ATOM      8  H5  UNL d   1      -1.698   1.190   5.436  0.00  0.00     0.418 HD
ENDBRANCH   4   7
TORSDOF 1
ENDMDL
