MODEL 1
REMARK minimizedAffinity 7.94024754
REMARK minimizedRMSD -1
REMARK  1 active torsions:
REMARK  status: ('A' for Active; 'I' for Inactive)
REMARK    1  A    between atoms: C3_4  and  O_7 
ROOT
ATOM      1  C   UNL d   1      -2.390  -2.190   2.022  0.00  0.00    -0.033 A 
ATOM      2  C1  UNL d   1      -2.031  -3.055   3.058  0.00  0.00     0.039 A 
ATOM      3  C2  UNL d   1      -1.190  -4.140   2.803  0.00  0.00    -0.080 A 
ATOM      4  C3  UNL d   1      -0.714  -4.348   1.511  0.00  0.00     0.150 A 
ATOM      5  C4  UNL d   1      -1.065  -3.487   0.476  0.00  0.00    -0.007 A 
ATOM      6  C5  UNL d   1      -1.906  -2.405   0.732  0.00  0.00     0.039 A 
ENDROOT
BRANCH   4   7
ATOM      7  O   UNL d   1       0.106  -5.395   1.214  0.00  0.00    -0.526 OA
ATOM      8  H5  UNL d   1       0.239  -5.920   2.020  0.00  0.00     0.418 HD
ENDBRANCH   4   7
TORSDOF 1
ENDMDL
