MODEL 1
REMARK minimizedAffinity 2.68846631
REMARK minimizedRMSD -1
REMARK  1 active torsions:
REMARK  status: ('A' for Active; 'I' for Inactive)
REMARK    1  A    between atoms: C3_4  and  O_7 
ROOT
ATOM      1  C   UNL d   1      -2.312  -1.910   1.074  0.00  0.00    -0.033 A 
ATOM      2  C1  UNL d   1      -2.264  -2.638   2.264  0.00  0.00     0.039 A 
ATOM      3  C2  UNL d   1      -1.528  -3.822   2.331  0.00  0.00    -0.080 A 
ATOM      4  C3  UNL d   1      -0.844  -4.266   1.203  0.00  0.00     0.150 A 
ATOM      5  C4  UNL d   1      -0.884  -3.544   0.015  0.00  0.00    -0.007 A 
ATOM      6  C5  UNL d   1      -1.620  -2.362  -0.051  0.00  0.00     0.039 A 
ENDROOT
BRANCH   4   7
ATOM      7  O   UNL d   1      -0.116  -5.419   1.218  0.00  0.00    -0.526 OA
ATOM      8  H5  UNL d   1      -0.203  -5.826   2.096  0.00  0.00     0.418 HD
ENDBRANCH   4   7
TORSDOF 1
ENDMDL
