MODEL 1
REMARK minimizedAffinity 12.946764
REMARK minimizedRMSD -1
REMARK  1 active torsions:
REMARK  status: ('A' for Active; 'I' for Inactive)
REMARK    1  A    between atoms: C3_4  and  O_7 
ROOT
ATOM      1  C   UNL d   1       5.945   5.249  -1.037  0.00  0.00    -0.033 A 
ATOM      2  C1  UNL d   1       4.989   5.644  -0.099  0.00  0.00     0.039 A 
ATOM      3  C2  UNL d   1       4.083   4.712   0.411  0.00  0.00    -0.080 A 
ATOM      4  C3  UNL d   1       4.145   3.391  -0.022  0.00  0.00     0.150 A 
ATOM      5  C4  UNL d   1       5.097   2.990  -0.953  0.00  0.00    -0.007 A 
ATOM      6  C5  UNL d   1       6.000   3.922  -1.463  0.00  0.00     0.039 A 
ENDROOT
BRANCH   4   7
ATOM      7  O   UNL d   1       3.279   2.447   0.444  0.00  0.00    -0.526 OA
ATOM      8  H5  UNL d   1       2.659   2.874   1.059  0.00  0.00     0.418 HD
ENDBRANCH   4   7
TORSDOF 1
ENDMDL
