MODEL 1
REMARK minimizedAffinity 11.5883236
REMARK minimizedRMSD -1
REMARK  1 active torsions:
REMARK  status: ('A' for Active; 'I' for Inactive)
REMARK    1  A    between atoms: C3_4  and  O_7 
ROOT
ATOM      1  C   UNL d   1      -0.766  -2.604   4.512  0.00  0.00    -0.033 A 
ATOM      2  C1  UNL d   1      -1.964  -2.299   3.865  0.00  0.00     0.039 A 
ATOM      3  C2  UNL d   1      -2.727  -1.207   4.284  0.00  0.00    -0.080 A 
ATOM      4  C3  UNL d   1      -2.280  -0.430   5.349  0.00  0.00     0.150 A 
ATOM      5  C4  UNL d   1      -1.085  -0.726   5.995  0.00  0.00    -0.007 A 
ATOM      6  C5  UNL d   1      -0.325  -1.817   5.576  0.00  0.00     0.039 A 
ENDROOT
BRANCH   4   7
ATOM      7  O   UNL d   1      -2.993   0.643   5.797  0.00  0.00    -0.526 OA
ATOM      8  H5  UNL d   1      -3.810   0.709   5.274  0.00  0.00     0.418 HD
ENDBRANCH   4   7
TORSDOF 1
ENDMDL
