MODEL 1
REMARK minimizedAffinity 9.82720757
REMARK minimizedRMSD -1
REMARK  1 active torsions:
REMARK  status: ('A' for Active; 'I' for Inactive)
REMARK    1  A    between atoms: C3_4  and  O_7 
ROOT
ATOM      1  C   UNL d   1       4.441   2.508  -1.025  0.00  0.00    -0.033 A 
ATOM      2  C1  UNL d   1       5.538   3.311  -1.342  0.00  0.00     0.039 A 
ATOM      3  C2  UNL d   1       5.771   4.490  -0.632  0.00  0.00    -0.080 A 
ATOM      4  C3  UNL d   1       4.901   4.854   0.393  0.00  0.00     0.150 A 
ATOM      5  C4  UNL d   1       3.809   4.056   0.717  0.00  0.00    -0.007 A 
ATOM      6  C5  UNL d   1       3.577   2.880   0.006  0.00  0.00     0.039 A 
ENDROOT
BRANCH   4   7
ATOM      7  O   UNL d   1       5.085   5.998   1.111  0.00  0.00    -0.526 OA
ATOM      8  H5  UNL d   1       5.862   6.462   0.757  0.00  0.00     0.418 HD
ENDBRANCH   4   7
TORSDOF 1
ENDMDL
