MODEL 1
REMARK minimizedAffinity 13.2371769
REMARK minimizedRMSD -1
REMARK  1 active torsions:
REMARK  status: ('A' for Active; 'I' for Inactive)
REMARK    1  A    between atoms: C3_4  and  O_7 
ROOT
ATOM      1  C   UNL d   1       5.130   2.144  -0.767  0.00  0.00    -0.033 A 
ATOM      2  C1  UNL d   1       5.999   3.130  -1.236  0.00  0.00     0.039 A 
ATOM      3  C2  UNL d   1       5.905   4.435  -0.749  0.00  0.00    -0.080 A 
ATOM      4  C3  UNL d   1       4.940   4.740   0.207  0.00  0.00     0.150 A 
ATOM      5  C4  UNL d   1       4.073   3.760   0.682  0.00  0.00    -0.007 A 
ATOM      6  C5  UNL d   1       4.168   2.458   0.193  0.00  0.00     0.039 A 
ENDROOT
BRANCH   4   7
ATOM      7  O   UNL d   1       4.807   6.000   0.709  0.00  0.00    -0.526 OA
ATOM      8  H5  UNL d   1       5.453   6.577   0.269  0.00  0.00     0.418 HD
ENDBRANCH   4   7
TORSDOF 1
ENDMDL
