MODEL 1
REMARK minimizedAffinity -1.90856874
REMARK minimizedRMSD -1
REMARK  0 active torsions:
REMARK  status: ('A' for Active; 'I' for Inactive)
ROOT
ATOM      1  C1  BNZ d   1       4.816   2.084   5.959  0.00  0.00     0.000 A 
ATOM      2  C2  BNZ d   1       5.314   3.360   5.952  0.00  0.00     0.000 A 
ATOM      3  C3  BNZ d   1       4.475   4.438   5.991  0.00  0.00     0.000 A 
ATOM      4  C4  BNZ d   1       3.141   4.240   5.997  0.00  0.00     0.000 A 
ATOM      5  C5  BNZ d   1       2.624   2.960   5.995  0.00  0.00     0.000 A 
ATOM      6  C6  BNZ d   1       3.472   1.876   5.995  0.00  0.00     0.000 A 
ENDROOT
TORSDOF 0
ENDMDL
