MODEL 1
REMARK minimizedAffinity -3.97003365
REMARK minimizedRMSD -1
REMARK  0 active torsions:
REMARK  status: ('A' for Active; 'I' for Inactive)
ROOT
ATOM      1  C1  BNZ d   1       4.225   2.089   6.000  0.00  0.00     0.000 A 
ATOM      2  C2  BNZ d   1       5.213   3.037   5.999  0.00  0.00     0.000 A 
ATOM      3  C3  BNZ d   1       5.097   4.168   5.240  0.00  0.00     0.000 A 
ATOM      4  C4  BNZ d   1       4.015   4.330   4.453  0.00  0.00     0.000 A 
ATOM      5  C5  BNZ d   1       3.014   3.378   4.435  0.00  0.00     0.000 A 
ATOM      6  C6  BNZ d   1       3.116   2.260   5.230  0.00  0.00     0.000 A 
ENDROOT
TORSDOF 0
ENDMDL
