MODEL 1
REMARK minimizedAffinity -3.25213623
REMARK minimizedRMSD -1
REMARK  0 active torsions:
REMARK  status: ('A' for Active; 'I' for Inactive)
ROOT
ATOM      1  C1  BNZ d   1       4.149   6.000   5.670  0.00  0.00     0.000 A 
ATOM      2  C2  BNZ d   1       4.824   4.862   5.318  0.00  0.00     0.000 A 
ATOM      3  C3  BNZ d   1       4.180   3.658   5.252  0.00  0.00     0.000 A 
ATOM      4  C4  BNZ d   1       2.873   3.587   5.578  0.00  0.00     0.000 A 
ATOM      5  C5  BNZ d   1       2.181   4.724   5.944  0.00  0.00     0.000 A 
ATOM      6  C6  BNZ d   1       2.823   5.940   5.971  0.00  0.00     0.000 A 
ENDROOT
TORSDOF 0
ENDMDL
