MODEL 1
REMARK minimizedAffinity 0.555608988
REMARK minimizedRMSD -1
REMARK  0 active torsions:
REMARK  status: ('A' for Active; 'I' for Inactive)
ROOT
ATOM      1  C1  BNZ d   1       4.236   5.071   5.228  0.00  0.00     0.000 A 
ATOM      2  C2  BNZ d   1       2.985   4.826   5.728  0.00  0.00     0.000 A 
ATOM      3  C3  BNZ d   1       2.391   3.606   5.561  0.00  0.00     0.000 A 
ATOM      4  C4  BNZ d   1       3.032   2.647   4.862  0.00  0.00     0.000 A 
ATOM      5  C5  BNZ d   1       4.290   2.882   4.344  0.00  0.00     0.000 A 
ATOM      6  C6  BNZ d   1       4.900   4.098   4.547  0.00  0.00     0.000 A 
ENDROOT
TORSDOF 0
ENDMDL
