MODEL 1
REMARK minimizedAffinity 3.91771555
REMARK minimizedRMSD -1
REMARK  1 active torsions:
REMARK  status: ('A' for Active; 'I' for Inactive)
REMARK    1  A    between atoms: C1_2  and  C2_3 
ROOT
ATOM      1  C2  UNL d   1       2.999  -2.382   2.787  0.00  0.00    -0.076 A 
ATOM      2  C3  UNL d   1       3.492  -1.563   1.756  0.00  0.00     0.004 A 
ATOM      3  C4  UNL d   1       3.049  -0.250   1.608  0.00  0.00    -0.003 A 
ATOM      4  C5  UNL d   1       2.105   0.266   2.489  0.00  0.00     0.000 A 
ATOM      5  C6  UNL d   1       1.618  -0.525   3.528  0.00  0.00     0.000 A 
ATOM      6  C7  UNL d   1       2.067  -1.846   3.702  0.00  0.00    -0.073 A 
ATOM      7  C8  UNL d   1       1.503  -2.657   4.836  0.00  0.00     0.078 C 
ENDROOT
BRANCH   1   8
ATOM      8  C1  UNL d   1       3.496  -3.806   2.882  0.00  0.00     0.053 C 
ATOM      9  C   UNL d   1       2.834  -4.723   1.865  0.00  0.00     0.018 C 
ENDBRANCH   1   8
TORSDOF 1
ENDMDL
