MODEL 1
REMARK minimizedAffinity 2.06705713
REMARK minimizedRMSD -1
REMARK  1 active torsions:
REMARK  status: ('A' for Active; 'I' for Inactive)
REMARK    1  A    between atoms: C1_2  and  C2_3 
ROOT
ATOM      1  C2  UNL d   1       2.345  -1.918   2.925  0.00  0.00    -0.076 A 
ATOM      2  C3  UNL d   1       2.212  -3.237   2.455  0.00  0.00     0.004 A 
ATOM      3  C4  UNL d   1       2.232  -4.317   3.335  0.00  0.00    -0.003 A 
ATOM      4  C5  UNL d   1       2.383  -4.097   4.699  0.00  0.00     0.000 A 
ATOM      5  C6  UNL d   1       2.498  -2.795   5.185  0.00  0.00     0.000 A 
ATOM      6  C7  UNL d   1       2.464  -1.693   4.313  0.00  0.00    -0.073 A 
ATOM      7  C8  UNL d   1       2.598  -0.311   4.890  0.00  0.00     0.078 C 
ENDROOT
BRANCH   1   8
ATOM      8  C1  UNL d   1       2.344  -0.788   1.920  0.00  0.00     0.053 C 
ATOM      9  C   UNL d   1       3.715  -0.152   1.758  0.00  0.00     0.018 C 
ENDBRANCH   1   8
TORSDOF 1
ENDMDL
