MODEL 1
REMARK minimizedAffinity 6.35739565
REMARK minimizedRMSD -1
REMARK  1 active torsions:
REMARK  status: ('A' for Active; 'I' for Inactive)
REMARK    1  A    between atoms: C1_2  and  C2_3 
ROOT
ATOM      1  C2  UNL d   1       2.401  -1.310   2.672  0.00  0.00    -0.076 A 
ATOM      2  C3  UNL d   1       2.464  -2.508   1.939  0.00  0.00     0.004 A 
ATOM      3  C4  UNL d   1       2.389  -3.745   2.577  0.00  0.00    -0.003 A 
ATOM      4  C5  UNL d   1       2.250  -3.804   3.960  0.00  0.00     0.000 A 
ATOM      5  C6  UNL d   1       2.168  -2.626   4.701  0.00  0.00     0.000 A 
ATOM      6  C7  UNL d   1       2.225  -1.371   4.071  0.00  0.00    -0.073 A 
ATOM      7  C8  UNL d   1       2.139  -0.132   4.920  0.00  0.00     0.078 C 
ENDROOT
BRANCH   1   8
ATOM      8  C1  UNL d   1       2.514   0.001   1.928  0.00  0.00     0.053 C 
ATOM      9  C   UNL d   1       3.764   0.075   1.064  0.00  0.00     0.018 C 
ENDBRANCH   1   8
TORSDOF 1
ENDMDL
