MODEL 1
REMARK minimizedAffinity 3.38136244
REMARK minimizedRMSD -1
REMARK  1 active torsions:
REMARK  status: ('A' for Active; 'I' for Inactive)
REMARK    1  A    between atoms: C1_2  and  C2_3 
ROOT
ATOM      1  C2  UNL d   1       2.088   1.939   1.450  0.00  0.00    -0.076 A 
ATOM      2  C3  UNL d   1       1.156   2.979   1.606  0.00  0.00     0.004 A 
ATOM      3  C4  UNL d   1       0.870   3.849   0.555  0.00  0.00    -0.003 A 
ATOM      4  C5  UNL d   1       1.511   3.693  -0.668  0.00  0.00     0.000 A 
ATOM      5  C6  UNL d   1       2.426   2.655  -0.846  0.00  0.00     0.000 A 
ATOM      6  C7  UNL d   1       2.714   1.759   0.198  0.00  0.00    -0.073 A 
ATOM      7  C8  UNL d   1       3.713   0.662  -0.047  0.00  0.00     0.078 C 
ENDROOT
BRANCH   1   8
ATOM      8  C1  UNL d   1       2.378   1.043   2.633  0.00  0.00     0.053 C 
ATOM      9  C   UNL d   1       1.953  -0.397   2.392  0.00  0.00     0.018 C 
ENDBRANCH   1   8
TORSDOF 1
ENDMDL
