MODEL 1
REMARK minimizedAffinity 9.0494194
REMARK minimizedRMSD -1
REMARK  1 active torsions:
REMARK  status: ('A' for Active; 'I' for Inactive)
REMARK    1  A    between atoms: C1_2  and  C2_3 
ROOT
ATOM      1  C2  UNL d   1       2.932  -2.780   3.262  0.00  0.00    -0.076 A 
ATOM      2  C3  UNL d   1       2.629  -2.071   2.086  0.00  0.00     0.004 A 
ATOM      3  C4  UNL d   1       2.108  -0.779   2.142  0.00  0.00    -0.003 A 
ATOM      4  C5  UNL d   1       1.882  -0.175   3.374  0.00  0.00     0.000 A 
ATOM      5  C6  UNL d   1       2.193  -0.857   4.550  0.00  0.00     0.000 A 
ATOM      6  C7  UNL d   1       2.735  -2.153   4.511  0.00  0.00    -0.073 A 
ATOM      7  C8  UNL d   1       3.046  -2.845   5.810  0.00  0.00     0.078 C 
ENDROOT
BRANCH   1   8
ATOM      8  C1  UNL d   1       3.470  -4.187   3.140  0.00  0.00     0.053 C 
ATOM      9  C   UNL d   1       2.870  -4.941   1.964  0.00  0.00     0.018 C 
ENDBRANCH   1   8
TORSDOF 1
ENDMDL
