MODEL 1
REMARK minimizedAffinity 10.8518696
REMARK minimizedRMSD -1
REMARK  1 active torsions:
REMARK  status: ('A' for Active; 'I' for Inactive)
REMARK    1  A    between atoms: C1_2  and  C2_3 
ROOT
ATOM      1  C2  UNL d   1      -3.696   3.342   1.479  0.00  0.00    -0.076 A 
ATOM      2  C3  UNL d   1      -3.432   3.190   2.852  0.00  0.00     0.004 A 
ATOM      3  C4  UNL d   1      -4.438   2.810   3.738  0.00  0.00    -0.003 A 
ATOM      4  C5  UNL d   1      -5.724   2.574   3.266  0.00  0.00     0.000 A 
ATOM      5  C6  UNL d   1      -6.000   2.702   1.905  0.00  0.00     0.000 A 
ATOM      6  C7  UNL d   1      -4.993   3.069   0.996  0.00  0.00    -0.073 A 
ATOM      7  C8  UNL d   1      -5.348   3.198  -0.460  0.00  0.00     0.078 C 
ENDROOT
BRANCH   1   8
ATOM      8  C1  UNL d   1      -2.571   3.783   0.570  0.00  0.00     0.053 C 
ATOM      9  C   UNL d   1      -1.212   3.717   1.249  0.00  0.00     0.018 C 
ENDBRANCH   1   8
TORSDOF 1
ENDMDL
