MODEL 1
REMARK minimizedAffinity 5.93478394
REMARK minimizedRMSD -1
REMARK  0 active torsions:
REMARK  status: ('A' for Active; 'I' for Inactive)
ROOT
ATOM      1  C   UNL d   1      -4.291  -2.874   2.279  0.00  0.00     0.172 C 
ATOM      2  N   UNL d   1      -4.978  -4.143   2.303  0.00  0.00    -0.070 N 
ATOM      3  C1  UNL d   1      -5.324  -4.843   3.428  0.00  0.00    -0.004 A 
ATOM      4  C2  UNL d   1      -5.962  -5.997   3.027  0.00  0.00    -0.047 A 
ATOM      5  C3  UNL d   1      -6.000  -5.991   1.613  0.00  0.00    -0.047 A 
ATOM      6  C4  UNL d   1      -5.384  -4.832   1.190  0.00  0.00    -0.004 A 
ENDROOT
TORSDOF 0
ENDMDL
