MODEL 1
REMARK minimizedAffinity 7.63459873
REMARK minimizedRMSD -1
REMARK  0 active torsions:
REMARK  status: ('A' for Active; 'I' for Inactive)
ROOT
ATOM      1  C   UNL d   1      -1.857   5.958  -5.752  0.00  0.00     0.172 C 
ATOM      2  N   UNL d   1      -0.509   5.831  -5.248  0.00  0.00    -0.070 N 
ATOM      3  C1  UNL d   1      -0.164   5.527  -3.958  0.00  0.00    -0.004 A 
ATOM      4  C2  UNL d   1       1.212   5.500  -3.885  0.00  0.00    -0.047 A 
ATOM      5  C3  UNL d   1       1.711   5.799  -5.175  0.00  0.00    -0.047 A 
ATOM      6  C4  UNL d   1       0.624   6.000  -5.999  0.00  0.00    -0.004 A 
ENDROOT
TORSDOF 0
ENDMDL
