MODEL 1
REMARK minimizedAffinity 6.53271532
REMARK minimizedRMSD -1
REMARK  0 active torsions:
REMARK  status: ('A' for Active; 'I' for Inactive)
ROOT
ATOM      1  C   UNL d   1      -4.742  -2.896   1.510  0.00  0.00     0.172 C 
ATOM      2  N   UNL d   1      -5.249  -3.986   2.309  0.00  0.00    -0.070 N 
ATOM      3  C1  UNL d   1      -5.528  -3.931   3.648  0.00  0.00    -0.004 A 
ATOM      4  C2  UNL d   1      -5.991  -5.171   4.034  0.00  0.00    -0.047 A 
ATOM      5  C3  UNL d   1      -5.988  -6.000   2.887  0.00  0.00    -0.047 A 
ATOM      6  C4  UNL d   1      -5.525  -5.241   1.833  0.00  0.00    -0.004 A 
ENDROOT
TORSDOF 0
ENDMDL
