MODEL 1
REMARK minimizedAffinity 9.10300541
REMARK minimizedRMSD -1
REMARK  0 active torsions:
REMARK  status: ('A' for Active; 'I' for Inactive)
ROOT
ATOM      1  C   UNL d   1       4.559   4.521  -2.611  0.00  0.00     0.172 C 
ATOM      2  N   UNL d   1       3.233   3.966  -2.743  0.00  0.00    -0.070 N 
ATOM      3  C1  UNL d   1       2.060   4.659  -2.600  0.00  0.00    -0.004 A 
ATOM      4  C2  UNL d   1       1.021   3.776  -2.803  0.00  0.00    -0.047 A 
ATOM      5  C3  UNL d   1       1.589   2.509  -3.075  0.00  0.00    -0.047 A 
ATOM      6  C4  UNL d   1       2.960   2.655  -3.032  0.00  0.00    -0.004 A 
ENDROOT
TORSDOF 0
ENDMDL
