MODEL 1
REMARK minimizedAffinity 2.3833704
REMARK minimizedRMSD -1
REMARK  0 active torsions:
REMARK  status: ('A' for Active; 'I' for Inactive)
ROOT
ATOM      1  C   UNL d   1      -3.389   1.060   5.827  0.00  0.00     0.172 C 
ATOM      2  N   UNL d   1      -4.111   0.189   4.930  0.00  0.00    -0.070 N 
ATOM      3  C1  UNL d   1      -4.846  -0.906   5.299  0.00  0.00    -0.004 A 
ATOM      4  C2  UNL d   1      -5.375  -1.465   4.156  0.00  0.00    -0.047 A 
ATOM      5  C3  UNL d   1      -4.943  -0.679   3.061  0.00  0.00    -0.047 A 
ATOM      6  C4  UNL d   1      -4.162   0.338   3.569  0.00  0.00    -0.004 A 
ENDROOT
TORSDOF 0
ENDMDL
