MODEL 1
REMARK minimizedAffinity -1.03663111
REMARK minimizedRMSD -1
REMARK  0 active torsions:
REMARK  status: ('A' for Active; 'I' for Inactive)
ROOT
ATOM      1  C   UNL d   1      -3.019   1.204   5.757  0.00  0.00     0.172 C 
ATOM      2  N   UNL d   1      -3.516   0.392   4.671  0.00  0.00    -0.070 N 
ATOM      3  C1  UNL d   1      -4.691  -0.311   4.672  0.00  0.00    -0.004 A 
ATOM      4  C2  UNL d   1      -4.802  -0.951   3.457  0.00  0.00    -0.047 A 
ATOM      5  C3  UNL d   1      -3.653  -0.622   2.699  0.00  0.00    -0.047 A 
ATOM      6  C4  UNL d   1      -2.874   0.211   3.474  0.00  0.00    -0.004 A 
ENDROOT
TORSDOF 0
ENDMDL
