MODEL 1
REMARK minimizedAffinity 3.99793601
REMARK minimizedRMSD -1
REMARK  0 active torsions:
REMARK  status: ('A' for Active; 'I' for Inactive)
ROOT
ATOM      1  C   UNL d   1      -2.308   0.817   4.262  0.00  0.00     0.172 C 
ATOM      2  N   UNL d   1      -3.414  -0.071   3.991  0.00  0.00    -0.070 N 
ATOM      3  C1  UNL d   1      -3.588  -0.803   2.847  0.00  0.00    -0.004 A 
ATOM      4  C2  UNL d   1      -4.758  -1.520   2.978  0.00  0.00    -0.047 A 
ATOM      5  C3  UNL d   1      -5.306  -1.206   4.245  0.00  0.00    -0.047 A 
ATOM      6  C4  UNL d   1      -4.454  -0.307   4.850  0.00  0.00    -0.004 A 
ENDROOT
TORSDOF 0
ENDMDL
