MODEL 1
REMARK minimizedAffinity 3.71757221
REMARK minimizedRMSD -1
REMARK  0 active torsions:
REMARK  status: ('A' for Active; 'I' for Inactive)
ROOT
ATOM      1  C   UNL d   1       4.003  -5.999   0.003  0.00  0.00     0.172 C 
ATOM      2  N   UNL d   1       4.107  -4.576  -0.217  0.00  0.00    -0.070 N 
ATOM      3  C1  UNL d   1       3.157  -3.646   0.109  0.00  0.00    -0.004 A 
ATOM      4  C2  UNL d   1       3.634  -2.407  -0.260  0.00  0.00    -0.047 A 
ATOM      5  C3  UNL d   1       4.915  -2.599  -0.829  0.00  0.00    -0.047 A 
ATOM      6  C4  UNL d   1       5.184  -3.951  -0.789  0.00  0.00    -0.004 A 
ENDROOT
TORSDOF 0
ENDMDL
