MODEL 1
REMARK minimizedAffinity 9.16134644
REMARK minimizedRMSD -1
REMARK  0 active torsions:
REMARK  status: ('A' for Active; 'I' for Inactive)
ROOT
ATOM      1  C   UNL d   1       1.141   5.852  -1.873  0.00  0.00     0.172 C 
ATOM      2  N   UNL d   1       1.375   4.449  -2.123  0.00  0.00    -0.070 N 
ATOM      3  C1  UNL d   1       0.410   3.512  -2.379  0.00  0.00    -0.004 A 
ATOM      4  C2  UNL d   1       1.037   2.299  -2.562  0.00  0.00    -0.047 A 
ATOM      5  C3  UNL d   1       2.428   2.514  -2.411  0.00  0.00    -0.047 A 
ATOM      6  C4  UNL d   1       2.609   3.853  -2.139  0.00  0.00    -0.004 A 
ENDROOT
TORSDOF 0
ENDMDL
