MODEL 1
REMARK minimizedAffinity -1.99710763
REMARK minimizedRMSD -1
REMARK  0 active torsions:
REMARK  status: ('A' for Active; 'I' for Inactive)
ROOT
ATOM      1  C   UNL d   1       3.372  -5.626  -3.713  0.00  0.00     0.172 C 
ATOM      2  N   UNL d   1       4.241  -5.262  -2.618  0.00  0.00    -0.070 N 
ATOM      3  C1  UNL d   1       5.301  -5.998  -2.161  0.00  0.00    -0.004 A 
ATOM      4  C2  UNL d   1       5.870  -5.311  -1.110  0.00  0.00    -0.047 A 
ATOM      5  C3  UNL d   1       5.125  -4.122  -0.929  0.00  0.00    -0.047 A 
ATOM      6  C4  UNL d   1       4.122  -4.117  -1.875  0.00  0.00    -0.004 A 
ENDROOT
TORSDOF 0
ENDMDL
