MODEL 1
REMARK minimizedAffinity 1.60508955
REMARK minimizedRMSD -1
REMARK  0 active torsions:
REMARK  status: ('A' for Active; 'I' for Inactive)
ROOT
ATOM      1  C   UNL d   1       2.562  -4.916  -1.134  0.00  0.00     0.172 C 
ATOM      2  N   UNL d   1       3.960  -4.825  -0.786  0.00  0.00    -0.070 N 
ATOM      3  C1  UNL d   1       4.725  -5.842  -0.281  0.00  0.00    -0.004 A 
ATOM      4  C2  UNL d   1       5.999  -5.355  -0.084  0.00  0.00    -0.047 A 
ATOM      5  C3  UNL d   1       5.999  -3.997  -0.483  0.00  0.00    -0.047 A 
ATOM      6  C4  UNL d   1       4.725  -3.695  -0.913  0.00  0.00    -0.004 A 
ENDROOT
TORSDOF 0
ENDMDL
