MODEL 1
REMARK minimizedAffinity 3.77736354
REMARK minimizedRMSD -1
REMARK  0 active torsions:
REMARK  status: ('A' for Active; 'I' for Inactive)
ROOT
ATOM      1  C   UNL d   1       4.881  -2.652  -1.190  0.00  0.00     0.172 C 
ATOM      2  N   UNL d   1       3.730  -3.036  -0.406  0.00  0.00    -0.070 N 
ATOM      3  C1  UNL d   1       3.212  -2.334   0.649  0.00  0.00    -0.004 A 
ATOM      4  C2  UNL d   1       2.122  -3.030   1.125  0.00  0.00    -0.047 A 
ATOM      5  C3  UNL d   1       1.981  -4.192   0.329  0.00  0.00    -0.047 A 
ATOM      6  C4  UNL d   1       2.990  -4.171  -0.611  0.00  0.00    -0.004 A 
ENDROOT
TORSDOF 0
ENDMDL
