MODEL 1
REMARK minimizedAffinity 9.50653172
REMARK minimizedRMSD -1
REMARK  0 active torsions:
REMARK  status: ('A' for Active; 'I' for Inactive)
ROOT
ATOM      1  C   UNL d   1      -5.789  -1.100  -2.613  0.00  0.00     0.172 C 
ATOM      2  N   UNL d   1      -5.549  -0.252  -1.469  0.00  0.00    -0.070 N 
ATOM      3  C1  UNL d   1      -5.994  -0.486  -0.195  0.00  0.00    -0.004 A 
ATOM      4  C2  UNL d   1      -5.555   0.550   0.602  0.00  0.00    -0.047 A 
ATOM      5  C3  UNL d   1      -4.822   1.437  -0.222  0.00  0.00    -0.047 A 
ATOM      6  C4  UNL d   1      -4.834   0.916  -1.499  0.00  0.00    -0.004 A 
ENDROOT
TORSDOF 0
ENDMDL
