MODEL 1
REMARK minimizedAffinity 4.41419125
REMARK minimizedRMSD -1
REMARK  0 active torsions:
REMARK  status: ('A' for Active; 'I' for Inactive)
ROOT
ATOM      1  C   UNL d   1       0.494  -2.472   1.586  0.00  0.00     0.172 C 
ATOM      2  N   UNL d   1      -0.703  -1.670   1.674  0.00  0.00    -0.070 N 
ATOM      3  C1  UNL d   1      -1.987  -2.141   1.594  0.00  0.00    -0.004 A 
ATOM      4  C2  UNL d   1      -2.839  -1.066   1.723  0.00  0.00    -0.047 A 
ATOM      5  C3  UNL d   1      -2.040   0.091   1.886  0.00  0.00    -0.047 A 
ATOM      6  C4  UNL d   1      -0.722  -0.312   1.852  0.00  0.00    -0.004 A 
ENDROOT
TORSDOF 0
ENDMDL
