MODEL 1
REMARK minimizedAffinity -0.511098087
REMARK minimizedRMSD -1
REMARK  0 active torsions:
REMARK  status: ('A' for Active; 'I' for Inactive)
ROOT
ATOM      1  C   UNL d   1      -1.498   1.421   1.239  0.00  0.00     0.172 C 
ATOM      2  N   UNL d   1      -0.683   0.243   1.063  0.00  0.00    -0.070 N 
ATOM      3  C1  UNL d   1       0.411   0.143   0.245  0.00  0.00    -0.004 A 
ATOM      4  C2  UNL d   1       0.909  -1.137   0.360  0.00  0.00    -0.047 A 
ATOM      5  C3  UNL d   1       0.085  -1.831   1.277  0.00  0.00    -0.047 A 
ATOM      6  C4  UNL d   1      -0.892  -0.953   1.698  0.00  0.00    -0.004 A 
ENDROOT
TORSDOF 0
ENDMDL
