MODEL 1
REMARK minimizedAffinity 7.47083807
REMARK minimizedRMSD -1
REMARK  1 active torsions:
REMARK  status: ('A' for Active; 'I' for Inactive)
REMARK    1  A    between atoms: N_2  and  C1_3 
ROOT
ATOM      1  C1  UNL d   1      -0.295   2.262   0.043  0.00  0.00     0.143 A 
ATOM      2  C2  UNL d   1      -1.582   1.794  -0.246  0.00  0.00    -0.057 A 
ATOM      3  C3  UNL d   1      -1.783   0.547  -0.849  0.00  0.00     0.033 A 
ATOM      4  C4  UNL d   1      -0.695  -0.245  -1.202  0.00  0.00    -0.042 A 
ATOM      5  C5  UNL d   1       0.594   0.211  -0.948  0.00  0.00     0.033 A 
ATOM      6  C6  UNL d   1       0.788   1.454  -0.340  0.00  0.00    -0.057 A 
ENDROOT
BRANCH   1   7
ATOM      7  N   UNL d   1      -0.026   3.535   0.551  0.00  0.00    -0.732 N 
ATOM      8  C   UNL d   1       0.472   4.584  -0.313  0.00  0.00     0.284 C 
ATOM      9  H3  UNL d   1      -0.731   3.844   1.217  0.00  0.00     0.395 HD
ENDBRANCH   1   7
TORSDOF 1
ENDMDL
