MODEL 1
REMARK minimizedAffinity 8.43016338
REMARK minimizedRMSD -1
REMARK  1 active torsions:
REMARK  status: ('A' for Active; 'I' for Inactive)
REMARK    1  A    between atoms: N_2  and  C1_3 
ROOT
ATOM      1  C1  UNL d   1       0.298   2.704   2.527  0.00  0.00     0.143 A 
ATOM      2  C2  UNL d   1       1.587   2.192   2.711  0.00  0.00    -0.057 A 
ATOM      3  C3  UNL d   1       1.831   1.146   3.609  0.00  0.00     0.033 A 
ATOM      4  C4  UNL d   1       0.791   0.611   4.363  0.00  0.00    -0.042 A 
ATOM      5  C5  UNL d   1      -0.494   1.121   4.214  0.00  0.00     0.033 A 
ATOM      6  C6  UNL d   1      -0.732   2.161   3.311  0.00  0.00    -0.057 A 
ENDROOT
BRANCH   1   7
ATOM      7  N   UNL d   1       0.007   3.808   1.723  0.00  0.00    -0.732 N 
ATOM      8  C   UNL d   1       0.395   3.827   0.328  0.00  0.00     0.284 C 
ATOM      9  H3  UNL d   1      -0.920   4.186   1.901  0.00  0.00     0.395 HD
ENDBRANCH   1   7
TORSDOF 1
ENDMDL
