MODEL 1
REMARK minimizedAffinity 8.13397789
REMARK minimizedRMSD -1
REMARK  1 active torsions:
REMARK  status: ('A' for Active; 'I' for Inactive)
REMARK    1  A    between atoms: N_2  and  C1_3 
ROOT
ATOM      1  C1  UNL d   1       0.475   3.346   0.116  0.00  0.00     0.143 A 
ATOM      2  C2  UNL d   1       1.123   4.173  -0.809  0.00  0.00    -0.057 A 
ATOM      3  C3  UNL d   1       0.699   5.489  -1.027  0.00  0.00     0.033 A 
ATOM      4  C4  UNL d   1      -0.402   5.994  -0.343  0.00  0.00    -0.042 A 
ATOM      5  C5  UNL d   1      -1.076   5.182   0.562  0.00  0.00     0.033 A 
ATOM      6  C6  UNL d   1      -0.644   3.871   0.781  0.00  0.00    -0.057 A 
ENDROOT
BRANCH   1   7
ATOM      7  N   UNL d   1       0.788   1.998   0.306  0.00  0.00    -0.732 N 
ATOM      8  C   UNL d   1       0.722   1.063  -0.797  0.00  0.00     0.284 C 
ATOM      9  H3  UNL d   1       1.593   1.867   0.913  0.00  0.00     0.395 HD
ENDBRANCH   1   7
TORSDOF 1
ENDMDL
