MODEL 1
REMARK minimizedAffinity 8.22342873
REMARK minimizedRMSD -1
REMARK  1 active torsions:
REMARK  status: ('A' for Active; 'I' for Inactive)
REMARK    1  A    between atoms: N_2  and  C1_3 
ROOT
ATOM      1  C1  UNL d   1       0.317   3.953   1.012  0.00  0.00     0.143 A 
ATOM      2  C2  UNL d   1       1.444   4.241   0.235  0.00  0.00    -0.057 A 
ATOM      3  C3  UNL d   1       1.425   5.261  -0.723  0.00  0.00     0.033 A 
ATOM      4  C4  UNL d   1       0.264   5.996  -0.942  0.00  0.00    -0.042 A 
ATOM      5  C5  UNL d   1      -0.876   5.711  -0.200  0.00  0.00     0.033 A 
ATOM      6  C6  UNL d   1      -0.848   4.695   0.760  0.00  0.00    -0.057 A 
ENDROOT
BRANCH   1   7
ATOM      7  N   UNL d   1       0.243   2.887   1.911  0.00  0.00    -0.732 N 
ATOM      8  C   UNL d   1       1.399   2.496   2.688  0.00  0.00     0.284 C 
ATOM      9  H3  UNL d   1      -0.631   2.879   2.433  0.00  0.00     0.395 HD
ENDBRANCH   1   7
TORSDOF 1
ENDMDL
