MODEL 1
REMARK minimizedAffinity 12.5581942
REMARK minimizedRMSD -1
REMARK  1 active torsions:
REMARK  status: ('A' for Active; 'I' for Inactive)
REMARK    1  A    between atoms: N_2  and  C1_3 
ROOT
ATOM      1  C1  UNL d   1       1.064  -0.181   3.725  0.00  0.00     0.143 A 
ATOM      2  C2  UNL d   1      -0.113   0.556   3.556  0.00  0.00    -0.057 A 
ATOM      3  C3  UNL d   1      -0.104   1.799   2.912  0.00  0.00     0.033 A 
ATOM      4  C4  UNL d   1       1.090   2.342   2.450  0.00  0.00    -0.042 A 
ATOM      5  C5  UNL d   1       2.276   1.638   2.629  0.00  0.00     0.033 A 
ATOM      6  C6  UNL d   1       2.260   0.394   3.267  0.00  0.00    -0.057 A 
ENDROOT
BRANCH   1   7
ATOM      7  N   UNL d   1       1.137  -1.377   4.444  0.00  0.00    -0.732 N 
ATOM      8  C   UNL d   1       2.247  -2.285   4.254  0.00  0.00     0.284 C 
ATOM      9  H3  UNL d   1       0.853  -1.264   5.415  0.00  0.00     0.395 HD
ENDBRANCH   1   7
TORSDOF 1
ENDMDL
