MODEL 1
REMARK minimizedAffinity -4.0565362
REMARK minimizedRMSD -1
REMARK  1 active torsions:
REMARK  status: ('A' for Active; 'I' for Inactive)
REMARK    1  A    between atoms: C3_4  and  O_7 
ROOT
ATOM      1  C   UNL d   1       1.117   0.362   0.552  0.00  0.00    -0.033 A 
ATOM      2  C1  UNL d   1       1.825   1.506   0.925  0.00  0.00     0.039 A 
ATOM      3  C2  UNL d   1       1.946   2.576   0.036  0.00  0.00    -0.080 A 
ATOM      4  C3  UNL d   1       1.354   2.490  -1.221  0.00  0.00     0.150 A 
ATOM      5  C4  UNL d   1       0.644   1.354  -1.598  0.00  0.00    -0.007 A 
ATOM      6  C5  UNL d   1       0.525   0.287  -0.709  0.00  0.00     0.039 A 
ENDROOT
BRANCH   4   7
ATOM      7  O   UNL d   1       1.449   3.506  -2.125  0.00  0.00    -0.526 OA
ATOM      8  H5  UNL d   1       1.992   4.212  -1.737  0.00  0.00     0.418 HD
ENDBRANCH   4   7
TORSDOF 1
ENDMDL
