MODEL 1
REMARK minimizedAffinity -5.33494663
REMARK minimizedRMSD -1
REMARK  1 active torsions:
REMARK  status: ('A' for Active; 'I' for Inactive)
REMARK    1  A    between atoms: C3_4  and  O_7 
ROOT
ATOM      1  C   UNL d   1       1.007   0.933  -0.141  0.00  0.00    -0.033 A 
ATOM      2  C1  UNL d   1       0.803   1.802   0.932  0.00  0.00     0.039 A 
ATOM      3  C2  UNL d   1       0.912   3.182   0.746  0.00  0.00    -0.080 A 
ATOM      4  C3  UNL d   1       1.224   3.678  -0.516  0.00  0.00     0.150 A 
ATOM      5  C4  UNL d   1       1.424   2.818  -1.591  0.00  0.00    -0.007 A 
ATOM      6  C5  UNL d   1       1.316   1.441  -1.403  0.00  0.00     0.039 A 
ENDROOT
BRANCH   4   7
ATOM      7  O   UNL d   1       1.346   5.017  -0.745  0.00  0.00    -0.526 OA
ATOM      8  H5  UNL d   1       1.209   5.486   0.094  0.00  0.00     0.418 HD
ENDBRANCH   4   7
TORSDOF 1
ENDMDL
