MODEL 1
REMARK minimizedAffinity -4.06315231
REMARK minimizedRMSD -1
REMARK  1 active torsions:
REMARK  status: ('A' for Active; 'I' for Inactive)
REMARK    1  A    between atoms: C3_4  and  O_7 
ROOT
ATOM      1  C   UNL d   1       0.926   2.034  -0.788  0.00  0.00    -0.033 A 
ATOM      2  C1  UNL d   1       1.057   1.281   0.380  0.00  0.00     0.039 A 
ATOM      3  C2  UNL d   1       1.269  -0.097   0.303  0.00  0.00    -0.080 A 
ATOM      4  C3  UNL d   1       1.349  -0.708  -0.945  0.00  0.00     0.150 A 
ATOM      5  C4  UNL d   1       1.223   0.037  -2.113  0.00  0.00    -0.007 A 
ATOM      6  C5  UNL d   1       1.010   1.413  -2.034  0.00  0.00     0.039 A 
ENDROOT
BRANCH   4   7
ATOM      7  O   UNL d   1       1.550  -2.051  -1.070  0.00  0.00    -0.526 OA
ATOM      8  H5  UNL d   1       1.590  -2.440  -0.180  0.00  0.00     0.418 HD
ENDBRANCH   4   7
TORSDOF 1
ENDMDL
