MODEL 1
REMARK minimizedAffinity -5.40519714
REMARK minimizedRMSD -1
REMARK  1 active torsions:
REMARK  status: ('A' for Active; 'I' for Inactive)
REMARK    1  A    between atoms: C3_4  and  O_7 
ROOT
ATOM      1  C   UNL d   1       1.220   0.695  -0.234  0.00  0.00    -0.033 A 
ATOM      2  C1  UNL d   1       1.316   1.250  -1.512  0.00  0.00     0.039 A 
ATOM      3  C2  UNL d   1       1.381   2.635  -1.670  0.00  0.00    -0.080 A 
ATOM      4  C3  UNL d   1       1.351   3.454  -0.544  0.00  0.00     0.150 A 
ATOM      5  C4  UNL d   1       1.260   2.907   0.732  0.00  0.00    -0.007 A 
ATOM      6  C5  UNL d   1       1.194   1.523   0.888  0.00  0.00     0.039 A 
ENDROOT
BRANCH   4   7
ATOM      7  O   UNL d   1       1.408   4.812  -0.648  0.00  0.00    -0.526 OA
ATOM      8  H5  UNL d   1       1.439   5.047  -1.590  0.00  0.00     0.418 HD
ENDBRANCH   4   7
TORSDOF 1
ENDMDL
