MODEL 1
REMARK minimizedAffinity 1.72541547
REMARK minimizedRMSD -1
REMARK  1 active torsions:
REMARK  status: ('A' for Active; 'I' for Inactive)
REMARK    1  A    between atoms: C3_4  and  O_7 
ROOT
ATOM      1  C   UNL d   1       1.039  -0.110   0.585  0.00  0.00    -0.033 A 
ATOM      2  C1  UNL d   1       0.955  -0.408  -0.777  0.00  0.00     0.039 A 
ATOM      3  C2  UNL d   1       1.118   0.603  -1.725  0.00  0.00    -0.080 A 
ATOM      4  C3  UNL d   1       1.364   1.906  -1.300  0.00  0.00     0.150 A 
ATOM      5  C4  UNL d   1       1.453   2.209   0.054  0.00  0.00    -0.007 A 
ATOM      6  C5  UNL d   1       1.289   1.198   1.000  0.00  0.00     0.039 A 
ENDROOT
BRANCH   4   7
ATOM      7  O   UNL d   1       1.525   2.927  -2.189  0.00  0.00    -0.526 OA
ATOM      8  H5  UNL d   1       1.410   2.575  -3.087  0.00  0.00     0.418 HD
ENDBRANCH   4   7
TORSDOF 1
ENDMDL
