MODEL 1
REMARK minimizedAffinity -2.64863896
REMARK minimizedRMSD -1
REMARK  1 active torsions:
REMARK  status: ('A' for Active; 'I' for Inactive)
REMARK    1  A    between atoms: C3_4  and  O_7 
ROOT
ATOM      1  C   UNL d   1       0.854   2.865   0.753  0.00  0.00    -0.033 A 
ATOM      2  C1  UNL d   1       1.254   3.781  -0.222  0.00  0.00     0.039 A 
ATOM      3  C2  UNL d   1       1.325   3.391  -1.561  0.00  0.00    -0.080 A 
ATOM      4  C3  UNL d   1       0.992   2.086  -1.912  0.00  0.00     0.150 A 
ATOM      5  C4  UNL d   1       0.588   1.169  -0.946  0.00  0.00    -0.007 A 
ATOM      6  C5  UNL d   1       0.519   1.560   0.391  0.00  0.00     0.039 A 
ENDROOT
BRANCH   4   7
ATOM      7  O   UNL d   1       1.050   1.658  -3.205  0.00  0.00    -0.526 OA
ATOM      8  H5  UNL d   1       1.372   2.390  -3.757  0.00  0.00     0.418 HD
ENDBRANCH   4   7
TORSDOF 1
ENDMDL
