MODEL 1
REMARK minimizedAffinity -2.85248828
REMARK minimizedRMSD -1
REMARK  1 active torsions:
REMARK  status: ('A' for Active; 'I' for Inactive)
REMARK    1  A    between atoms: C3_4  and  O_7 
ROOT
ATOM      1  C   UNL d   1       1.569   0.072  -0.241  0.00  0.00    -0.033 A 
ATOM      2  C1  UNL d   1       1.078   0.919   0.754  0.00  0.00     0.039 A 
ATOM      3  C2  UNL d   1       0.845   2.267   0.475  0.00  0.00    -0.080 A 
ATOM      4  C3  UNL d   1       1.106   2.755  -0.803  0.00  0.00     0.150 A 
ATOM      5  C4  UNL d   1       1.593   1.916  -1.800  0.00  0.00    -0.007 A 
ATOM      6  C5  UNL d   1       1.825   0.571  -1.519  0.00  0.00     0.039 A 
ENDROOT
BRANCH   4   7
ATOM      7  O   UNL d   1       0.899   4.064  -1.122  0.00  0.00    -0.526 OA
ATOM      8  H5  UNL d   1       0.590   4.529  -0.327  0.00  0.00     0.418 HD
ENDBRANCH   4   7
TORSDOF 1
ENDMDL
