MODEL 1
REMARK minimizedAffinity 2.08490705
REMARK minimizedRMSD -1
REMARK  1 active torsions:
REMARK  status: ('A' for Active; 'I' for Inactive)
REMARK    1  A    between atoms: C3_4  and  O_7 
ROOT
ATOM      1  C   UNL d   1       0.875   2.291  -0.461  0.00  0.00    -0.033 A 
ATOM      2  C1  UNL d   1       1.254   1.941   0.837  0.00  0.00     0.039 A 
ATOM      3  C2  UNL d   1       1.420   0.597   1.178  0.00  0.00    -0.080 A 
ATOM      4  C3  UNL d   1       1.206  -0.385   0.214  0.00  0.00     0.150 A 
ATOM      5  C4  UNL d   1       0.833  -0.042  -1.081  0.00  0.00    -0.007 A 
ATOM      6  C5  UNL d   1       0.666   1.300  -1.420  0.00  0.00     0.039 A 
ENDROOT
BRANCH   4   7
ATOM      7  O   UNL d   1       1.352  -1.709   0.501  0.00  0.00    -0.526 OA
ATOM      8  H5  UNL d   1       1.584  -1.797   1.441  0.00  0.00     0.418 HD
ENDBRANCH   4   7
TORSDOF 1
ENDMDL
