MODEL 1
REMARK minimizedAffinity -1.5808332
REMARK minimizedRMSD -1
REMARK  1 active torsions:
REMARK  status: ('A' for Active; 'I' for Inactive)
REMARK    1  A    between atoms: C3_4  and  O_7 
ROOT
ATOM      1  C   UNL d   1       1.193   3.197  -0.039  0.00  0.00    -0.033 A 
ATOM      2  C1  UNL d   1       1.588   2.770  -1.309  0.00  0.00     0.039 A 
ATOM      3  C2  UNL d   1       1.659   1.406  -1.598  0.00  0.00    -0.080 A 
ATOM      4  C3  UNL d   1       1.332   0.480  -0.611  0.00  0.00     0.150 A 
ATOM      5  C4  UNL d   1       0.934   0.898   0.655  0.00  0.00    -0.007 A 
ATOM      6  C5  UNL d   1       0.865   2.261   0.942  0.00  0.00     0.039 A 
ENDROOT
BRANCH   4   7
ATOM      7  O   UNL d   1       1.391  -0.862  -0.844  0.00  0.00    -0.526 OA
ATOM      8  H5  UNL d   1       1.709  -1.002  -1.752  0.00  0.00     0.418 HD
ENDBRANCH   4   7
TORSDOF 1
ENDMDL
