MODEL 1
REMARK minimizedAffinity 1.14475143
REMARK minimizedRMSD -1
REMARK  1 active torsions:
REMARK  status: ('A' for Active; 'I' for Inactive)
REMARK    1  A    between atoms: C3_4  and  O_7 
ROOT
ATOM      1  C   UNL d   1      -0.152  -4.001  -0.780  0.00  0.00    -0.033 A 
ATOM      2  C1  UNL d   1      -0.553  -3.372  -1.961  0.00  0.00     0.039 A 
ATOM      3  C2  UNL d   1      -0.002  -2.140  -2.319  0.00  0.00    -0.080 A 
ATOM      4  C3  UNL d   1       0.946  -1.548  -1.489  0.00  0.00     0.150 A 
ATOM      5  C4  UNL d   1       1.352  -2.171  -0.313  0.00  0.00    -0.007 A 
ATOM      6  C5  UNL d   1       0.801  -3.401   0.043  0.00  0.00     0.039 A 
ENDROOT
BRANCH   4   7
ATOM      7  O   UNL d   1       1.508  -0.344  -1.794  0.00  0.00    -0.526 OA
ATOM      8  H5  UNL d   1       1.110  -0.019  -2.619  0.00  0.00     0.418 HD
ENDBRANCH   4   7
TORSDOF 1
ENDMDL
