MODEL 1
REMARK minimizedAffinity -3.90229297
REMARK minimizedRMSD -1
REMARK  1 active torsions:
REMARK  status: ('A' for Active; 'I' for Inactive)
REMARK    1  A    between atoms: C3_4  and  O_7 
ROOT
ATOM      1  C   UNL d   1       0.991  -0.011  -0.288  0.00  0.00    -0.033 A 
ATOM      2  C1  UNL d   1       1.001   1.166   0.464  0.00  0.00     0.039 A 
ATOM      3  C2  UNL d   1       1.317   2.382  -0.143  0.00  0.00    -0.080 A 
ATOM      4  C3  UNL d   1       1.620   2.410  -1.502  0.00  0.00     0.150 A 
ATOM      5  C4  UNL d   1       1.609   1.242  -2.258  0.00  0.00    -0.007 A 
ATOM      6  C5  UNL d   1       1.294   0.028  -1.650  0.00  0.00     0.039 A 
ENDROOT
BRANCH   4   7
ATOM      7  O   UNL d   1       1.939   3.573  -2.137  0.00  0.00    -0.526 OA
ATOM      8  H5  UNL d   1       1.935   4.292  -1.484  0.00  0.00     0.418 HD
ENDBRANCH   4   7
TORSDOF 1
ENDMDL
