MODEL 1
REMARK minimizedAffinity -2.04766321
REMARK minimizedRMSD -1
REMARK  1 active torsions:
REMARK  status: ('A' for Active; 'I' for Inactive)
REMARK    1  A    between atoms: C3_4  and  O_7 
ROOT
ATOM      1  C   UNL d   1       0.699   0.783  -0.654  0.00  0.00    -0.033 A 
ATOM      2  C1  UNL d   1       0.609   1.206  -1.981  0.00  0.00     0.039 A 
ATOM      3  C2  UNL d   1       1.004   2.498  -2.332  0.00  0.00    -0.080 A 
ATOM      4  C3  UNL d   1       1.488   3.356  -1.348  0.00  0.00     0.150 A 
ATOM      5  C4  UNL d   1       1.585   2.939  -0.025  0.00  0.00    -0.007 A 
ATOM      6  C5  UNL d   1       1.189   1.649   0.324  0.00  0.00     0.039 A 
ENDROOT
BRANCH   4   7
ATOM      7  O   UNL d   1       1.882   4.627  -1.642  0.00  0.00    -0.526 OA
ATOM      8  H5  UNL d   1       1.732   4.785  -2.589  0.00  0.00     0.418 HD
ENDBRANCH   4   7
TORSDOF 1
ENDMDL
