MODEL 1
REMARK minimizedAffinity -1.01754558
REMARK minimizedRMSD -1
REMARK  1 active torsions:
REMARK  status: ('A' for Active; 'I' for Inactive)
REMARK    1  A    between atoms: C3_4  and  O_7 
ROOT
ATOM      1  C   UNL d   1       1.444   1.771  -0.529  0.00  0.00    -0.033 A 
ATOM      2  C1  UNL d   1       1.462   2.591   0.601  0.00  0.00     0.039 A 
ATOM      3  C2  UNL d   1       1.610   3.973   0.460  0.00  0.00    -0.080 A 
ATOM      4  C3  UNL d   1       1.738   4.520  -0.814  0.00  0.00     0.150 A 
ATOM      5  C4  UNL d   1       1.717   3.709  -1.943  0.00  0.00    -0.007 A 
ATOM      6  C5  UNL d   1       1.570   2.329  -1.801  0.00  0.00     0.039 A 
ENDROOT
BRANCH   4   7
ATOM      7  O   UNL d   1       1.889   5.862  -1.001  0.00  0.00    -0.526 OA
ATOM      8  H5  UNL d   1       1.914   6.293  -0.130  0.00  0.00     0.418 HD
ENDBRANCH   4   7
TORSDOF 1
ENDMDL
