MODEL 1
REMARK minimizedAffinity -4.69146919
REMARK minimizedRMSD -1
REMARK  1 active torsions:
REMARK  status: ('A' for Active; 'I' for Inactive)
REMARK    1  A    between atoms: C3_4  and  O_7 
ROOT
ATOM      1  C   UNL d   1       0.815   2.719  -0.563  0.00  0.00    -0.033 A 
ATOM      2  C1  UNL d   1       0.676   1.922   0.574  0.00  0.00     0.039 A 
ATOM      3  C2  UNL d   1       1.063   0.580   0.540  0.00  0.00    -0.080 A 
ATOM      4  C3  UNL d   1       1.588   0.050  -0.635  0.00  0.00     0.150 A 
ATOM      5  C4  UNL d   1       1.732   0.840  -1.771  0.00  0.00    -0.007 A 
ATOM      6  C5  UNL d   1       1.345   2.179  -1.735  0.00  0.00     0.039 A 
ENDROOT
BRANCH   4   7
ATOM      7  O   UNL d   1       1.975  -1.254  -0.718  0.00  0.00    -0.526 OA
ATOM      8  H5  UNL d   1       1.790  -1.685   0.134  0.00  0.00     0.418 HD
ENDBRANCH   4   7
TORSDOF 1
ENDMDL
