MODEL 1
REMARK minimizedAffinity -3.20990729
REMARK minimizedRMSD -1
REMARK  1 active torsions:
REMARK  status: ('A' for Active; 'I' for Inactive)
REMARK    1  A    between atoms: C3_4  and  O_7 
ROOT
ATOM      1  C   UNL d   1       0.939   1.104  -0.766  0.00  0.00    -0.033 A 
ATOM      2  C1  UNL d   1       0.937   1.913   0.372  0.00  0.00     0.039 A 
ATOM      3  C2  UNL d   1       1.231   3.274   0.264  0.00  0.00    -0.080 A 
ATOM      4  C3  UNL d   1       1.524   3.812  -0.986  0.00  0.00     0.150 A 
ATOM      5  C4  UNL d   1       1.523   3.013  -2.124  0.00  0.00    -0.007 A 
ATOM      6  C5  UNL d   1       1.230   1.655  -2.014  0.00  0.00     0.039 A 
ENDROOT
BRANCH   4   7
ATOM      7  O   UNL d   1       1.821   5.134  -1.140  0.00  0.00    -0.526 OA
ATOM      8  H5  UNL d   1       1.812   5.556  -0.265  0.00  0.00     0.418 HD
ENDBRANCH   4   7
TORSDOF 1
ENDMDL
