MODEL 1
REMARK minimizedAffinity -2.07552052
REMARK minimizedRMSD -1
REMARK  1 active torsions:
REMARK  status: ('A' for Active; 'I' for Inactive)
REMARK    1  A    between atoms: C3_4  and  O_7 
ROOT
ATOM      1  C   UNL d   1       1.008   0.202   0.180  0.00  0.00    -0.033 A 
ATOM      2  C1  UNL d   1       1.437   1.243   1.004  0.00  0.00     0.039 A 
ATOM      3  C2  UNL d   1       1.934   2.421   0.442  0.00  0.00    -0.080 A 
ATOM      4  C3  UNL d   1       1.994   2.545  -0.943  0.00  0.00     0.150 A 
ATOM      5  C4  UNL d   1       1.564   1.513  -1.770  0.00  0.00    -0.007 A 
ATOM      6  C5  UNL d   1       1.070   0.337  -1.207  0.00  0.00     0.039 A 
ENDROOT
BRANCH   4   7
ATOM      7  O   UNL d   1       2.475   3.673  -1.537  0.00  0.00    -0.526 OA
ATOM      8  H5  UNL d   1       2.762   4.289  -0.842  0.00  0.00     0.418 HD
ENDBRANCH   4   7
TORSDOF 1
ENDMDL
