MODEL 1
REMARK minimizedAffinity -6.44721079
REMARK minimizedRMSD -1
REMARK  3 active torsions:
REMARK  status: ('A' for Active; 'I' for Inactive)
REMARK    1  A    between atoms: C3'_2  and  C2'_3 
REMARK    2  A    between atoms: C2'_3  and  C1'_4 
REMARK    3  A    between atoms: C1'_4  and  C1_5 
ROOT
ATOM      1  C1  N4B d   1       0.315  -0.086  -0.127  0.00  0.00    -0.075 A 
ATOM      2  C2  N4B d   1       0.793  -1.408   0.014  0.00  0.00     0.002 A 
ATOM      3  C3  N4B d   1       0.118  -2.300   0.810  0.00  0.00     0.002 A 
ATOM      4  C4  N4B d   1      -1.021  -1.891   1.487  0.00  0.00    -0.004 A 
ATOM      5  C5  N4B d   1      -1.490  -0.620   1.325  0.00  0.00     0.002 A 
ATOM      6  C6  N4B d   1      -0.824   0.286   0.525  0.00  0.00     0.002 A 
ENDROOT
BRANCH   1   7
ATOM      7  C1' N4B d   1       1.066   0.950  -0.918  0.00  0.00     0.057 C 
BRANCH   7   8
ATOM      8  C2' N4B d   1       0.188   1.436  -2.067  0.00  0.00     0.009 C 
BRANCH   8   9
ATOM      9  C3' N4B d   1       0.981   2.233  -3.090  0.00  0.00     0.004 C 
ATOM     10  C4' N4B d   1       2.062   1.425  -3.744  0.00  0.00     0.003 C 
ENDBRANCH   8   9
ENDBRANCH   7   8
ENDBRANCH   1   7
TORSDOF 3
ENDMDL
