MODEL 1
REMARK minimizedAffinity -4.8404665
REMARK minimizedRMSD -1
REMARK  3 active torsions:
REMARK  status: ('A' for Active; 'I' for Inactive)
REMARK    1  A    between atoms: C3'_2  and  C2'_3 
REMARK    2  A    between atoms: C2'_3  and  C1'_4 
REMARK    3  A    between atoms: C1'_4  and  C1_5 
ROOT
ATOM      1  C1  N4B d   1       0.260  -0.033  -0.139  0.00  0.00    -0.075 A 
ATOM      2  C2  N4B d   1      -1.004  -0.378   0.387  0.00  0.00     0.002 A 
ATOM      3  C3  N4B d   1      -1.188  -1.600   0.986  0.00  0.00     0.002 A 
ATOM      4  C4  N4B d   1      -0.132  -2.497   1.054  0.00  0.00    -0.004 A 
ATOM      5  C5  N4B d   1       1.092  -2.146   0.566  0.00  0.00     0.002 A 
ATOM      6  C6  N4B d   1       1.293  -0.919  -0.035  0.00  0.00     0.002 A 
ENDROOT
BRANCH   1   7
ATOM      7  C1' N4B d   1       0.486   1.257  -0.880  0.00  0.00     0.057 C 
BRANCH   7   8
ATOM      8  C2' N4B d   1       1.472   1.013  -2.019  0.00  0.00     0.009 C 
BRANCH   8   9
ATOM      9  C3' N4B d   1       1.297   2.018  -3.145  0.00  0.00     0.004 C 
ATOM     10  C4' N4B d   1      -0.010   1.863  -3.864  0.00  0.00     0.003 C 
ENDBRANCH   8   9
ENDBRANCH   7   8
ENDBRANCH   1   7
TORSDOF 3
ENDMDL
