MODEL 1
REMARK minimizedAffinity -1.56424809
REMARK minimizedRMSD -1
REMARK  3 active torsions:
REMARK  status: ('A' for Active; 'I' for Inactive)
REMARK    1  A    between atoms: C3'_2  and  C2'_3 
REMARK    2  A    between atoms: C2'_3  and  C1'_4 
REMARK    3  A    between atoms: C1'_4  and  C1_5 
ROOT
ATOM      1  C1  N4B d   1       0.143   1.161   0.251  0.00  0.00    -0.075 A 
ATOM      2  C2  N4B d   1      -1.152   1.726   0.254  0.00  0.00     0.002 A 
ATOM      3  C3  N4B d   1      -2.256   0.910   0.266  0.00  0.00     0.002 A 
ATOM      4  C4  N4B d   1      -2.093  -0.467   0.255  0.00  0.00    -0.004 A 
ATOM      5  C5  N4B d   1      -0.839  -1.004   0.277  0.00  0.00     0.002 A 
ATOM      6  C6  N4B d   1       0.281  -0.197   0.270  0.00  0.00     0.002 A 
ENDROOT
BRANCH   1   7
ATOM      7  C1' N4B d   1       1.380   2.011   0.152  0.00  0.00     0.057 C 
BRANCH   7   8
ATOM      8  C2' N4B d   1       2.081   1.723  -1.173  0.00  0.00     0.009 C 
BRANCH   8   9
ATOM      9  C3' N4B d   1       1.282   2.232  -2.361  0.00  0.00     0.004 C 
ATOM     10  C4' N4B d   1       2.025   2.105  -3.657  0.00  0.00     0.003 C 
ENDBRANCH   8   9
ENDBRANCH   7   8
ENDBRANCH   1   7
TORSDOF 3
ENDMDL
