MODEL 1
REMARK minimizedAffinity -4.6932888
REMARK minimizedRMSD -1
REMARK  3 active torsions:
REMARK  status: ('A' for Active; 'I' for Inactive)
REMARK    1  A    between atoms: C3'_2  and  C2'_3 
REMARK    2  A    between atoms: C2'_3  and  C1'_4 
REMARK    3  A    between atoms: C1'_4  and  C1_5 
ROOT
ATOM      1  C1  N4B d   1      -0.167   0.282   0.467  0.00  0.00    -0.075 A 
ATOM      2  C2  N4B d   1       0.573  -0.853   0.068  0.00  0.00     0.002 A 
ATOM      3  C3  N4B d   1       0.262  -2.089   0.578  0.00  0.00     0.002 A 
ATOM      4  C4  N4B d   1      -0.768  -2.212   1.499  0.00  0.00    -0.004 A 
ATOM      5  C5  N4B d   1      -1.494  -1.115   1.860  0.00  0.00     0.002 A 
ATOM      6  C6  N4B d   1      -1.195   0.134   1.352  0.00  0.00     0.002 A 
ENDROOT
BRANCH   1   7
ATOM      7  C1' N4B d   1       0.191   1.667   0.002  0.00  0.00     0.057 C 
BRANCH   7   8
ATOM      8  C2' N4B d   1       1.208   1.568  -1.132  0.00  0.00     0.009 C 
BRANCH   8   9
ATOM      9  C3' N4B d   1       0.625   2.020  -2.459  0.00  0.00     0.004 C 
ATOM     10  C4' N4B d   1       1.350   1.444  -3.639  0.00  0.00     0.003 C 
ENDBRANCH   8   9
ENDBRANCH   7   8
ENDBRANCH   1   7
TORSDOF 3
ENDMDL
