MODEL 1
REMARK minimizedAffinity -4.37096405
REMARK minimizedRMSD -1
REMARK  3 active torsions:
REMARK  status: ('A' for Active; 'I' for Inactive)
REMARK    1  A    between atoms: C3'_2  and  C2'_3 
REMARK    2  A    between atoms: C2'_3  and  C1'_4 
REMARK    3  A    between atoms: C1'_4  and  C1_5 
ROOT
ATOM      1  C1  N4B d   1      -0.101   0.279   0.038  0.00  0.00    -0.075 A 
ATOM      2  C2  N4B d   1       0.599  -0.897  -0.310  0.00  0.00     0.002 A 
ATOM      3  C3  N4B d   1       0.482  -2.022   0.469  0.00  0.00     0.002 A 
ATOM      4  C4  N4B d   1      -0.311  -1.989   1.607  0.00  0.00    -0.004 A 
ATOM      5  C5  N4B d   1      -1.004  -0.857   1.922  0.00  0.00     0.002 A 
ATOM      6  C6  N4B d   1      -0.899   0.279   1.146  0.00  0.00     0.002 A 
ENDROOT
BRANCH   1   7
ATOM      7  C1' N4B d   1       0.062   1.559  -0.735  0.00  0.00     0.057 C 
BRANCH   7   8
ATOM      8  C2' N4B d   1       1.288   1.446  -1.637  0.00  0.00     0.009 C 
BRANCH   8   9
ATOM      9  C3' N4B d   1       1.200   2.377  -2.834  0.00  0.00     0.004 C 
ATOM     10  C4' N4B d   1      -0.210   2.769  -3.162  0.00  0.00     0.003 C 
ENDBRANCH   8   9
ENDBRANCH   7   8
ENDBRANCH   1   7
TORSDOF 3
ENDMDL
