MODEL 1
REMARK minimizedAffinity -5.39410686
REMARK minimizedRMSD -1
REMARK  3 active torsions:
REMARK  status: ('A' for Active; 'I' for Inactive)
REMARK    1  A    between atoms: C3'_2  and  C2'_3 
REMARK    2  A    between atoms: C2'_3  and  C1'_4 
REMARK    3  A    between atoms: C1'_4  and  C1_5 
ROOT
ATOM      1  C1  N4B d   1       0.546   0.093  -0.324  0.00  0.00    -0.075 A 
ATOM      2  C2  N4B d   1      -0.188  -0.300   0.816  0.00  0.00     0.002 A 
ATOM      3  C3  N4B d   1      -0.283  -1.629   1.147  0.00  0.00     0.002 A 
ATOM      4  C4  N4B d   1       0.330  -2.581   0.345  0.00  0.00    -0.004 A 
ATOM      5  C5  N4B d   1       1.058  -2.191  -0.740  0.00  0.00     0.002 A 
ATOM      6  C6  N4B d   1       1.166  -0.858  -1.082  0.00  0.00     0.002 A 
ENDROOT
BRANCH   1   7
ATOM      7  C1' N4B d   1       0.607   1.528  -0.775  0.00  0.00     0.057 C 
BRANCH   7   8
ATOM      8  C2' N4B d   1       1.748   1.691  -1.774  0.00  0.00     0.009 C 
BRANCH   8   9
ATOM      9  C3' N4B d   1       1.269   2.269  -3.094  0.00  0.00     0.004 C 
ATOM     10  C4' N4B d   1      -0.206   2.541  -3.108  0.00  0.00     0.003 C 
ENDBRANCH   8   9
ENDBRANCH   7   8
ENDBRANCH   1   7
TORSDOF 3
ENDMDL
