MODEL 1
REMARK minimizedAffinity -6.11624384
REMARK minimizedRMSD -1
REMARK  3 active torsions:
REMARK  status: ('A' for Active; 'I' for Inactive)
REMARK    1  A    between atoms: C3'_2  and  C2'_3 
REMARK    2  A    between atoms: C2'_3  and  C1'_4 
REMARK    3  A    between atoms: C1'_4  and  C1_5 
ROOT
ATOM      1  C1  N4B d   1      -0.767  -0.951   0.334  0.00  0.00    -0.075 A 
ATOM      2  C2  N4B d   1      -1.079  -2.262   0.756  0.00  0.00     0.002 A 
ATOM      3  C3  N4B d   1      -2.221  -2.496   1.482  0.00  0.00     0.002 A 
ATOM      4  C4  N4B d   1      -3.053  -1.436   1.812  0.00  0.00    -0.004 A 
ATOM      5  C5  N4B d   1      -2.757  -0.177   1.379  0.00  0.00     0.002 A 
ATOM      6  C6  N4B d   1      -1.615   0.072   0.645  0.00  0.00     0.002 A 
ENDROOT
BRANCH   1   7
ATOM      7  C1' N4B d   1       0.514  -0.633  -0.387  0.00  0.00     0.057 C 
BRANCH   7   8
ATOM      8  C2' N4B d   1       0.498   0.832  -0.815  0.00  0.00     0.009 C 
BRANCH   8   9
ATOM      9  C3' N4B d   1       1.684   1.179  -1.699  0.00  0.00     0.004 C 
ATOM     10  C4' N4B d   1       1.291   1.960  -2.917  0.00  0.00     0.003 C 
ENDBRANCH   8   9
ENDBRANCH   7   8
ENDBRANCH   1   7
TORSDOF 3
ENDMDL
