MODEL 1
REMARK minimizedAffinity -6.05507183
REMARK minimizedRMSD -1
REMARK  3 active torsions:
REMARK  status: ('A' for Active; 'I' for Inactive)
REMARK    1  A    between atoms: C3'_2  and  C2'_3 
REMARK    2  A    between atoms: C2'_3  and  C1'_4 
REMARK    3  A    between atoms: C1'_4  and  C1_5 
ROOT
ATOM      1  C1  N4B d   1      -0.562   0.058   0.413  0.00  0.00    -0.075 A 
ATOM      2  C2  N4B d   1      -1.764  -0.235   1.095  0.00  0.00     0.002 A 
ATOM      3  C3  N4B d   1      -2.032  -1.522   1.491  0.00  0.00     0.002 A 
ATOM      4  C4  N4B d   1      -1.127  -2.532   1.201  0.00  0.00    -0.004 A 
ATOM      5  C5  N4B d   1       0.043  -2.236   0.565  0.00  0.00     0.002 A 
ATOM      6  C6  N4B d   1       0.328  -0.946   0.164  0.00  0.00     0.002 A 
ENDROOT
BRANCH   1   7
ATOM      7  C1' N4B d   1      -0.264   1.434  -0.116  0.00  0.00     0.057 C 
BRANCH   7   8
ATOM      8  C2' N4B d   1       0.970   1.371  -1.011  0.00  0.00     0.009 C 
BRANCH   8   9
ATOM      9  C3' N4B d   1       0.739   2.059  -2.346  0.00  0.00     0.004 C 
ATOM     10  C4' N4B d   1       1.739   1.654  -3.387  0.00  0.00     0.003 C 
ENDBRANCH   8   9
ENDBRANCH   7   8
ENDBRANCH   1   7
TORSDOF 3
ENDMDL
