MODEL 1
REMARK minimizedAffinity 1.61339676
REMARK minimizedRMSD -1
REMARK  0 active torsions:
REMARK  status: ('A' for Active; 'I' for Inactive)
ROOT
ATOM      1  N1  IND d   1      -1.006  -5.935  -6.000  0.00  0.00    -0.196 N 
ATOM      2  C2  IND d   1       0.361  -5.917  -5.974  0.00  0.00     0.054 A 
ATOM      3  C3  IND d   1       0.807  -5.899  -4.698  0.00  0.00    -0.031 A 
ATOM      4  C4  IND d   1      -0.526  -6.000  -2.498  0.00  0.00     0.051 A 
ATOM      5  C5  IND d   1      -1.803  -5.991  -2.011  0.00  0.00    -0.031 A 
ATOM      6  C6  IND d   1      -2.902  -5.965  -2.845  0.00  0.00     0.015 A 
ATOM      7  C7  IND d   1      -2.764  -5.958  -4.204  0.00  0.00    -0.016 A 
ATOM      8  C8  IND d   1      -1.469  -5.961  -4.703  0.00  0.00    -0.047 A 
ATOM      9  C9  IND d   1      -0.349  -5.944  -3.860  0.00  0.00    -0.096 A 
ATOM     10  HN1 IND d   1      -1.494  -5.932  -6.708  0.00  0.00     0.298 HD
ENDROOT
TORSDOF 0
ENDMDL
