MODEL 1
REMARK minimizedAffinity 0.434788138
REMARK minimizedRMSD -1
REMARK  0 active torsions:
REMARK  status: ('A' for Active; 'I' for Inactive)
ROOT
ATOM      1  N1  IND d   1      -0.264  -5.999  -1.970  0.00  0.00    -0.196 N 
ATOM      2  C2  IND d   1      -1.629  -5.965  -1.916  0.00  0.00     0.054 A 
ATOM      3  C3  IND d   1      -2.148  -5.907  -3.162  0.00  0.00    -0.031 A 
ATOM      4  C4  IND d   1      -0.947  -5.960  -5.439  0.00  0.00     0.051 A 
ATOM      5  C5  IND d   1       0.300  -5.951  -5.999  0.00  0.00    -0.031 A 
ATOM      6  C6  IND d   1       1.445  -5.960  -5.230  0.00  0.00     0.015 A 
ATOM      7  C7  IND d   1       1.387  -5.991  -3.865  0.00  0.00    -0.016 A 
ATOM      8  C8  IND d   1       0.123  -5.993  -3.292  0.00  0.00    -0.047 A 
ATOM      9  C9  IND d   1      -1.043  -5.941  -4.067  0.00  0.00    -0.096 A 
ATOM     10  HN1 IND d   1       0.265  -6.021  -1.292  0.00  0.00     0.298 HD
ENDROOT
TORSDOF 0
ENDMDL
