MODEL 1
REMARK minimizedAffinity -0.723584473
REMARK minimizedRMSD -1
REMARK  0 active torsions:
REMARK  status: ('A' for Active; 'I' for Inactive)
ROOT
ATOM      1  N1  IND d   1      -0.547  -5.934  -5.999  0.00  0.00    -0.196 N 
ATOM      2  C2  IND d   1       0.765  -5.887  -5.617  0.00  0.00     0.054 A 
ATOM      3  C3  IND d   1       0.861  -5.858  -4.268  0.00  0.00    -0.031 A 
ATOM      4  C4  IND d   1      -0.998  -5.983  -2.493  0.00  0.00     0.051 A 
ATOM      5  C5  IND d   1      -2.358  -5.999  -2.356  0.00  0.00    -0.031 A 
ATOM      6  C6  IND d   1      -3.201  -5.997  -3.449  0.00  0.00     0.015 A 
ATOM      7  C7  IND d   1      -2.712  -5.990  -4.725  0.00  0.00    -0.016 A 
ATOM      8  C8  IND d   1      -1.332  -5.967  -4.867  0.00  0.00    -0.047 A 
ATOM      9  C9  IND d   1      -0.473  -5.926  -3.762  0.00  0.00    -0.096 A 
ATOM     10  HN1 IND d   1      -0.833  -5.942  -6.809  0.00  0.00     0.298 HD
ENDROOT
TORSDOF 0
ENDMDL
