MODEL 1
REMARK minimizedAffinity 1.38687778
REMARK minimizedRMSD -1
REMARK  0 active torsions:
REMARK  status: ('A' for Active; 'I' for Inactive)
ROOT
ATOM      1  N1  IND d   1      -2.710  -6.000  -3.014  0.00  0.00    -0.196 N 
ATOM      2  C2  IND d   1      -2.151  -5.996  -1.767  0.00  0.00     0.054 A 
ATOM      3  C3  IND d   1      -0.802  -5.999  -1.855  0.00  0.00    -0.031 A 
ATOM      4  C4  IND d   1       0.700  -5.909  -3.944  0.00  0.00     0.051 A 
ATOM      5  C5  IND d   1       0.649  -5.936  -5.309  0.00  0.00    -0.031 A 
ATOM      6  C6  IND d   1      -0.548  -5.984  -5.994  0.00  0.00     0.015 A 
ATOM      7  C7  IND d   1      -1.745  -5.995  -5.335  0.00  0.00    -0.016 A 
ATOM      8  C8  IND d   1      -1.697  -5.975  -3.948  0.00  0.00    -0.047 A 
ATOM      9  C9  IND d   1      -0.484  -5.969  -3.248  0.00  0.00    -0.096 A 
ATOM     10  HN1 IND d   1      -3.552  -6.015  -3.187  0.00  0.00     0.298 HD
ENDROOT
TORSDOF 0
ENDMDL
