MODEL 1
REMARK minimizedAffinity 1.506989
REMARK minimizedRMSD -1
REMARK  0 active torsions:
REMARK  status: ('A' for Active; 'I' for Inactive)
ROOT
ATOM      1  N1  IND d   1       0.022  -5.943  -5.972  0.00  0.00    -0.196 N 
ATOM      2  C2  IND d   1       1.388  -6.000  -5.981  0.00  0.00     0.054 A 
ATOM      3  C3  IND d   1       1.868  -5.994  -4.717  0.00  0.00    -0.031 A 
ATOM      4  C4  IND d   1       0.589  -6.000  -2.483  0.00  0.00     0.051 A 
ATOM      5  C5  IND d   1      -0.673  -5.915  -1.964  0.00  0.00    -0.031 A 
ATOM      6  C6  IND d   1      -1.790  -5.837  -2.770  0.00  0.00     0.015 A 
ATOM      7  C7  IND d   1      -1.687  -5.852  -4.133  0.00  0.00    -0.016 A 
ATOM      8  C8  IND d   1      -0.407  -5.930  -4.663  0.00  0.00    -0.047 A 
ATOM      9  C9  IND d   1       0.733  -5.967  -3.850  0.00  0.00    -0.096 A 
ATOM     10  HN1 IND d   1      -0.483  -5.920  -6.667  0.00  0.00     0.298 HD
ENDROOT
TORSDOF 0
ENDMDL
