MODEL 1
REMARK minimizedAffinity 5.3935132
REMARK minimizedRMSD -1
REMARK  0 active torsions:
REMARK  status: ('A' for Active; 'I' for Inactive)
ROOT
ATOM      1  N1  IND d   1      -0.796   0.019  -0.691  0.00  0.00    -0.196 N 
ATOM      2  C2  IND d   1      -0.627   0.574  -1.929  0.00  0.00     0.054 A 
ATOM      3  C3  IND d   1       0.683   0.805  -2.167  0.00  0.00    -0.031 A 
ATOM      4  C4  IND d   1       2.731   0.255  -0.707  0.00  0.00     0.051 A 
ATOM      5  C5  IND d   1       3.079  -0.224   0.525  0.00  0.00    -0.031 A 
ATOM      6  C6  IND d   1       2.133  -0.658   1.432  0.00  0.00     0.015 A 
ATOM      7  C7  IND d   1       0.800  -0.639   1.134  0.00  0.00    -0.016 A 
ATOM      8  C8  IND d   1       0.443  -0.147  -0.113  0.00  0.00    -0.047 A 
ATOM      9  C9  IND d   1       1.395   0.334  -1.021  0.00  0.00    -0.096 A 
ATOM     10  HN1 IND d   1      -1.549  -0.192  -0.334  0.00  0.00     0.298 HD
ENDROOT
TORSDOF 0
ENDMDL
