MODEL 1
REMARK minimizedAffinity 5.61797619
REMARK minimizedRMSD -1
REMARK  0 active torsions:
REMARK  status: ('A' for Active; 'I' for Inactive)
ROOT
ATOM      1  N1  IND d   1       4.530   0.750  -1.545  0.00  0.00    -0.196 N 
ATOM      2  C2  IND d   1       5.751   1.090  -2.058  0.00  0.00     0.054 A 
ATOM      3  C3  IND d   1       5.999   2.403  -1.849  0.00  0.00    -0.031 A 
ATOM      4  C4  IND d   1       4.588   4.156  -0.598  0.00  0.00     0.051 A 
ATOM      5  C5  IND d   1       3.378   4.328   0.013  0.00  0.00    -0.031 A 
ATOM      6  C6  IND d   1       2.473   3.294   0.142  0.00  0.00     0.015 A 
ATOM      7  C7  IND d   1       2.751   2.042  -0.328  0.00  0.00    -0.016 A 
ATOM      8  C8  IND d   1       3.975   1.865  -0.956  0.00  0.00    -0.047 A 
ATOM      9  C9  IND d   1       4.880   2.921  -1.127  0.00  0.00    -0.096 A 
ATOM     10  HN1 IND d   1       4.170  -0.030  -1.583  0.00  0.00     0.298 HD
ENDROOT
TORSDOF 0
ENDMDL
