MODEL 1
REMARK minimizedAffinity -1.88717806
REMARK minimizedRMSD -1
REMARK  0 active torsions:
REMARK  status: ('A' for Active; 'I' for Inactive)
ROOT
ATOM      1  N1  IND d   1      -1.310  -5.997  -2.068  0.00  0.00    -0.196 N 
ATOM      2  C2  IND d   1      -2.664  -5.993  -2.254  0.00  0.00     0.054 A 
ATOM      3  C3  IND d   1      -2.958  -5.956  -3.573  0.00  0.00    -0.031 A 
ATOM      4  C4  IND d   1      -1.376  -5.999  -5.603  0.00  0.00     0.051 A 
ATOM      5  C5  IND d   1      -0.052  -5.966  -5.937  0.00  0.00    -0.031 A 
ATOM      6  C6  IND d   1       0.942  -5.944  -4.980  0.00  0.00     0.015 A 
ATOM      7  C7  IND d   1       0.646  -5.965  -3.646  0.00  0.00    -0.016 A 
ATOM      8  C8  IND d   1      -0.698  -5.992  -3.303  0.00  0.00    -0.047 A 
ATOM      9  C9  IND d   1      -1.712  -5.972  -4.270  0.00  0.00    -0.096 A 
ATOM     10  HN1 IND d   1      -0.907  -6.002  -1.309  0.00  0.00     0.298 HD
ENDROOT
TORSDOF 0
ENDMDL
