MODEL 1
REMARK minimizedAffinity -2.05879951
REMARK minimizedRMSD -1
REMARK  0 active torsions:
REMARK  status: ('A' for Active; 'I' for Inactive)
ROOT
ATOM      1  N1  IND d   1      -0.354  -5.950  -5.991  0.00  0.00    -0.196 N 
ATOM      2  C2  IND d   1       1.012  -5.936  -5.964  0.00  0.00     0.054 A 
ATOM      3  C3  IND d   1       1.457  -5.914  -4.688  0.00  0.00    -0.031 A 
ATOM      4  C4  IND d   1       0.121  -5.999  -2.489  0.00  0.00     0.051 A 
ATOM      5  C5  IND d   1      -1.156  -5.982  -2.003  0.00  0.00    -0.031 A 
ATOM      6  C6  IND d   1      -2.254  -5.956  -2.839  0.00  0.00     0.015 A 
ATOM      7  C7  IND d   1      -2.114  -5.957  -4.198  0.00  0.00    -0.016 A 
ATOM      8  C8  IND d   1      -0.819  -5.967  -4.695  0.00  0.00    -0.047 A 
ATOM      9  C9  IND d   1       0.300  -5.951  -3.851  0.00  0.00    -0.096 A 
ATOM     10  HN1 IND d   1      -0.842  -5.947  -6.700  0.00  0.00     0.298 HD
ENDROOT
TORSDOF 0
ENDMDL
