MODEL 1
REMARK minimizedAffinity 4.52746677
REMARK minimizedRMSD -1
REMARK  0 active torsions:
REMARK  status: ('A' for Active; 'I' for Inactive)
ROOT
ATOM      1  N1  IND d   1       1.200   0.156   0.909  0.00  0.00    -0.196 N 
ATOM      2  C2  IND d   1       0.610   0.724  -0.185  0.00  0.00     0.054 A 
ATOM      3  C3  IND d   1      -0.171  -0.179  -0.821  0.00  0.00    -0.031 A 
ATOM      4  C4  IND d   1      -0.706  -2.615  -0.182  0.00  0.00     0.051 A 
ATOM      5  C5  IND d   1      -0.375  -3.591   0.715  0.00  0.00    -0.031 A 
ATOM      6  C6  IND d   1       0.513  -3.362   1.746  0.00  0.00     0.015 A 
ATOM      7  C7  IND d   1       1.098  -2.141   1.925  0.00  0.00    -0.016 A 
ATOM      8  C8  IND d   1       0.770  -1.149   1.011  0.00  0.00    -0.047 A 
ATOM      9  C9  IND d   1      -0.099  -1.387  -0.062  0.00  0.00    -0.096 A 
ATOM     10  HN1 IND d   1       1.747   0.547   1.444  0.00  0.00     0.298 HD
ENDROOT
TORSDOF 0
ENDMDL
