MODEL 1
REMARK minimizedAffinity 5.42624187
REMARK minimizedRMSD -1
REMARK  0 active torsions:
REMARK  status: ('A' for Active; 'I' for Inactive)
ROOT
ATOM      1  N1  IND d   1       2.188  -1.795   5.418  0.00  0.00    -0.196 N 
ATOM      2  C2  IND d   1       1.232  -2.756   5.593  0.00  0.00     0.054 A 
ATOM      3  C3  IND d   1       0.547  -2.955   4.445  0.00  0.00    -0.031 A 
ATOM      4  C4  IND d   1       0.893  -1.885   2.129  0.00  0.00     0.051 A 
ATOM      5  C5  IND d   1       1.621  -0.924   1.484  0.00  0.00    -0.031 A 
ATOM      6  C6  IND d   1       2.596  -0.192   2.130  0.00  0.00     0.015 A 
ATOM      7  C7  IND d   1       2.889  -0.402   3.447  0.00  0.00    -0.016 A 
ATOM      8  C8  IND d   1       2.147  -1.371   4.107  0.00  0.00    -0.047 A 
ATOM      9  C9  IND d   1       1.127  -2.088   3.468  0.00  0.00    -0.096 A 
ATOM     10  HN1 IND d   1       2.724  -1.503   6.023  0.00  0.00     0.298 HD
ENDROOT
TORSDOF 0
ENDMDL
