MODEL 1
REMARK minimizedAffinity 2.82111859
REMARK minimizedRMSD -1
REMARK  0 active torsions:
REMARK  status: ('A' for Active; 'I' for Inactive)
ROOT
ATOM      1  N1  IND d   1      -1.837  -5.999  -5.983  0.00  0.00    -0.196 N 
ATOM      2  C2  IND d   1      -0.471  -5.983  -6.000  0.00  0.00     0.054 A 
ATOM      3  C3  IND d   1       0.015  -5.943  -4.738  0.00  0.00    -0.031 A 
ATOM      4  C4  IND d   1      -1.250  -6.000  -2.497  0.00  0.00     0.051 A 
ATOM      5  C5  IND d   1      -2.511  -5.979  -1.971  0.00  0.00    -0.031 A 
ATOM      6  C6  IND d   1      -3.635  -5.966  -2.771  0.00  0.00     0.015 A 
ATOM      7  C7  IND d   1      -3.539  -5.986  -4.134  0.00  0.00    -0.016 A 
ATOM      8  C8  IND d   1      -2.260  -6.000  -4.672  0.00  0.00    -0.047 A 
ATOM      9  C9  IND d   1      -1.115  -5.970  -3.865  0.00  0.00    -0.096 A 
ATOM     10  HN1 IND d   1      -2.348  -6.008  -6.675  0.00  0.00     0.298 HD
ENDROOT
TORSDOF 0
ENDMDL
