MODEL 1
REMARK minimizedAffinity -3.55375195
REMARK minimizedRMSD -1
REMARK  0 active torsions:
REMARK  status: ('A' for Active; 'I' for Inactive)
ROOT
ATOM      1  N1  IND d   1       0.311  -5.985  -4.706  0.00  0.00    -0.196 N 
ATOM      2  C2  IND d   1      -0.158  -5.983  -5.990  0.00  0.00     0.054 A 
ATOM      3  C3  IND d   1      -1.510  -6.000  -5.997  0.00  0.00    -0.031 A 
ATOM      4  C4  IND d   1      -3.157  -5.929  -4.020  0.00  0.00     0.051 A 
ATOM      5  C5  IND d   1      -3.203  -5.959  -2.654  0.00  0.00    -0.031 A 
ATOM      6  C6  IND d   1      -2.056  -5.998  -1.887  0.00  0.00     0.015 A 
ATOM      7  C7  IND d   1      -0.816  -5.997  -2.459  0.00  0.00    -0.016 A 
ATOM      8  C8  IND d   1      -0.766  -5.973  -3.846  0.00  0.00    -0.047 A 
ATOM      9  C9  IND d   1      -1.926  -5.976  -4.630  0.00  0.00    -0.096 A 
ATOM     10  HN1 IND d   1       1.139  -5.993  -4.474  0.00  0.00     0.298 HD
ENDROOT
TORSDOF 0
ENDMDL
