MODEL 1
REMARK minimizedAffinity -2.31629562
REMARK minimizedRMSD -1
REMARK  0 active torsions:
REMARK  status: ('A' for Active; 'I' for Inactive)
ROOT
ATOM      1  N1  IND d   1      -2.994  -5.853  -4.558  0.00  0.00    -0.196 N 
ATOM      2  C2  IND d   1      -3.340  -5.868  -3.236  0.00  0.00     0.054 A 
ATOM      3  C3  IND d   1      -2.235  -5.946  -2.461  0.00  0.00    -0.031 A 
ATOM      4  C4  IND d   1       0.246  -5.957  -3.148  0.00  0.00     0.051 A 
ATOM      5  C5  IND d   1       1.060  -5.994  -4.245  0.00  0.00    -0.031 A 
ATOM      6  C6  IND d   1       0.554  -5.983  -5.529  0.00  0.00     0.015 A 
ATOM      7  C7  IND d   1      -0.790  -5.923  -5.764  0.00  0.00    -0.016 A 
ATOM      8  C8  IND d   1      -1.620  -5.892  -4.652  0.00  0.00    -0.047 A 
ATOM      9  C9  IND d   1      -1.114  -5.946  -3.347  0.00  0.00    -0.096 A 
ATOM     10  HN1 IND d   1      -3.542  -5.824  -5.220  0.00  0.00     0.298 HD
ENDROOT
TORSDOF 0
ENDMDL
