MODEL 1
REMARK minimizedAffinity -2.82199025
REMARK minimizedRMSD -1
REMARK  0 active torsions:
REMARK  status: ('A' for Active; 'I' for Inactive)
ROOT
ATOM      1  N1  IND d   1      -1.509  -5.991  -5.936  0.00  0.00    -0.196 N 
ATOM      2  C2  IND d   1      -0.142  -5.963  -5.965  0.00  0.00     0.054 A 
ATOM      3  C3  IND d   1       0.354  -5.923  -4.709  0.00  0.00    -0.031 A 
ATOM      4  C4  IND d   1      -0.889  -6.000  -2.456  0.00  0.00     0.051 A 
ATOM      5  C5  IND d   1      -2.145  -5.992  -1.918  0.00  0.00    -0.031 A 
ATOM      6  C6  IND d   1      -3.277  -5.986  -2.708  0.00  0.00     0.015 A 
ATOM      7  C7  IND d   1      -3.193  -5.999  -4.071  0.00  0.00    -0.016 A 
ATOM      8  C8  IND d   1      -1.919  -6.000  -4.621  0.00  0.00    -0.047 A 
ATOM      9  C9  IND d   1      -0.767  -5.963  -3.825  0.00  0.00    -0.096 A 
ATOM     10  HN1 IND d   1      -2.025  -6.001  -6.624  0.00  0.00     0.298 HD
ENDROOT
TORSDOF 0
ENDMDL
