MODEL 1
REMARK minimizedAffinity 0.180287451
REMARK minimizedRMSD -1
REMARK  0 active torsions:
REMARK  status: ('A' for Active; 'I' for Inactive)
ROOT
ATOM      1  N1  IND d   1       0.534  -5.969  -4.710  0.00  0.00    -0.196 N 
ATOM      2  C2  IND d   1       0.047  -5.971  -5.988  0.00  0.00     0.054 A 
ATOM      3  C3  IND d   1      -1.305  -5.997  -5.976  0.00  0.00    -0.031 A 
ATOM      4  C4  IND d   1      -2.924  -5.938  -3.976  0.00  0.00     0.051 A 
ATOM      5  C5  IND d   1      -2.950  -5.969  -2.610  0.00  0.00    -0.031 A 
ATOM      6  C6  IND d   1      -1.793  -5.999  -1.859  0.00  0.00     0.015 A 
ATOM      7  C7  IND d   1      -0.561  -5.987  -2.449  0.00  0.00    -0.016 A 
ATOM      8  C8  IND d   1      -0.531  -5.964  -3.836  0.00  0.00    -0.047 A 
ATOM      9  C9  IND d   1      -1.702  -5.976  -4.604  0.00  0.00    -0.096 A 
ATOM     10  HN1 IND d   1       1.365  -5.970  -4.490  0.00  0.00     0.298 HD
ENDROOT
TORSDOF 0
ENDMDL
