MODEL 1
REMARK minimizedAffinity 3.73712754
REMARK minimizedRMSD -1
REMARK  0 active torsions:
REMARK  status: ('A' for Active; 'I' for Inactive)
ROOT
ATOM      1  N1  IND d   1      -2.632  -5.999  -3.499  0.00  0.00    -0.196 N 
ATOM      2  C2  IND d   1      -2.457  -5.994  -2.143  0.00  0.00     0.054 A 
ATOM      3  C3  IND d   1      -1.140  -6.000  -1.838  0.00  0.00    -0.031 A 
ATOM      4  C4  IND d   1       0.901  -5.915  -3.404  0.00  0.00     0.051 A 
ATOM      5  C5  IND d   1       1.247  -5.944  -4.726  0.00  0.00    -0.031 A 
ATOM      6  C6  IND d   1       0.298  -5.992  -5.727  0.00  0.00     0.015 A 
ATOM      7  C7  IND d   1      -1.038  -6.000  -5.442  0.00  0.00    -0.016 A 
ATOM      8  C8  IND d   1      -1.392  -5.977  -4.101  0.00  0.00    -0.047 A 
ATOM      9  C9  IND d   1      -0.433  -5.972  -3.079  0.00  0.00    -0.096 A 
ATOM     10  HN1 IND d   1      -3.388  -6.013  -3.908  0.00  0.00     0.298 HD
ENDROOT
TORSDOF 0
ENDMDL
