MODEL 1
REMARK minimizedAffinity -0.735819459
REMARK minimizedRMSD -1
REMARK  0 active torsions:
REMARK  status: ('A' for Active; 'I' for Inactive)
ROOT
ATOM      1  N1  IND d   1       1.045  -5.939  -4.537  0.00  0.00    -0.196 N 
ATOM      2  C2  IND d   1       0.704  -5.947  -5.860  0.00  0.00     0.054 A 
ATOM      3  C3  IND d   1      -0.640  -5.990  -6.000  0.00  0.00    -0.031 A 
ATOM      4  C4  IND d   1      -2.474  -5.953  -4.194  0.00  0.00     0.051 A 
ATOM      5  C5  IND d   1      -2.652  -5.984  -2.839  0.00  0.00    -0.031 A 
ATOM      6  C6  IND d   1      -1.586  -6.000  -1.963  0.00  0.00     0.015 A 
ATOM      7  C7  IND d   1      -0.296  -5.973  -2.411  0.00  0.00    -0.016 A 
ATOM      8  C8  IND d   1      -0.110  -5.948  -3.786  0.00  0.00    -0.047 A 
ATOM      9  C9  IND d   1      -1.188  -5.975  -4.681  0.00  0.00    -0.096 A 
ATOM     10  HN1 IND d   1       1.846  -5.930  -4.225  0.00  0.00     0.298 HD
ENDROOT
TORSDOF 0
ENDMDL
