MODEL 1
REMARK minimizedAffinity -4.54294252
REMARK minimizedRMSD -1
REMARK  1 active torsions:
REMARK  status: ('A' for Active; 'I' for Inactive)
REMARK    1  A    between atoms: C3_4  and  O_7 
ROOT
ATOM      1  C   UNL d   1      -1.504   0.873   2.542  0.00  0.00    -0.033 A 
ATOM      2  C1  UNL d   1      -0.108   0.826   2.547  0.00  0.00     0.039 A 
ATOM      3  C2  UNL d   1       0.581   0.379   1.418  0.00  0.00    -0.080 A 
ATOM      4  C3  UNL d   1      -0.135  -0.017   0.292  0.00  0.00     0.150 A 
ATOM      5  C4  UNL d   1      -1.525   0.031   0.279  0.00  0.00    -0.007 A 
ATOM      6  C5  UNL d   1      -2.212   0.477   1.407  0.00  0.00     0.039 A 
ENDROOT
BRANCH   4   7
ATOM      7  O   UNL d   1       0.494  -0.465  -0.831  0.00  0.00    -0.526 OA
ATOM      8  H5  UNL d   1       1.451  -0.471  -0.666  0.00  0.00     0.418 HD
ENDBRANCH   4   7
TORSDOF 1
ENDMDL
