MODEL 1
REMARK minimizedAffinity -4.35710573
REMARK minimizedRMSD -1
REMARK  1 active torsions:
REMARK  status: ('A' for Active; 'I' for Inactive)
REMARK    1  A    between atoms: C3_4  and  O_7 
ROOT
ATOM      1  C   UNL d   1      -0.715  -0.051   0.505  0.00  0.00    -0.033 A 
ATOM      2  C1  UNL d   1      -1.841  -0.206   1.316  0.00  0.00     0.039 A 
ATOM      3  C2  UNL d   1      -1.901   0.426   2.560  0.00  0.00    -0.080 A 
ATOM      4  C3  UNL d   1      -0.829   1.209   2.980  0.00  0.00     0.150 A 
ATOM      5  C4  UNL d   1       0.294   1.370   2.176  0.00  0.00    -0.007 A 
ATOM      6  C5  UNL d   1       0.352   0.738   0.935  0.00  0.00     0.039 A 
ENDROOT
BRANCH   4   7
ATOM      7  O   UNL d   1      -0.840   1.841   4.188  0.00  0.00    -0.526 OA
ATOM      8  H5  UNL d   1      -1.666   1.616   4.646  0.00  0.00     0.418 HD
ENDBRANCH   4   7
TORSDOF 1
ENDMDL
