MODEL 1
REMARK minimizedAffinity -3.9531095
REMARK minimizedRMSD -1
REMARK  1 active torsions:
REMARK  status: ('A' for Active; 'I' for Inactive)
REMARK    1  A    between atoms: C3_4  and  O_7 
ROOT
ATOM      1  C   UNL d   1      -0.134  -0.138   0.300  0.00  0.00    -0.033 A 
ATOM      2  C1  UNL d   1       0.882   0.637   0.862  0.00  0.00     0.039 A 
ATOM      3  C2  UNL d   1       0.657   1.327   2.055  0.00  0.00    -0.080 A 
ATOM      4  C3  UNL d   1      -0.586   1.232   2.675  0.00  0.00     0.150 A 
ATOM      5  C4  UNL d   1      -1.602   0.459   2.122  0.00  0.00    -0.007 A 
ATOM      6  C5  UNL d   1      -1.376  -0.228   0.930  0.00  0.00     0.039 A 
ENDROOT
BRANCH   4   7
ATOM      7  O   UNL d   1      -0.854   1.891   3.838  0.00  0.00    -0.526 OA
ATOM      8  H5  UNL d   1      -0.070   2.408   4.087  0.00  0.00     0.418 HD
ENDBRANCH   4   7
TORSDOF 1
ENDMDL
