MODEL 1
REMARK minimizedAffinity -3.17271948
REMARK minimizedRMSD -1
REMARK  1 active torsions:
REMARK  status: ('A' for Active; 'I' for Inactive)
REMARK    1  A    between atoms: C3_4  and  O_7 
ROOT
ATOM      1  C   UNL d   1       0.589   0.094   0.122  0.00  0.00    -0.033 A 
ATOM      2  C1  UNL d   1       1.509   0.394   1.128  0.00  0.00     0.039 A 
ATOM      3  C2  UNL d   1       1.077   0.982   2.319  0.00  0.00    -0.080 A 
ATOM      4  C3  UNL d   1      -0.275   1.264   2.490  0.00  0.00     0.150 A 
ATOM      5  C4  UNL d   1      -1.198   0.965   1.493  0.00  0.00    -0.007 A 
ATOM      6  C5  UNL d   1      -0.764   0.378   0.305  0.00  0.00     0.039 A 
ENDROOT
BRANCH   4   7
ATOM      7  O   UNL d   1      -0.743   1.842   3.633  0.00  0.00    -0.526 OA
ATOM      8  H5  UNL d   1       0.011   2.018   4.220  0.00  0.00     0.418 HD
ENDBRANCH   4   7
TORSDOF 1
ENDMDL
