MODEL 1
REMARK minimizedAffinity -3.72840714
REMARK minimizedRMSD -1
REMARK  1 active torsions:
REMARK  status: ('A' for Active; 'I' for Inactive)
REMARK    1  A    between atoms: C3_4  and  O_7 
ROOT
ATOM      1  C   UNL d   1      -1.164   1.907   2.795  0.00  0.00    -0.033 A 
ATOM      2  C1  UNL d   1      -2.003   1.011   2.130  0.00  0.00     0.039 A 
ATOM      3  C2  UNL d   1      -1.495   0.199   1.114  0.00  0.00    -0.080 A 
ATOM      4  C3  UNL d   1      -0.148   0.291   0.775  0.00  0.00     0.150 A 
ATOM      5  C4  UNL d   1       0.694   1.178   1.437  0.00  0.00    -0.007 A 
ATOM      6  C5  UNL d   1       0.185   1.989   2.450  0.00  0.00     0.039 A 
ENDROOT
BRANCH   4   7
ATOM      7  O   UNL d   1       0.392  -0.478  -0.212  0.00  0.00    -0.526 OA
ATOM      8  H5  UNL d   1      -0.314  -1.022  -0.600  0.00  0.00     0.418 HD
ENDBRANCH   4   7
TORSDOF 1
ENDMDL
