MODEL 1
REMARK minimizedAffinity 11.7099104
REMARK minimizedRMSD -1
REMARK  1 active torsions:
REMARK  status: ('A' for Active; 'I' for Inactive)
REMARK    1  A    between atoms: C1_2  and  C2_3 
ROOT
ATOM      1  C2  UNL d   1       4.217   3.687   1.536  0.00  0.00    -0.076 A 
ATOM      2  C3  UNL d   1       4.681   2.364   1.636  0.00  0.00     0.004 A 
ATOM      3  C4  UNL d   1       5.369   1.929   2.768  0.00  0.00    -0.003 A 
ATOM      4  C5  UNL d   1       5.602   2.810   3.818  0.00  0.00     0.000 A 
ATOM      5  C6  UNL d   1       5.133   4.121   3.743  0.00  0.00     0.000 A 
ATOM      6  C7  UNL d   1       4.424   4.571   2.616  0.00  0.00    -0.073 A 
ATOM      7  C8  UNL d   1       3.946   5.997   2.586  0.00  0.00     0.078 C 
ENDROOT
BRANCH   1   8
ATOM      8  C1  UNL d   1       3.501   4.109   0.273  0.00  0.00     0.053 C 
ATOM      9  C   UNL d   1       2.071   3.594   0.213  0.00  0.00     0.018 C 
ENDBRANCH   1   8
TORSDOF 1
ENDMDL
