MODEL 1
REMARK minimizedAffinity 7.16875458
REMARK minimizedRMSD -1
REMARK  1 active torsions:
REMARK  status: ('A' for Active; 'I' for Inactive)
REMARK    1  A    between atoms: C1_2  and  C2_3 
ROOT
ATOM      1  C2  UNL d   1      -0.819  -2.039  -4.708  0.00  0.00    -0.076 A 
ATOM      2  C3  UNL d   1      -0.460  -1.321  -5.862  0.00  0.00     0.004 A 
ATOM      3  C4  UNL d   1      -0.018  -0.001  -5.778  0.00  0.00    -0.003 A 
ATOM      4  C5  UNL d   1       0.072   0.621  -4.538  0.00  0.00     0.000 A 
ATOM      5  C6  UNL d   1      -0.264  -0.081  -3.381  0.00  0.00     0.000 A 
ATOM      6  C7  UNL d   1      -0.696  -1.417  -3.447  0.00  0.00    -0.073 A 
ATOM      7  C8  UNL d   1      -1.051  -2.125  -2.168  0.00  0.00     0.078 C 
ENDROOT
BRANCH   1   8
ATOM      8  C1  UNL d   1      -1.317  -3.458  -4.864  0.00  0.00     0.053 C 
ATOM      9  C   UNL d   1      -2.329  -3.600  -5.990  0.00  0.00     0.018 C 
ENDBRANCH   1   8
TORSDOF 1
ENDMDL
