MODEL 1
REMARK minimizedAffinity 11.8465939
REMARK minimizedRMSD -1
REMARK  1 active torsions:
REMARK  status: ('A' for Active; 'I' for Inactive)
REMARK    1  A    between atoms: C1_2  and  C2_3 
ROOT
ATOM      1  C2  UNL d   1      -1.077  -2.484  -4.567  0.00  0.00    -0.076 A 
ATOM      2  C3  UNL d   1      -1.253  -3.055  -5.839  0.00  0.00     0.004 A 
ATOM      3  C4  UNL d   1      -1.361  -4.436  -5.998  0.00  0.00    -0.003 A 
ATOM      4  C5  UNL d   1      -1.293  -5.268  -4.886  0.00  0.00     0.000 A 
ATOM      5  C6  UNL d   1      -1.136  -4.718  -3.614  0.00  0.00     0.000 A 
ATOM      6  C7  UNL d   1      -1.043  -3.327  -3.436  0.00  0.00    -0.073 A 
ATOM      7  C8  UNL d   1      -0.868  -2.788  -2.042  0.00  0.00     0.078 C 
ENDROOT
BRANCH   1   8
ATOM      8  C1  UNL d   1      -0.939  -0.982  -4.460  0.00  0.00     0.053 C 
ATOM      9  C   UNL d   1       0.506  -0.520  -4.566  0.00  0.00     0.018 C 
ENDBRANCH   1   8
TORSDOF 1
ENDMDL
