MODEL 1
REMARK minimizedAffinity 17.1224613
REMARK minimizedRMSD -1
REMARK  1 active torsions:
REMARK  status: ('A' for Active; 'I' for Inactive)
REMARK    1  A    between atoms: C1_2  and  C2_3 
ROOT
ATOM      1  C2  UNL d   1       2.968  -1.416  -3.281  0.00  0.00    -0.076 A 
ATOM      2  C3  UNL d   1       1.878  -2.222  -2.910  0.00  0.00     0.004 A 
ATOM      3  C4  UNL d   1       0.568  -1.767  -3.050  0.00  0.00    -0.003 A 
ATOM      4  C5  UNL d   1       0.327  -0.498  -3.564  0.00  0.00     0.000 A 
ATOM      5  C6  UNL d   1       1.395   0.309  -3.953  0.00  0.00     0.000 A 
ATOM      6  C7  UNL d   1       2.721  -0.141  -3.834  0.00  0.00    -0.073 A 
ATOM      7  C8  UNL d   1       3.835   0.774  -4.264  0.00  0.00     0.078 C 
ENDROOT
BRANCH   1   8
ATOM      8  C1  UNL d   1       4.367  -1.952  -3.081  0.00  0.00     0.053 C 
ATOM      9  C   UNL d   1       4.865  -2.744  -4.280  0.00  0.00     0.018 C 
ENDBRANCH   1   8
TORSDOF 1
ENDMDL
