MODEL 1
REMARK minimizedAffinity 4.5283308
REMARK minimizedRMSD -1
REMARK  1 active torsions:
REMARK  status: ('A' for Active; 'I' for Inactive)
REMARK    1  A    between atoms: C1_2  and  C2_3 
ROOT
ATOM      1  C2  UNL d   1       2.717  -4.479   5.168  0.00  0.00    -0.076 A 
ATOM      2  C3  UNL d   1       2.167  -5.476   5.993  0.00  0.00     0.004 A 
ATOM      3  C4  UNL d   1       0.796  -5.726   6.000  0.00  0.00    -0.003 A 
ATOM      4  C5  UNL d   1      -0.048  -4.983   5.181  0.00  0.00     0.000 A 
ATOM      5  C6  UNL d   1       0.483  -4.002   4.344  0.00  0.00     0.000 A 
ATOM      6  C7  UNL d   1       1.865  -3.749   4.313  0.00  0.00    -0.073 A 
ATOM      7  C8  UNL d   1       2.382  -2.675   3.395  0.00  0.00     0.078 C 
ENDROOT
BRANCH   1   8
ATOM      8  C1  UNL d   1       4.208  -4.234   5.224  0.00  0.00     0.053 C 
ATOM      9  C   UNL d   1       5.007  -5.524   5.335  0.00  0.00     0.018 C 
ENDBRANCH   1   8
TORSDOF 1
ENDMDL
