MODEL 1
REMARK minimizedAffinity 10.1219549
REMARK minimizedRMSD -1
REMARK  1 active torsions:
REMARK  status: ('A' for Active; 'I' for Inactive)
REMARK    1  A    between atoms: C1_2  and  C2_3 
ROOT
ATOM      1  C2  UNL d   1       3.740  -2.228   5.114  0.00  0.00    -0.076 A 
ATOM      2  C3  UNL d   1       3.088  -3.459   4.929  0.00  0.00     0.004 A 
ATOM      3  C4  UNL d   1       1.940  -3.553   4.145  0.00  0.00    -0.003 A 
ATOM      4  C5  UNL d   1       1.425  -2.415   3.532  0.00  0.00     0.000 A 
ATOM      5  C6  UNL d   1       2.069  -1.189   3.690  0.00  0.00     0.000 A 
ATOM      6  C7  UNL d   1       3.237  -1.081   4.464  0.00  0.00    -0.073 A 
ATOM      7  C8  UNL d   1       3.887   0.269   4.606  0.00  0.00     0.078 C 
ENDROOT
BRANCH   1   8
ATOM      8  C1  UNL d   1       4.966  -2.183   5.998  0.00  0.00     0.053 C 
ATOM      9  C   UNL d   1       5.813  -3.441   5.885  0.00  0.00     0.018 C 
ENDBRANCH   1   8
TORSDOF 1
ENDMDL
