MODEL 1
REMARK minimizedAffinity 11.1862078
REMARK minimizedRMSD -1
REMARK  1 active torsions:
REMARK  status: ('A' for Active; 'I' for Inactive)
REMARK    1  A    between atoms: C1_2  and  C2_3 
ROOT
ATOM      1  C2  UNL d   1       0.233  -4.144   4.657  0.00  0.00    -0.076 A 
ATOM      2  C3  UNL d   1      -1.054  -3.699   4.309  0.00  0.00     0.004 A 
ATOM      3  C4  UNL d   1      -1.243  -2.791   3.268  0.00  0.00    -0.003 A 
ATOM      4  C5  UNL d   1      -0.146  -2.313   2.559  0.00  0.00     0.000 A 
ATOM      5  C6  UNL d   1       1.136  -2.756   2.880  0.00  0.00     0.000 A 
ATOM      6  C7  UNL d   1       1.342  -3.684   3.915  0.00  0.00    -0.073 A 
ATOM      7  C8  UNL d   1       2.747  -4.123   4.222  0.00  0.00     0.078 C 
ENDROOT
BRANCH   1   8
ATOM      8  C1  UNL d   1       0.378  -5.108   5.813  0.00  0.00     0.053 C 
ATOM      9  C   UNL d   1      -0.851  -5.984   5.998  0.00  0.00     0.018 C 
ENDBRANCH   1   8
TORSDOF 1
ENDMDL
