MODEL 1
REMARK minimizedAffinity -0.841933072
REMARK minimizedRMSD -1
REMARK  0 active torsions:
REMARK  status: ('A' for Active; 'I' for Inactive)
ROOT
ATOM      1  C1  DEN d   1      -0.585  -0.530  -1.412  0.00  0.00     0.130 A 
ATOM      2  C2  DEN d   1       0.288  -0.020  -0.358  0.00  0.00    -0.031 A 
ATOM      3  C3  DEN d   1       1.481   0.569  -0.999  0.00  0.00     0.027 A 
ATOM      4  C4  DEN d   1       2.057   0.744  -3.507  0.00  0.00     0.027 A 
ATOM      5  C5  DEN d   1       1.628   0.442  -4.781  0.00  0.00    -0.003 A 
ATOM      6  C6  DEN d   1       0.458  -0.230  -5.017  0.00  0.00     0.001 A 
ATOM      7  C7  DEN d   1      -0.347  -0.582  -3.966  0.00  0.00     0.017 A 
ATOM      8  C8  DEN d   1       0.082  -0.288  -2.679  0.00  0.00    -0.094 A 
ATOM      9  C9  DEN d   1       1.262   0.403  -2.461  0.00  0.00    -0.072 A 
ENDROOT
TORSDOF 0
ENDMDL
