MODEL 1
REMARK minimizedAffinity -5.72444677
REMARK minimizedRMSD -1
REMARK  0 active torsions:
REMARK  status: ('A' for Active; 'I' for Inactive)
ROOT
ATOM      1  C1  DEN d   1      -1.303   0.565   0.359  0.00  0.00     0.130 A 
ATOM      2  C2  DEN d   1      -0.330   0.105  -0.628  0.00  0.00    -0.031 A 
ATOM      3  C3  DEN d   1       0.956  -0.111   0.065  0.00  0.00     0.027 A 
ATOM      4  C4  DEN d   1       1.531   0.217   2.558  0.00  0.00     0.027 A 
ATOM      5  C5  DEN d   1       1.034   0.605   3.783  0.00  0.00    -0.003 A 
ATOM      6  C6  DEN d   1      -0.256   1.036   3.945  0.00  0.00     0.001 A 
ATOM      7  C7  DEN d   1      -1.107   1.046   2.872  0.00  0.00     0.017 A 
ATOM      8  C8  DEN d   1      -0.612   0.663   1.632  0.00  0.00    -0.094 A 
ATOM      9  C9  DEN d   1       0.692   0.219   1.492  0.00  0.00    -0.072 A 
ENDROOT
TORSDOF 0
ENDMDL
