MODEL 1
REMARK minimizedAffinity -6.3306675
REMARK minimizedRMSD -1
REMARK  0 active torsions:
REMARK  status: ('A' for Active; 'I' for Inactive)
ROOT
ATOM      1  C1  DEN d   1       0.994  -0.746   0.061  0.00  0.00     0.130 A 
ATOM      2  C2  DEN d   1      -0.257  -0.804  -0.690  0.00  0.00    -0.031 A 
ATOM      3  C3  DEN d   1      -1.316  -0.192   0.139  0.00  0.00     0.027 A 
ATOM      4  C4  DEN d   1      -1.138   0.837   2.497  0.00  0.00     0.027 A 
ATOM      5  C5  DEN d   1      -0.284   1.104   3.544  0.00  0.00    -0.003 A 
ATOM      6  C6  DEN d   1       1.038   0.746   3.517  0.00  0.00     0.001 A 
ATOM      7  C7  DEN d   1       1.555   0.140   2.402  0.00  0.00     0.017 A 
ATOM      8  C8  DEN d   1       0.698  -0.139   1.346  0.00  0.00    -0.094 A 
ATOM      9  C9  DEN d   1      -0.633   0.241   1.387  0.00  0.00    -0.072 A 
ENDROOT
TORSDOF 0
ENDMDL
