MODEL 1
REMARK minimizedAffinity -5.17199278
REMARK minimizedRMSD -1
REMARK  0 active torsions:
REMARK  status: ('A' for Active; 'I' for Inactive)
ROOT
ATOM      1  C1  DEN d   1      -1.084  -0.420  -0.713  0.00  0.00     0.130 A 
ATOM      2  C2  DEN d   1       0.231  -0.692  -1.287  0.00  0.00    -0.031 A 
ATOM      3  C3  DEN d   1       1.253  -0.220  -0.331  0.00  0.00     0.027 A 
ATOM      4  C4  DEN d   1       0.929   0.895   1.972  0.00  0.00     0.027 A 
ATOM      5  C5  DEN d   1      -0.004   1.345   2.880  0.00  0.00    -0.003 A 
ATOM      6  C6  DEN d   1      -1.351   1.269   2.641  0.00  0.00     0.001 A 
ATOM      7  C7  DEN d   1      -1.804   0.690   1.485  0.00  0.00     0.017 A 
ATOM      8  C8  DEN d   1      -0.869   0.242   0.561  0.00  0.00    -0.094 A 
ATOM      9  C9  DEN d   1       0.488   0.316   0.827  0.00  0.00    -0.072 A 
ENDROOT
TORSDOF 0
ENDMDL
