MODEL 1
REMARK minimizedAffinity -5.15952301
REMARK minimizedRMSD -1
REMARK  0 active torsions:
REMARK  status: ('A' for Active; 'I' for Inactive)
ROOT
ATOM      1  C1  DEN d   1       1.412   0.020   2.479  0.00  0.00     0.130 A 
ATOM      2  C2  DEN d   1       0.388   0.855   3.102  0.00  0.00    -0.031 A 
ATOM      3  C3  DEN d   1      -0.717   1.019   2.136  0.00  0.00     0.027 A 
ATOM      4  C4  DEN d   1      -0.944   0.062  -0.248  0.00  0.00     0.027 A 
ATOM      5  C5  DEN d   1      -0.325  -0.696  -1.217  0.00  0.00    -0.003 A 
ATOM      6  C6  DEN d   1       0.921  -1.236  -1.036  0.00  0.00     0.001 A 
ATOM      7  C7  DEN d   1       1.569  -1.063   0.158  0.00  0.00     0.017 A 
ATOM      8  C8  DEN d   1       0.954  -0.294   1.137  0.00  0.00    -0.094 A 
ATOM      9  C9  DEN d   1      -0.311   0.234   0.940  0.00  0.00    -0.072 A 
ENDROOT
TORSDOF 0
ENDMDL
