MODEL 1
REMARK minimizedAffinity -3.43500185
REMARK minimizedRMSD -1
REMARK  0 active torsions:
REMARK  status: ('A' for Active; 'I' for Inactive)
ROOT
ATOM      1  C1  DEN d   1       0.782   0.674   2.255  0.00  0.00     0.130 A 
ATOM      2  C2  DEN d   1      -0.359   1.135   3.041  0.00  0.00    -0.031 A 
ATOM      3  C3  DEN d   1      -1.591   0.786   2.305  0.00  0.00     0.027 A 
ATOM      4  C4  DEN d   1      -1.841  -0.420   0.039  0.00  0.00     0.027 A 
ATOM      5  C5  DEN d   1      -1.155  -0.992  -1.010  0.00  0.00    -0.003 A 
ATOM      6  C6  DEN d   1       0.213  -1.018  -1.060  0.00  0.00     0.001 A 
ATOM      7  C7  DEN d   1       0.940  -0.501  -0.020  0.00  0.00     0.017 A 
ATOM      8  C8  DEN d   1       0.256   0.083   1.037  0.00  0.00    -0.094 A 
ATOM      9  C9  DEN d   1      -1.128   0.089   1.075  0.00  0.00    -0.072 A 
ENDROOT
TORSDOF 0
ENDMDL
