MODEL 1
REMARK minimizedAffinity -1.22715771
REMARK minimizedRMSD -1
REMARK  0 active torsions:
REMARK  status: ('A' for Active; 'I' for Inactive)
ROOT
ATOM      1  C1  DEN d   1      -0.132   1.797   2.114  0.00  0.00     0.130 A 
ATOM      2  C2  DEN d   1      -1.331   1.450   2.871  0.00  0.00    -0.031 A 
ATOM      3  C3  DEN d   1      -2.026   0.363   2.152  0.00  0.00     0.027 A 
ATOM      4  C4  DEN d   1      -1.362  -0.813  -0.046  0.00  0.00     0.027 A 
ATOM      5  C5  DEN d   1      -0.431  -0.853  -1.060  0.00  0.00    -0.003 A 
ATOM      6  C6  DEN d   1       0.637   0.003  -1.106  0.00  0.00     0.001 A 
ATOM      7  C7  DEN d   1       0.826   0.907  -0.094  0.00  0.00     0.017 A 
ATOM      8  C8  DEN d   1      -0.112   0.958   0.929  0.00  0.00    -0.094 A 
ATOM      9  C9  DEN d   1      -1.179   0.076   0.963  0.00  0.00    -0.072 A 
ENDROOT
TORSDOF 0
ENDMDL
