MODEL 1
REMARK minimizedAffinity -6.15384912
REMARK minimizedRMSD -1
REMARK  0 active torsions:
REMARK  status: ('A' for Active; 'I' for Inactive)
ROOT
ATOM      1  C1  DEN d   1      -1.525  -0.609  -0.502  0.00  0.00     0.130 A 
ATOM      2  C2  DEN d   1      -0.274  -1.074  -1.096  0.00  0.00    -0.031 A 
ATOM      3  C3  DEN d   1       0.840  -0.568  -0.269  0.00  0.00     0.027 A 
ATOM      4  C4  DEN d   1       0.750   0.881   1.863  0.00  0.00     0.027 A 
ATOM      5  C5  DEN d   1      -0.085   1.533   2.743  0.00  0.00    -0.003 A 
ATOM      6  C6  DEN d   1      -1.446   1.545   2.585  0.00  0.00     0.001 A 
ATOM      7  C7  DEN d   1      -2.015   0.854   1.548  0.00  0.00     0.017 A 
ATOM      8  C8  DEN d   1      -1.179   0.201   0.652  0.00  0.00    -0.094 A 
ATOM      9  C9  DEN d   1       0.193   0.190   0.836  0.00  0.00    -0.072 A 
ENDROOT
TORSDOF 0
ENDMDL
