MODEL 1
REMARK minimizedAffinity 4.41021395
REMARK minimizedRMSD -1
REMARK  0 active torsions:
REMARK  status: ('A' for Active; 'I' for Inactive)
ROOT
ATOM      1  C4' PXY d   1      -2.668   1.610  -1.305  0.00  0.00     0.077 C 
ATOM      2  C1' PXY d   1       2.500   1.212   1.253  0.00  0.00     0.077 C 
ATOM      3  C1  PXY d   1       1.151   1.322   0.572  0.00  0.00    -0.082 A 
ATOM      4  C2  PXY d   1       0.050   1.362   1.304  0.00  0.00     0.003 A 
ATOM      5  C3  PXY d   1      -1.181   1.429   0.703  0.00  0.00     0.003 A 
ATOM      6  C4  PXY d   1      -1.283   1.509  -0.660  0.00  0.00    -0.082 A 
ATOM      7  C5  PXY d   1      -0.164   1.480  -1.414  0.00  0.00     0.003 A 
ATOM      8  C6  PXY d   1       1.074   1.370  -0.786  0.00  0.00     0.003 A 
ENDROOT
TORSDOF 0
ENDMDL
