MODEL 1
REMARK minimizedAffinity -3.41118097
REMARK minimizedRMSD -1
REMARK  0 active torsions:
REMARK  status: ('A' for Active; 'I' for Inactive)
ROOT
ATOM      1  C4' PXY d   1      -3.181   0.459  -3.552  0.00  0.00     0.077 C 
ATOM      2  C1' PXY d   1       0.185  -1.349   0.786  0.00  0.00     0.077 C 
ATOM      3  C1  PXY d   1      -0.691  -0.882  -0.360  0.00  0.00    -0.082 A 
ATOM      4  C2  PXY d   1      -1.379   0.242  -0.241  0.00  0.00     0.003 A 
ATOM      5  C3  PXY d   1      -2.201   0.662  -1.255  0.00  0.00     0.003 A 
ATOM      6  C4  PXY d   1      -2.277  -0.046  -2.424  0.00  0.00    -0.082 A 
ATOM      7  C5  PXY d   1      -1.569  -1.188  -2.557  0.00  0.00     0.003 A 
ATOM      8  C6  PXY d   1      -0.773  -1.620  -1.500  0.00  0.00     0.003 A 
ENDROOT
TORSDOF 0
ENDMDL
