MODEL 1
REMARK minimizedAffinity 1.10147631
REMARK minimizedRMSD -1
REMARK  0 active torsions:
REMARK  status: ('A' for Active; 'I' for Inactive)
ROOT
ATOM      1  C4' PXY d   1      -2.292   1.170  -1.759  0.00  0.00     0.077 C 
ATOM      2  C1' PXY d   1       2.510   0.063   1.263  0.00  0.00     0.077 C 
ATOM      3  C1  PXY d   1       1.250   0.341   0.467  0.00  0.00    -0.082 A 
ATOM      4  C2  PXY d   1       1.036   1.553  -0.017  0.00  0.00     0.003 A 
ATOM      5  C3  PXY d   1      -0.113   1.830  -0.711  0.00  0.00     0.003 A 
ATOM      6  C4  PXY d   1      -1.029   0.842  -0.958  0.00  0.00    -0.082 A 
ATOM      7  C5  PXY d   1      -0.812  -0.401  -0.476  0.00  0.00     0.003 A 
ATOM      8  C6  PXY d   1       0.341  -0.651   0.262  0.00  0.00     0.003 A 
ENDROOT
TORSDOF 0
ENDMDL
