MODEL 1
REMARK minimizedAffinity -5.50778294
REMARK minimizedRMSD -1
REMARK  0 active torsions:
REMARK  status: ('A' for Active; 'I' for Inactive)
ROOT
ATOM      1  C4' PXY d   1      -1.212   0.043  -0.685  0.00  0.00     0.077 C 
ATOM      2  C1' PXY d   1       3.397  -1.927   2.195  0.00  0.00     0.077 C 
ATOM      3  C1  PXY d   1       2.193  -1.398   1.439  0.00  0.00    -0.082 A 
ATOM      4  C2  PXY d   1       1.028  -2.015   1.551  0.00  0.00     0.003 A 
ATOM      5  C3  PXY d   1      -0.062  -1.569   0.850  0.00  0.00     0.003 A 
ATOM      6  C4  PXY d   1       0.028  -0.449   0.067  0.00  0.00    -0.082 A 
ATOM      7  C5  PXY d   1       1.210   0.192  -0.044  0.00  0.00     0.003 A 
ATOM      8  C6  PXY d   1       2.316  -0.301   0.644  0.00  0.00     0.003 A 
ENDROOT
TORSDOF 0
ENDMDL
