MODEL 1
REMARK minimizedAffinity -4.80716419
REMARK minimizedRMSD -1
REMARK  0 active torsions:
REMARK  status: ('A' for Active; 'I' for Inactive)
ROOT
ATOM      1  C4' PXY d   1      -1.052  -0.772  -0.073  0.00  0.00     0.077 C 
ATOM      2  C1' PXY d   1       4.144  -1.341   2.397  0.00  0.00     0.077 C 
ATOM      3  C1  PXY d   1       2.780  -1.205   1.750  0.00  0.00    -0.082 A 
ATOM      4  C2  PXY d   1       2.505  -0.135   1.021  0.00  0.00     0.003 A 
ATOM      5  C3  PXY d   1       1.266   0.019   0.455  0.00  0.00     0.003 A 
ATOM      6  C4  PXY d   1       0.315  -0.956   0.592  0.00  0.00    -0.082 A 
ATOM      7  C5  PXY d   1       0.591  -2.056   1.325  0.00  0.00     0.003 A 
ATOM      8  C6  PXY d   1       1.841  -2.174   1.926  0.00  0.00     0.003 A 
ENDROOT
TORSDOF 0
ENDMDL
