MODEL 1
REMARK minimizedAffinity -5.82260084
REMARK minimizedRMSD -1
REMARK  0 active torsions:
REMARK  status: ('A' for Active; 'I' for Inactive)
ROOT
ATOM      1  C4' PXY d   1       3.641  -1.213   1.784  0.00  0.00     0.077 C 
ATOM      2  C1' PXY d   1      -1.468   0.140  -0.556  0.00  0.00     0.077 C 
ATOM      3  C1  PXY d   1      -0.134  -0.224   0.066  0.00  0.00    -0.082 A 
ATOM      4  C2  PXY d   1       0.863   0.645   0.030  0.00  0.00     0.003 A 
ATOM      5  C3  PXY d   1       2.086   0.321   0.559  0.00  0.00     0.003 A 
ATOM      6  C4  PXY d   1       2.274  -0.886   1.178  0.00  0.00    -0.082 A 
ATOM      7  C5  PXY d   1       1.259  -1.774   1.228  0.00  0.00     0.003 A 
ATOM      8  C6  PXY d   1       0.038  -1.441   0.649  0.00  0.00     0.003 A 
ENDROOT
TORSDOF 0
ENDMDL
