MODEL 1
REMARK minimizedAffinity -2.3238163
REMARK minimizedRMSD -1
REMARK  0 active torsions:
REMARK  status: ('A' for Active; 'I' for Inactive)
ROOT
ATOM      1  C4' PXY d   1      -2.293  -0.229  -2.496  0.00  0.00     0.077 C 
ATOM      2  C1' PXY d   1       1.840   0.761   1.422  0.00  0.00     0.077 C 
ATOM      3  C1  PXY d   1       0.751   0.491   0.402  0.00  0.00    -0.082 A 
ATOM      4  C2  PXY d   1       0.941   0.833  -0.862  0.00  0.00     0.003 A 
ATOM      5  C3  PXY d   1      -0.046   0.626  -1.792  0.00  0.00     0.003 A 
ATOM      6  C4  PXY d   1      -1.218   0.015  -1.434  0.00  0.00    -0.082 A 
ATOM      7  C5  PXY d   1      -1.414  -0.346  -0.148  0.00  0.00     0.003 A 
ATOM      8  C6  PXY d   1      -0.417  -0.090   0.788  0.00  0.00     0.003 A 
ENDROOT
TORSDOF 0
ENDMDL
