MODEL 1
REMARK minimizedAffinity -5.92706919
REMARK minimizedRMSD -1
REMARK  0 active torsions:
REMARK  status: ('A' for Active; 'I' for Inactive)
ROOT
ATOM      1  C4' PXY d   1      -2.108   0.389  -0.612  0.00  0.00     0.077 C 
ATOM      2  C1' PXY d   1       3.014  -1.071   1.636  0.00  0.00     0.077 C 
ATOM      3  C1  PXY d   1       1.673  -0.676   1.048  0.00  0.00    -0.082 A 
ATOM      4  C2  PXY d   1       0.677  -1.546   1.048  0.00  0.00     0.003 A 
ATOM      5  C3  PXY d   1      -0.532  -1.216   0.492  0.00  0.00     0.003 A 
ATOM      6  C4  PXY d   1      -0.740   0.037  -0.021  0.00  0.00    -0.082 A 
ATOM      7  C5  PXY d   1       0.269   0.934  -0.015  0.00  0.00     0.003 A 
ATOM      8  C6  PXY d   1       1.501   0.565   0.517  0.00  0.00     0.003 A 
ENDROOT
TORSDOF 0
ENDMDL
