MODEL 1
REMARK minimizedAffinity -2.6213932
REMARK minimizedRMSD -1
REMARK  0 active torsions:
REMARK  status: ('A' for Active; 'I' for Inactive)
ROOT
ATOM      1  C4' PXY d   1      -2.416  -0.575  -2.147  0.00  0.00     0.077 C 
ATOM      2  C1' PXY d   1       1.859   0.743   1.514  0.00  0.00     0.077 C 
ATOM      3  C1  PXY d   1       0.734   0.387   0.561  0.00  0.00    -0.082 A 
ATOM      4  C2  PXY d   1       0.795   0.784  -0.699  0.00  0.00     0.003 A 
ATOM      5  C3  PXY d   1      -0.228   0.498  -1.566  0.00  0.00     0.003 A 
ATOM      6  C4  PXY d   1      -1.299  -0.247  -1.152  0.00  0.00    -0.082 A 
ATOM      7  C5  PXY d   1      -1.363  -0.665   0.129  0.00  0.00     0.003 A 
ATOM      8  C6  PXY d   1      -0.334  -0.330   1.004  0.00  0.00     0.003 A 
ENDROOT
TORSDOF 0
ENDMDL
