MODEL 1
REMARK minimizedAffinity 4.3564105
REMARK minimizedRMSD -1
REMARK  1 active torsions:
REMARK  status: ('A' for Active; 'I' for Inactive)
REMARK    1  A    between atoms: C1_2  and  C2_3 
ROOT
ATOM      1  C2  UNL d   1      -0.796  -2.744  -4.375  0.00  0.00    -0.076 A 
ATOM      2  C3  UNL d   1      -0.997  -3.151  -5.706  0.00  0.00     0.004 A 
ATOM      3  C4  UNL d   1      -1.612  -4.367  -5.999  0.00  0.00    -0.003 A 
ATOM      4  C5  UNL d   1      -2.038  -5.195  -4.967  0.00  0.00     0.000 A 
ATOM      5  C6  UNL d   1      -1.863  -4.799  -3.641  0.00  0.00     0.000 A 
ATOM      6  C7  UNL d   1      -1.259  -3.570  -3.328  0.00  0.00    -0.073 A 
ATOM      7  C8  UNL d   1      -1.090  -3.196  -1.881  0.00  0.00     0.078 C 
ENDROOT
BRANCH   1   8
ATOM      8  C1  UNL d   1      -0.098  -1.428  -4.118  0.00  0.00     0.053 C 
ATOM      9  C   UNL d   1      -0.464  -0.364  -5.142  0.00  0.00     0.018 C 
ENDBRANCH   1   8
TORSDOF 1
ENDMDL
