MODEL 1
REMARK minimizedAffinity 11.585516
REMARK minimizedRMSD -1
REMARK  1 active torsions:
REMARK  status: ('A' for Active; 'I' for Inactive)
REMARK    1  A    between atoms: C1_2  and  C2_3 
ROOT
ATOM      1  C2  UNL d   1      -0.547  -2.366  -4.183  0.00  0.00    -0.076 A 
ATOM      2  C3  UNL d   1      -0.548  -2.738  -5.539  0.00  0.00     0.004 A 
ATOM      3  C4  UNL d   1      -1.361  -3.772  -5.999  0.00  0.00    -0.003 A 
ATOM      4  C5  UNL d   1      -2.187  -4.452  -5.110  0.00  0.00     0.000 A 
ATOM      5  C6  UNL d   1      -2.212  -4.085  -3.765  0.00  0.00     0.000 A 
ATOM      6  C7  UNL d   1      -1.411  -3.033  -3.288  0.00  0.00    -0.073 A 
ATOM      7  C8  UNL d   1      -1.473  -2.683  -1.827  0.00  0.00     0.078 C 
ENDROOT
BRANCH   1   8
ATOM      8  C1  UNL d   1       0.376  -1.254  -3.738  0.00  0.00     0.053 C 
ATOM      9  C   UNL d   1       0.284  -0.027  -4.632  0.00  0.00     0.018 C 
ENDBRANCH   1   8
TORSDOF 1
ENDMDL
