MODEL 1
REMARK minimizedAffinity 11.7345476
REMARK minimizedRMSD -1
REMARK  1 active torsions:
REMARK  status: ('A' for Active; 'I' for Inactive)
REMARK    1  A    between atoms: C1_2  and  C2_3 
ROOT
ATOM      1  C2  UNL d   1      -1.127  -2.674  -4.283  0.00  0.00    -0.076 A 
ATOM      2  C3  UNL d   1      -0.723  -1.907  -5.390  0.00  0.00     0.004 A 
ATOM      3  C4  UNL d   1       0.021  -0.740  -5.222  0.00  0.00    -0.003 A 
ATOM      4  C5  UNL d   1       0.373  -0.321  -3.943  0.00  0.00     0.000 A 
ATOM      5  C6  UNL d   1      -0.004  -1.079  -2.835  0.00  0.00     0.000 A 
ATOM      6  C7  UNL d   1      -0.739  -2.266  -2.988  0.00  0.00    -0.073 A 
ATOM      7  C8  UNL d   1      -1.124  -3.041  -1.758  0.00  0.00     0.078 C 
ENDROOT
BRANCH   1   8
ATOM      8  C1  UNL d   1      -1.955  -3.915  -4.525  0.00  0.00     0.053 C 
ATOM      9  C   UNL d   1      -2.259  -4.134  -5.999  0.00  0.00     0.018 C 
ENDBRANCH   1   8
TORSDOF 1
ENDMDL
