MODEL 1
REMARK minimizedAffinity 11.1557474
REMARK minimizedRMSD -1
REMARK  1 active torsions:
REMARK  status: ('A' for Active; 'I' for Inactive)
REMARK    1  A    between atoms: C1_2  and  C2_3 
ROOT
ATOM      1  C2  UNL d   1      -1.135  -2.648  -4.547  0.00  0.00    -0.076 A 
ATOM      2  C3  UNL d   1      -1.128  -3.287  -5.800  0.00  0.00     0.004 A 
ATOM      3  C4  UNL d   1      -1.512  -4.620  -5.928  0.00  0.00    -0.003 A 
ATOM      4  C5  UNL d   1      -1.911  -5.337  -4.805  0.00  0.00     0.000 A 
ATOM      5  C6  UNL d   1      -1.942  -4.715  -3.557  0.00  0.00     0.000 A 
ATOM      6  C7  UNL d   1      -1.573  -3.367  -3.414  0.00  0.00    -0.073 A 
ATOM      7  C8  UNL d   1      -1.619  -2.748  -2.044  0.00  0.00     0.078 C 
ENDROOT
BRANCH   1   8
ATOM      8  C1  UNL d   1      -0.682  -1.208  -4.466  0.00  0.00     0.053 C 
ATOM      9  C   UNL d   1       0.696  -1.066  -3.838  0.00  0.00     0.018 C 
ENDBRANCH   1   8
TORSDOF 1
ENDMDL
