MODEL 1
REMARK minimizedAffinity 19.8321724
REMARK minimizedRMSD -1
REMARK  1 active torsions:
REMARK  status: ('A' for Active; 'I' for Inactive)
REMARK    1  A    between atoms: C1_2  and  C2_3 
ROOT
ATOM      1  C2  UNL d   1      -0.077   0.117   2.265  0.00  0.00    -0.076 A 
ATOM      2  C3  UNL d   1      -1.211   0.946   2.313  0.00  0.00     0.004 A 
ATOM      3  C4  UNL d   1      -2.433   0.520   1.793  0.00  0.00    -0.003 A 
ATOM      4  C5  UNL d   1      -2.539  -0.740   1.217  0.00  0.00     0.000 A 
ATOM      5  C6  UNL d   1      -1.428  -1.582   1.176  0.00  0.00     0.000 A 
ATOM      6  C7  UNL d   1      -0.194  -1.175   1.711  0.00  0.00    -0.073 A 
ATOM      7  C8  UNL d   1       0.973  -2.122   1.635  0.00  0.00     0.078 C 
ENDROOT
BRANCH   1   8
ATOM      8  C1  UNL d   1       1.228   0.643   2.820  0.00  0.00     0.053 C 
ATOM      9  C   UNL d   1       1.728  -0.172   4.003  0.00  0.00     0.018 C 
ENDBRANCH   1   8
TORSDOF 1
ENDMDL
