MODEL 1
REMARK minimizedAffinity 12.6733103
REMARK minimizedRMSD -1
REMARK  1 active torsions:
REMARK  status: ('A' for Active; 'I' for Inactive)
REMARK    1  A    between atoms: C1_2  and  C2_3 
ROOT
ATOM      1  C2  UNL d   1      -0.221  -2.897  -4.574  0.00  0.00    -0.076 A 
ATOM      2  C3  UNL d   1      -1.583  -2.787  -4.245  0.00  0.00     0.004 A 
ATOM      3  C4  UNL d   1      -2.516  -3.699  -4.735  0.00  0.00    -0.003 A 
ATOM      4  C5  UNL d   1      -2.102  -4.737  -5.563  0.00  0.00     0.000 A 
ATOM      5  C6  UNL d   1      -0.752  -4.872  -5.886  0.00  0.00     0.000 A 
ATOM      6  C7  UNL d   1       0.204  -3.971  -5.387  0.00  0.00    -0.073 A 
ATOM      7  C8  UNL d   1       1.645  -4.160  -5.772  0.00  0.00     0.078 C 
ENDROOT
BRANCH   1   8
ATOM      8  C1  UNL d   1       0.741  -1.863  -4.035  0.00  0.00     0.053 C 
ATOM      9  C   UNL d   1       0.195  -0.447  -4.144  0.00  0.00     0.018 C 
ENDBRANCH   1   8
TORSDOF 1
ENDMDL
