MODEL 1
REMARK minimizedAffinity 6.07401228
REMARK minimizedRMSD -1
REMARK  1 active torsions:
REMARK  status: ('A' for Active; 'I' for Inactive)
REMARK    1  A    between atoms: C1_2  and  C2_3 
ROOT
ATOM      1  C2  UNL d   1       1.121   0.109   4.516  0.00  0.00    -0.076 A 
ATOM      2  C3  UNL d   1       0.536   0.753   3.412  0.00  0.00     0.004 A 
ATOM      3  C4  UNL d   1       0.386   0.092   2.194  0.00  0.00    -0.003 A 
ATOM      4  C5  UNL d   1       0.817  -1.223   2.060  0.00  0.00     0.000 A 
ATOM      5  C6  UNL d   1       1.384  -1.882   3.151  0.00  0.00     0.000 A 
ATOM      6  C7  UNL d   1       1.528  -1.236   4.390  0.00  0.00    -0.073 A 
ATOM      7  C8  UNL d   1       2.151  -1.994   5.531  0.00  0.00     0.078 C 
ENDROOT
BRANCH   1   8
ATOM      8  C1  UNL d   1       1.283   0.885   5.804  0.00  0.00     0.053 C 
ATOM      9  C   UNL d   1       0.203   1.939   5.989  0.00  0.00     0.018 C 
ENDBRANCH   1   8
TORSDOF 1
ENDMDL
