MODEL 1
REMARK minimizedAffinity 19.4618912
REMARK minimizedRMSD -1
REMARK  1 active torsions:
REMARK  status: ('A' for Active; 'I' for Inactive)
REMARK    1  A    between atoms: C1_2  and  C2_3 
ROOT
ATOM      1  C2  UNL d   1      -1.119  -2.351  -4.387  0.00  0.00    -0.076 A 
ATOM      2  C3  UNL d   1      -0.765  -1.604  -5.524  0.00  0.00     0.004 A 
ATOM      3  C4  UNL d   1       0.013  -0.453  -5.413  0.00  0.00    -0.003 A 
ATOM      4  C5  UNL d   1       0.450  -0.031  -4.162  0.00  0.00     0.000 A 
ATOM      5  C6  UNL d   1       0.123  -0.769  -3.025  0.00  0.00     0.000 A 
ATOM      6  C7  UNL d   1      -0.647  -1.941  -3.122  0.00  0.00    -0.073 A 
ATOM      7  C8  UNL d   1      -0.976  -2.695  -1.862  0.00  0.00     0.078 C 
ENDROOT
BRANCH   1   8
ATOM      8  C1  UNL d   1      -1.988  -3.576  -4.566  0.00  0.00     0.053 C 
ATOM      9  C   UNL d   1      -1.988  -4.085  -5.999  0.00  0.00     0.018 C 
ENDBRANCH   1   8
TORSDOF 1
ENDMDL
