MODEL 1
REMARK minimizedAffinity -3.22692227
REMARK minimizedRMSD -1
REMARK  0 active torsions:
REMARK  status: ('A' for Active; 'I' for Inactive)
ROOT
ATOM      1  C   UNL d   1       1.766  -0.856   0.537  0.00  0.00     0.124 A 
ATOM      2  C1  UNL d   1       1.464  -0.835   1.892  0.00  0.00     0.062 A 
ATOM      3  C2  UNL d   1       0.148  -0.666   2.313  0.00  0.00     0.162 A 
ATOM      4  C3  UNL d   1      -0.876  -0.517   1.378  0.00  0.00    -0.034 A 
ATOM      5  C4  UNL d   1      -0.565  -0.539   0.017  0.00  0.00     0.162 A 
ATOM      6  C5  UNL d   1       0.752  -0.708  -0.399  0.00  0.00     0.062 A 
ATOM      7  F   UNL d   1       1.042  -0.728  -1.708  0.00  0.00    -0.097 F 
ATOM      8  F1  UNL d   1      -1.525  -0.399  -0.908  0.00  0.00    -0.096 F 
ATOM      9  I   UNL d   1      -2.845  -0.264   2.004  0.00  0.00    -0.060 I 
ATOM     10  F2  UNL d   1      -0.115  -0.650   3.628  0.00  0.00    -0.096 F 
ATOM     11  F3  UNL d   1       2.442  -0.977   2.797  0.00  0.00    -0.097 F 
ATOM     12  F4  UNL d   1       3.033  -1.018   0.135  0.00  0.00    -0.092 F 
ENDROOT
TORSDOF 0
ENDMDL
