MODEL 1
REMARK minimizedAffinity -2.02928042
REMARK minimizedRMSD -1
REMARK  0 active torsions:
REMARK  status: ('A' for Active; 'I' for Inactive)
ROOT
ATOM      1  C   UNL d   1      -0.181  -0.310   2.335  0.00  0.00     0.124 A 
ATOM      2  C1  UNL d   1      -1.219  -0.188   1.422  0.00  0.00     0.062 A 
ATOM      3  C2  UNL d   1      -0.944  -0.057   0.064  0.00  0.00     0.162 A 
ATOM      4  C3  UNL d   1       0.375  -0.047  -0.390  0.00  0.00    -0.034 A 
ATOM      5  C4  UNL d   1       1.413  -0.170   0.535  0.00  0.00     0.162 A 
ATOM      6  C5  UNL d   1       1.134  -0.301   1.891  0.00  0.00     0.062 A 
ATOM      7  F   UNL d   1       2.138  -0.419   2.772  0.00  0.00    -0.097 F 
ATOM      8  F1  UNL d   1       2.693  -0.164   0.133  0.00  0.00    -0.096 F 
ATOM      9  I   UNL d   1       0.789   0.149  -2.420  0.00  0.00    -0.060 I 
ATOM     10  F2  UNL d   1      -1.967   0.060  -0.796  0.00  0.00    -0.096 F 
ATOM     11  F3  UNL d   1      -2.490  -0.196   1.849  0.00  0.00    -0.097 F 
ATOM     12  F4  UNL d   1      -0.448  -0.436   3.642  0.00  0.00    -0.092 F 
ENDROOT
TORSDOF 0
ENDMDL
