MODEL 1
REMARK minimizedAffinity 0.20616518
REMARK minimizedRMSD -1
REMARK  0 active torsions:
REMARK  status: ('A' for Active; 'I' for Inactive)
ROOT
ATOM      1  C   UNL d   1       1.319  -0.678   1.046  0.00  0.00     0.124 A 
ATOM      2  C1  UNL d   1       0.551  -0.289  -0.042  0.00  0.00     0.062 A 
ATOM      3  C2  UNL d   1      -0.831  -0.456  -0.019  0.00  0.00     0.162 A 
ATOM      4  C3  UNL d   1      -1.454  -1.013   1.097  0.00  0.00    -0.034 A 
ATOM      5  C4  UNL d   1      -0.674  -1.403   2.188  0.00  0.00     0.162 A 
ATOM      6  C5  UNL d   1       0.706  -1.234   2.160  0.00  0.00     0.062 A 
ATOM      7  F   UNL d   1       1.447  -1.610   3.213  0.00  0.00    -0.097 F 
ATOM      8  F1  UNL d   1      -1.241  -1.942   3.278  0.00  0.00    -0.096 F 
ATOM      9  I   UNL d   1      -3.519  -1.264   1.136  0.00  0.00    -0.060 I 
ATOM     10  F2  UNL d   1      -1.548  -0.071  -1.085  0.00  0.00    -0.096 F 
ATOM     11  F3  UNL d   1       1.141   0.247  -1.120  0.00  0.00    -0.097 F 
ATOM     12  F4  UNL d   1       2.649  -0.517   1.021  0.00  0.00    -0.092 F 
ENDROOT
TORSDOF 0
ENDMDL
