MODEL 1
REMARK minimizedAffinity -2.23921132
REMARK minimizedRMSD -1
REMARK  0 active torsions:
REMARK  status: ('A' for Active; 'I' for Inactive)
ROOT
ATOM      1  C   UNL d   1       1.668  -0.619   0.503  0.00  0.00     0.124 A 
ATOM      2  C1  UNL d   1       0.634  -0.329  -0.377  0.00  0.00     0.062 A 
ATOM      3  C2  UNL d   1      -0.661  -0.145   0.100  0.00  0.00     0.162 A 
ATOM      4  C3  UNL d   1      -0.929  -0.249   1.465  0.00  0.00    -0.034 A 
ATOM      5  C4  UNL d   1       0.116  -0.541   2.344  0.00  0.00     0.162 A 
ATOM      6  C5  UNL d   1       1.408  -0.724   1.862  0.00  0.00     0.062 A 
ATOM      7  F   UNL d   1       2.405  -1.003   2.713  0.00  0.00    -0.097 F 
ATOM      8  F1  UNL d   1      -0.107  -0.648   3.662  0.00  0.00    -0.096 F 
ATOM      9  I   UNL d   1      -2.863   0.026   2.182  0.00  0.00    -0.060 I 
ATOM     10  F2  UNL d   1      -1.640   0.133  -0.773  0.00  0.00    -0.096 F 
ATOM     11  F3  UNL d   1       0.882  -0.228  -1.691  0.00  0.00    -0.097 F 
ATOM     12  F4  UNL d   1       2.912  -0.796   0.041  0.00  0.00    -0.092 F 
ENDROOT
TORSDOF 0
ENDMDL
