MODEL 1
REMARK minimizedAffinity -1.22843945
REMARK minimizedRMSD -1
REMARK  0 active torsions:
REMARK  status: ('A' for Active; 'I' for Inactive)
ROOT
ATOM      1  C   UNL d   1       0.499   0.877  -1.044  0.00  0.00     0.124 A 
ATOM      2  C1  UNL d   1      -0.749   0.321  -0.803  0.00  0.00     0.062 A 
ATOM      3  C2  UNL d   1      -0.973  -0.424   0.351  0.00  0.00     0.162 A 
ATOM      4  C3  UNL d   1       0.055  -0.617   1.274  0.00  0.00    -0.034 A 
ATOM      5  C4  UNL d   1       1.308  -0.056   1.024  0.00  0.00     0.162 A 
ATOM      6  C5  UNL d   1       1.527   0.688  -0.131  0.00  0.00     0.062 A 
ATOM      7  F   UNL d   1       2.734   1.224  -0.362  0.00  0.00    -0.097 F 
ATOM      8  F1  UNL d   1       2.318  -0.222   1.891  0.00  0.00    -0.096 F 
ATOM      9  I   UNL d   1      -0.276  -1.730   3.001  0.00  0.00    -0.060 I 
ATOM     10  F2  UNL d   1      -2.190  -0.949   0.558  0.00  0.00    -0.096 F 
ATOM     11  F3  UNL d   1      -1.743   0.501  -1.685  0.00  0.00    -0.097 F 
ATOM     12  F4  UNL d   1       0.712   1.592  -2.156  0.00  0.00    -0.092 F 
ENDROOT
TORSDOF 0
ENDMDL
