MODEL 1
REMARK minimizedAffinity -0.702787995
REMARK minimizedRMSD -1
REMARK  0 active torsions:
REMARK  status: ('A' for Active; 'I' for Inactive)
ROOT
ATOM      1  C   UNL d   1       0.946  -1.524   2.273  0.00  0.00     0.124 A 
ATOM      2  C1  UNL d   1       1.660  -1.086   1.166  0.00  0.00     0.062 A 
ATOM      3  C2  UNL d   1       1.000  -0.472   0.106  0.00  0.00     0.162 A 
ATOM      4  C3  UNL d   1      -0.382  -0.291   0.148  0.00  0.00    -0.034 A 
ATOM      5  C4  UNL d   1      -1.094  -0.735   1.264  0.00  0.00     0.162 A 
ATOM      6  C5  UNL d   1      -0.430  -1.348   2.321  0.00  0.00     0.062 A 
ATOM      7  F   UNL d   1      -1.121  -1.771   3.389  0.00  0.00    -0.097 F 
ATOM      8  F1  UNL d   1      -2.424  -0.577   1.336  0.00  0.00    -0.096 F 
ATOM      9  I   UNL d   1      -1.373   0.627  -1.436  0.00  0.00    -0.060 I 
ATOM     10  F2  UNL d   1       1.715  -0.058  -0.951  0.00  0.00    -0.096 F 
ATOM     11  F3  UNL d   1       2.989  -1.256   1.118  0.00  0.00    -0.097 F 
ATOM     12  F4  UNL d   1       1.584  -2.116   3.292  0.00  0.00    -0.092 F 
ENDROOT
TORSDOF 0
ENDMDL
