MODEL 1
REMARK minimizedAffinity -2.29266977
REMARK minimizedRMSD -1
REMARK  0 active torsions:
REMARK  status: ('A' for Active; 'I' for Inactive)
ROOT
ATOM      1  C   UNL d   1       0.119   0.548  -2.101  0.00  0.00     0.124 A 
ATOM      2  C1  UNL d   1      -0.632   1.167  -1.111  0.00  0.00     0.062 A 
ATOM      3  C2  UNL d   1      -0.655   0.645   0.180  0.00  0.00     0.162 A 
ATOM      4  C3  UNL d   1       0.077  -0.502   0.488  0.00  0.00    -0.034 A 
ATOM      5  C4  UNL d   1       0.830  -1.119  -0.513  0.00  0.00     0.162 A 
ATOM      6  C5  UNL d   1       0.849  -0.593  -1.801  0.00  0.00     0.062 A 
ATOM      7  F   UNL d   1       1.576  -1.192  -2.756  0.00  0.00    -0.097 F 
ATOM      8  F1  UNL d   1       1.545  -2.222  -0.251  0.00  0.00    -0.096 F 
ATOM      9  I   UNL d   1       0.046  -1.285   2.416  0.00  0.00    -0.060 I 
ATOM     10  F2  UNL d   1      -1.389   1.263   1.116  0.00  0.00    -0.096 F 
ATOM     11  F3  UNL d   1      -1.339   2.269  -1.398  0.00  0.00    -0.097 F 
ATOM     12  F4  UNL d   1       0.139   1.052  -3.341  0.00  0.00    -0.092 F 
ENDROOT
TORSDOF 0
ENDMDL
