MODEL 1
REMARK minimizedAffinity -4.03498173
REMARK minimizedRMSD -1
REMARK  0 active torsions:
REMARK  status: ('A' for Active; 'I' for Inactive)
ROOT
ATOM      1  C   UNL d   1      -0.602  -0.787   2.673  0.00  0.00     0.124 A 
ATOM      2  C1  UNL d   1       0.752  -0.924   2.400  0.00  0.00     0.062 A 
ATOM      3  C2  UNL d   1       1.240  -0.658   1.124  0.00  0.00     0.162 A 
ATOM      4  C3  UNL d   1       0.372  -0.251   0.110  0.00  0.00    -0.034 A 
ATOM      5  C4  UNL d   1      -0.988  -0.116   0.392  0.00  0.00     0.162 A 
ATOM      6  C5  UNL d   1      -1.471  -0.383   1.669  0.00  0.00     0.062 A 
ATOM      7  F   UNL d   1      -2.779  -0.250   1.930  0.00  0.00    -0.097 F 
ATOM      8  F1  UNL d   1      -1.850   0.273  -0.560  0.00  0.00    -0.096 F 
ATOM      9  I   UNL d   1       1.097   0.147  -1.800  0.00  0.00    -0.060 I 
ATOM     10  F2  UNL d   1       2.553  -0.799   0.889  0.00  0.00    -0.096 F 
ATOM     11  F3  UNL d   1       1.593  -1.315   3.368  0.00  0.00    -0.097 F 
ATOM     12  F4  UNL d   1      -1.068  -1.044   3.902  0.00  0.00    -0.092 F 
ENDROOT
TORSDOF 0
ENDMDL
