MODEL 1
REMARK minimizedAffinity -0.95750618
REMARK minimizedRMSD -1
REMARK  0 active torsions:
REMARK  status: ('A' for Active; 'I' for Inactive)
ROOT
ATOM      1  C   UNL d   1       1.267  -0.401   1.095  0.00  0.00     0.124 A 
ATOM      2  C1  UNL d   1       0.567  -0.368  -0.104  0.00  0.00     0.062 A 
ATOM      3  C2  UNL d   1      -0.800  -0.628  -0.123  0.00  0.00     0.162 A 
ATOM      4  C3  UNL d   1      -1.477  -0.923   1.061  0.00  0.00    -0.034 A 
ATOM      5  C4  UNL d   1      -0.766  -0.955   2.262  0.00  0.00     0.162 A 
ATOM      6  C5  UNL d   1       0.600  -0.695   2.276  0.00  0.00     0.062 A 
ATOM      7  F   UNL d   1       1.275  -0.727   3.434  0.00  0.00    -0.097 F 
ATOM      8  F1  UNL d   1      -1.386  -1.235   3.418  0.00  0.00    -0.096 F 
ATOM      9  I   UNL d   1      -3.522  -1.312   1.036  0.00  0.00    -0.060 I 
ATOM     10  F2  UNL d   1      -1.451  -0.589  -1.295  0.00  0.00    -0.096 F 
ATOM     11  F3  UNL d   1       1.209  -0.086  -1.246  0.00  0.00    -0.097 F 
ATOM     12  F4  UNL d   1       2.583  -0.152   1.110  0.00  0.00    -0.092 F 
ENDROOT
TORSDOF 0
ENDMDL
