MODEL 1
REMARK minimizedAffinity -2.45156193
REMARK minimizedRMSD -1
REMARK  0 active torsions:
REMARK  status: ('A' for Active; 'I' for Inactive)
ROOT
ATOM      1  C   UNL d   1      -0.260  -1.252  -1.102  0.00  0.00     0.124 A 
ATOM      2  C1  UNL d   1      -1.089  -0.935  -0.034  0.00  0.00     0.062 A 
ATOM      3  C2  UNL d   1      -0.545  -0.664   1.218  0.00  0.00     0.162 A 
ATOM      4  C3  UNL d   1       0.836  -0.707   1.409  0.00  0.00    -0.034 A 
ATOM      5  C4  UNL d   1       1.663  -1.027   0.331  0.00  0.00     0.162 A 
ATOM      6  C5  UNL d   1       1.115  -1.298  -0.918  0.00  0.00     0.062 A 
ATOM      7  F   UNL d   1       1.917  -1.603  -1.948  0.00  0.00    -0.097 F 
ATOM      8  F1  UNL d   1       2.995  -1.077   0.480  0.00  0.00    -0.096 F 
ATOM      9  I   UNL d   1       1.654  -0.302   3.280  0.00  0.00    -0.060 I 
ATOM     10  F2  UNL d   1      -1.370  -0.361   2.231  0.00  0.00    -0.096 F 
ATOM     11  F3  UNL d   1      -2.418  -0.892  -0.209  0.00  0.00    -0.097 F 
ATOM     12  F4  UNL d   1      -0.786  -1.514  -2.305  0.00  0.00    -0.092 F 
ENDROOT
TORSDOF 0
ENDMDL
