MODEL 1
REMARK minimizedAffinity -4.6490469
REMARK minimizedRMSD -1
REMARK  0 active torsions:
REMARK  status: ('A' for Active; 'I' for Inactive)
ROOT
ATOM      1  C   UNL d   1       1.196  -1.624   2.253  0.00  0.00     0.124 A 
ATOM      2  C1  UNL d   1      -0.126  -1.246   2.442  0.00  0.00     0.062 A 
ATOM      3  C2  UNL d   1      -0.845  -0.669   1.399  0.00  0.00     0.162 A 
ATOM      4  C3  UNL d   1      -0.244  -0.467   0.157  0.00  0.00    -0.034 A 
ATOM      5  C4  UNL d   1       1.086  -0.849  -0.026  0.00  0.00     0.162 A 
ATOM      6  C5  UNL d   1       1.801  -1.425   1.020  0.00  0.00     0.062 A 
ATOM      7  F   UNL d   1       3.078  -1.790   0.835  0.00  0.00    -0.097 F 
ATOM      8  F1  UNL d   1       1.695  -0.669  -1.207  0.00  0.00    -0.096 F 
ATOM      9  I   UNL d   1      -1.316   0.395  -1.405  0.00  0.00    -0.060 I 
ATOM     10  F2  UNL d   1      -2.122  -0.314   1.610  0.00  0.00    -0.096 F 
ATOM     11  F3  UNL d   1      -0.713  -1.436   3.632  0.00  0.00    -0.097 F 
ATOM     12  F4  UNL d   1       1.886  -2.178   3.258  0.00  0.00    -0.092 F 
ENDROOT
TORSDOF 0
ENDMDL
