MODEL 1
REMARK minimizedAffinity 0.0748810992
REMARK minimizedRMSD -1
REMARK  0 active torsions:
REMARK  status: ('A' for Active; 'I' for Inactive)
ROOT
ATOM      1  C   UNL d   1       2.333  -2.863   0.507  0.00  0.00     0.077 C 
ATOM      2  C1  UNL d   1       1.246  -1.847   0.697  0.00  0.00    -0.074 A 
ATOM      3  C2  UNL d   1       0.566  -1.741   1.915  0.00  0.00    -0.005 A 
ATOM      4  C3  UNL d   1      -0.436  -0.785   2.080  0.00  0.00     0.006 A 
ATOM      5  C4  UNL d   1      -0.768   0.073   1.031  0.00  0.00    -0.005 A 
ATOM      6  C5  UNL d   1      -0.098  -0.018  -0.194  0.00  0.00    -0.074 A 
ATOM      7  C6  UNL d   1      -0.436   0.903  -1.328  0.00  0.00     0.077 C 
ATOM      8  C7  UNL d   1       0.912  -0.976  -0.349  0.00  0.00    -0.001 A 
ENDROOT
TORSDOF 0
ENDMDL
