MODEL 1
REMARK minimizedAffinity -3.36150718
REMARK minimizedRMSD -1
REMARK  0 active torsions:
REMARK  status: ('A' for Active; 'I' for Inactive)
ROOT
ATOM      1  C   UNL d   1       0.063  -0.526   2.637  0.00  0.00     0.077 C 
ATOM      2  C1  UNL d   1       0.401  -0.625   1.180  0.00  0.00    -0.074 A 
ATOM      3  C2  UNL d   1       1.528  -1.333   0.750  0.00  0.00    -0.005 A 
ATOM      4  C3  UNL d   1       1.824  -1.425  -0.610  0.00  0.00     0.006 A 
ATOM      5  C4  UNL d   1       0.998  -0.810  -1.552  0.00  0.00    -0.005 A 
ATOM      6  C5  UNL d   1      -0.134  -0.099  -1.141  0.00  0.00    -0.074 A 
ATOM      7  C6  UNL d   1      -1.038   0.558  -2.141  0.00  0.00     0.077 C 
ATOM      8  C7  UNL d   1      -0.429  -0.018   0.227  0.00  0.00    -0.001 A 
ENDROOT
TORSDOF 0
ENDMDL
