MODEL 1
REMARK minimizedAffinity -2.6823554
REMARK minimizedRMSD -1
REMARK  0 active torsions:
REMARK  status: ('A' for Active; 'I' for Inactive)
ROOT
ATOM      1  C   UNL d   1      -3.450   3.079  -1.945  0.00  0.00     0.077 C 
ATOM      2  C1  UNL d   1      -2.051   2.648  -2.269  0.00  0.00    -0.074 A 
ATOM      3  C2  UNL d   1      -1.060   3.588  -2.570  0.00  0.00    -0.005 A 
ATOM      4  C3  UNL d   1       0.239   3.172  -2.860  0.00  0.00     0.006 A 
ATOM      5  C4  UNL d   1       0.561   1.814  -2.852  0.00  0.00    -0.005 A 
ATOM      6  C5  UNL d   1      -0.417   0.860  -2.554  0.00  0.00    -0.074 A 
ATOM      7  C6  UNL d   1      -0.086  -0.603  -2.532  0.00  0.00     0.077 C 
ATOM      8  C7  UNL d   1      -1.718   1.286  -2.256  0.00  0.00    -0.001 A 
ENDROOT
TORSDOF 0
ENDMDL
