MODEL 1
REMARK minimizedAffinity -0.961403191
REMARK minimizedRMSD -1
REMARK  0 active torsions:
REMARK  status: ('A' for Active; 'I' for Inactive)
ROOT
ATOM      1  C   UNL d   1      -1.289   0.453   2.048  0.00  0.00     0.077 C 
ATOM      2  C1  UNL d   1      -1.009   0.704   0.596  0.00  0.00    -0.074 A 
ATOM      3  C2  UNL d   1      -0.089  -0.082  -0.105  0.00  0.00    -0.005 A 
ATOM      4  C3  UNL d   1       0.153   0.156  -1.458  0.00  0.00     0.006 A 
ATOM      5  C4  UNL d   1      -0.521   1.181  -2.122  0.00  0.00    -0.005 A 
ATOM      6  C5  UNL d   1      -1.446   1.977  -1.438  0.00  0.00    -0.074 A 
ATOM      7  C6  UNL d   1      -2.186   3.077  -2.139  0.00  0.00     0.077 C 
ATOM      8  C7  UNL d   1      -1.689   1.727  -0.080  0.00  0.00    -0.001 A 
ENDROOT
TORSDOF 0
ENDMDL
