MODEL 1
REMARK minimizedAffinity -4.30908155
REMARK minimizedRMSD -1
REMARK  0 active torsions:
REMARK  status: ('A' for Active; 'I' for Inactive)
ROOT
ATOM      1  C   UNL d   1       1.876  -1.969  -0.118  0.00  0.00     0.077 C 
ATOM      2  C1  UNL d   1       0.773  -1.011   0.222  0.00  0.00    -0.074 A 
ATOM      3  C2  UNL d   1       0.189  -1.009   1.493  0.00  0.00    -0.005 A 
ATOM      4  C3  UNL d   1      -0.829  -0.106   1.797  0.00  0.00     0.006 A 
ATOM      5  C4  UNL d   1      -1.272   0.804   0.836  0.00  0.00    -0.005 A 
ATOM      6  C5  UNL d   1      -0.699   0.818  -0.439  0.00  0.00    -0.074 A 
ATOM      7  C6  UNL d   1      -1.157   1.795  -1.481  0.00  0.00     0.077 C 
ATOM      8  C7  UNL d   1       0.328  -0.089  -0.736  0.00  0.00    -0.001 A 
ENDROOT
TORSDOF 0
ENDMDL
