MODEL 1
REMARK minimizedAffinity -3.93011069
REMARK minimizedRMSD -1
REMARK  0 active torsions:
REMARK  status: ('A' for Active; 'I' for Inactive)
ROOT
ATOM      1  C   UNL d   1      -0.781   0.600  -1.462  0.00  0.00     0.077 C 
ATOM      2  C1  UNL d   1      -0.378  -0.153  -0.229  0.00  0.00    -0.074 A 
ATOM      3  C2  UNL d   1      -1.043   0.048   0.985  0.00  0.00    -0.005 A 
ATOM      4  C3  UNL d   1      -0.663  -0.667   2.121  0.00  0.00     0.006 A 
ATOM      5  C4  UNL d   1       0.382  -1.589   2.055  0.00  0.00    -0.005 A 
ATOM      6  C5  UNL d   1       1.058  -1.803   0.849  0.00  0.00    -0.074 A 
ATOM      7  C6  UNL d   1       2.178  -2.797   0.758  0.00  0.00     0.077 C 
ATOM      8  C7  UNL d   1       0.666  -1.086  -0.290  0.00  0.00    -0.001 A 
ENDROOT
TORSDOF 0
ENDMDL
