MODEL 1
REMARK minimizedAffinity -1.09442365
REMARK minimizedRMSD -1
REMARK  0 active torsions:
REMARK  status: ('A' for Active; 'I' for Inactive)
ROOT
ATOM      1  C   UNL d   1       0.082   3.210  -2.866  0.00  0.00     0.077 C 
ATOM      2  C1  UNL d   1      -0.385   1.908  -2.285  0.00  0.00    -0.074 A 
ATOM      3  C2  UNL d   1      -1.737   1.553  -2.314  0.00  0.00    -0.005 A 
ATOM      4  C3  UNL d   1      -2.156   0.335  -1.778  0.00  0.00     0.006 A 
ATOM      5  C4  UNL d   1      -1.228  -0.538  -1.209  0.00  0.00    -0.005 A 
ATOM      6  C5  UNL d   1       0.128  -0.200  -1.172  0.00  0.00    -0.074 A 
ATOM      7  C6  UNL d   1       1.140  -1.132  -0.573  0.00  0.00     0.077 C 
ATOM      8  C7  UNL d   1       0.542   1.022  -1.719  0.00  0.00    -0.001 A 
ENDROOT
TORSDOF 0
ENDMDL
