MODEL 1
REMARK minimizedAffinity -2.48072767
REMARK minimizedRMSD -1
REMARK  0 active torsions:
REMARK  status: ('A' for Active; 'I' for Inactive)
ROOT
ATOM      1  C   UNL d   1      -0.690   0.514  -0.972  0.00  0.00     0.077 C 
ATOM      2  C1  UNL d   1      -0.185  -0.234   0.226  0.00  0.00    -0.074 A 
ATOM      3  C2  UNL d   1      -0.734  -0.016   1.494  0.00  0.00    -0.005 A 
ATOM      4  C3  UNL d   1      -0.260  -0.726   2.597  0.00  0.00     0.006 A 
ATOM      5  C4  UNL d   1       0.766  -1.660   2.443  0.00  0.00    -0.005 A 
ATOM      6  C5  UNL d   1       1.326  -1.892   1.183  0.00  0.00    -0.074 A 
ATOM      7  C6  UNL d   1       2.422  -2.899   0.999  0.00  0.00     0.077 C 
ATOM      8  C7  UNL d   1       0.840  -1.180   0.079  0.00  0.00    -0.001 A 
ENDROOT
TORSDOF 0
ENDMDL
