MODEL 1
REMARK minimizedAffinity -4.41606951
REMARK minimizedRMSD -1
REMARK  0 active torsions:
REMARK  status: ('A' for Active; 'I' for Inactive)
ROOT
ATOM      1  C   UNL d   1      -0.025  -0.317  -1.049  0.00  0.00     0.077 C 
ATOM      2  C1  UNL d   1      -0.116   1.097  -1.540  0.00  0.00    -0.074 A 
ATOM      3  C2  UNL d   1      -1.210   1.525  -2.300  0.00  0.00    -0.005 A 
ATOM      4  C3  UNL d   1      -1.285   2.846  -2.741  0.00  0.00     0.006 A 
ATOM      5  C4  UNL d   1      -0.270   3.751  -2.428  0.00  0.00    -0.005 A 
ATOM      6  C5  UNL d   1       0.830   3.341  -1.669  0.00  0.00    -0.074 A 
ATOM      7  C6  UNL d   1       1.925   4.303  -1.315  0.00  0.00     0.077 C 
ATOM      8  C7  UNL d   1       0.896   2.014  -1.223  0.00  0.00    -0.001 A 
ENDROOT
TORSDOF 0
ENDMDL
