MODEL 1
REMARK minimizedAffinity -4.25345993
REMARK minimizedRMSD -1
REMARK  0 active torsions:
REMARK  status: ('A' for Active; 'I' for Inactive)
ROOT
ATOM      1  C   UNL d   1      -1.499  -0.016   2.623  0.00  0.00     0.077 C 
ATOM      2  C1  UNL d   1      -0.509  -0.478   1.595  0.00  0.00    -0.074 A 
ATOM      3  C2  UNL d   1       0.551  -1.320   1.945  0.00  0.00    -0.005 A 
ATOM      4  C3  UNL d   1       1.458  -1.749   0.975  0.00  0.00     0.006 A 
ATOM      5  C4  UNL d   1       1.314  -1.340  -0.351  0.00  0.00    -0.005 A 
ATOM      6  C5  UNL d   1       0.260  -0.498  -0.720  0.00  0.00    -0.074 A 
ATOM      7  C6  UNL d   1       0.085  -0.058  -2.143  0.00  0.00     0.077 C 
ATOM      8  C7  UNL d   1      -0.651  -0.078   0.259  0.00  0.00    -0.001 A 
ENDROOT
TORSDOF 0
ENDMDL
