MODEL 1
REMARK minimizedAffinity 15.4005394
REMARK minimizedRMSD -1
REMARK  0 active torsions:
REMARK  status: ('A' for Active; 'I' for Inactive)
ROOT
ATOM      1  C1  DEN d   1       0.089   0.943   3.367  0.00  0.00     0.130 A 
ATOM      2  C2  DEN d   1       0.760  -0.325   3.639  0.00  0.00    -0.031 A 
ATOM      3  C3  DEN d   1       1.798  -0.523   2.606  0.00  0.00     0.027 A 
ATOM      4  C4  DEN d   1       2.429   1.005   0.627  0.00  0.00     0.027 A 
ATOM      5  C5  DEN d   1       2.131   2.183  -0.021  0.00  0.00    -0.003 A 
ATOM      6  C6  DEN d   1       1.117   3.007   0.391  0.00  0.00     0.001 A 
ATOM      7  C7  DEN d   1       0.394   2.687   1.509  0.00  0.00     0.017 A 
ATOM      8  C8  DEN d   1       0.684   1.496   2.163  0.00  0.00    -0.094 A 
ATOM      9  C9  DEN d   1       1.720   0.683   1.738  0.00  0.00    -0.072 A 
ENDROOT
TORSDOF 0
ENDMDL
