MODEL 1
REMARK minimizedAffinity 23.7946625
REMARK minimizedRMSD -1
REMARK  0 active torsions:
REMARK  status: ('A' for Active; 'I' for Inactive)
ROOT
ATOM      1  C1  DEN d   1       2.282   2.851   0.839  0.00  0.00     0.130 A 
ATOM      2  C2  DEN d   1       2.380   1.698  -0.052  0.00  0.00    -0.031 A 
ATOM      3  C3  DEN d   1       3.301   2.048  -1.152  0.00  0.00     0.027 A 
ATOM      4  C4  DEN d   1       4.584   4.249  -1.556  0.00  0.00     0.027 A 
ATOM      5  C5  DEN d   1       4.811   5.520  -1.077  0.00  0.00    -0.003 A 
ATOM      6  C6  DEN d   1       4.190   5.998   0.047  0.00  0.00     0.001 A 
ATOM      7  C7  DEN d   1       3.346   5.184   0.754  0.00  0.00     0.017 A 
ATOM      8  C8  DEN d   1       3.106   3.904   0.273  0.00  0.00    -0.094 A 
ATOM      9  C9  DEN d   1       3.752   3.435  -0.858  0.00  0.00    -0.072 A 
ENDROOT
TORSDOF 0
ENDMDL
