MODEL 1
REMARK minimizedAffinity 14.5001354
REMARK minimizedRMSD -1
REMARK  0 active torsions:
REMARK  status: ('A' for Active; 'I' for Inactive)
ROOT
ATOM      1  C1  DEN d   1       4.613   2.889  -3.429  0.00  0.00     0.130 A 
ATOM      2  C2  DEN d   1       5.989   3.354  -3.579  0.00  0.00    -0.031 A 
ATOM      3  C3  DEN d   1       5.989   4.477  -4.538  0.00  0.00     0.027 A 
ATOM      4  C4  DEN d   1       4.002   5.538  -5.794  0.00  0.00     0.027 A 
ATOM      5  C5  DEN d   1       2.642   5.476  -5.999  0.00  0.00    -0.003 A 
ATOM      6  C6  DEN d   1       1.854   4.533  -5.394  0.00  0.00     0.001 A 
ATOM      7  C7  DEN d   1       2.415   3.642  -4.517  0.00  0.00     0.017 A 
ATOM      8  C8  DEN d   1       3.787   3.694  -4.311  0.00  0.00    -0.094 A 
ATOM      9  C9  DEN d   1       4.564   4.662  -4.923  0.00  0.00    -0.072 A 
ENDROOT
TORSDOF 0
ENDMDL
