MODEL 1
REMARK minimizedAffinity 8.61846828
REMARK minimizedRMSD -1
REMARK  0 active torsions:
REMARK  status: ('A' for Active; 'I' for Inactive)
ROOT
ATOM      1  C1  DEN d   1       3.745   0.989  -0.931  0.00  0.00     0.130 A 
ATOM      2  C2  DEN d   1       2.435   1.244  -1.524  0.00  0.00    -0.031 A 
ATOM      3  C3  DEN d   1       1.429   1.204  -0.443  0.00  0.00     0.027 A 
ATOM      4  C4  DEN d   1       1.772   0.780   2.078  0.00  0.00     0.027 A 
ATOM      5  C5  DEN d   1       2.705   0.503   3.053  0.00  0.00    -0.003 A 
ATOM      6  C6  DEN d   1       4.034   0.336   2.766  0.00  0.00     0.001 A 
ATOM      7  C7  DEN d   1       4.474   0.490   1.478  0.00  0.00     0.017 A 
ATOM      8  C8  DEN d   1       3.539   0.762   0.488  0.00  0.00    -0.094 A 
ATOM      9  C9  DEN d   1       2.202   0.939   0.800  0.00  0.00    -0.072 A 
ENDROOT
TORSDOF 0
ENDMDL
