MODEL 1
REMARK minimizedAffinity 6.4169836
REMARK minimizedRMSD -1
REMARK  0 active torsions:
REMARK  status: ('A' for Active; 'I' for Inactive)
ROOT
ATOM      1  C1  DEN d   1      -3.301  -2.488  -3.118  0.00  0.00     0.130 A 
ATOM      2  C2  DEN d   1      -2.163  -2.698  -2.226  0.00  0.00    -0.031 A 
ATOM      3  C3  DEN d   1      -2.330  -4.013  -1.575  0.00  0.00     0.027 A 
ATOM      4  C4  DEN d   1      -4.226  -5.738  -1.864  0.00  0.00     0.027 A 
ATOM      5  C5  DEN d   1      -5.418  -5.999  -2.503  0.00  0.00    -0.003 A 
ATOM      6  C6  DEN d   1      -6.000  -5.102  -3.359  0.00  0.00     0.001 A 
ATOM      7  C7  DEN d   1      -5.368  -3.918  -3.634  0.00  0.00     0.017 A 
ATOM      8  C8  DEN d   1      -4.170  -3.644  -2.987  0.00  0.00    -0.094 A 
ATOM      9  C9  DEN d   1      -3.591  -4.569  -2.135  0.00  0.00    -0.072 A 
ENDROOT
TORSDOF 0
ENDMDL
