MODEL 1
REMARK minimizedAffinity 20.8283005
REMARK minimizedRMSD -1
REMARK  0 active torsions:
REMARK  status: ('A' for Active; 'I' for Inactive)
ROOT
ATOM      1  C1  DEN d   1       3.048   1.467  -5.843  0.00  0.00     0.130 A 
ATOM      2  C2  DEN d   1       3.114   0.016  -5.991  0.00  0.00    -0.031 A 
ATOM      3  C3  DEN d   1       3.894  -0.524  -4.859  0.00  0.00     0.027 A 
ATOM      4  C4  DEN d   1       4.994   0.740  -2.898  0.00  0.00     0.027 A 
ATOM      5  C5  DEN d   1       5.219   1.983  -2.349  0.00  0.00    -0.003 A 
ATOM      6  C6  DEN d   1       4.768   3.134  -2.938  0.00  0.00     0.001 A 
ATOM      7  C7  DEN d   1       4.031   3.063  -4.090  0.00  0.00     0.017 A 
ATOM      8  C8  DEN d   1       3.806   1.814  -4.654  0.00  0.00    -0.094 A 
ATOM      9  C9  DEN d   1       4.260   0.661  -4.036  0.00  0.00    -0.072 A 
ENDROOT
TORSDOF 0
ENDMDL
