MODEL 1
REMARK minimizedAffinity 10.5123177
REMARK minimizedRMSD -1
REMARK  0 active torsions:
REMARK  status: ('A' for Active; 'I' for Inactive)
ROOT
ATOM      1  C1  DEN d   1       0.910   3.949   1.335  0.00  0.00     0.130 A 
ATOM      2  C2  DEN d   1       1.861   4.182   0.252  0.00  0.00    -0.031 A 
ATOM      3  C3  DEN d   1       2.644   2.944   0.058  0.00  0.00     0.027 A 
ATOM      4  C4  DEN d   1       2.471   0.701   1.318  0.00  0.00     0.027 A 
ATOM      5  C5  DEN d   1       1.819   0.027   2.327  0.00  0.00    -0.003 A 
ATOM      6  C6  DEN d   1       0.849   0.620   3.092  0.00  0.00     0.001 A 
ATOM      7  C7  DEN d   1       0.472   1.910   2.831  0.00  0.00     0.017 A 
ATOM      8  C8  DEN d   1       1.131   2.598   1.820  0.00  0.00    -0.094 A 
ATOM      9  C9  DEN d   1       2.100   1.978   1.050  0.00  0.00    -0.072 A 
ENDROOT
TORSDOF 0
ENDMDL
