MODEL 1
REMARK minimizedAffinity 13.0171928
REMARK minimizedRMSD -1
REMARK  0 active torsions:
REMARK  status: ('A' for Active; 'I' for Inactive)
ROOT
ATOM      1  C1  DEN d   1       0.242   1.786   3.371  0.00  0.00     0.130 A 
ATOM      2  C2  DEN d   1       0.371   1.082   4.644  0.00  0.00    -0.031 A 
ATOM      3  C3  DEN d   1       1.681   0.401   4.659  0.00  0.00     0.027 A 
ATOM      4  C4  DEN d   1       3.515   0.372   2.845  0.00  0.00     0.027 A 
ATOM      5  C5  DEN d   1       3.855   0.814   1.586  0.00  0.00    -0.003 A 
ATOM      6  C6  DEN d   1       3.008   1.576   0.826  0.00  0.00     0.001 A 
ATOM      7  C7  DEN d   1       1.796   1.958   1.337  0.00  0.00     0.017 A 
ATOM      8  C8  DEN d   1       1.442   1.510   2.603  0.00  0.00    -0.094 A 
ATOM      9  C9  DEN d   1       2.318   0.750   3.360  0.00  0.00    -0.072 A 
ENDROOT
TORSDOF 0
ENDMDL
