MODEL 1
REMARK minimizedAffinity 8.80141258
REMARK minimizedRMSD -1
REMARK  0 active torsions:
REMARK  status: ('A' for Active; 'I' for Inactive)
ROOT
ATOM      1  C1  DEN d   1      -2.888  -5.733   0.610  0.00  0.00     0.130 A 
ATOM      2  C2  DEN d   1      -2.256  -5.997   1.900  0.00  0.00    -0.031 A 
ATOM      3  C3  DEN d   1      -1.587  -4.757   2.342  0.00  0.00     0.027 A 
ATOM      4  C4  DEN d   1      -1.473  -2.465   1.164  0.00  0.00     0.027 A 
ATOM      5  C5  DEN d   1      -1.848  -1.760   0.042  0.00  0.00    -0.003 A 
ATOM      6  C6  DEN d   1      -2.561  -2.335  -0.977  0.00  0.00     0.001 A 
ATOM      7  C7  DEN d   1      -2.961  -3.641  -0.874  0.00  0.00     0.017 A 
ATOM      8  C8  DEN d   1      -2.580  -4.360   0.252  0.00  0.00    -0.094 A 
ATOM      9  C9  DEN d   1      -1.870  -3.758   1.276  0.00  0.00    -0.072 A 
ENDROOT
TORSDOF 0
ENDMDL
