MODEL 1
REMARK minimizedAffinity 17.1389103
REMARK minimizedRMSD -1
REMARK  0 active torsions:
REMARK  status: ('A' for Active; 'I' for Inactive)
ROOT
ATOM      1  C1  DEN d   1       3.015   0.312  -0.280  0.00  0.00     0.130 A 
ATOM      2  C2  DEN d   1       3.896   1.475  -0.204  0.00  0.00    -0.031 A 
ATOM      3  C3  DEN d   1       3.396   2.357   0.870  0.00  0.00     0.027 A 
ATOM      4  C4  DEN d   1       1.358   2.036   2.417  0.00  0.00     0.027 A 
ATOM      5  C5  DEN d   1       0.299   1.209   2.721  0.00  0.00    -0.003 A 
ATOM      6  C6  DEN d   1       0.054   0.052   2.031  0.00  0.00     0.001 A 
ATOM      7  C7  DEN d   1       0.905  -0.334   1.029  0.00  0.00     0.017 A 
ATOM      8  C8  DEN d   1       1.970   0.498   0.711  0.00  0.00    -0.094 A 
ATOM      9  C9  DEN d   1       2.208   1.658   1.429  0.00  0.00    -0.072 A 
ENDROOT
TORSDOF 0
ENDMDL
