MODEL 1
REMARK minimizedAffinity 12.8637743
REMARK minimizedRMSD -1
REMARK  0 active torsions:
REMARK  status: ('A' for Active; 'I' for Inactive)
ROOT
ATOM      1  C1  DEN d   1      -3.787   1.436   2.606  0.00  0.00     0.130 A 
ATOM      2  C2  DEN d   1      -3.781  -0.024   2.658  0.00  0.00    -0.031 A 
ATOM      3  C3  DEN d   1      -4.542  -0.441   3.853  0.00  0.00     0.027 A 
ATOM      4  C4  DEN d   1      -5.728   1.024   5.614  0.00  0.00     0.027 A 
ATOM      5  C5  DEN d   1      -6.000   2.318   5.999  0.00  0.00    -0.003 A 
ATOM      6  C6  DEN d   1      -5.528   3.400   5.304  0.00  0.00     0.001 A 
ATOM      7  C7  DEN d   1      -4.797   3.208   4.162  0.00  0.00     0.017 A 
ATOM      8  C8  DEN d   1      -4.513   1.906   3.772  0.00  0.00    -0.094 A 
ATOM      9  C9  DEN d   1      -5.009   0.825   4.480  0.00  0.00    -0.072 A 
ENDROOT
TORSDOF 0
ENDMDL
