MODEL 1
REMARK minimizedAffinity 14.0691376
REMARK minimizedRMSD -1
REMARK  0 active torsions:
REMARK  status: ('A' for Active; 'I' for Inactive)
ROOT
ATOM      1  C1  DEN d   1      -4.876  -3.684  -2.412  0.00  0.00     0.130 A 
ATOM      2  C2  DEN d   1      -3.959  -3.289  -1.347  0.00  0.00    -0.031 A 
ATOM      3  C3  DEN d   1      -2.684  -2.880  -1.970  0.00  0.00     0.027 A 
ATOM      4  C4  DEN d   1      -2.046  -2.815  -4.468  0.00  0.00     0.027 A 
ATOM      5  C5  DEN d   1      -2.491  -3.069  -5.747  0.00  0.00    -0.003 A 
ATOM      6  C6  DEN d   1      -3.739  -3.573  -6.000  0.00  0.00     0.001 A 
ATOM      7  C7  DEN d   1      -4.603  -3.798  -4.961  0.00  0.00     0.017 A 
ATOM      8  C8  DEN d   1      -4.160  -3.552  -3.668  0.00  0.00    -0.094 A 
ATOM      9  C9  DEN d   1      -2.899  -3.030  -3.434  0.00  0.00    -0.072 A 
ENDROOT
TORSDOF 0
ENDMDL
