MODEL 1
REMARK minimizedAffinity 8.41034317
REMARK minimizedRMSD -1
REMARK  0 active torsions:
REMARK  status: ('A' for Active; 'I' for Inactive)
ROOT
ATOM      1  C1  DEN d   1      -0.550   2.277   2.191  0.00  0.00     0.130 A 
ATOM      2  C2  DEN d   1       0.367   1.158   1.992  0.00  0.00    -0.031 A 
ATOM      3  C3  DEN d   1      -0.367  -0.090   2.280  0.00  0.00     0.027 A 
ATOM      4  C4  DEN d   1      -2.822  -0.399   3.006  0.00  0.00     0.027 A 
ATOM      5  C5  DEN d   1      -3.992   0.259   3.317  0.00  0.00    -0.003 A 
ATOM      6  C6  DEN d   1      -4.086   1.626   3.308  0.00  0.00     0.001 A 
ATOM      7  C7  DEN d   1      -3.003   2.378   2.936  0.00  0.00     0.017 A 
ATOM      8  C8  DEN d   1      -1.818   1.722   2.628  0.00  0.00    -0.094 A 
ATOM      9  C9  DEN d   1      -1.747   0.340   2.632  0.00  0.00    -0.072 A 
ENDROOT
TORSDOF 0
ENDMDL
