MODEL 1
REMARK minimizedAffinity 8.66301537
REMARK minimizedRMSD -1
REMARK  3 active torsions:
REMARK  status: ('A' for Active; 'I' for Inactive)
REMARK    1  A    between atoms: C3'_2  and  C2'_3 
REMARK    2  A    between atoms: C2'_3  and  C1'_4 
REMARK    3  A    between atoms: C1'_4  and  C1_5 
ROOT
ATOM      1  C1  N4B d   1       5.292   5.927  -3.496  0.00  0.00    -0.075 A 
ATOM      2  C2  N4B d   1       5.998   5.719  -4.702  0.00  0.00     0.002 A 
ATOM      3  C3  N4B d   1       5.311   5.580  -5.883  0.00  0.00     0.002 A 
ATOM      4  C4  N4B d   1       3.925   5.626  -5.881  0.00  0.00    -0.004 A 
ATOM      5  C5  N4B d   1       3.253   5.853  -4.716  0.00  0.00     0.002 A 
ATOM      6  C6  N4B d   1       3.930   5.999  -3.522  0.00  0.00     0.002 A 
ENDROOT
BRANCH   1   7
ATOM      7  C1' N4B d   1       5.995   5.999  -2.168  0.00  0.00     0.057 C 
BRANCH   7   8
ATOM      8  C2' N4B d   1       5.410   4.943  -1.235  0.00  0.00     0.009 C 
BRANCH   8   9
ATOM      9  C3' N4B d   1       4.056   4.448  -1.714  0.00  0.00     0.004 C 
ATOM     10  C4' N4B d   1       2.986   4.587  -0.673  0.00  0.00     0.003 C 
ENDBRANCH   8   9
ENDBRANCH   7   8
ENDBRANCH   1   7
TORSDOF 3
ENDMDL
