MODEL 1
REMARK minimizedAffinity 1.03307331
REMARK minimizedRMSD -1
REMARK  3 active torsions:
REMARK  status: ('A' for Active; 'I' for Inactive)
REMARK    1  A    between atoms: C3'_2  and  C2'_3 
REMARK    2  A    between atoms: C2'_3  and  C1'_4 
REMARK    3  A    between atoms: C1'_4  and  C1_5 
ROOT
ATOM      1  C1  N4B d   1       5.959   5.106  -3.622  0.00  0.00    -0.075 A 
ATOM      2  C2  N4B d   1       5.935   3.694  -3.590  0.00  0.00     0.002 A 
ATOM      3  C3  N4B d   1       5.941   2.980  -4.763  0.00  0.00     0.002 A 
ATOM      4  C4  N4B d   1       5.951   3.653  -5.975  0.00  0.00    -0.004 A 
ATOM      5  C5  N4B d   1       5.999   5.016  -5.998  0.00  0.00     0.002 A 
ATOM      6  C6  N4B d   1       5.998   5.747  -4.827  0.00  0.00     0.002 A 
ENDROOT
BRANCH   1   7
ATOM      7  C1' N4B d   1       5.866   5.931  -2.368  0.00  0.00     0.057 C 
BRANCH   7   8
ATOM      8  C2' N4B d   1       4.654   5.479  -1.560  0.00  0.00     0.009 C 
BRANCH   8   9
ATOM      9  C3' N4B d   1       3.552   4.928  -2.448  0.00  0.00     0.004 C 
ATOM     10  C4' N4B d   1       3.253   5.813  -3.621  0.00  0.00     0.003 C 
ENDBRANCH   8   9
ENDBRANCH   7   8
ENDBRANCH   1   7
TORSDOF 3
ENDMDL
