MODEL 1
REMARK minimizedAffinity -3.68612766
REMARK minimizedRMSD -1
REMARK  3 active torsions:
REMARK  status: ('A' for Active; 'I' for Inactive)
REMARK    1  A    between atoms: C3'_2  and  C2'_3 
REMARK    2  A    between atoms: C2'_3  and  C1'_4 
REMARK    3  A    between atoms: C1'_4  and  C1_5 
ROOT
ATOM      1  C1  N4B d   1       4.689   4.208  -4.684  0.00  0.00    -0.075 A 
ATOM      2  C2  N4B d   1       3.470   4.619  -4.099  0.00  0.00     0.002 A 
ATOM      3  C3  N4B d   1       3.473   5.261  -2.885  0.00  0.00     0.002 A 
ATOM      4  C4  N4B d   1       4.675   5.486  -2.231  0.00  0.00    -0.004 A 
ATOM      5  C5  N4B d   1       5.850   5.110  -2.815  0.00  0.00     0.002 A 
ATOM      6  C6  N4B d   1       5.862   4.467  -4.036  0.00  0.00     0.002 A 
ENDROOT
BRANCH   1   7
ATOM      7  C1' N4B d   1       4.730   3.427  -5.968  0.00  0.00     0.057 C 
BRANCH   7   8
ATOM      8  C2' N4B d   1       5.999   2.581  -6.000  0.00  0.00     0.009 C 
BRANCH   8   9
ATOM      9  C3' N4B d   1       5.851   1.302  -5.194  0.00  0.00     0.004 C 
ATOM     10  C4' N4B d   1       5.287   0.170  -6.000  0.00  0.00     0.003 C 
ENDBRANCH   8   9
ENDBRANCH   7   8
ENDBRANCH   1   7
TORSDOF 3
ENDMDL
