MODEL 1
REMARK minimizedAffinity -2.78661823
REMARK minimizedRMSD -1
REMARK  3 active torsions:
REMARK  status: ('A' for Active; 'I' for Inactive)
REMARK    1  A    between atoms: C3'_2  and  C2'_3 
REMARK    2  A    between atoms: C2'_3  and  C1'_4 
REMARK    3  A    between atoms: C1'_4  and  C1_5 
ROOT
ATOM      1  C1  N4B d   1       4.919   4.251  -4.479  0.00  0.00    -0.075 A 
ATOM      2  C2  N4B d   1       6.000   4.952  -3.900  0.00  0.00     0.002 A 
ATOM      3  C3  N4B d   1       5.892   5.446  -2.623  0.00  0.00     0.002 A 
ATOM      4  C4  N4B d   1       4.711   5.271  -1.917  0.00  0.00    -0.004 A 
ATOM      5  C5  N4B d   1       3.681   4.571  -2.475  0.00  0.00     0.002 A 
ATOM      6  C6  N4B d   1       3.777   4.065  -3.755  0.00  0.00     0.002 A 
ENDROOT
BRANCH   1   7
ATOM      7  C1' N4B d   1       4.959   3.767  -5.903  0.00  0.00     0.057 C 
BRANCH   7   8
ATOM      8  C2' N4B d   1       5.909   2.576  -6.000  0.00  0.00     0.009 C 
BRANCH   8   9
ATOM      9  C3' N4B d   1       5.163   1.253  -5.992  0.00  0.00     0.004 C 
ATOM     10  C4' N4B d   1       5.601   0.346  -4.880  0.00  0.00     0.003 C 
ENDBRANCH   8   9
ENDBRANCH   7   8
ENDBRANCH   1   7
TORSDOF 3
ENDMDL
