MODEL 1
REMARK minimizedAffinity -5.19901276
REMARK minimizedRMSD -1
REMARK  3 active torsions:
REMARK  status: ('A' for Active; 'I' for Inactive)
REMARK    1  A    between atoms: C3'_2  and  C2'_3 
REMARK    2  A    between atoms: C2'_3  and  C1'_4 
REMARK    3  A    between atoms: C1'_4  and  C1_5 
ROOT
ATOM      1  C1  N4B d   1       4.295   4.719  -4.398  0.00  0.00    -0.075 A 
ATOM      2  C2  N4B d   1       5.301   4.529  -3.424  0.00  0.00     0.002 A 
ATOM      3  C3  N4B d   1       5.065   4.880  -2.117  0.00  0.00     0.002 A 
ATOM      4  C4  N4B d   1       3.845   5.436  -1.766  0.00  0.00    -0.004 A 
ATOM      5  C5  N4B d   1       2.870   5.592  -2.707  0.00  0.00     0.002 A 
ATOM      6  C6  N4B d   1       3.091   5.241  -4.024  0.00  0.00     0.002 A 
ENDROOT
BRANCH   1   7
ATOM      7  C1' N4B d   1       4.536   4.431  -5.855  0.00  0.00     0.057 C 
BRANCH   7   8
ATOM      8  C2' N4B d   1       5.570   3.316  -5.980  0.00  0.00     0.009 C 
BRANCH   8   9
ATOM      9  C3' N4B d   1       4.924   1.942  -5.999  0.00  0.00     0.004 C 
ATOM     10  C4' N4B d   1       5.661   0.943  -5.157  0.00  0.00     0.003 C 
ENDBRANCH   8   9
ENDBRANCH   7   8
ENDBRANCH   1   7
TORSDOF 3
ENDMDL
