MODEL 1
REMARK minimizedAffinity 8.20203686
REMARK minimizedRMSD -1
REMARK  3 active torsions:
REMARK  status: ('A' for Active; 'I' for Inactive)
REMARK    1  A    between atoms: C3'_2  and  C2'_3 
REMARK    2  A    between atoms: C2'_3  and  C1'_4 
REMARK    3  A    between atoms: C1'_4  and  C1_5 
ROOT
ATOM      1  C1  N4B d   1       4.695   5.356  -3.212  0.00  0.00    -0.075 A 
ATOM      2  C2  N4B d   1       3.842   6.000  -4.135  0.00  0.00     0.002 A 
ATOM      3  C3  N4B d   1       4.092   5.906  -5.482  0.00  0.00     0.002 A 
ATOM      4  C4  N4B d   1       5.195   5.193  -5.926  0.00  0.00    -0.004 A 
ATOM      5  C5  N4B d   1       6.000   4.553  -5.030  0.00  0.00     0.002 A 
ATOM      6  C6  N4B d   1       5.758   4.636  -3.673  0.00  0.00     0.002 A 
ENDROOT
BRANCH   1   7
ATOM      7  C1' N4B d   1       4.511   5.501  -1.726  0.00  0.00     0.057 C 
BRANCH   7   8
ATOM      8  C2' N4B d   1       3.158   4.919  -1.329  0.00  0.00     0.009 C 
BRANCH   8   9
ATOM      9  C3' N4B d   1       3.036   4.737   0.174  0.00  0.00     0.004 C 
ATOM     10  C4' N4B d   1       1.614   4.603   0.630  0.00  0.00     0.003 C 
ENDBRANCH   8   9
ENDBRANCH   7   8
ENDBRANCH   1   7
TORSDOF 3
ENDMDL
