MODEL 1
REMARK minimizedAffinity 2.70912552
REMARK minimizedRMSD -1
REMARK  3 active torsions:
REMARK  status: ('A' for Active; 'I' for Inactive)
REMARK    1  A    between atoms: C3'_2  and  C2'_3 
REMARK    2  A    between atoms: C2'_3  and  C1'_4 
REMARK    3  A    between atoms: C1'_4  and  C1_5 
ROOT
ATOM      1  C1  N4B d   1       3.506   4.500  -2.963  0.00  0.00    -0.075 A 
ATOM      2  C2  N4B d   1       3.636   5.190  -4.188  0.00  0.00     0.002 A 
ATOM      3  C3  N4B d   1       4.880   5.563  -4.636  0.00  0.00     0.002 A 
ATOM      4  C4  N4B d   1       6.000   5.276  -3.871  0.00  0.00    -0.004 A 
ATOM      5  C5  N4B d   1       5.867   4.586  -2.701  0.00  0.00     0.002 A 
ATOM      6  C6  N4B d   1       4.624   4.201  -2.240  0.00  0.00     0.002 A 
ENDROOT
BRANCH   1   7
ATOM      7  C1' N4B d   1       2.160   4.146  -2.390  0.00  0.00     0.057 C 
BRANCH   7   8
ATOM      8  C2' N4B d   1       2.312   3.852  -0.901  0.00  0.00     0.009 C 
BRANCH   8   9
ATOM      9  C3' N4B d   1       1.071   4.243  -0.116  0.00  0.00     0.004 C 
ATOM     10  C4' N4B d   1       0.550   3.127   0.739  0.00  0.00     0.003 C 
ENDBRANCH   8   9
ENDBRANCH   7   8
ENDBRANCH   1   7
TORSDOF 3
ENDMDL
