MODEL 1
REMARK minimizedAffinity -4.79405975
REMARK minimizedRMSD -1
REMARK  0 active torsions:
REMARK  status: ('A' for Active; 'I' for Inactive)
ROOT
ATOM      1  C1  BNZ d   1      -0.553   0.277  -0.252  0.00  0.00     0.000 A 
ATOM      2  C2  BNZ d   1      -1.069   1.463   0.196  0.00  0.00     0.000 A 
ATOM      3  C3  BNZ d   1      -1.290   1.672   1.529  0.00  0.00     0.000 A 
ATOM      4  C4  BNZ d   1      -1.032   0.681   2.406  0.00  0.00     0.000 A 
ATOM      5  C5  BNZ d   1      -0.520  -0.525   1.969  0.00  0.00     0.000 A 
ATOM      6  C6  BNZ d   1      -0.263  -0.717   0.631  0.00  0.00     0.000 A 
ENDROOT
TORSDOF 0
ENDMDL
