MODEL 1
REMARK minimizedAffinity -2.67926145
REMARK minimizedRMSD -1
REMARK  0 active torsions:
REMARK  status: ('A' for Active; 'I' for Inactive)
ROOT
ATOM      1  C1  BNZ d   1      -0.521  -0.165   1.826  0.00  0.00     0.000 A 
ATOM      2  C2  BNZ d   1      -1.371   0.690   2.476  0.00  0.00     0.000 A 
ATOM      3  C3  BNZ d   1      -1.922   1.758   1.826  0.00  0.00     0.000 A 
ATOM      4  C4  BNZ d   1      -1.591   1.995   0.540  0.00  0.00     0.000 A 
ATOM      5  C5  BNZ d   1      -0.728   1.148  -0.126  0.00  0.00     0.000 A 
ATOM      6  C6  BNZ d   1      -0.206   0.051   0.520  0.00  0.00     0.000 A 
ENDROOT
TORSDOF 0
ENDMDL
