MODEL 1
REMARK minimizedAffinity -3.68747377
REMARK minimizedRMSD -1
REMARK  0 active torsions:
REMARK  status: ('A' for Active; 'I' for Inactive)
ROOT
ATOM      1  C1  BNZ d   1      -0.162  -1.216   1.616  0.00  0.00     0.000 A 
ATOM      2  C2  BNZ d   1       0.384  -1.602   0.421  0.00  0.00     0.000 A 
ATOM      3  C3  BNZ d   1       0.393  -0.753  -0.651  0.00  0.00     0.000 A 
ATOM      4  C4  BNZ d   1      -0.179   0.463  -0.538  0.00  0.00     0.000 A 
ATOM      5  C5  BNZ d   1      -0.742   0.863   0.657  0.00  0.00     0.000 A 
ATOM      6  C6  BNZ d   1      -0.714   0.021   1.745  0.00  0.00     0.000 A 
ENDROOT
TORSDOF 0
ENDMDL
