MODEL 1
REMARK minimizedAffinity -1.76223171
REMARK minimizedRMSD -1
REMARK  0 active torsions:
REMARK  status: ('A' for Active; 'I' for Inactive)
ROOT
ATOM      1  C1  BNZ d   1      -0.058  -0.020   1.370  0.00  0.00     0.000 A 
ATOM      2  C2  BNZ d   1      -0.953   1.015   1.422  0.00  0.00     0.000 A 
ATOM      3  C3  BNZ d   1      -1.085   1.880   0.372  0.00  0.00     0.000 A 
ATOM      4  C4  BNZ d   1      -0.294   1.734  -0.711  0.00  0.00     0.000 A 
ATOM      5  C5  BNZ d   1       0.620   0.701  -0.775  0.00  0.00     0.000 A 
ATOM      6  C6  BNZ d   1       0.722  -0.191   0.268  0.00  0.00     0.000 A 
ENDROOT
TORSDOF 0
ENDMDL
