MODEL 1
REMARK minimizedAffinity -4.67289162
REMARK minimizedRMSD -1
REMARK  0 active torsions:
REMARK  status: ('A' for Active; 'I' for Inactive)
ROOT
ATOM      1  C1  BNZ d   1      -2.260   1.240   1.478  0.00  0.00     0.000 A 
ATOM      2  C2  BNZ d   1      -2.029  -0.051   1.084  0.00  0.00     0.000 A 
ATOM      3  C3  BNZ d   1      -1.073  -0.338   0.150  0.00  0.00     0.000 A 
ATOM      4  C4  BNZ d   1      -0.379   0.669  -0.419  0.00  0.00     0.000 A 
ATOM      5  C5  BNZ d   1      -0.607   1.977  -0.039  0.00  0.00     0.000 A 
ATOM      6  C6  BNZ d   1      -1.542   2.258   0.930  0.00  0.00     0.000 A 
ENDROOT
TORSDOF 0
ENDMDL
