MODEL 1
REMARK minimizedAffinity -2.69053221
REMARK minimizedRMSD -1
REMARK  0 active torsions:
REMARK  status: ('A' for Active; 'I' for Inactive)
ROOT
ATOM      1  C1  BNZ d   1       0.336   1.402  -0.766  0.00  0.00     0.000 A 
ATOM      2  C2  BNZ d   1      -0.516   1.125   0.269  0.00  0.00     0.000 A 
ATOM      3  C3  BNZ d   1      -0.679  -0.155   0.720  0.00  0.00     0.000 A 
ATOM      4  C4  BNZ d   1      -0.020  -1.161   0.109  0.00  0.00     0.000 A 
ATOM      5  C5  BNZ d   1       0.836  -0.900  -0.942  0.00  0.00     0.000 A 
ATOM      6  C6  BNZ d   1       1.026   0.395  -1.368  0.00  0.00     0.000 A 
ENDROOT
TORSDOF 0
ENDMDL
