MODEL 1
REMARK minimizedAffinity -2.42058086
REMARK minimizedRMSD -1
REMARK  0 active torsions:
REMARK  status: ('A' for Active; 'I' for Inactive)
ROOT
ATOM      1  C1  BNZ d   1      -0.427  -0.433   1.963  0.00  0.00     0.000 A 
ATOM      2  C2  BNZ d   1       0.313  -1.168   1.075  0.00  0.00     0.000 A 
ATOM      3  C3  BNZ d   1       0.716  -0.629  -0.115  0.00  0.00     0.000 A 
ATOM      4  C4  BNZ d   1       0.346   0.628  -0.432  0.00  0.00     0.000 A 
ATOM      5  C5  BNZ d   1      -0.407   1.379   0.448  0.00  0.00     0.000 A 
ATOM      6  C6  BNZ d   1      -0.778   0.847   1.661  0.00  0.00     0.000 A 
ENDROOT
TORSDOF 0
ENDMDL
