MODEL 1
REMARK minimizedAffinity -4.40571308
REMARK minimizedRMSD -1
REMARK  0 active torsions:
REMARK  status: ('A' for Active; 'I' for Inactive)
ROOT
ATOM      1  C1  BNZ d   1      -1.397   1.547   1.122  0.00  0.00     0.000 A 
ATOM      2  C2  BNZ d   1      -0.483   0.739   1.743  0.00  0.00     0.000 A 
ATOM      3  C3  BNZ d   1      -0.016  -0.390   1.130  0.00  0.00     0.000 A 
ATOM      4  C4  BNZ d   1      -0.492  -0.730  -0.085  0.00  0.00     0.000 A 
ATOM      5  C5  BNZ d   1      -1.421   0.070  -0.721  0.00  0.00     0.000 A 
ATOM      6  C6  BNZ d   1      -1.860   1.226  -0.117  0.00  0.00     0.000 A 
ENDROOT
TORSDOF 0
ENDMDL
