MODEL 1
REMARK minimizedAffinity -2.22191477
REMARK minimizedRMSD -1
REMARK  0 active torsions:
REMARK  status: ('A' for Active; 'I' for Inactive)
ROOT
ATOM      1  C1  BNZ d   1      -0.835  -0.640   1.524  0.00  0.00     0.000 A 
ATOM      2  C2  BNZ d   1      -0.242  -1.545   0.685  0.00  0.00     0.000 A 
ATOM      3  C3  BNZ d   1       0.637  -1.135  -0.278  0.00  0.00     0.000 A 
ATOM      4  C4  BNZ d   1       0.893   0.181  -0.425  0.00  0.00     0.000 A 
ATOM      5  C5  BNZ d   1       0.296   1.106   0.408  0.00  0.00     0.000 A 
ATOM      6  C6  BNZ d   1      -0.560   0.687   1.400  0.00  0.00     0.000 A 
ENDROOT
TORSDOF 0
ENDMDL
