MODEL 1
REMARK minimizedAffinity -4.97698975
REMARK minimizedRMSD -1
REMARK  0 active torsions:
REMARK  status: ('A' for Active; 'I' for Inactive)
ROOT
ATOM      1  C1  BNZ d   1      -1.481   3.096   1.149  0.00  0.00     0.000 A 
ATOM      2  C2  BNZ d   1      -1.694   1.767   1.399  0.00  0.00     0.000 A 
ATOM      3  C3  BNZ d   1      -1.146   0.806   0.596  0.00  0.00     0.000 A 
ATOM      4  C4  BNZ d   1      -0.420   1.176  -0.479  0.00  0.00     0.000 A 
ATOM      5  C5  BNZ d   1      -0.204   2.512  -0.750  0.00  0.00     0.000 A 
ATOM      6  C6  BNZ d   1      -0.724   3.476   0.083  0.00  0.00     0.000 A 
ENDROOT
TORSDOF 0
ENDMDL
