MODEL 1
REMARK minimizedAffinity -3.30936623
REMARK minimizedRMSD -1
REMARK  0 active torsions:
REMARK  status: ('A' for Active; 'I' for Inactive)
ROOT
ATOM      1  C1  BNZ d   1      -0.044   3.108  -0.141  0.00  0.00     0.000 A 
ATOM      2  C2  BNZ d   1      -0.761   3.117   1.026  0.00  0.00     0.000 A 
ATOM      3  C3  BNZ d   1      -0.978   1.961   1.723  0.00  0.00     0.000 A 
ATOM      4  C4  BNZ d   1      -0.513   0.794   1.233  0.00  0.00     0.000 A 
ATOM      5  C5  BNZ d   1       0.203   0.767   0.053  0.00  0.00     0.000 A 
ATOM      6  C6  BNZ d   1       0.453   1.937  -0.626  0.00  0.00     0.000 A 
ENDROOT
TORSDOF 0
ENDMDL
