MODEL 1
REMARK minimizedAffinity -3.57952785
REMARK minimizedRMSD -1
REMARK  0 active torsions:
REMARK  status: ('A' for Active; 'I' for Inactive)
ROOT
ATOM      1  C1  BNZ d   1       0.261  -0.348   0.316  0.00  0.00     0.000 A 
ATOM      2  C2  BNZ d   1       1.441  -0.926  -0.072  0.00  0.00     0.000 A 
ATOM      3  C3  BNZ d   1       1.454  -1.952  -0.975  0.00  0.00     0.000 A 
ATOM      4  C4  BNZ d   1       0.287  -2.425  -1.458  0.00  0.00     0.000 A 
ATOM      5  C5  BNZ d   1      -0.911  -1.860  -1.070  0.00  0.00     0.000 A 
ATOM      6  C6  BNZ d   1      -0.918  -0.801  -0.190  0.00  0.00     0.000 A 
ENDROOT
TORSDOF 0
ENDMDL
