MODEL 1
REMARK minimizedAffinity -3.18473363
REMARK minimizedRMSD -1
REMARK  0 active torsions:
REMARK  status: ('A' for Active; 'I' for Inactive)
ROOT
ATOM      1  C1  BNZ d   1       1.574  -0.319   2.420  0.00  0.00     0.000 A 
ATOM      2  C2  BNZ d   1       1.579   0.724   1.532  0.00  0.00     0.000 A 
ATOM      3  C3  BNZ d   1       0.484   0.989   0.758  0.00  0.00     0.000 A 
ATOM      4  C4  BNZ d   1      -0.598   0.189   0.844  0.00  0.00     0.000 A 
ATOM      5  C5  BNZ d   1      -0.615  -0.871   1.728  0.00  0.00     0.000 A 
ATOM      6  C6  BNZ d   1       0.474  -1.112   2.533  0.00  0.00     0.000 A 
ENDROOT
TORSDOF 0
ENDMDL
