MODEL 1
REMARK minimizedAffinity -3.36151385
REMARK minimizedRMSD -1
REMARK  0 active torsions:
REMARK  status: ('A' for Active; 'I' for Inactive)
ROOT
ATOM      1  C1  BNZ d   1       1.092   0.380   0.802  0.00  0.00     0.000 A 
ATOM      2  C2  BNZ d   1       1.329  -0.368   1.924  0.00  0.00     0.000 A 
ATOM      3  C3  BNZ d   1       0.299  -0.959   2.602  0.00  0.00     0.000 A 
ATOM      4  C4  BNZ d   1      -0.968  -0.768   2.181  0.00  0.00     0.000 A 
ATOM      5  C5  BNZ d   1      -1.224  -0.008   1.057  0.00  0.00     0.000 A 
ATOM      6  C6  BNZ d   1      -0.182   0.553   0.355  0.00  0.00     0.000 A 
ENDROOT
TORSDOF 0
ENDMDL
