MODEL 1
REMARK minimizedAffinity -4.72863388
REMARK minimizedRMSD -1
REMARK  0 active torsions:
REMARK  status: ('A' for Active; 'I' for Inactive)
ROOT
ATOM      1  C1  BNZ d   1      -0.185  -0.051   1.124  0.00  0.00     0.000 A 
ATOM      2  C2  BNZ d   1       0.476  -0.543   2.218  0.00  0.00     0.000 A 
ATOM      3  C3  BNZ d   1       1.769  -0.975   2.119  0.00  0.00     0.000 A 
ATOM      4  C4  BNZ d   1       2.386  -0.952   0.920  0.00  0.00     0.000 A 
ATOM      5  C5  BNZ d   1       1.730  -0.468  -0.194  0.00  0.00     0.000 A 
ATOM      6  C6  BNZ d   1       0.441   0.002  -0.083  0.00  0.00     0.000 A 
ENDROOT
TORSDOF 0
ENDMDL
