MODEL 1
REMARK minimizedAffinity -1.93541276
REMARK minimizedRMSD -1
REMARK  0 active torsions:
REMARK  status: ('A' for Active; 'I' for Inactive)
ROOT
ATOM      1  C1  BNZ d   1      -1.301  -0.156  -1.173  0.00  0.00     0.000 A 
ATOM      2  C2  BNZ d   1      -1.927  -0.196   0.044  0.00  0.00     0.000 A 
ATOM      3  C3  BNZ d   1      -1.204  -0.170   1.204  0.00  0.00     0.000 A 
ATOM      4  C4  BNZ d   1       0.143  -0.144   1.146  0.00  0.00     0.000 A 
ATOM      5  C5  BNZ d   1       0.789  -0.113  -0.074  0.00  0.00     0.000 A 
ATOM      6  C6  BNZ d   1       0.057  -0.099  -1.239  0.00  0.00     0.000 A 
ENDROOT
TORSDOF 0
ENDMDL
