MODEL 1
REMARK minimizedAffinity -4.1307168
REMARK minimizedRMSD -1
REMARK  0 active torsions:
REMARK  status: ('A' for Active; 'I' for Inactive)
ROOT
ATOM      1  C1  BNZ d   1      -0.120   0.913   0.930  0.00  0.00     0.000 A 
ATOM      2  C2  BNZ d   1       0.408   1.135  -0.314  0.00  0.00     0.000 A 
ATOM      3  C3  BNZ d   1      -0.117   0.521  -1.416  0.00  0.00     0.000 A 
ATOM      4  C4  BNZ d   1      -1.142  -0.344  -1.269  0.00  0.00     0.000 A 
ATOM      5  C5  BNZ d   1      -1.679  -0.584  -0.021  0.00  0.00     0.000 A 
ATOM      6  C6  BNZ d   1      -1.174   0.065   1.082  0.00  0.00     0.000 A 
ENDROOT
TORSDOF 0
ENDMDL
