MODEL 1
REMARK minimizedAffinity -2.299582
REMARK minimizedRMSD -1
REMARK  0 active torsions:
REMARK  status: ('A' for Active; 'I' for Inactive)
ROOT
ATOM      1  C1  BNZ d   1       1.763  -1.460   0.319  0.00  0.00     0.000 A 
ATOM      2  C2  BNZ d   1       1.193  -1.249   1.546  0.00  0.00     0.000 A 
ATOM      3  C3  BNZ d   1       0.047  -0.513   1.669  0.00  0.00     0.000 A 
ATOM      4  C4  BNZ d   1      -0.504   0.044   0.571  0.00  0.00     0.000 A 
ATOM      5  C5  BNZ d   1       0.064  -0.152  -0.672  0.00  0.00     0.000 A 
ATOM      6  C6  BNZ d   1       1.195  -0.925  -0.797  0.00  0.00     0.000 A 
ENDROOT
TORSDOF 0
ENDMDL
