MODEL 1
REMARK minimizedAffinity -2.91500831
REMARK minimizedRMSD -1
REMARK  0 active torsions:
REMARK  status: ('A' for Active; 'I' for Inactive)
ROOT
ATOM      1  C1  BNZ d   1      -0.963  -0.417   0.686  0.00  0.00     0.000 A 
ATOM      2  C2  BNZ d   1      -1.762  -0.194  -0.403  0.00  0.00     0.000 A 
ATOM      3  C3  BNZ d   1      -1.275  -0.343  -1.671  0.00  0.00     0.000 A 
ATOM      4  C4  BNZ d   1       0.020  -0.675  -1.849  0.00  0.00     0.000 A 
ATOM      5  C5  BNZ d   1       0.841  -0.894  -0.761  0.00  0.00     0.000 A 
ATOM      6  C6  BNZ d   1       0.337  -0.781   0.514  0.00  0.00     0.000 A 
ENDROOT
TORSDOF 0
ENDMDL
