MODEL 1
REMARK minimizedAffinity -4.31876707
REMARK minimizedRMSD -1
REMARK  0 active torsions:
REMARK  status: ('A' for Active; 'I' for Inactive)
ROOT
ATOM      1  C1  BNZ d   1      -3.681   1.480  -3.013  0.00  0.00     0.000 A 
ATOM      2  C2  BNZ d   1      -3.700   2.824  -3.273  0.00  0.00     0.000 A 
ATOM      3  C3  BNZ d   1      -4.864   3.454  -3.617  0.00  0.00     0.000 A 
ATOM      4  C4  BNZ d   1      -5.997   2.732  -3.739  0.00  0.00     0.000 A 
ATOM      5  C5  BNZ d   1      -5.992   1.375  -3.488  0.00  0.00     0.000 A 
ATOM      6  C6  BNZ d   1      -4.827   0.751  -3.105  0.00  0.00     0.000 A 
ENDROOT
TORSDOF 0
ENDMDL
