MODEL 1
REMARK minimizedAffinity -2.81909966
REMARK minimizedRMSD -1
REMARK  0 active torsions:
REMARK  status: ('A' for Active; 'I' for Inactive)
ROOT
ATOM      1  C1  BNZ d   1      -0.281   1.562   0.857  0.00  0.00     0.000 A 
ATOM      2  C2  BNZ d   1      -0.404   0.249   1.226  0.00  0.00     0.000 A 
ATOM      3  C3  BNZ d   1      -0.379  -0.747   0.291  0.00  0.00     0.000 A 
ATOM      4  C4  BNZ d   1      -0.271  -0.427  -1.015  0.00  0.00     0.000 A 
ATOM      5  C5  BNZ d   1      -0.156   0.892  -1.405  0.00  0.00     0.000 A 
ATOM      6  C6  BNZ d   1      -0.143   1.890  -0.457  0.00  0.00     0.000 A 
ENDROOT
TORSDOF 0
ENDMDL
