MODEL 1
REMARK minimizedAffinity -4.5992136
REMARK minimizedRMSD -1
REMARK  0 active torsions:
REMARK  status: ('A' for Active; 'I' for Inactive)
ROOT
ATOM      1  C1  BNZ d   1      -0.765  -0.061   1.112  0.00  0.00     0.000 A 
ATOM      2  C2  BNZ d   1       0.302  -0.246   1.951  0.00  0.00     0.000 A 
ATOM      3  C3  BNZ d   1       1.560  -0.434   1.452  0.00  0.00     0.000 A 
ATOM      4  C4  BNZ d   1       1.745  -0.476   0.117  0.00  0.00     0.000 A 
ATOM      5  C5  BNZ d   1       0.678  -0.300  -0.742  0.00  0.00     0.000 A 
ATOM      6  C6  BNZ d   1      -0.581  -0.072  -0.236  0.00  0.00     0.000 A 
ENDROOT
TORSDOF 0
ENDMDL
