MODEL 1
REMARK minimizedAffinity -2.51790452
REMARK minimizedRMSD -1
REMARK  0 active torsions:
REMARK  status: ('A' for Active; 'I' for Inactive)
ROOT
ATOM      1  C1  BNZ d   1      -6.000   0.743   4.222  0.00  0.00     0.000 A 
ATOM      2  C2  BNZ d   1      -4.988   1.131   3.384  0.00  0.00     0.000 A 
ATOM      3  C3  BNZ d   1      -3.936   1.868   3.851  0.00  0.00     0.000 A 
ATOM      4  C4  BNZ d   1      -3.916   2.250   5.144  0.00  0.00     0.000 A 
ATOM      5  C5  BNZ d   1      -4.933   1.876   5.999  0.00  0.00     0.000 A 
ATOM      6  C6  BNZ d   1      -5.971   1.101   5.535  0.00  0.00     0.000 A 
ENDROOT
TORSDOF 0
ENDMDL
