MODEL 1
REMARK minimizedAffinity -3.62019372
REMARK minimizedRMSD -1
REMARK  0 active torsions:
REMARK  status: ('A' for Active; 'I' for Inactive)
ROOT
ATOM      1  C   UNL d   1      -1.099  -0.541  -0.107  0.00  0.00     0.020 A 
ATOM      2  C1  UNL d   1       0.152  -0.686   0.492  0.00  0.00     0.020 A 
ATOM      3  C2  UNL d   1       0.366  -0.205   1.785  0.00  0.00     0.034 A 
ATOM      4  C3  UNL d   1      -0.671   0.423   2.483  0.00  0.00     0.017 A 
ATOM      5  C4  UNL d   1      -1.926   0.569   1.881  0.00  0.00     0.017 A 
ATOM      6  C5  UNL d   1      -2.136   0.085   0.586  0.00  0.00     0.034 A 
ATOM      7 Cl   UNL d   1      -3.255   1.333   2.680  0.00  0.00    -0.070 Cl
ATOM      8 Cl1  UNL d   1      -0.335   0.994   4.080  0.00  0.00    -0.070 Cl
ENDROOT
TORSDOF 0
ENDMDL
