MODEL 1
REMARK minimizedAffinity -2.79817533
REMARK minimizedRMSD -1
REMARK  0 active torsions:
REMARK  status: ('A' for Active; 'I' for Inactive)
ROOT
ATOM      1  C   UNL d   1       1.990  -0.008  -2.662  0.00  0.00     0.020 A 
ATOM      2  C1  UNL d   1       1.250   1.173  -2.628  0.00  0.00     0.020 A 
ATOM      3  C2  UNL d   1       0.259   1.348  -1.660  0.00  0.00     0.034 A 
ATOM      4  C3  UNL d   1       0.004   0.340  -0.723  0.00  0.00     0.017 A 
ATOM      5  C4  UNL d   1       0.747  -0.845  -0.758  0.00  0.00     0.017 A 
ATOM      6  C5  UNL d   1       1.739  -1.015  -1.729  0.00  0.00     0.034 A 
ATOM      7 Cl   UNL d   1       0.491  -2.134   0.365  0.00  0.00    -0.070 Cl
ATOM      8 Cl1  UNL d   1      -1.237   0.624   0.445  0.00  0.00    -0.070 Cl
ENDROOT
TORSDOF 0
ENDMDL
