MODEL 1
REMARK minimizedAffinity -2.67892957
REMARK minimizedRMSD -1
REMARK  0 active torsions:
REMARK  status: ('A' for Active; 'I' for Inactive)
ROOT
ATOM      1  C   UNL d   1       1.818  -1.543  -1.488  0.00  0.00     0.020 A 
ATOM      2  C1  UNL d   1       1.233  -2.157  -0.381  0.00  0.00     0.020 A 
ATOM      3  C2  UNL d   1       0.287  -1.469   0.381  0.00  0.00     0.034 A 
ATOM      4  C3  UNL d   1      -0.078  -0.162   0.037  0.00  0.00     0.017 A 
ATOM      5  C4  UNL d   1       0.509   0.453  -1.074  0.00  0.00     0.017 A 
ATOM      6  C5  UNL d   1       1.456  -0.241  -1.834  0.00  0.00     0.034 A 
ATOM      7 Cl   UNL d   1       0.110   2.063  -1.561  0.00  0.00    -0.070 Cl
ATOM      8 Cl1  UNL d   1      -1.255   0.629   1.024  0.00  0.00    -0.070 Cl
ENDROOT
TORSDOF 0
ENDMDL
