MODEL 1
REMARK minimizedAffinity -1.12955427
REMARK minimizedRMSD -1
REMARK  0 active torsions:
REMARK  status: ('A' for Active; 'I' for Inactive)
ROOT
ATOM      1  C   UNL d   1      -1.690  -0.012   3.655  0.00  0.00     0.020 A 
ATOM      2  C1  UNL d   1      -2.455   1.143   3.494  0.00  0.00     0.020 A 
ATOM      3  C2  UNL d   1      -2.577   1.729   2.232  0.00  0.00     0.034 A 
ATOM      4  C3  UNL d   1      -1.933   1.161   1.127  0.00  0.00     0.017 A 
ATOM      5  C4  UNL d   1      -1.165   0.002   1.290  0.00  0.00     0.017 A 
ATOM      6  C5  UNL d   1      -1.047  -0.581   2.556  0.00  0.00     0.034 A 
ATOM      7 Cl   UNL d   1      -0.341  -0.757  -0.026  0.00  0.00    -0.070 Cl
ATOM      8 Cl1  UNL d   1      -2.127   1.939  -0.403  0.00  0.00    -0.070 Cl
ENDROOT
TORSDOF 0
ENDMDL
