MODEL 1
REMARK minimizedAffinity -1.72795022
REMARK minimizedRMSD -1
REMARK  0 active torsions:
REMARK  status: ('A' for Active; 'I' for Inactive)
ROOT
ATOM      1  C   UNL d   1      -1.055   0.488   3.366  0.00  0.00     0.020 A 
ATOM      2  C1  UNL d   1      -1.136   1.848   3.067  0.00  0.00     0.020 A 
ATOM      3  C2  UNL d   1      -0.946   2.287   1.755  0.00  0.00     0.034 A 
ATOM      4  C3  UNL d   1      -0.674   1.366   0.737  0.00  0.00     0.017 A 
ATOM      5  C4  UNL d   1      -0.592   0.002   1.038  0.00  0.00     0.017 A 
ATOM      6  C5  UNL d   1      -0.783  -0.433   2.353  0.00  0.00     0.034 A 
ATOM      7 Cl   UNL d   1      -0.260  -1.194  -0.165  0.00  0.00    -0.070 Cl
ATOM      8 Cl1  UNL d   1      -0.450   1.980  -0.862  0.00  0.00    -0.070 Cl
ENDROOT
TORSDOF 0
ENDMDL
