MODEL 1
REMARK minimizedAffinity -0.49197939
REMARK minimizedRMSD -1
REMARK  0 active torsions:
REMARK  status: ('A' for Active; 'I' for Inactive)
ROOT
ATOM      1  C   UNL d   1       1.572  -1.780  -1.082  0.00  0.00     0.020 A 
ATOM      2  C1  UNL d   1       1.183  -2.203   0.188  0.00  0.00     0.020 A 
ATOM      3  C2  UNL d   1       0.400  -1.371   0.992  0.00  0.00     0.034 A 
ATOM      4  C3  UNL d   1       0.005  -0.111   0.526  0.00  0.00     0.017 A 
ATOM      5  C4  UNL d   1       0.397   0.312  -0.749  0.00  0.00     0.017 A 
ATOM      6  C5  UNL d   1       1.180  -0.525  -1.550  0.00  0.00     0.034 A 
ATOM      7 Cl   UNL d   1      -0.052   1.852  -1.393  0.00  0.00    -0.070 Cl
ATOM      8 Cl1  UNL d   1      -0.962   0.865   1.573  0.00  0.00    -0.070 Cl
ENDROOT
TORSDOF 0
ENDMDL
