MODEL 1
REMARK minimizedAffinity -5.36536551
REMARK minimizedRMSD -1
REMARK  0 active torsions:
REMARK  status: ('A' for Active; 'I' for Inactive)
ROOT
ATOM      1  C   UNL d   1       2.232  -1.762  -1.240  0.00  0.00     0.020 A 
ATOM      2  C1  UNL d   1       2.725  -0.981  -2.284  0.00  0.00     0.020 A 
ATOM      3  C2  UNL d   1       2.113   0.235  -2.596  0.00  0.00     0.034 A 
ATOM      4  C3  UNL d   1       1.004   0.673  -1.864  0.00  0.00     0.017 A 
ATOM      5  C4  UNL d   1       0.509  -0.112  -0.815  0.00  0.00     0.017 A 
ATOM      6  C5  UNL d   1       1.127  -1.328  -0.507  0.00  0.00     0.034 A 
ATOM      7 Cl   UNL d   1      -0.855   0.362   0.134  0.00  0.00    -0.070 Cl
ATOM      8 Cl1  UNL d   1       0.296   2.186  -2.304  0.00  0.00    -0.070 Cl
ENDROOT
TORSDOF 0
ENDMDL
