MODEL 1
REMARK minimizedAffinity 0.791743338
REMARK minimizedRMSD -1
REMARK  0 active torsions:
REMARK  status: ('A' for Active; 'I' for Inactive)
ROOT
ATOM      1  C   UNL d   1       0.543  -1.696  -0.434  0.00  0.00     0.020 A 
ATOM      2  C1  UNL d   1       0.702  -1.682   0.951  0.00  0.00     0.020 A 
ATOM      3  C2  UNL d   1       0.051  -0.716   1.719  0.00  0.00     0.034 A 
ATOM      4  C3  UNL d   1      -0.763   0.242   1.103  0.00  0.00     0.017 A 
ATOM      5  C4  UNL d   1      -0.923   0.228  -0.287  0.00  0.00     0.017 A 
ATOM      6  C5  UNL d   1      -0.268  -0.743  -1.052  0.00  0.00     0.034 A 
ATOM      7 Cl   UNL d   1      -1.911   1.376  -1.118  0.00  0.00    -0.070 Cl
ATOM      8 Cl1  UNL d   1      -1.539   1.408   2.116  0.00  0.00    -0.070 Cl
ENDROOT
TORSDOF 0
ENDMDL
