MODEL 1
REMARK minimizedAffinity -3.32759285
REMARK minimizedRMSD -1
REMARK  0 active torsions:
REMARK  status: ('A' for Active; 'I' for Inactive)
ROOT
ATOM      1  C   UNL d   1       0.298  -0.697   0.185  0.00  0.00     0.020 A 
ATOM      2  C1  UNL d   1      -0.604  -0.041  -0.651  0.00  0.00     0.020 A 
ATOM      3  C2  UNL d   1      -1.612   0.756  -0.104  0.00  0.00     0.034 A 
ATOM      4  C3  UNL d   1      -1.721   0.897   1.284  0.00  0.00     0.017 A 
ATOM      5  C4  UNL d   1      -0.815   0.238   2.123  0.00  0.00     0.017 A 
ATOM      6  C5  UNL d   1       0.192  -0.558   1.570  0.00  0.00     0.034 A 
ATOM      7 Cl   UNL d   1      -0.886   0.364   3.846  0.00  0.00    -0.070 Cl
ATOM      8 Cl1  UNL d   1      -2.991   1.898   1.893  0.00  0.00    -0.070 Cl
ENDROOT
TORSDOF 0
ENDMDL
