MODEL 1
REMARK minimizedAffinity 1.6817137
REMARK minimizedRMSD -1
REMARK  0 active torsions:
REMARK  status: ('A' for Active; 'I' for Inactive)
ROOT
ATOM      1  C   UNL d   1       1.388  -1.899  -0.198  0.00  0.00     0.020 A 
ATOM      2  C1  UNL d   1       2.183  -2.092  -1.327  0.00  0.00     0.020 A 
ATOM      3  C2  UNL d   1       2.180  -1.144  -2.353  0.00  0.00     0.034 A 
ATOM      4  C3  UNL d   1       1.380   0.000  -2.252  0.00  0.00     0.017 A 
ATOM      5  C4  UNL d   1       0.583   0.193  -1.118  0.00  0.00     0.017 A 
ATOM      6  C5  UNL d   1       0.590  -0.759  -0.093  0.00  0.00     0.034 A 
ATOM      7 Cl   UNL d   1      -0.430   1.580  -0.922  0.00  0.00    -0.070 Cl
ATOM      8 Cl1  UNL d   1       1.426   1.130  -3.558  0.00  0.00    -0.070 Cl
ENDROOT
TORSDOF 0
ENDMDL
