MODEL 1
REMARK minimizedAffinity -0.920741796
REMARK minimizedRMSD -1
REMARK  0 active torsions:
REMARK  status: ('A' for Active; 'I' for Inactive)
ROOT
ATOM      1  C   UNL d   1      -1.278   0.792   0.434  0.00  0.00     0.020 A 
ATOM      2  C1  UNL d   1      -0.778   1.747   1.318  0.00  0.00     0.020 A 
ATOM      3  C2  UNL d   1      -1.182   1.739   2.655  0.00  0.00     0.034 A 
ATOM      4  C3  UNL d   1      -2.088   0.775   3.111  0.00  0.00     0.017 A 
ATOM      5  C4  UNL d   1      -2.588  -0.184   2.223  0.00  0.00     0.017 A 
ATOM      6  C5  UNL d   1      -2.181  -0.172   0.885  0.00  0.00     0.034 A 
ATOM      7 Cl   UNL d   1      -3.709  -1.406   2.712  0.00  0.00    -0.070 Cl
ATOM      8 Cl1  UNL d   1      -2.543   0.825   4.777  0.00  0.00    -0.070 Cl
ENDROOT
TORSDOF 0
ENDMDL
