MODEL 1
REMARK minimizedAffinity -0.953363061
REMARK minimizedRMSD -1
REMARK  0 active torsions:
REMARK  status: ('A' for Active; 'I' for Inactive)
ROOT
ATOM      1  C   UNL d   1      -1.085   1.845   3.872  0.00  0.00     0.020 A 
ATOM      2  C1  UNL d   1      -0.059   2.087   2.959  0.00  0.00     0.020 A 
ATOM      3  C2  UNL d   1      -0.068   1.451   1.715  0.00  0.00     0.034 A 
ATOM      4  C3  UNL d   1      -1.103   0.571   1.382  0.00  0.00     0.017 A 
ATOM      5  C4  UNL d   1      -2.132   0.329   2.299  0.00  0.00     0.017 A 
ATOM      6  C5  UNL d   1      -2.119   0.968   3.543  0.00  0.00     0.034 A 
ATOM      7 Cl   UNL d   1      -3.444  -0.744   1.959  0.00  0.00    -0.070 Cl
ATOM      8 Cl1  UNL d   1      -1.050  -0.180  -0.174  0.00  0.00    -0.070 Cl
ENDROOT
TORSDOF 0
ENDMDL
