MODEL 1
REMARK minimizedAffinity -4.35521698
REMARK minimizedRMSD -1
REMARK  0 active torsions:
REMARK  status: ('A' for Active; 'I' for Inactive)
ROOT
ATOM      1  C   UNL d   1      -0.185  -1.353   0.668  0.00  0.00     0.020 A 
ATOM      2  C1  UNL d   1       0.960  -1.960   0.152  0.00  0.00     0.020 A 
ATOM      3  C2  UNL d   1       1.649  -1.364  -0.906  0.00  0.00     0.034 A 
ATOM      4  C3  UNL d   1       1.196  -0.158  -1.451  0.00  0.00     0.017 A 
ATOM      5  C4  UNL d   1       0.047   0.451  -0.933  0.00  0.00     0.017 A 
ATOM      6  C5  UNL d   1      -0.640  -0.150   0.127  0.00  0.00     0.034 A 
ATOM      7 Cl   UNL d   1      -0.574   1.939  -1.554  0.00  0.00    -0.070 Cl
ATOM      8 Cl1  UNL d   1       2.098   0.522  -2.758  0.00  0.00    -0.070 Cl
ENDROOT
TORSDOF 0
ENDMDL
