MODEL 1
REMARK minimizedAffinity 1.66475749
REMARK minimizedRMSD -1
REMARK  0 active torsions:
REMARK  status: ('A' for Active; 'I' for Inactive)
ROOT
ATOM      1  C   UNL d   1      -2.278   1.528   3.410  0.00  0.00     0.020 A 
ATOM      2  C1  UNL d   1      -1.606   0.365   3.783  0.00  0.00     0.020 A 
ATOM      3  C2  UNL d   1      -0.917  -0.382   2.824  0.00  0.00     0.034 A 
ATOM      4  C3  UNL d   1      -0.900   0.034   1.488  0.00  0.00     0.017 A 
ATOM      5  C4  UNL d   1      -1.575   1.202   1.114  0.00  0.00     0.017 A 
ATOM      6  C5  UNL d   1      -2.263   1.945   2.078  0.00  0.00     0.034 A 
ATOM      7 Cl   UNL d   1      -1.599   1.778  -0.515  0.00  0.00    -0.070 Cl
ATOM      8 Cl1  UNL d   1      -0.029  -0.938   0.356  0.00  0.00    -0.070 Cl
ENDROOT
TORSDOF 0
ENDMDL
