MODEL 1
REMARK minimizedAffinity -0.712830663
REMARK minimizedRMSD -1
REMARK  0 active torsions:
REMARK  status: ('A' for Active; 'I' for Inactive)
ROOT
ATOM      1  C   UNL d   1       0.327  -1.510   0.294  0.00  0.00     0.020 A 
ATOM      2  C1  UNL d   1       1.386  -1.881  -0.532  0.00  0.00     0.020 A 
ATOM      3  C2  UNL d   1       1.751  -1.067  -1.607  0.00  0.00     0.034 A 
ATOM      4  C3  UNL d   1       1.056   0.122  -1.857  0.00  0.00     0.017 A 
ATOM      5  C4  UNL d   1      -0.007   0.493  -1.026  0.00  0.00     0.017 A 
ATOM      6  C5  UNL d   1      -0.368  -0.325   0.048  0.00  0.00     0.034 A 
ATOM      7 Cl   UNL d   1      -0.911   1.946  -1.272  0.00  0.00    -0.070 Cl
ATOM      8 Cl1  UNL d   1       1.563   1.080  -3.203  0.00  0.00    -0.070 Cl
ENDROOT
TORSDOF 0
ENDMDL
