MODEL 1
REMARK minimizedAffinity -1.19608617
REMARK minimizedRMSD -1
REMARK  1 active torsions:
REMARK  status: ('A' for Active; 'I' for Inactive)
REMARK    1  A    between atoms: C1_2  and  C2_3 
ROOT
ATOM      1  C2  UNL d   1      -1.389   0.245  -1.258  0.00  0.00    -0.077 A 
ATOM      2  C3  UNL d   1      -1.142  -0.440  -2.455  0.00  0.00     0.002 A 
ATOM      3  C4  UNL d   1      -2.162  -0.617  -3.391  0.00  0.00     0.002 A 
ATOM      4  C5  UNL d   1      -3.435  -0.109  -3.141  0.00  0.00    -0.004 A 
ATOM      5  C6  UNL d   1      -3.692   0.572  -1.951  0.00  0.00     0.002 A 
ATOM      6  C7  UNL d   1      -2.673   0.749  -1.014  0.00  0.00     0.002 A 
ENDROOT
BRANCH   1   7
ATOM      7  C1  UNL d   1      -0.277   0.481  -0.269  0.00  0.00     0.055 C 
ATOM      8  C   UNL d   1       0.659  -0.717  -0.192  0.00  0.00     0.019 C 
ENDBRANCH   1   7
TORSDOF 1
ENDMDL
