MODEL 1
REMARK minimizedAffinity -5.63709021
REMARK minimizedRMSD -1
REMARK  1 active torsions:
REMARK  status: ('A' for Active; 'I' for Inactive)
REMARK    1  A    between atoms: C1_2  and  C2_3 
ROOT
ATOM      1  C2  UNL d   1       0.142   0.308   0.017  0.00  0.00    -0.077 A 
ATOM      2  C3  UNL d   1       0.974  -0.790   0.277  0.00  0.00     0.002 A 
ATOM      3  C4  UNL d   1       2.314  -0.595   0.619  0.00  0.00     0.002 A 
ATOM      4  C5  UNL d   1       2.831   0.696   0.709  0.00  0.00    -0.004 A 
ATOM      5  C6  UNL d   1       2.012   1.794   0.450  0.00  0.00     0.002 A 
ATOM      6  C7  UNL d   1       0.673   1.601   0.106  0.00  0.00     0.002 A 
ENDROOT
BRANCH   1   7
ATOM      7  C1  UNL d   1      -1.316   0.101  -0.304  0.00  0.00     0.055 C 
ATOM      8  C   UNL d   1      -1.499  -0.464  -1.705  0.00  0.00     0.019 C 
ENDBRANCH   1   7
TORSDOF 1
ENDMDL
