MODEL 1
REMARK minimizedAffinity -5.51533699
REMARK minimizedRMSD -1
REMARK  1 active torsions:
REMARK  status: ('A' for Active; 'I' for Inactive)
REMARK    1  A    between atoms: C1_2  and  C2_3 
ROOT
ATOM      1  C2  UNL d   1       0.053   0.068  -0.254  0.00  0.00    -0.077 A 
ATOM      2  C3  UNL d   1       1.164  -0.695   0.130  0.00  0.00     0.002 A 
ATOM      3  C4  UNL d   1       2.293  -0.076   0.672  0.00  0.00     0.002 A 
ATOM      4  C5  UNL d   1       2.319   1.307   0.838  0.00  0.00    -0.004 A 
ATOM      5  C6  UNL d   1       1.219   2.075   0.457  0.00  0.00     0.002 A 
ATOM      6  C7  UNL d   1       0.091   1.458  -0.085  0.00  0.00     0.002 A 
ENDROOT
BRANCH   1   7
ATOM      7  C1  UNL d   1      -1.184  -0.602  -0.792  0.00  0.00     0.055 C 
ATOM      8  C   UNL d   1      -1.850   0.245  -1.867  0.00  0.00     0.019 C 
ENDBRANCH   1   7
TORSDOF 1
ENDMDL
