MODEL 1
REMARK minimizedAffinity -5.16021061
REMARK minimizedRMSD -1
REMARK  1 active torsions:
REMARK  status: ('A' for Active; 'I' for Inactive)
REMARK    1  A    between atoms: C1_2  and  C2_3 
ROOT
ATOM      1  C2  UNL d   1       0.246   0.016   0.079  0.00  0.00    -0.077 A 
ATOM      2  C3  UNL d   1       0.949  -1.162   0.368  0.00  0.00     0.002 A 
ATOM      3  C4  UNL d   1       2.308  -1.114   0.684  0.00  0.00     0.002 A 
ATOM      4  C5  UNL d   1       2.975   0.108   0.717  0.00  0.00    -0.004 A 
ATOM      5  C6  UNL d   1       2.286   1.286   0.429  0.00  0.00     0.002 A 
ATOM      6  C7  UNL d   1       0.927   1.240   0.113  0.00  0.00     0.002 A 
ENDROOT
BRANCH   1   7
ATOM      7  C1  UNL d   1      -1.231  -0.028  -0.213  0.00  0.00     0.055 C 
ATOM      8  C   UNL d   1      -1.502   0.038  -1.709  0.00  0.00     0.019 C 
ENDBRANCH   1   7
TORSDOF 1
ENDMDL
