MODEL 1
REMARK minimizedAffinity 1.81066573
REMARK minimizedRMSD -1
REMARK  1 active torsions:
REMARK  status: ('A' for Active; 'I' for Inactive)
REMARK    1  A    between atoms: C1_2  and  C2_3 
ROOT
ATOM      1  C2  UNL d   1       2.420  -0.896   0.822  0.00  0.00    -0.077 A 
ATOM      2  C3  UNL d   1       1.699   0.282   1.064  0.00  0.00     0.002 A 
ATOM      3  C4  UNL d   1       2.161   1.506   0.575  0.00  0.00     0.002 A 
ATOM      4  C5  UNL d   1       3.342   1.563  -0.162  0.00  0.00    -0.004 A 
ATOM      5  C6  UNL d   1       4.067   0.397  -0.407  0.00  0.00     0.002 A 
ATOM      6  C7  UNL d   1       3.608  -0.827   0.082  0.00  0.00     0.002 A 
ENDROOT
BRANCH   1   7
ATOM      7  C1  UNL d   1       1.898  -2.223   1.306  0.00  0.00     0.055 C 
ATOM      8  C   UNL d   1       0.993  -2.053   2.518  0.00  0.00     0.019 C 
ENDBRANCH   1   7
TORSDOF 1
ENDMDL
