MODEL 1
REMARK minimizedAffinity -4.00859356
REMARK minimizedRMSD -1
REMARK  1 active torsions:
REMARK  status: ('A' for Active; 'I' for Inactive)
REMARK    1  A    between atoms: C1_2  and  C2_3 
ROOT
ATOM      1  C2  UNL d   1      -0.190   0.531   0.066  0.00  0.00    -0.077 A 
ATOM      2  C3  UNL d   1       0.765  -0.426   0.437  0.00  0.00     0.002 A 
ATOM      3  C4  UNL d   1       2.030  -0.029   0.873  0.00  0.00     0.002 A 
ATOM      4  C5  UNL d   1       2.351   1.325   0.947  0.00  0.00    -0.004 A 
ATOM      5  C6  UNL d   1       1.409   2.284   0.578  0.00  0.00     0.002 A 
ATOM      6  C7  UNL d   1       0.144   1.889   0.140  0.00  0.00     0.002 A 
ENDROOT
BRANCH   1   7
ATOM      7  C1  UNL d   1      -1.572   0.106  -0.358  0.00  0.00     0.055 C 
ATOM      8  C   UNL d   1      -2.269  -0.684   0.740  0.00  0.00     0.019 C 
ENDBRANCH   1   7
TORSDOF 1
ENDMDL
