MODEL 1
REMARK minimizedAffinity 0.233513981
REMARK minimizedRMSD -1
REMARK  0 active torsions:
REMARK  status: ('A' for Active; 'I' for Inactive)
ROOT
ATOM      1  C   UNL d   1      -0.864  -1.178  -0.220  0.00  0.00     0.020 A 
ATOM      2  C1  UNL d   1      -0.425  -0.400   0.851  0.00  0.00     0.020 A 
ATOM      3  C2  UNL d   1       0.506   0.619   0.639  0.00  0.00     0.034 A 
ATOM      4  C3  UNL d   1       1.002   0.863  -0.647  0.00  0.00     0.017 A 
ATOM      5  C4  UNL d   1       0.560   0.082  -1.722  0.00  0.00     0.017 A 
ATOM      6  C5  UNL d   1      -0.372  -0.937  -1.504  0.00  0.00     0.034 A 
ATOM      7 Cl   UNL d   1       1.126   0.324  -3.337  0.00  0.00    -0.070 Cl
ATOM      8 Cl1  UNL d   1       2.151   2.139  -0.836  0.00  0.00    -0.070 Cl
ENDROOT
TORSDOF 0
ENDMDL
