MODEL 1
REMARK minimizedAffinity -1.07753408
REMARK minimizedRMSD -1
REMARK  0 active torsions:
REMARK  status: ('A' for Active; 'I' for Inactive)
ROOT
ATOM      1  C   UNL d   1      -4.145   4.422  -6.000  0.00  0.00     0.020 A 
ATOM      2  C1  UNL d   1      -2.783   4.721  -5.998  0.00  0.00     0.020 A 
ATOM      3  C2  UNL d   1      -1.842   3.689  -5.996  0.00  0.00     0.034 A 
ATOM      4  C3  UNL d   1      -2.261   2.354  -5.996  0.00  0.00     0.017 A 
ATOM      5  C4  UNL d   1      -3.628   2.055  -5.998  0.00  0.00     0.017 A 
ATOM      6  C5  UNL d   1      -4.567   3.092  -6.000  0.00  0.00     0.034 A 
ATOM      7 Cl   UNL d   1      -4.222   0.432  -5.998  0.00  0.00    -0.070 Cl
ATOM      8 Cl1  UNL d   1      -1.042   1.129  -5.994  0.00  0.00    -0.070 Cl
ENDROOT
TORSDOF 0
ENDMDL
