MODEL 1
REMARK minimizedAffinity 3.19414473
REMARK minimizedRMSD -1
REMARK  0 active torsions:
REMARK  status: ('A' for Active; 'I' for Inactive)
ROOT
ATOM      1  C   UNL d   1      -5.928   1.578  -5.991  0.00  0.00     0.020 A 
ATOM      2  C1  UNL d   1      -4.700   0.919  -5.993  0.00  0.00     0.020 A 
ATOM      3  C2  UNL d   1      -3.513   1.654  -5.996  0.00  0.00     0.034 A 
ATOM      4  C3  UNL d   1      -3.551   3.053  -5.996  0.00  0.00     0.017 A 
ATOM      5  C4  UNL d   1      -4.785   3.714  -5.994  0.00  0.00     0.017 A 
ATOM      6  C5  UNL d   1      -5.971   2.973  -5.992  0.00  0.00     0.034 A 
ATOM      7 Cl   UNL d   1      -4.913   5.438  -5.995  0.00  0.00    -0.070 Cl
ATOM      8 Cl1  UNL d   1      -2.045   3.899  -5.999  0.00  0.00    -0.070 Cl
ENDROOT
TORSDOF 0
ENDMDL
