MODEL 1
REMARK minimizedAffinity -0.932004392
REMARK minimizedRMSD -1
REMARK  0 active torsions:
REMARK  status: ('A' for Active; 'I' for Inactive)
ROOT
ATOM      1  C   UNL d   1      -4.760   5.783  -6.000  0.00  0.00     0.020 A 
ATOM      2  C1  UNL d   1      -5.969   5.090  -5.998  0.00  0.00     0.020 A 
ATOM      3  C2  UNL d   1      -5.974   3.693  -5.996  0.00  0.00     0.034 A 
ATOM      4  C3  UNL d   1      -4.766   2.986  -5.995  0.00  0.00     0.017 A 
ATOM      5  C4  UNL d   1      -3.552   3.683  -5.997  0.00  0.00     0.017 A 
ATOM      6  C5  UNL d   1      -3.554   5.081  -5.999  0.00  0.00     0.034 A 
ATOM      7 Cl   UNL d   1      -2.022   2.879  -5.996  0.00  0.00    -0.070 Cl
ATOM      8 Cl1  UNL d   1      -4.846   1.260  -5.991  0.00  0.00    -0.070 Cl
ENDROOT
TORSDOF 0
ENDMDL
