MODEL 1
REMARK minimizedAffinity 4.66981316
REMARK minimizedRMSD -1
REMARK  0 active torsions:
REMARK  status: ('A' for Active; 'I' for Inactive)
ROOT
ATOM      1  C   UNL d   1      -3.963   4.466  -5.990  0.00  0.00     0.020 A 
ATOM      2  C1  UNL d   1      -5.241   3.908  -5.995  0.00  0.00     0.020 A 
ATOM      3  C2  UNL d   1      -5.397   2.521  -5.998  0.00  0.00     0.034 A 
ATOM      4  C3  UNL d   1      -4.273   1.686  -5.996  0.00  0.00     0.017 A 
ATOM      5  C4  UNL d   1      -2.991   2.247  -5.991  0.00  0.00     0.017 A 
ATOM      6  C5  UNL d   1      -2.841   3.637  -5.988  0.00  0.00     0.034 A 
ATOM      7 Cl   UNL d   1      -1.557   1.282  -5.989  0.00  0.00    -0.070 Cl
ATOM      8 Cl1  UNL d   1      -4.540  -0.021  -6.000  0.00  0.00    -0.070 Cl
ENDROOT
TORSDOF 0
ENDMDL
