MODEL 1
REMARK minimizedAffinity -2.09019756
REMARK minimizedRMSD -1
REMARK  0 active torsions:
REMARK  status: ('A' for Active; 'I' for Inactive)
ROOT
ATOM      1  C   UNL d   1      -5.789   3.590  -5.999  0.00  0.00     0.020 A 
ATOM      2  C1  UNL d   1      -4.493   4.104  -5.997  0.00  0.00     0.020 A 
ATOM      3  C2  UNL d   1      -3.398   3.237  -5.997  0.00  0.00     0.034 A 
ATOM      4  C3  UNL d   1      -3.598   1.851  -5.997  0.00  0.00     0.017 A 
ATOM      5  C4  UNL d   1      -4.899   1.336  -5.999  0.00  0.00     0.017 A 
ATOM      6  C5  UNL d   1      -5.992   2.209  -6.000  0.00  0.00     0.034 A 
ATOM      7 Cl   UNL d   1      -5.224  -0.361  -6.000  0.00  0.00    -0.070 Cl
ATOM      8 Cl1  UNL d   1      -2.198   0.838  -5.997  0.00  0.00    -0.070 Cl
ENDROOT
TORSDOF 0
ENDMDL
