MODEL 1
REMARK minimizedAffinity -0.33975175
REMARK minimizedRMSD -1
REMARK  0 active torsions:
REMARK  status: ('A' for Active; 'I' for Inactive)
ROOT
ATOM      1  C   UNL d   1      -5.033   4.212  -5.994  0.00  0.00     0.020 A 
ATOM      2  C1  UNL d   1      -3.867   4.976  -5.994  0.00  0.00     0.020 A 
ATOM      3  C2  UNL d   1      -2.620   4.347  -5.992  0.00  0.00     0.034 A 
ATOM      4  C3  UNL d   1      -2.536   2.950  -5.991  0.00  0.00     0.017 A 
ATOM      5  C4  UNL d   1      -3.707   2.184  -5.992  0.00  0.00     0.017 A 
ATOM      6  C5  UNL d   1      -4.953   2.819  -5.993  0.00  0.00     0.034 A 
ATOM      7 Cl   UNL d   1      -3.684   0.456  -5.990  0.00  0.00    -0.070 Cl
ATOM      8 Cl1  UNL d   1      -0.961   2.239  -5.990  0.00  0.00    -0.070 Cl
ENDROOT
TORSDOF 0
ENDMDL
