MODEL 1
REMARK minimizedAffinity 1.72239399
REMARK minimizedRMSD -1
REMARK  0 active torsions:
REMARK  status: ('A' for Active; 'I' for Inactive)
ROOT
ATOM      1  C   UNL d   1      -2.889   3.718  -5.978  0.00  0.00     0.020 A 
ATOM      2  C1  UNL d   1      -4.256   3.991  -5.971  0.00  0.00     0.020 A 
ATOM      3  C2  UNL d   1      -5.178   2.942  -5.973  0.00  0.00     0.034 A 
ATOM      4  C3  UNL d   1      -4.733   1.615  -5.982  0.00  0.00     0.017 A 
ATOM      5  C4  UNL d   1      -3.360   1.342  -5.988  0.00  0.00     0.017 A 
ATOM      6  C5  UNL d   1      -2.442   2.396  -5.987  0.00  0.00     0.034 A 
ATOM      7 Cl   UNL d   1      -2.736  -0.270  -5.999  0.00  0.00    -0.070 Cl
ATOM      8 Cl1  UNL d   1      -5.928   0.367  -5.983  0.00  0.00    -0.070 Cl
ENDROOT
TORSDOF 0
ENDMDL
