MODEL 1
REMARK minimizedAffinity -2.47217727
REMARK minimizedRMSD -1
REMARK  0 active torsions:
REMARK  status: ('A' for Active; 'I' for Inactive)
ROOT
ATOM      1  C   UNL d   1      -5.409   2.948  -5.916  0.00  0.00     0.020 A 
ATOM      2  C1  UNL d   1      -4.347   3.837  -5.760  0.00  0.00     0.020 A 
ATOM      3  C2  UNL d   1      -3.039   3.355  -5.675  0.00  0.00     0.034 A 
ATOM      4  C3  UNL d   1      -2.791   1.979  -5.746  0.00  0.00     0.017 A 
ATOM      5  C4  UNL d   1      -3.858   1.087  -5.903  0.00  0.00     0.017 A 
ATOM      6  C5  UNL d   1      -5.165   1.576  -5.987  0.00  0.00     0.034 A 
ATOM      7 Cl   UNL d   1      -3.630  -0.623  -5.999  0.00  0.00    -0.070 Cl
ATOM      8 Cl1  UNL d   1      -1.149   1.453  -5.634  0.00  0.00    -0.070 Cl
ENDROOT
TORSDOF 0
ENDMDL
