MODEL 1
REMARK minimizedAffinity -2.64740872
REMARK minimizedRMSD -1
REMARK  0 active torsions:
REMARK  status: ('A' for Active; 'I' for Inactive)
ROOT
ATOM      1  C   UNL d   1      -5.547   3.045  -5.986  0.00  0.00     0.020 A 
ATOM      2  C1  UNL d   1      -4.357   3.769  -5.932  0.00  0.00     0.020 A 
ATOM      3  C2  UNL d   1      -3.133   3.099  -5.890  0.00  0.00     0.034 A 
ATOM      4  C3  UNL d   1      -3.096   1.700  -5.901  0.00  0.00     0.017 A 
ATOM      5  C4  UNL d   1      -4.291   0.973  -5.955  0.00  0.00     0.017 A 
ATOM      6  C5  UNL d   1      -5.514   1.650  -5.998  0.00  0.00     0.034 A 
ATOM      7 Cl   UNL d   1      -4.326  -0.755  -5.973  0.00  0.00    -0.070 Cl
ATOM      8 Cl1  UNL d   1      -1.547   0.936  -5.847  0.00  0.00    -0.070 Cl
ENDROOT
TORSDOF 0
ENDMDL
