MODEL 1
REMARK minimizedAffinity -2.49552155
REMARK minimizedRMSD -1
REMARK  0 active torsions:
REMARK  status: ('A' for Active; 'I' for Inactive)
ROOT
ATOM      1  C   UNL d   1      -5.258   3.636  -5.932  0.00  0.00     0.020 A 
ATOM      2  C1  UNL d   1      -3.993   4.199  -5.770  0.00  0.00     0.020 A 
ATOM      3  C2  UNL d   1      -2.869   3.375  -5.678  0.00  0.00     0.034 A 
ATOM      4  C3  UNL d   1      -3.008   1.984  -5.746  0.00  0.00     0.017 A 
ATOM      5  C4  UNL d   1      -4.279   1.420  -5.907  0.00  0.00     0.017 A 
ATOM      6  C5  UNL d   1      -5.401   2.249  -6.000  0.00  0.00     0.034 A 
ATOM      7 Cl   UNL d   1      -4.529  -0.288  -6.000  0.00  0.00    -0.070 Cl
ATOM      8 Cl1  UNL d   1      -1.575   1.027  -5.624  0.00  0.00    -0.070 Cl
ENDROOT
TORSDOF 0
ENDMDL
