MODEL 1
REMARK minimizedAffinity -1.28561592
REMARK minimizedRMSD -1
REMARK  0 active torsions:
REMARK  status: ('A' for Active; 'I' for Inactive)
ROOT
ATOM      1  C   UNL d   1      -4.738   5.275  -5.628  0.00  0.00     0.020 A 
ATOM      2  C1  UNL d   1      -5.051   3.942  -5.891  0.00  0.00     0.020 A 
ATOM      3  C2  UNL d   1      -4.032   2.993  -5.999  0.00  0.00     0.034 A 
ATOM      4  C3  UNL d   1      -2.695   3.376  -5.844  0.00  0.00     0.017 A 
ATOM      5  C4  UNL d   1      -2.381   4.714  -5.580  0.00  0.00     0.017 A 
ATOM      6  C5  UNL d   1      -3.406   5.660  -5.473  0.00  0.00     0.034 A 
ATOM      7 Cl   UNL d   1      -0.755   5.263  -5.376  0.00  0.00    -0.070 Cl
ATOM      8 Cl1  UNL d   1      -1.486   2.151  -5.990  0.00  0.00    -0.070 Cl
ENDROOT
TORSDOF 0
ENDMDL
