MODEL 1
REMARK minimizedAffinity 4.30788231
REMARK minimizedRMSD -1
REMARK  0 active torsions:
REMARK  status: ('A' for Active; 'I' for Inactive)
ROOT
ATOM      1  C   UNL d   1       0.318  -1.809  -1.534  0.00  0.00     0.020 A 
ATOM      2  C1  UNL d   1      -0.626  -1.509  -0.553  0.00  0.00     0.020 A 
ATOM      3  C2  UNL d   1      -0.435  -0.409   0.287  0.00  0.00     0.034 A 
ATOM      4  C3  UNL d   1       0.703   0.394   0.147  0.00  0.00     0.017 A 
ATOM      5  C4  UNL d   1       1.649   0.092  -0.838  0.00  0.00     0.017 A 
ATOM      6  C5  UNL d   1       1.453  -1.011  -1.676  0.00  0.00     0.034 A 
ATOM      7 Cl   UNL d   1       3.078   1.036  -1.072  0.00  0.00    -0.070 Cl
ATOM      8 Cl1  UNL d   1       0.874   1.738   1.219  0.00  0.00    -0.070 Cl
ENDROOT
TORSDOF 0
ENDMDL
