MODEL 1
REMARK minimizedAffinity 4.85588217
REMARK minimizedRMSD -1
REMARK  0 active torsions:
REMARK  status: ('A' for Active; 'I' for Inactive)
ROOT
ATOM      1  C   UNL d   1      -0.532  -1.155  -2.078  0.00  0.00     0.020 A 
ATOM      2  C1  UNL d   1       0.525  -1.015  -2.977  0.00  0.00     0.020 A 
ATOM      3  C2  UNL d   1       1.718  -0.418  -2.564  0.00  0.00     0.034 A 
ATOM      4  C3  UNL d   1       1.856   0.042  -1.249  0.00  0.00     0.017 A 
ATOM      5  C4  UNL d   1       0.795  -0.099  -0.348  0.00  0.00     0.017 A 
ATOM      6  C5  UNL d   1      -0.397  -0.698  -0.767  0.00  0.00     0.034 A 
ATOM      7 Cl   UNL d   1       0.892   0.444   1.290  0.00  0.00    -0.070 Cl
ATOM      8 Cl1  UNL d   1       3.360   0.771  -0.808  0.00  0.00    -0.070 Cl
ENDROOT
TORSDOF 0
ENDMDL
