MODEL 1
REMARK minimizedAffinity 1.67932034
REMARK minimizedRMSD -1
REMARK  0 active torsions:
REMARK  status: ('A' for Active; 'I' for Inactive)
ROOT
ATOM      1  C   UNL d   1       0.758  -0.709  -2.530  0.00  0.00     0.020 A 
ATOM      2  C1  UNL d   1      -0.350  -0.580  -1.693  0.00  0.00     0.020 A 
ATOM      3  C2  UNL d   1      -0.248   0.153  -0.509  0.00  0.00     0.034 A 
ATOM      4  C3  UNL d   1       0.964   0.759  -0.158  0.00  0.00     0.017 A 
ATOM      5  C4  UNL d   1       2.075   0.628  -0.999  0.00  0.00     0.017 A 
ATOM      6  C5  UNL d   1       1.968  -0.106  -2.184  0.00  0.00     0.034 A 
ATOM      7 Cl   UNL d   1       3.604   1.347  -0.634  0.00  0.00    -0.070 Cl
ATOM      8 Cl1  UNL d   1       1.019   1.649   1.322  0.00  0.00    -0.070 Cl
ENDROOT
TORSDOF 0
ENDMDL
