MODEL 1
REMARK minimizedAffinity -1.7717253
REMARK minimizedRMSD -1
REMARK  0 active torsions:
REMARK  status: ('A' for Active; 'I' for Inactive)
ROOT
ATOM      1  C   UNL d   1      -1.706   4.531  -5.485  0.00  0.00     0.020 A 
ATOM      2  C1  UNL d   1      -1.531   3.148  -5.475  0.00  0.00     0.020 A 
ATOM      3  C2  UNL d   1      -2.634   2.304  -5.629  0.00  0.00     0.034 A 
ATOM      4  C3  UNL d   1      -3.915   2.843  -5.793  0.00  0.00     0.017 A 
ATOM      5  C4  UNL d   1      -4.089   4.232  -5.802  0.00  0.00     0.017 A 
ATOM      6  C5  UNL d   1      -2.982   5.072  -5.648  0.00  0.00     0.034 A 
ATOM      7 Cl   UNL d   1      -5.639   4.971  -6.000  0.00  0.00    -0.070 Cl
ATOM      8 Cl1  UNL d   1      -5.233   1.741  -5.977  0.00  0.00    -0.070 Cl
ENDROOT
TORSDOF 0
ENDMDL
