MODEL 1
REMARK minimizedAffinity 1.39085901
REMARK minimizedRMSD -1
REMARK  0 active torsions:
REMARK  status: ('A' for Active; 'I' for Inactive)
ROOT
ATOM      1  C   UNL d   1      -2.347   4.854  -5.974  0.00  0.00     0.020 A 
ATOM      2  C1  UNL d   1      -3.739   4.929  -5.990  0.00  0.00     0.020 A 
ATOM      3  C2  UNL d   1      -4.501   3.758  -5.997  0.00  0.00     0.034 A 
ATOM      4  C3  UNL d   1      -3.871   2.508  -5.988  0.00  0.00     0.017 A 
ATOM      5  C4  UNL d   1      -2.473   2.435  -5.972  0.00  0.00     0.017 A 
ATOM      6  C5  UNL d   1      -1.716   3.610  -5.965  0.00  0.00     0.034 A 
ATOM      7 Cl   UNL d   1      -1.625   0.929  -5.960  0.00  0.00    -0.070 Cl
ATOM      8 Cl1  UNL d   1      -4.876   1.103  -5.997  0.00  0.00    -0.070 Cl
ENDROOT
TORSDOF 0
ENDMDL
