MODEL 1
REMARK minimizedAffinity 5.53734112
REMARK minimizedRMSD -1
REMARK  0 active torsions:
REMARK  status: ('A' for Active; 'I' for Inactive)
ROOT
ATOM      1  C2' OXE d   1       2.823  -2.880   5.950  0.00  0.00     0.078 C 
ATOM      2  C1' OXE d   1       2.746  -5.686   5.983  0.00  0.00     0.078 C 
ATOM      3  C1  OXE d   1       1.431  -4.946   5.968  0.00  0.00    -0.078 A 
ATOM      4  C2  OXE d   1       1.478  -3.573   5.999  0.00  0.00    -0.078 A 
ATOM      5  C3  OXE d   1       0.296  -2.841   5.931  0.00  0.00     0.003 A 
ATOM      6  C4  OXE d   1      -0.943  -3.489   5.987  0.00  0.00    -0.002 A 
ATOM      7  C5  OXE d   1      -1.014  -4.887   5.996  0.00  0.00    -0.002 A 
ATOM      8  C6  OXE d   1       0.161  -5.628   5.944  0.00  0.00     0.003 A 
ENDROOT
TORSDOF 0
ENDMDL
