MODEL 1
REMARK minimizedAffinity 2.95171213
REMARK minimizedRMSD -1
REMARK  0 active torsions:
REMARK  status: ('A' for Active; 'I' for Inactive)
ROOT
ATOM      1  C2' OXE d   1       1.182  -1.017   5.915  0.00  0.00     0.078 C 
ATOM      2  C1' OXE d   1       2.727  -3.361   5.972  0.00  0.00     0.078 C 
ATOM      3  C1  OXE d   1       1.226  -3.508   5.949  0.00  0.00    -0.078 A 
ATOM      4  C2  OXE d   1       0.478  -2.356   5.969  0.00  0.00    -0.078 A 
ATOM      5  C3  OXE d   1      -0.910  -2.434   5.893  0.00  0.00     0.003 A 
ATOM      6  C4  OXE d   1      -1.554  -3.676   5.953  0.00  0.00    -0.002 A 
ATOM      7  C5  OXE d   1      -0.811  -4.861   5.974  0.00  0.00    -0.002 A 
ATOM      8  C6  OXE d   1       0.577  -4.795   5.929  0.00  0.00     0.003 A 
ENDROOT
TORSDOF 0
ENDMDL
