MODEL 1
REMARK minimizedAffinity -2.89687252
REMARK minimizedRMSD -1
REMARK  0 active torsions:
REMARK  status: ('A' for Active; 'I' for Inactive)
ROOT
ATOM      1  C2' OXE d   1      -1.463  -4.836  -1.118  0.00  0.00     0.078 C 
ATOM      2  C1' OXE d   1      -1.628  -2.402   0.271  0.00  0.00     0.078 C 
ATOM      3  C1  OXE d   1      -1.280  -3.640   1.059  0.00  0.00    -0.078 A 
ATOM      4  C2  OXE d   1      -1.247  -4.834   0.380  0.00  0.00    -0.078 A 
ATOM      5  C3  OXE d   1      -0.878  -5.997   1.049  0.00  0.00     0.003 A 
ATOM      6  C4  OXE d   1      -0.690  -5.988   2.436  0.00  0.00    -0.002 A 
ATOM      7  C5  OXE d   1      -0.758  -4.789   3.154  0.00  0.00    -0.002 A 
ATOM      8  C6  OXE d   1      -1.009  -3.602   2.475  0.00  0.00     0.003 A 
ENDROOT
TORSDOF 0
ENDMDL
