MODEL 1
REMARK minimizedAffinity 1.12346125
REMARK minimizedRMSD -1
REMARK  0 active torsions:
REMARK  status: ('A' for Active; 'I' for Inactive)
ROOT
ATOM      1  C2' OXE d   1       1.927   1.131   2.434  0.00  0.00     0.078 C 
ATOM      2  C1' OXE d   1       3.497  -1.029   1.566  0.00  0.00     0.078 C 
ATOM      3  C1  OXE d   1       2.377  -0.567   0.668  0.00  0.00    -0.078 A 
ATOM      4  C2  OXE d   1       1.585   0.460   1.121  0.00  0.00    -0.078 A 
ATOM      5  C3  OXE d   1       0.572   0.960   0.308  0.00  0.00     0.003 A 
ATOM      6  C4  OXE d   1       0.256   0.327  -0.901  0.00  0.00    -0.002 A 
ATOM      7  C5  OXE d   1       1.025  -0.746  -1.363  0.00  0.00    -0.002 A 
ATOM      8  C6  OXE d   1       2.113  -1.177  -0.612  0.00  0.00     0.003 A 
ENDROOT
TORSDOF 0
ENDMDL
