MODEL 1
REMARK minimizedAffinity 1.18985069
REMARK minimizedRMSD -1
REMARK  0 active torsions:
REMARK  status: ('A' for Active; 'I' for Inactive)
ROOT
ATOM      1  C2' OXE d   1       0.094  -1.954   6.000  0.00  0.00     0.078 C 
ATOM      2  C1' OXE d   1      -1.707  -4.107   5.971  0.00  0.00     0.078 C 
ATOM      3  C1  OXE d   1      -0.232  -4.423   5.976  0.00  0.00    -0.078 A 
ATOM      4  C2  OXE d   1       0.642  -3.364   5.942  0.00  0.00    -0.078 A 
ATOM      5  C3  OXE d   1       2.013  -3.599   6.000  0.00  0.00     0.003 A 
ATOM      6  C4  OXE d   1       2.511  -4.906   5.937  0.00  0.00    -0.002 A 
ATOM      7  C5  OXE d   1       1.638  -5.999   5.930  0.00  0.00    -0.002 A 
ATOM      8  C6  OXE d   1       0.267  -5.776   5.992  0.00  0.00     0.003 A 
ENDROOT
TORSDOF 0
ENDMDL
