MODEL 1
REMARK minimizedAffinity 0.479818135
REMARK minimizedRMSD -1
REMARK  0 active torsions:
REMARK  status: ('A' for Active; 'I' for Inactive)
ROOT
ATOM      1  C2' OXE d   1      -1.508  -2.623   5.949  0.00  0.00     0.078 C 
ATOM      2  C1' OXE d   1       0.955  -1.277   5.968  0.00  0.00     0.078 C 
ATOM      3  C1  OXE d   1       0.977  -2.786   5.962  0.00  0.00    -0.078 A 
ATOM      4  C2  OXE d   1      -0.233  -3.436   6.000  0.00  0.00    -0.078 A 
ATOM      5  C3  OXE d   1      -0.271  -4.826   5.941  0.00  0.00     0.003 A 
ATOM      6  C4  OXE d   1       0.914  -5.570   5.998  0.00  0.00    -0.002 A 
ATOM      7  C5  OXE d   1       2.157  -4.928   6.000  0.00  0.00    -0.002 A 
ATOM      8  C6  OXE d   1       2.206  -3.540   5.939  0.00  0.00     0.003 A 
ENDROOT
TORSDOF 0
ENDMDL
