MODEL 1
REMARK minimizedAffinity -0.571389973
REMARK minimizedRMSD -1
REMARK  0 active torsions:
REMARK  status: ('A' for Active; 'I' for Inactive)
ROOT
ATOM      1  C2' OXE d   1      -0.739  -5.611   5.999  0.00  0.00     0.078 C 
ATOM      2  C1' OXE d   1       2.068  -5.622   5.979  0.00  0.00     0.078 C 
ATOM      3  C1  OXE d   1       1.369  -4.285   5.981  0.00  0.00    -0.078 A 
ATOM      4  C2  OXE d   1      -0.004  -4.289   5.944  0.00  0.00    -0.078 A 
ATOM      5  C3  OXE d   1      -0.699  -3.085   5.999  0.00  0.00     0.003 A 
ATOM      6  C4  OXE d   1      -0.012  -1.866   5.938  0.00  0.00    -0.002 A 
ATOM      7  C5  OXE d   1       1.387  -1.840   5.935  0.00  0.00    -0.002 A 
ATOM      8  C6  OXE d   1       2.091  -3.037   5.999  0.00  0.00     0.003 A 
ENDROOT
TORSDOF 0
ENDMDL
