MODEL 1
REMARK minimizedAffinity -0.835564256
REMARK minimizedRMSD -1
REMARK  0 active torsions:
REMARK  status: ('A' for Active; 'I' for Inactive)
ROOT
ATOM      1  C2' OXE d   1       2.453  -5.141   5.950  0.00  0.00     0.078 C 
ATOM      2  C1' OXE d   1      -0.281  -5.776   5.995  0.00  0.00     0.078 C 
ATOM      3  C1  OXE d   1       0.102  -4.318   5.974  0.00  0.00    -0.078 A 
ATOM      4  C2  OXE d   1       1.442  -4.015   5.999  0.00  0.00    -0.078 A 
ATOM      5  C3  OXE d   1       1.850  -2.687   5.926  0.00  0.00     0.003 A 
ATOM      6  C4  OXE d   1       0.909  -1.652   5.983  0.00  0.00    -0.002 A 
ATOM      7  C5  OXE d   1      -0.460  -1.937   5.998  0.00  0.00    -0.002 A 
ATOM      8  C6  OXE d   1      -0.880  -3.262   5.951  0.00  0.00     0.003 A 
ENDROOT
TORSDOF 0
ENDMDL
