MODEL 1
REMARK minimizedAffinity 2.82490277
REMARK minimizedRMSD -1
REMARK  0 active torsions:
REMARK  status: ('A' for Active; 'I' for Inactive)
ROOT
ATOM      1  C2' OXE d   1      -1.210  -3.220   5.998  0.00  0.00     0.078 C 
ATOM      2  C1' OXE d   1      -0.821  -5.999   5.977  0.00  0.00     0.078 C 
ATOM      3  C1  OXE d   1       0.403  -5.118   5.980  0.00  0.00    -0.078 A 
ATOM      4  C2  OXE d   1       0.203  -3.759   5.943  0.00  0.00    -0.078 A 
ATOM      5  C3  OXE d   1       1.296  -2.899   5.999  0.00  0.00     0.003 A 
ATOM      6  C4  OXE d   1       2.600  -3.406   5.938  0.00  0.00    -0.002 A 
ATOM      7  C5  OXE d   1       2.826  -4.786   5.934  0.00  0.00    -0.002 A 
ATOM      8  C6  OXE d   1       1.741  -5.654   5.998  0.00  0.00     0.003 A 
ENDROOT
TORSDOF 0
ENDMDL
