MODEL 1
REMARK minimizedAffinity 8.12985134
REMARK minimizedRMSD -1
REMARK  0 active torsions:
REMARK  status: ('A' for Active; 'I' for Inactive)
ROOT
ATOM      1  C2' OXE d   1      -5.951   2.508   0.672  0.00  0.00     0.078 C 
ATOM      2  C1' OXE d   1      -3.742   1.505   2.085  0.00  0.00     0.078 C 
ATOM      3  C1  OXE d   1      -4.336   0.640   1.002  0.00  0.00    -0.078 A 
ATOM      4  C2  OXE d   1      -5.446   1.119   0.347  0.00  0.00    -0.078 A 
ATOM      5  C3  OXE d   1      -6.000   0.385  -0.698  0.00  0.00     0.003 A 
ATOM      6  C4  OXE d   1      -5.532  -0.903  -0.985  0.00  0.00    -0.002 A 
ATOM      7  C5  OXE d   1      -4.428  -1.426  -0.304  0.00  0.00    -0.002 A 
ATOM      8  C6  OXE d   1      -3.793  -0.652   0.661  0.00  0.00     0.003 A 
ENDROOT
TORSDOF 0
ENDMDL
