MODEL 1
REMARK minimizedAffinity 7.55032921
REMARK minimizedRMSD -1
REMARK  0 active torsions:
REMARK  status: ('A' for Active; 'I' for Inactive)
ROOT
ATOM      1  C2' OXE d   1       2.153  -1.967   1.551  0.00  0.00     0.078 C 
ATOM      2  C1' OXE d   1       2.343  -0.271  -0.678  0.00  0.00     0.078 C 
ATOM      3  C1  OXE d   1       1.340  -1.396  -0.734  0.00  0.00    -0.078 A 
ATOM      4  C2  OXE d   1       1.287  -2.249   0.342  0.00  0.00    -0.078 A 
ATOM      5  C3  OXE d   1       0.342  -3.271   0.366  0.00  0.00     0.003 A 
ATOM      6  C4  OXE d   1      -0.449  -3.531  -0.761  0.00  0.00    -0.002 A 
ATOM      7  C5  OXE d   1      -0.382  -2.699  -1.883  0.00  0.00    -0.002 A 
ATOM      8  C6  OXE d   1       0.475  -1.604  -1.869  0.00  0.00     0.003 A 
ENDROOT
TORSDOF 0
ENDMDL
