MODEL 1
REMARK minimizedAffinity 10.2002993
REMARK minimizedRMSD -1
REMARK  2 active torsions:
REMARK  status: ('A' for Active; 'I' for Inactive)
REMARK    1  A    between atoms: C2'_3  and  C1'_4 
REMARK    2  A    between atoms: C1'_4  and  C1_5 
ROOT
ATOM      1  C1  I4B d   1      -4.503  -0.234   4.094  0.00  0.00    -0.075 A 
ATOM      2  C2  I4B d   1      -4.225  -0.430   2.764  0.00  0.00     0.003 A 
ATOM      3  C3  I4B d   1      -4.442  -1.696   2.169  0.00  0.00     0.002 A 
ATOM      4  C4  I4B d   1      -4.886  -2.746   2.948  0.00  0.00    -0.004 A 
ATOM      5  C5  I4B d   1      -5.188  -2.540   4.291  0.00  0.00     0.002 A 
ATOM      6  C6  I4B d   1      -5.007  -1.273   4.865  0.00  0.00     0.003 A 
ENDROOT
BRANCH   1   7
ATOM      7  C1' I4B d   1      -4.231   1.107   4.697  0.00  0.00     0.060 C 
BRANCH   7   8
ATOM      8  C2' I4B d   1      -2.731   1.258   4.845  0.00  0.00    -0.013 C 
ATOM      9  C4' I4B d   1      -2.211   0.440   5.998  0.00  0.00     0.013 C 
ATOM     10  C3' I4B d   1      -2.094   0.838   3.553  0.00  0.00     0.013 C 
ENDBRANCH   7   8
ENDBRANCH   1   7
TORSDOF 2
ENDMDL
