MODEL 1
REMARK minimizedAffinity 3.96095228
REMARK minimizedRMSD -1
REMARK  2 active torsions:
REMARK  status: ('A' for Active; 'I' for Inactive)
REMARK    1  A    between atoms: C2'_3  and  C1'_4 
REMARK    2  A    between atoms: C1'_4  and  C1_5 
ROOT
ATOM      1  C1  I4B d   1      -4.112   0.641   3.739  0.00  0.00    -0.075 A 
ATOM      2  C2  I4B d   1      -4.073  -0.133   2.606  0.00  0.00     0.003 A 
ATOM      3  C3  I4B d   1      -4.684  -1.410   2.594  0.00  0.00     0.002 A 
ATOM      4  C4  I4B d   1      -5.275  -1.892   3.744  0.00  0.00    -0.004 A 
ATOM      5  C5  I4B d   1      -5.334  -1.097   4.885  0.00  0.00     0.002 A 
ATOM      6  C6  I4B d   1      -4.760   0.183   4.879  0.00  0.00     0.003 A 
ENDROOT
BRANCH   1   7
ATOM      7  C1' I4B d   1      -3.429   1.971   3.728  0.00  0.00     0.060 C 
BRANCH   7   8
ATOM      8  C2' I4B d   1      -2.877   2.225   5.116  0.00  0.00    -0.013 C 
ATOM      9  C4' I4B d   1      -3.898   2.898   5.994  0.00  0.00     0.013 C 
ATOM     10  C3' I4B d   1      -2.452   0.907   5.693  0.00  0.00     0.013 C 
ENDBRANCH   7   8
ENDBRANCH   1   7
TORSDOF 2
ENDMDL
