MODEL 1
REMARK minimizedAffinity -1.35910892
REMARK minimizedRMSD -1
REMARK  2 active torsions:
REMARK  status: ('A' for Active; 'I' for Inactive)
REMARK    1  A    between atoms: C2'_3  and  C1'_4 
REMARK    2  A    between atoms: C1'_4  and  C1_5 
ROOT
ATOM      1  C1  I4B d   1       2.851  -3.169  -0.234  0.00  0.00    -0.075 A 
ATOM      2  C2  I4B d   1       3.384  -2.986  -1.486  0.00  0.00     0.003 A 
ATOM      3  C3  I4B d   1       4.514  -3.735  -1.896  0.00  0.00     0.002 A 
ATOM      4  C4  I4B d   1       5.105  -4.613  -1.010  0.00  0.00    -0.004 A 
ATOM      5  C5  I4B d   1       4.549  -4.814   0.250  0.00  0.00     0.002 A 
ATOM      6  C6  I4B d   1       3.408  -4.097   0.636  0.00  0.00     0.003 A 
ENDROOT
BRANCH   1   7
ATOM      7  C1' I4B d   1       1.677  -2.338   0.178  0.00  0.00     0.060 C 
BRANCH   7   8
ATOM      8  C2' I4B d   1       0.855  -3.146   1.161  0.00  0.00    -0.013 C 
ATOM      9  C4' I4B d   1      -0.034  -2.256   1.989  0.00  0.00     0.013 C 
ATOM     10  C3' I4B d   1       0.049  -4.142   0.382  0.00  0.00     0.013 C 
ENDBRANCH   7   8
ENDBRANCH   1   7
TORSDOF 2
ENDMDL
