MODEL 1
REMARK minimizedAffinity -1.25868273
REMARK minimizedRMSD -1
REMARK  2 active torsions:
REMARK  status: ('A' for Active; 'I' for Inactive)
REMARK    1  A    between atoms: C2'_3  and  C1'_4 
REMARK    2  A    between atoms: C1'_4  and  C1_5 
ROOT
ATOM      1  C1  I4B d   1       2.759  -3.117  -0.642  0.00  0.00    -0.075 A 
ATOM      2  C2  I4B d   1       3.648  -4.163  -0.643  0.00  0.00     0.003 A 
ATOM      3  C3  I4B d   1       4.976  -3.970  -0.192  0.00  0.00     0.002 A 
ATOM      4  C4  I4B d   1       5.384  -2.712   0.202  0.00  0.00    -0.004 A 
ATOM      5  C5  I4B d   1       4.475  -1.658   0.225  0.00  0.00     0.002 A 
ATOM      6  C6  I4B d   1       3.150  -1.865  -0.188  0.00  0.00     0.003 A 
ENDROOT
BRANCH   1   7
ATOM      7  C1' I4B d   1       1.374  -3.349  -1.156  0.00  0.00     0.060 C 
BRANCH   7   8
ATOM      8  C2' I4B d   1       0.587  -4.063  -0.076  0.00  0.00    -0.013 C 
ATOM      9  C4' I4B d   1       0.589  -3.277   1.209  0.00  0.00     0.013 C 
ATOM     10  C3' I4B d   1      -0.809  -4.272  -0.581  0.00  0.00     0.013 C 
ENDBRANCH   7   8
ENDBRANCH   1   7
TORSDOF 2
ENDMDL
