MODEL 1
REMARK minimizedAffinity 11.677536
REMARK minimizedRMSD -1
REMARK  2 active torsions:
REMARK  status: ('A' for Active; 'I' for Inactive)
REMARK    1  A    between atoms: C2'_3  and  C1'_4 
REMARK    2  A    between atoms: C1'_4  and  C1_5 
ROOT
ATOM      1  C1  I4B d   1      -1.681  -1.859   1.341  0.00  0.00    -0.075 A 
ATOM      2  C2  I4B d   1      -0.462  -1.383   1.757  0.00  0.00     0.003 A 
ATOM      3  C3  I4B d   1       0.704  -2.169   1.593  0.00  0.00     0.002 A 
ATOM      4  C4  I4B d   1       0.599  -3.437   1.058  0.00  0.00    -0.004 A 
ATOM      5  C5  I4B d   1      -0.634  -3.908   0.616  0.00  0.00     0.002 A 
ATOM      6  C6  I4B d   1      -1.779  -3.110   0.747  0.00  0.00     0.003 A 
ENDROOT
BRANCH   1   7
ATOM      7  C1' I4B d   1      -2.897  -1.015   1.560  0.00  0.00     0.060 C 
BRANCH   7   8
ATOM      8  C2' I4B d   1      -2.575   0.394   1.106  0.00  0.00    -0.013 C 
ATOM      9  C4' I4B d   1      -3.731   1.004   0.359  0.00  0.00     0.013 C 
ATOM     10  C3' I4B d   1      -2.228   1.203   2.321  0.00  0.00     0.013 C 
ENDBRANCH   7   8
ENDBRANCH   1   7
TORSDOF 2
ENDMDL
