MODEL 1
REMARK minimizedAffinity -0.651193619
REMARK minimizedRMSD -1
REMARK  2 active torsions:
REMARK  status: ('A' for Active; 'I' for Inactive)
REMARK    1  A    between atoms: C2'_3  and  C1'_4 
REMARK    2  A    between atoms: C1'_4  and  C1_5 
ROOT
ATOM      1  C1  I4B d   1       3.667  -4.151  -0.384  0.00  0.00    -0.075 A 
ATOM      2  C2  I4B d   1       3.549  -3.225  -1.391  0.00  0.00     0.003 A 
ATOM      3  C3  I4B d   1       4.666  -2.904  -2.199  0.00  0.00     0.002 A 
ATOM      4  C4  I4B d   1       5.887  -3.490  -1.935  0.00  0.00    -0.004 A 
ATOM      5  C5  I4B d   1       6.000  -4.445  -0.929  0.00  0.00     0.002 A 
ATOM      6  C6  I4B d   1       4.880  -4.787  -0.157  0.00  0.00     0.003 A 
ENDROOT
BRANCH   1   7
ATOM      7  C1' I4B d   1       2.475  -4.442   0.471  0.00  0.00     0.060 C 
BRANCH   7   8
ATOM      8  C2' I4B d   1       1.541  -3.252   0.392  0.00  0.00    -0.013 C 
ATOM      9  C4' I4B d   1       0.502  -3.445  -0.681  0.00  0.00     0.013 C 
ATOM     10  C3' I4B d   1       0.905  -3.072   1.737  0.00  0.00     0.013 C 
ENDBRANCH   7   8
ENDBRANCH   1   7
TORSDOF 2
ENDMDL
