MODEL 1
REMARK minimizedAffinity -4.50667763
REMARK minimizedRMSD -1
REMARK  2 active torsions:
REMARK  status: ('A' for Active; 'I' for Inactive)
REMARK    1  A    between atoms: C2'_3  and  C1'_4 
REMARK    2  A    between atoms: C1'_4  and  C1_5 
ROOT
ATOM      1  C1  I4B d   1       3.245  -3.370  -0.815  0.00  0.00    -0.075 A 
ATOM      2  C2  I4B d   1       3.800  -3.980   0.283  0.00  0.00     0.003 A 
ATOM      3  C3  I4B d   1       5.058  -4.620   0.182  0.00  0.00     0.002 A 
ATOM      4  C4  I4B d   1       5.700  -4.670  -1.039  0.00  0.00    -0.004 A 
ATOM      5  C5  I4B d   1       5.146  -4.032  -2.145  0.00  0.00     0.002 A 
ATOM      6  C6  I4B d   1       3.917  -3.367  -2.030  0.00  0.00     0.003 A 
ENDROOT
BRANCH   1   7
ATOM      7  C1' I4B d   1       1.899  -2.731  -0.681  0.00  0.00     0.060 C 
BRANCH   7   8
ATOM      8  C2' I4B d   1       1.278  -3.218   0.613  0.00  0.00    -0.013 C 
ATOM      9  C4' I4B d   1       0.970  -2.069   1.536  0.00  0.00     0.013 C 
ATOM     10  C3' I4B d   1       0.035  -3.985   0.271  0.00  0.00     0.013 C 
ENDBRANCH   7   8
ENDBRANCH   1   7
TORSDOF 2
ENDMDL
