MODEL 1
REMARK minimizedAffinity 5.90910435
REMARK minimizedRMSD -1
REMARK  2 active torsions:
REMARK  status: ('A' for Active; 'I' for Inactive)
REMARK    1  A    between atoms: C2'_3  and  C1'_4 
REMARK    2  A    between atoms: C1'_4  and  C1_5 
ROOT
ATOM      1  C1  I4B d   1      -1.699  -1.109   1.193  0.00  0.00    -0.075 A 
ATOM      2  C2  I4B d   1      -2.047  -0.157   2.118  0.00  0.00     0.003 A 
ATOM      3  C3  I4B d   1      -2.736   1.012   1.713  0.00  0.00     0.002 A 
ATOM      4  C4  I4B d   1      -3.011   1.210   0.376  0.00  0.00    -0.004 A 
ATOM      5  C5  I4B d   1      -2.678   0.233  -0.558  0.00  0.00     0.002 A 
ATOM      6  C6  I4B d   1      -2.029  -0.940  -0.145  0.00  0.00     0.003 A 
ENDROOT
BRANCH   1   7
ATOM      7  C1' I4B d   1      -0.943  -2.316   1.651  0.00  0.00     0.060 C 
BRANCH   7   8
ATOM      8  C2' I4B d   1      -0.636  -3.164   0.433  0.00  0.00    -0.013 C 
ATOM      9  C4' I4B d   1       0.769  -2.927  -0.056  0.00  0.00     0.013 C 
ATOM     10  C3' I4B d   1      -0.845  -4.601   0.805  0.00  0.00     0.013 C 
ENDBRANCH   7   8
ENDBRANCH   1   7
TORSDOF 2
ENDMDL
