MODEL 1
REMARK minimizedAffinity -0.520968854
REMARK minimizedRMSD -1
REMARK  2 active torsions:
REMARK  status: ('A' for Active; 'I' for Inactive)
REMARK    1  A    between atoms: C2'_3  and  C1'_4 
REMARK    2  A    between atoms: C1'_4  and  C1_5 
ROOT
ATOM      1  C1  I4B d   1       2.968  -4.128   0.009  0.00  0.00    -0.075 A 
ATOM      2  C2  I4B d   1       1.618  -4.155   0.256  0.00  0.00     0.003 A 
ATOM      3  C3  I4B d   1       0.927  -2.962   0.576  0.00  0.00     0.002 A 
ATOM      4  C4  I4B d   1       1.630  -1.779   0.689  0.00  0.00    -0.004 A 
ATOM      5  C5  I4B d   1       2.994  -1.749   0.416  0.00  0.00     0.002 A 
ATOM      6  C6  I4B d   1       3.666  -2.928   0.062  0.00  0.00     0.003 A 
ENDROOT
BRANCH   1   7
ATOM      7  C1' I4B d   1       3.671  -5.412  -0.295  0.00  0.00     0.060 C 
BRANCH   7   8
ATOM      8  C2' I4B d   1       5.103  -5.286   0.186  0.00  0.00    -0.013 C 
ATOM      9  C4' I4B d   1       5.303  -6.000   1.497  0.00  0.00     0.013 C 
ATOM     10  C3' I4B d   1       6.000  -5.845  -0.878  0.00  0.00     0.013 C 
ENDBRANCH   7   8
ENDBRANCH   1   7
TORSDOF 2
ENDMDL
