MODEL 1
REMARK minimizedAffinity 7.23123932
REMARK minimizedRMSD -1
REMARK  2 active torsions:
REMARK  status: ('A' for Active; 'I' for Inactive)
REMARK    1  A    between atoms: C2'_3  and  C1'_4 
REMARK    2  A    between atoms: C1'_4  and  C1_5 
ROOT
ATOM      1  C1  I4B d   1       2.671  -3.810   0.311  0.00  0.00    -0.075 A 
ATOM      2  C2  I4B d   1       2.201  -3.166   1.428  0.00  0.00     0.003 A 
ATOM      3  C3  I4B d   1       0.824  -2.859   1.547  0.00  0.00     0.002 A 
ATOM      4  C4  I4B d   1      -0.033  -3.167   0.510  0.00  0.00    -0.004 A 
ATOM      5  C5  I4B d   1       0.441  -3.841  -0.612  0.00  0.00     0.002 A 
ATOM      6  C6  I4B d   1       1.800  -4.176  -0.707  0.00  0.00     0.003 A 
ENDROOT
BRANCH   1   7
ATOM      7  C1' I4B d   1       4.137  -4.090   0.204  0.00  0.00     0.060 C 
BRANCH   7   8
ATOM      8  C2' I4B d   1       4.319  -5.591   0.103  0.00  0.00    -0.013 C 
ATOM      9  C4' I4B d   1       4.722  -5.999  -1.290  0.00  0.00     0.013 C 
ATOM     10  C3' I4B d   1       5.355  -6.000   1.108  0.00  0.00     0.013 C 
ENDBRANCH   7   8
ENDBRANCH   1   7
TORSDOF 2
ENDMDL
