MODEL 1
REMARK minimizedAffinity 3.11110353
REMARK minimizedRMSD -1
REMARK  1 active torsions:
REMARK  status: ('A' for Active; 'I' for Inactive)
REMARK    1  A    between atoms: C1_2  and  C2_3 
ROOT
ATOM      1  C2  UNL d   1      -1.139   4.659   0.011  0.00  0.00    -0.076 A 
ATOM      2  C3  UNL d   1      -0.805   5.897  -0.564  0.00  0.00     0.004 A 
ATOM      3  C4  UNL d   1       0.223   6.000  -1.500  0.00  0.00    -0.003 A 
ATOM      4  C5  UNL d   1       0.934   4.865  -1.876  0.00  0.00     0.000 A 
ATOM      5  C6  UNL d   1       0.605   3.626  -1.328  0.00  0.00     0.000 A 
ATOM      6  C7  UNL d   1      -0.440   3.502  -0.396  0.00  0.00    -0.073 A 
ATOM      7  C8  UNL d   1      -0.748   2.142   0.167  0.00  0.00     0.078 C 
ENDROOT
BRANCH   1   8
ATOM      8  C1  UNL d   1      -2.245   4.613   1.041  0.00  0.00     0.053 C 
ATOM      9  C   UNL d   1      -2.696   6.000   1.473  0.00  0.00     0.018 C 
ENDBRANCH   1   8
TORSDOF 1
ENDMDL
