MODEL 1
REMARK minimizedAffinity -1.29384911
REMARK minimizedRMSD -1
REMARK  1 active torsions:
REMARK  status: ('A' for Active; 'I' for Inactive)
REMARK    1  A    between atoms: C1_2  and  C2_3 
ROOT
ATOM      1  C2  UNL d   1       4.160  -2.908  -2.130  0.00  0.00    -0.076 A 
ATOM      2  C3  UNL d   1       5.248  -2.938  -1.240  0.00  0.00     0.004 A 
ATOM      3  C4  UNL d   1       5.996  -4.101  -1.060  0.00  0.00    -0.003 A 
ATOM      4  C5  UNL d   1       5.667  -5.253  -1.766  0.00  0.00     0.000 A 
ATOM      5  C6  UNL d   1       4.602  -5.236  -2.666  0.00  0.00     0.000 A 
ATOM      6  C7  UNL d   1       3.848  -4.068  -2.872  0.00  0.00    -0.073 A 
ATOM      7  C8  UNL d   1       2.706  -4.108  -3.850  0.00  0.00     0.078 C 
ENDROOT
BRANCH   1   8
ATOM      8  C1  UNL d   1       3.369  -1.627  -2.264  0.00  0.00     0.053 C 
ATOM      9  C   UNL d   1       2.661  -1.241  -0.975  0.00  0.00     0.018 C 
ENDBRANCH   1   8
TORSDOF 1
ENDMDL
