MODEL 1
REMARK minimizedAffinity 3.75344086
REMARK minimizedRMSD -1
REMARK  1 active torsions:
REMARK  status: ('A' for Active; 'I' for Inactive)
REMARK    1  A    between atoms: C1_2  and  C2_3 
ROOT
ATOM      1  C2  UNL d   1       3.452  -4.169  -1.300  0.00  0.00    -0.076 A 
ATOM      2  C3  UNL d   1       3.081  -3.001  -1.988  0.00  0.00     0.004 A 
ATOM      3  C4  UNL d   1       3.787  -1.811  -1.815  0.00  0.00    -0.003 A 
ATOM      4  C5  UNL d   1       4.876  -1.771  -0.951  0.00  0.00     0.000 A 
ATOM      5  C6  UNL d   1       5.270  -2.926  -0.275  0.00  0.00     0.000 A 
ATOM      6  C7  UNL d   1       4.579  -4.137  -0.451  0.00  0.00    -0.073 A 
ATOM      7  C8  UNL d   1       5.043  -5.349   0.309  0.00  0.00     0.078 C 
ENDROOT
BRANCH   1   8
ATOM      8  C1  UNL d   1       2.632  -5.423  -1.507  0.00  0.00     0.053 C 
ATOM      9  C   UNL d   1       1.164  -5.221  -1.168  0.00  0.00     0.018 C 
ENDBRANCH   1   8
TORSDOF 1
ENDMDL
