MODEL 1
REMARK minimizedAffinity 4.36696339
REMARK minimizedRMSD -1
REMARK  1 active torsions:
REMARK  status: ('A' for Active; 'I' for Inactive)
REMARK    1  A    between atoms: C1_2  and  C2_3 
ROOT
ATOM      1  C2  UNL d   1       3.312  -4.750  -1.474  0.00  0.00    -0.076 A 
ATOM      2  C3  UNL d   1       3.422  -3.908  -0.353  0.00  0.00     0.004 A 
ATOM      3  C4  UNL d   1       4.218  -2.765  -0.390  0.00  0.00    -0.003 A 
ATOM      4  C5  UNL d   1       4.916  -2.443  -1.549  0.00  0.00     0.000 A 
ATOM      5  C6  UNL d   1       4.805  -3.257  -2.676  0.00  0.00     0.000 A 
ATOM      6  C7  UNL d   1       3.994  -4.405  -2.661  0.00  0.00    -0.073 A 
ATOM      7  C8  UNL d   1       3.915  -5.249  -3.903  0.00  0.00     0.078 C 
ENDROOT
BRANCH   1   8
ATOM      8  C1  UNL d   1       2.455  -5.991  -1.367  0.00  0.00     0.053 C 
ATOM      9  C   UNL d   1       1.102  -5.712  -0.730  0.00  0.00     0.018 C 
ENDBRANCH   1   8
TORSDOF 1
ENDMDL
