MODEL 1
REMARK minimizedAffinity 3.0545485
REMARK minimizedRMSD -1
REMARK  0 active torsions:
REMARK  status: ('A' for Active; 'I' for Inactive)
ROOT
ATOM      1  C   UNL d   1       3.639   0.689   0.777  0.00  0.00    -0.002 A 
ATOM      2  C1  UNL d   1       3.328   1.700   1.676  0.00  0.00     0.010 A 
ATOM      3  C2  UNL d   1       2.528   1.439   2.790  0.00  0.00     0.041 A 
ATOM      4  C3  UNL d   1       2.044   0.131   2.990  0.00  0.00    -0.075 A 
ATOM      5  S   UNL d   1       1.048  -0.422   4.284  0.00  0.00     0.015 SA
ATOM      6  C4  UNL d   1       1.013  -2.014   3.676  0.00  0.00     0.022 A 
ATOM      7  C5  UNL d   1       1.738  -2.138   2.514  0.00  0.00     0.026 A 
ATOM      8  C6  UNL d   1       2.344  -0.904   2.099  0.00  0.00    -0.082 A 
ATOM      9  C7  UNL d   1       3.156  -0.607   0.979  0.00  0.00     0.045 A 
ENDROOT
TORSDOF 0
ENDMDL
