MODEL 1
REMARK minimizedAffinity 12.7438173
REMARK minimizedRMSD -1
REMARK  0 active torsions:
REMARK  status: ('A' for Active; 'I' for Inactive)
ROOT
ATOM      1  C   UNL d   1      -1.733   0.078  -0.269  0.00  0.00    -0.002 A 
ATOM      2  C1  UNL d   1      -0.749  -0.824   0.108  0.00  0.00     0.010 A 
ATOM      3  C2  UNL d   1       0.546  -0.386   0.391  0.00  0.00     0.041 A 
ATOM      4  C3  UNL d   1       0.838   0.988   0.289  0.00  0.00    -0.075 A 
ATOM      5  S   UNL d   1       2.353   1.754   0.589  0.00  0.00     0.015 SA
ATOM      6  C4  UNL d   1       1.730   3.298   0.223  0.00  0.00     0.022 A 
ATOM      7  C5  UNL d   1       0.400   3.248  -0.121  0.00  0.00     0.026 A 
ATOM      8  C6  UNL d   1      -0.136   1.917  -0.088  0.00  0.00    -0.082 A 
ATOM      9  C7  UNL d   1      -1.440   1.441  -0.369  0.00  0.00     0.045 A 
ENDROOT
TORSDOF 0
ENDMDL
