MODEL 1
REMARK minimizedAffinity -0.240023807
REMARK minimizedRMSD -1
REMARK  0 active torsions:
REMARK  status: ('A' for Active; 'I' for Inactive)
ROOT
ATOM      1  C   UNL d   1       2.785  -5.983  -1.203  0.00  0.00    -0.002 A 
ATOM      2  C1  UNL d   1       4.114  -5.975  -1.603  0.00  0.00     0.010 A 
ATOM      3  C2  UNL d   1       4.447  -5.977  -2.959  0.00  0.00     0.041 A 
ATOM      4  C3  UNL d   1       3.412  -5.985  -3.915  0.00  0.00    -0.075 A 
ATOM      5  S   UNL d   1       3.582  -5.988  -5.631  0.00  0.00     0.015 SA
ATOM      6  C4  UNL d   1       1.895  -5.998  -5.873  0.00  0.00     0.022 A 
ATOM      7  C5  UNL d   1       1.204  -6.000  -4.684  0.00  0.00     0.026 A 
ATOM      8  C6  UNL d   1       2.067  -5.992  -3.536  0.00  0.00    -0.082 A 
ATOM      9  C7  UNL d   1       1.761  -5.990  -2.154  0.00  0.00     0.045 A 
ENDROOT
TORSDOF 0
ENDMDL
