MODEL 1
REMARK minimizedAffinity -1.59100366
REMARK minimizedRMSD -1
REMARK  0 active torsions:
REMARK  status: ('A' for Active; 'I' for Inactive)
ROOT
ATOM      1  C   UNL d   1       3.761  -5.980  -1.420  0.00  0.00    -0.002 A 
ATOM      2  C1  UNL d   1       5.052  -5.982  -1.928  0.00  0.00     0.010 A 
ATOM      3  C2  UNL d   1       5.272  -5.989  -3.307  0.00  0.00     0.041 A 
ATOM      4  C3  UNL d   1       4.162  -5.992  -4.174  0.00  0.00    -0.075 A 
ATOM      5  S   UNL d   1       4.190  -5.999  -5.898  0.00  0.00     0.015 SA
ATOM      6  C4  UNL d   1       2.488  -5.999  -6.000  0.00  0.00     0.022 A 
ATOM      7  C5  UNL d   1       1.897  -5.994  -4.759  0.00  0.00     0.026 A 
ATOM      8  C6  UNL d   1       2.852  -5.989  -3.686  0.00  0.00    -0.082 A 
ATOM      9  C7  UNL d   1       2.662  -5.984  -2.283  0.00  0.00     0.045 A 
ENDROOT
TORSDOF 0
ENDMDL
