MODEL 1
REMARK minimizedAffinity 6.50689554
REMARK minimizedRMSD -1
REMARK  0 active torsions:
REMARK  status: ('A' for Active; 'I' for Inactive)
ROOT
ATOM      1  C   UNL d   1       1.873  -0.969   1.851  0.00  0.00    -0.002 A 
ATOM      2  C1  UNL d   1       3.033  -0.434   1.308  0.00  0.00     0.010 A 
ATOM      3  C2  UNL d   1       4.282  -0.764   1.838  0.00  0.00     0.041 A 
ATOM      4  C3  UNL d   1       4.346  -1.649   2.932  0.00  0.00    -0.075 A 
ATOM      5  S   UNL d   1       5.765  -2.196   3.744  0.00  0.00     0.015 SA
ATOM      6  C4  UNL d   1       4.865  -3.152   4.830  0.00  0.00     0.022 A 
ATOM      7  C5  UNL d   1       3.514  -3.069   4.593  0.00  0.00     0.026 A 
ATOM      8  C6  UNL d   1       3.192  -2.201   3.495  0.00  0.00    -0.082 A 
ATOM      9  C7  UNL d   1       1.941  -1.847   2.936  0.00  0.00     0.045 A 
ENDROOT
TORSDOF 0
ENDMDL
