MODEL 1
REMARK minimizedAffinity 3.92030501
REMARK minimizedRMSD -1
REMARK  0 active torsions:
REMARK  status: ('A' for Active; 'I' for Inactive)
ROOT
ATOM      1  C   UNL d   1       2.105   0.817   3.322  0.00  0.00    -0.002 A 
ATOM      2  C1  UNL d   1       2.272   0.416   2.004  0.00  0.00     0.010 A 
ATOM      3  C2  UNL d   1       2.289  -0.939   1.670  0.00  0.00     0.041 A 
ATOM      4  C3  UNL d   1       2.132  -1.895   2.693  0.00  0.00    -0.075 A 
ATOM      5  S   UNL d   1       2.120  -3.611   2.520  0.00  0.00     0.015 SA
ATOM      6  C4  UNL d   1       1.891  -3.852   4.191  0.00  0.00     0.022 A 
ATOM      7  C5  UNL d   1       1.824  -2.664   4.880  0.00  0.00     0.026 A 
ATOM      8  C6  UNL d   1       1.961  -1.517   4.028  0.00  0.00    -0.082 A 
ATOM      9  C7  UNL d   1       1.949  -0.135   4.334  0.00  0.00     0.045 A 
ENDROOT
TORSDOF 0
ENDMDL
