MODEL 1
REMARK minimizedAffinity 15.0201769
REMARK minimizedRMSD -1
REMARK  0 active torsions:
REMARK  status: ('A' for Active; 'I' for Inactive)
ROOT
ATOM      1  C   UNL d   1       2.027  -4.844   4.397  0.00  0.00    -0.002 A 
ATOM      2  C1  UNL d   1       3.231  -4.277   4.790  0.00  0.00     0.010 A 
ATOM      3  C2  UNL d   1       3.618  -3.024   4.309  0.00  0.00     0.041 A 
ATOM      4  C3  UNL d   1       2.764  -2.344   3.418  0.00  0.00    -0.075 A 
ATOM      5  S   UNL d   1       3.029  -0.799   2.701  0.00  0.00     0.015 SA
ATOM      6  C4  UNL d   1       1.550  -0.854   1.856  0.00  0.00     0.022 A 
ATOM      7  C5  UNL d   1       0.858  -2.016   2.104  0.00  0.00     0.026 A 
ATOM      8  C6  UNL d   1       1.546  -2.893   3.009  0.00  0.00    -0.082 A 
ATOM      9  C7  UNL d   1       1.183  -4.165   3.514  0.00  0.00     0.045 A 
ENDROOT
TORSDOF 0
ENDMDL
