MODEL 1
REMARK minimizedAffinity -5.19716215
REMARK minimizedRMSD -1
REMARK  2 active torsions:
REMARK  status: ('A' for Active; 'I' for Inactive)
REMARK    1  A    between atoms: C2'_3  and  C1'_4 
REMARK    2  A    between atoms: C1'_4  and  C1_5 
ROOT
ATOM      1  C1  I4B d   1      -0.453  -0.913   0.384  0.00  0.00    -0.075 A 
ATOM      2  C2  I4B d   1       0.091  -1.903   1.163  0.00  0.00     0.003 A 
ATOM      3  C3  I4B d   1      -0.608  -2.384   2.297  0.00  0.00     0.002 A 
ATOM      4  C4  I4B d   1      -1.816  -1.814   2.642  0.00  0.00    -0.004 A 
ATOM      5  C5  I4B d   1      -2.377  -0.826   1.839  0.00  0.00     0.002 A 
ATOM      6  C6  I4B d   1      -1.698  -0.380   0.696  0.00  0.00     0.003 A 
ENDROOT
BRANCH   1   7
ATOM      7  C1' I4B d   1       0.327  -0.406  -0.787  0.00  0.00     0.060 C 
BRANCH   7   8
ATOM      8  C2' I4B d   1       0.229   1.106  -0.794  0.00  0.00    -0.013 C 
ATOM      9  C4' I4B d   1       1.003   1.709   0.349  0.00  0.00     0.013 C 
ATOM     10  C3' I4B d   1       0.743   1.597  -2.115  0.00  0.00     0.013 C 
ENDBRANCH   7   8
ENDBRANCH   1   7
TORSDOF 2
ENDMDL
