MODEL 1
REMARK minimizedAffinity -0.518517077
REMARK minimizedRMSD -1
REMARK  2 active torsions:
REMARK  status: ('A' for Active; 'I' for Inactive)
REMARK    1  A    between atoms: C2'_3  and  C1'_4 
REMARK    2  A    between atoms: C1'_4  and  C1_5 
ROOT
ATOM      1  C1  I4B d   1      -0.861  -2.078   1.463  0.00  0.00    -0.075 A 
ATOM      2  C2  I4B d   1      -1.964  -2.253   0.665  0.00  0.00     0.003 A 
ATOM      3  C3  I4B d   1      -2.102  -1.511  -0.533  0.00  0.00     0.002 A 
ATOM      4  C4  I4B d   1      -1.145  -0.574  -0.866  0.00  0.00    -0.004 A 
ATOM      5  C5  I4B d   1      -0.017  -0.415  -0.068  0.00  0.00     0.002 A 
ATOM      6  C6  I4B d   1       0.133  -1.180   1.097  0.00  0.00     0.003 A 
ENDROOT
BRANCH   1   7
ATOM      7  C1' I4B d   1      -0.763  -2.855   2.737  0.00  0.00     0.060 C 
BRANCH   7   8
ATOM      8  C2' I4B d   1       0.068  -2.047   3.713  0.00  0.00    -0.013 C 
ATOM      9  C4' I4B d   1      -0.722  -1.705   4.949  0.00  0.00     0.013 C 
ATOM     10  C3' I4B d   1       1.289  -2.848   4.056  0.00  0.00     0.013 C 
ENDBRANCH   7   8
ENDBRANCH   1   7
TORSDOF 2
ENDMDL
