MODEL 1
REMARK minimizedAffinity -4.43565702
REMARK minimizedRMSD -1
REMARK  2 active torsions:
REMARK  status: ('A' for Active; 'I' for Inactive)
REMARK    1  A    between atoms: C2'_3  and  C1'_4 
REMARK    2  A    between atoms: C1'_4  and  C1_5 
ROOT
ATOM      1  C1  I4B d   1       0.190  -0.048   0.226  0.00  0.00    -0.075 A 
ATOM      2  C2  I4B d   1      -1.150  -0.282   0.406  0.00  0.00     0.003 A 
ATOM      3  C3  I4B d   1      -1.599  -1.546   0.861  0.00  0.00     0.002 A 
ATOM      4  C4  I4B d   1      -0.683  -2.556   1.072  0.00  0.00    -0.004 A 
ATOM      5  C5  I4B d   1       0.678  -2.310   0.911  0.00  0.00     0.002 A 
ATOM      6  C6  I4B d   1       1.119  -1.045   0.497  0.00  0.00     0.003 A 
ENDROOT
BRANCH   1   7
ATOM      7  C1' I4B d   1       0.626   1.288  -0.287  0.00  0.00     0.060 C 
BRANCH   7   8
ATOM      8  C2' I4B d   1       0.465   1.285  -1.793  0.00  0.00    -0.013 C 
ATOM      9  C4' I4B d   1      -0.020   2.621  -2.292  0.00  0.00     0.013 C 
ATOM     10  C3' I4B d   1       1.789   0.929  -2.400  0.00  0.00     0.013 C 
ENDBRANCH   7   8
ENDBRANCH   1   7
TORSDOF 2
ENDMDL
