MODEL 1
REMARK minimizedAffinity -4.55194616
REMARK minimizedRMSD -1
REMARK  2 active torsions:
REMARK  status: ('A' for Active; 'I' for Inactive)
REMARK    1  A    between atoms: C2'_3  and  C1'_4 
REMARK    2  A    between atoms: C1'_4  and  C1_5 
ROOT
ATOM      1  C1  I4B d   1      -0.057   0.883  -0.560  0.00  0.00    -0.075 A 
ATOM      2  C2  I4B d   1      -1.083   1.548   0.064  0.00  0.00     0.003 A 
ATOM      3  C3  I4B d   1      -2.094   0.824   0.741  0.00  0.00     0.002 A 
ATOM      4  C4  I4B d   1      -2.067  -0.555   0.727  0.00  0.00    -0.004 A 
ATOM      5  C5  I4B d   1      -1.014  -1.227   0.113  0.00  0.00     0.002 A 
ATOM      6  C6  I4B d   1       0.005  -0.504  -0.524  0.00  0.00     0.003 A 
ENDROOT
BRANCH   1   7
ATOM      7  C1' I4B d   1       0.976   1.678  -1.295  0.00  0.00     0.060 C 
BRANCH   7   8
ATOM      8  C2' I4B d   1       0.522   1.817  -2.734  0.00  0.00    -0.013 C 
ATOM      9  C4' I4B d   1       0.005   3.204  -3.011  0.00  0.00     0.013 C 
ATOM     10  C3' I4B d   1       1.685   1.485  -3.620  0.00  0.00     0.013 C 
ENDBRANCH   7   8
ENDBRANCH   1   7
TORSDOF 2
ENDMDL
