MODEL 1
REMARK minimizedAffinity -5.01443148
REMARK minimizedRMSD -1
REMARK  2 active torsions:
REMARK  status: ('A' for Active; 'I' for Inactive)
REMARK    1  A    between atoms: C2'_3  and  C1'_4 
REMARK    2  A    between atoms: C1'_4  and  C1_5 
ROOT
ATOM      1  C1  I4B d   1      -0.025   0.215   0.349  0.00  0.00    -0.075 A 
ATOM      2  C2  I4B d   1       0.770  -0.903   0.358  0.00  0.00     0.003 A 
ATOM      3  C3  I4B d   1       0.241  -2.151   0.769  0.00  0.00     0.002 A 
ATOM      4  C4  I4B d   1      -1.065  -2.223   1.208  0.00  0.00    -0.004 A 
ATOM      5  C5  I4B d   1      -1.876  -1.093   1.177  0.00  0.00     0.002 A 
ATOM      6  C6  I4B d   1      -1.357   0.132   0.733  0.00  0.00     0.003 A 
ENDROOT
BRANCH   1   7
ATOM      7  C1' I4B d   1       0.575   1.523  -0.060  0.00  0.00     0.060 C 
BRANCH   7   8
ATOM      8  C2' I4B d   1       0.968   1.420  -1.520  0.00  0.00    -0.013 C 
ATOM      9  C4' I4B d   1      -0.158   1.858  -2.419  0.00  0.00     0.013 C 
ATOM     10  C3' I4B d   1       2.189   2.265  -1.731  0.00  0.00     0.013 C 
ENDBRANCH   7   8
ENDBRANCH   1   7
TORSDOF 2
ENDMDL
