MODEL 1
REMARK minimizedAffinity -2.14630222
REMARK minimizedRMSD -1
REMARK  2 active torsions:
REMARK  status: ('A' for Active; 'I' for Inactive)
REMARK    1  A    between atoms: C2'_3  and  C1'_4 
REMARK    2  A    between atoms: C1'_4  and  C1_5 
ROOT
ATOM      1  C1  I4B d   1      -0.011   0.659  -0.057  0.00  0.00    -0.075 A 
ATOM      2  C2  I4B d   1      -1.315   0.464   0.324  0.00  0.00     0.003 A 
ATOM      3  C3  I4B d   1      -1.743  -0.808   0.775  0.00  0.00     0.002 A 
ATOM      4  C4  I4B d   1      -0.852  -1.862   0.781  0.00  0.00    -0.004 A 
ATOM      5  C5  I4B d   1       0.475  -1.657   0.416  0.00  0.00     0.002 A 
ATOM      6  C6  I4B d   1       0.902  -0.386   0.006  0.00  0.00     0.003 A 
ENDROOT
BRANCH   1   7
ATOM      7  C1' I4B d   1       0.399   2.007  -0.559  0.00  0.00     0.060 C 
BRANCH   7   8
ATOM      8  C2' I4B d   1       0.589   1.908  -2.059  0.00  0.00    -0.013 C 
ATOM      9  C4' I4B d   1      -0.402   2.775  -2.792  0.00  0.00     0.013 C 
ATOM     10  C3' I4B d   1       1.998   2.310  -2.376  0.00  0.00     0.013 C 
ENDBRANCH   7   8
ENDBRANCH   1   7
TORSDOF 2
ENDMDL
