MODEL 1
REMARK minimizedAffinity -3.1275425
REMARK minimizedRMSD -1
REMARK  2 active torsions:
REMARK  status: ('A' for Active; 'I' for Inactive)
REMARK    1  A    between atoms: C2'_3  and  C1'_4 
REMARK    2  A    between atoms: C1'_4  and  C1_5 
ROOT
ATOM      1  C1  I4B d   1      -0.142   1.432  -0.027  0.00  0.00    -0.075 A 
ATOM      2  C2  I4B d   1       0.375   0.167  -0.155  0.00  0.00     0.003 A 
ATOM      3  C3  I4B d   1      -0.395  -0.959   0.223  0.00  0.00     0.002 A 
ATOM      4  C4  I4B d   1      -1.649  -0.773   0.769  0.00  0.00    -0.004 A 
ATOM      5  C5  I4B d   1      -2.181   0.509   0.876  0.00  0.00     0.002 A 
ATOM      6  C6  I4B d   1      -1.428   1.618   0.465  0.00  0.00     0.003 A 
ENDROOT
BRANCH   1   7
ATOM      7  C1' I4B d   1       0.711   2.601  -0.406  0.00  0.00     0.060 C 
BRANCH   7   8
ATOM      8  C2' I4B d   1       1.634   2.162  -1.524  0.00  0.00    -0.013 C 
ATOM      9  C4' I4B d   1       1.008   2.398  -2.873  0.00  0.00     0.013 C 
ATOM     10  C3' I4B d   1       2.922   2.919  -1.385  0.00  0.00     0.013 C 
ENDBRANCH   7   8
ENDBRANCH   1   7
TORSDOF 2
ENDMDL
