MODEL 1
REMARK minimizedAffinity -3.889503
REMARK minimizedRMSD -1
REMARK  2 active torsions:
REMARK  status: ('A' for Active; 'I' for Inactive)
REMARK    1  A    between atoms: C2'_3  and  C1'_4 
REMARK    2  A    between atoms: C1'_4  and  C1_5 
ROOT
ATOM      1  C1  I4B d   1      -0.307   0.431   0.086  0.00  0.00    -0.075 A 
ATOM      2  C2  I4B d   1       0.593  -0.604   0.054  0.00  0.00     0.003 A 
ATOM      3  C3  I4B d   1       0.230  -1.880   0.550  0.00  0.00     0.002 A 
ATOM      4  C4  I4B d   1      -1.017  -2.061   1.112  0.00  0.00    -0.004 A 
ATOM      5  C5  I4B d   1      -1.937  -1.016   1.123  0.00  0.00     0.002 A 
ATOM      6  C6  I4B d   1      -1.584   0.235   0.596  0.00  0.00     0.003 A 
ENDROOT
BRANCH   1   7
ATOM      7  C1' I4B d   1       0.121   1.774  -0.415  0.00  0.00     0.060 C 
BRANCH   7   8
ATOM      8  C2' I4B d   1       0.649   1.599  -1.825  0.00  0.00    -0.013 C 
ATOM      9  C4' I4B d   1      -0.283   2.212  -2.836  0.00  0.00     0.013 C 
ATOM     10  C3' I4B d   1       2.009   2.227  -1.891  0.00  0.00     0.013 C 
ENDBRANCH   7   8
ENDBRANCH   1   7
TORSDOF 2
ENDMDL
