MODEL 1
REMARK minimizedAffinity -2.5946908
REMARK minimizedRMSD -1
REMARK  2 active torsions:
REMARK  status: ('A' for Active; 'I' for Inactive)
REMARK    1  A    between atoms: C2'_3  and  C1'_4 
REMARK    2  A    between atoms: C1'_4  and  C1_5 
ROOT
ATOM      1  C1  I4B d   1       0.591   0.136  -0.018  0.00  0.00    -0.075 A 
ATOM      2  C2  I4B d   1      -0.541  -0.320   0.610  0.00  0.00     0.003 A 
ATOM      3  C3  I4B d   1      -0.604  -1.652   1.086  0.00  0.00     0.002 A 
ATOM      4  C4  I4B d   1       0.461  -2.503   0.869  0.00  0.00    -0.004 A 
ATOM      5  C5  I4B d   1       1.616  -2.032   0.253  0.00  0.00     0.002 A 
ATOM      6  C6  I4B d   1       1.687  -0.700  -0.183  0.00  0.00     0.003 A 
ENDROOT
BRANCH   1   7
ATOM      7  C1' I4B d   1       0.611   1.539  -0.537  0.00  0.00     0.060 C 
BRANCH   7   8
ATOM      8  C2' I4B d   1       1.042   1.493  -1.989  0.00  0.00    -0.013 C 
ATOM      9  C4' I4B d   1      -0.007   2.091  -2.889  0.00  0.00     0.013 C 
ATOM     10  C3' I4B d   1       2.342   2.230  -2.110  0.00  0.00     0.013 C 
ENDBRANCH   7   8
ENDBRANCH   1   7
TORSDOF 2
ENDMDL
