MODEL 1
REMARK minimizedAffinity -4.98789883
REMARK minimizedRMSD -1
REMARK  2 active torsions:
REMARK  status: ('A' for Active; 'I' for Inactive)
REMARK    1  A    between atoms: C2'_3  and  C1'_4 
REMARK    2  A    between atoms: C1'_4  and  C1_5 
ROOT
ATOM      1  C1  I4B d   1       0.327   0.007   0.389  0.00  0.00    -0.075 A 
ATOM      2  C2  I4B d   1      -0.835  -0.315   1.046  0.00  0.00     0.003 A 
ATOM      3  C3  I4B d   1      -1.063  -1.642   1.483  0.00  0.00     0.002 A 
ATOM      4  C4  I4B d   1      -0.132  -2.620   1.199  0.00  0.00    -0.004 A 
ATOM      5  C5  I4B d   1       1.055  -2.288   0.553  0.00  0.00     0.002 A 
ATOM      6  C6  I4B d   1       1.292  -0.964   0.156  0.00  0.00     0.003 A 
ENDROOT
BRANCH   1   7
ATOM      7  C1' I4B d   1       0.520   1.411  -0.088  0.00  0.00     0.060 C 
BRANCH   7   8
ATOM      8  C2' I4B d   1       1.135   1.354  -1.472  0.00  0.00    -0.013 C 
ATOM      9  C4' I4B d   1       0.183   1.881  -2.513  0.00  0.00     0.013 C 
ATOM     10  C3' I4B d   1       2.406   2.150  -1.447  0.00  0.00     0.013 C 
ENDBRANCH   7   8
ENDBRANCH   1   7
TORSDOF 2
ENDMDL
