MODEL 1
REMARK minimizedAffinity -3.31998968
REMARK minimizedRMSD -1
REMARK  2 active torsions:
REMARK  status: ('A' for Active; 'I' for Inactive)
REMARK    1  A    between atoms: C2'_3  and  C1'_4 
REMARK    2  A    between atoms: C1'_4  and  C1_5 
ROOT
ATOM      1  C1  I4B d   1      -0.311   1.041  -1.062  0.00  0.00    -0.075 A 
ATOM      2  C2  I4B d   1       0.958   1.564  -1.023  0.00  0.00     0.003 A 
ATOM      3  C3  I4B d   1       1.535   2.125  -2.188  0.00  0.00     0.002 A 
ATOM      4  C4  I4B d   1       0.831   2.099  -3.375  0.00  0.00    -0.004 A 
ATOM      5  C5  I4B d   1      -0.464   1.589  -3.408  0.00  0.00     0.002 A 
ATOM      6  C6  I4B d   1      -1.043   1.068  -2.242  0.00  0.00     0.003 A 
ENDROOT
BRANCH   1   7
ATOM      7  C1' I4B d   1      -0.876   0.426   0.178  0.00  0.00     0.060 C 
BRANCH   7   8
ATOM      8  C2' I4B d   1      -0.596  -1.062   0.131  0.00  0.00    -0.013 C 
ATOM      9  C4' I4B d   1       0.833  -1.361   0.501  0.00  0.00     0.013 C 
ATOM     10  C3' I4B d   1      -1.551  -1.743   1.065  0.00  0.00     0.013 C 
ENDBRANCH   7   8
ENDBRANCH   1   7
TORSDOF 2
ENDMDL
