MODEL 1
REMARK minimizedAffinity -4.74574661
REMARK minimizedRMSD -1
REMARK  2 active torsions:
REMARK  status: ('A' for Active; 'I' for Inactive)
REMARK    1  A    between atoms: C2'_3  and  C1'_4 
REMARK    2  A    between atoms: C1'_4  and  C1_5 
ROOT
ATOM      1  C1  I4B d   1      -0.100  -0.505   0.106  0.00  0.00    -0.075 A 
ATOM      2  C2  I4B d   1       1.219  -0.711   0.428  0.00  0.00     0.003 A 
ATOM      3  C3  I4B d   1       1.595  -1.831   1.208  0.00  0.00     0.002 A 
ATOM      4  C4  I4B d   1       0.622  -2.685   1.685  0.00  0.00    -0.004 A 
ATOM      5  C5  I4B d   1      -0.712  -2.488   1.338  0.00  0.00     0.002 A 
ATOM      6  C6  I4B d   1      -1.074  -1.398   0.533  0.00  0.00     0.003 A 
ENDROOT
BRANCH   1   7
ATOM      7  C1' I4B d   1      -0.466   0.706  -0.692  0.00  0.00     0.060 C 
BRANCH   7   8
ATOM      8  C2' I4B d   1       0.625   1.740  -0.499  0.00  0.00    -0.013 C 
ATOM      9  C4' I4B d   1       0.956   2.432  -1.795  0.00  0.00     0.013 C 
ATOM     10  C3' I4B d   1       0.156   2.721   0.534  0.00  0.00     0.013 C 
ENDBRANCH   7   8
ENDBRANCH   1   7
TORSDOF 2
ENDMDL
