MODEL 1
REMARK minimizedAffinity -2.89706826
REMARK minimizedRMSD -1
REMARK  0 active torsions:
REMARK  status: ('A' for Active; 'I' for Inactive)
ROOT
ATOM      1  C   UNL d   1      -1.216  -1.506  -5.984  0.00  0.00     0.172 C 
ATOM      2  N   UNL d   1      -0.279  -0.686  -5.253  0.00  0.00    -0.070 N 
ATOM      3  C1  UNL d   1       0.723  -1.148  -4.442  0.00  0.00    -0.004 A 
ATOM      4  C2  UNL d   1       1.392  -0.055  -3.933  0.00  0.00    -0.047 A 
ATOM      5  C3  UNL d   1       0.769   1.103  -4.455  0.00  0.00    -0.047 A 
ATOM      6  C4  UNL d   1      -0.262   0.684  -5.269  0.00  0.00    -0.004 A 
ENDROOT
TORSDOF 0
ENDMDL
