MODEL 1
REMARK minimizedAffinity -3.46438885
REMARK minimizedRMSD -1
REMARK  0 active torsions:
REMARK  status: ('A' for Active; 'I' for Inactive)
ROOT
ATOM      1  C   UNL d   1      -1.498  -0.960  -6.000  0.00  0.00     0.172 C 
ATOM      2  N   UNL d   1      -0.351  -0.602  -5.199  0.00  0.00    -0.070 N 
ATOM      3  C1  UNL d   1       0.719   0.140  -5.623  0.00  0.00    -0.004 A 
ATOM      4  C2  UNL d   1       1.595   0.260  -4.567  0.00  0.00    -0.047 A 
ATOM      5  C3  UNL d   1       1.033  -0.436  -3.470  0.00  0.00    -0.047 A 
ATOM      6  C4  UNL d   1      -0.171  -0.959  -3.889  0.00  0.00    -0.004 A 
ENDROOT
TORSDOF 0
ENDMDL
