MODEL 1
REMARK minimizedAffinity -2.66351056
REMARK minimizedRMSD -1
REMARK  0 active torsions:
REMARK  status: ('A' for Active; 'I' for Inactive)
ROOT
ATOM      1  C   UNL d   1      -0.751   0.844   2.440  0.00  0.00     0.172 C 
ATOM      2  N   UNL d   1      -0.582   0.358   1.091  0.00  0.00    -0.070 N 
ATOM      3  C1  UNL d   1       0.612   0.041   0.500  0.00  0.00    -0.004 A 
ATOM      4  C2  UNL d   1       0.348  -0.383  -0.784  0.00  0.00    -0.047 A 
ATOM      5  C3  UNL d   1      -1.053  -0.316  -0.973  0.00  0.00    -0.047 A 
ATOM      6  C4  UNL d   1      -1.604   0.146   0.204  0.00  0.00    -0.004 A 
ENDROOT
TORSDOF 0
ENDMDL
