MODEL 1
REMARK minimizedAffinity -2.75157046
REMARK minimizedRMSD -1
REMARK  0 active torsions:
REMARK  status: ('A' for Active; 'I' for Inactive)
ROOT
ATOM      1  C   UNL d   1       1.102  -0.936  -1.280  0.00  0.00     0.172 C 
ATOM      2  N   UNL d   1       0.937  -0.372  -2.599  0.00  0.00    -0.070 N 
ATOM      3  C1  UNL d   1       1.917   0.239  -3.335  0.00  0.00    -0.004 A 
ATOM      4  C2  UNL d   1       1.360   0.637  -4.531  0.00  0.00    -0.047 A 
ATOM      5  C3  UNL d   1      -0.002   0.254  -4.513  0.00  0.00    -0.047 A 
ATOM      6  C4  UNL d   1      -0.237  -0.369  -3.306  0.00  0.00    -0.004 A 
ENDROOT
TORSDOF 0
ENDMDL
