MODEL 1
REMARK minimizedAffinity -3.50524664
REMARK minimizedRMSD -1
REMARK  0 active torsions:
REMARK  status: ('A' for Active; 'I' for Inactive)
ROOT
ATOM      1  C   UNL d   1       0.239  -0.719  -1.151  0.00  0.00     0.172 C 
ATOM      2  N   UNL d   1      -0.460  -0.069  -0.067  0.00  0.00    -0.070 N 
ATOM      3  C1  UNL d   1       0.125   0.620   0.961  0.00  0.00    -0.004 A 
ATOM      4  C2  UNL d   1      -0.879   1.086   1.782  0.00  0.00    -0.047 A 
ATOM      5  C3  UNL d   1      -2.110   0.660   1.229  0.00  0.00    -0.047 A 
ATOM      6  C4  UNL d   1      -1.822  -0.053   0.085  0.00  0.00    -0.004 A 
ENDROOT
TORSDOF 0
ENDMDL
