MODEL 1
REMARK minimizedAffinity -2.49332356
REMARK minimizedRMSD -1
REMARK  0 active torsions:
REMARK  status: ('A' for Active; 'I' for Inactive)
ROOT
ATOM      1  C   UNL d   1      -1.462   0.766   2.582  0.00  0.00     0.172 C 
ATOM      2  N   UNL d   1      -0.855   0.194   1.403  0.00  0.00    -0.070 N 
ATOM      3  C1  UNL d   1       0.478  -0.069   1.238  0.00  0.00    -0.004 A 
ATOM      4  C2  UNL d   1       0.650  -0.609  -0.018  0.00  0.00    -0.047 A 
ATOM      5  C3  UNL d   1      -0.624  -0.671  -0.630  0.00  0.00    -0.047 A 
ATOM      6  C4  UNL d   1      -1.538  -0.168   0.271  0.00  0.00    -0.004 A 
ENDROOT
TORSDOF 0
ENDMDL
