MODEL 1
REMARK minimizedAffinity -0.79258281
REMARK minimizedRMSD -1
REMARK  0 active torsions:
REMARK  status: ('A' for Active; 'I' for Inactive)
ROOT
ATOM      1  C   UNL d   1       1.338  -1.069  -0.765  0.00  0.00     0.172 C 
ATOM      2  N   UNL d   1       1.158  -0.614  -2.124  0.00  0.00    -0.070 N 
ATOM      3  C1  UNL d   1       0.274  -1.136  -3.030  0.00  0.00    -0.004 A 
ATOM      4  C2  UNL d   1       0.407  -0.429  -4.206  0.00  0.00    -0.047 A 
ATOM      5  C3  UNL d   1       1.406   0.553  -3.998  0.00  0.00    -0.047 A 
ATOM      6  C4  UNL d   1       1.853   0.416  -2.701  0.00  0.00    -0.004 A 
ENDROOT
TORSDOF 0
ENDMDL
