MODEL 1
REMARK minimizedAffinity -2.48262787
REMARK minimizedRMSD -1
REMARK  0 active torsions:
REMARK  status: ('A' for Active; 'I' for Inactive)
ROOT
ATOM      1  C   UNL d   1       1.158   0.765  -3.694  0.00  0.00     0.172 C 
ATOM      2  N   UNL d   1       0.775   0.156  -2.442  0.00  0.00    -0.070 N 
ATOM      3  C1  UNL d   1       0.684   0.799  -1.237  0.00  0.00    -0.004 A 
ATOM      4  C2  UNL d   1       0.290  -0.125  -0.294  0.00  0.00    -0.047 A 
ATOM      5  C3  UNL d   1       0.140  -1.367  -0.955  0.00  0.00    -0.047 A 
ATOM      6  C4  UNL d   1       0.447  -1.164  -2.284  0.00  0.00    -0.004 A 
ENDROOT
TORSDOF 0
ENDMDL
