MODEL 1
REMARK minimizedAffinity -1.16321874
REMARK minimizedRMSD -1
REMARK  0 active torsions:
REMARK  status: ('A' for Active; 'I' for Inactive)
ROOT
ATOM      1  C   UNL d   1      -1.442   0.547   1.514  0.00  0.00     0.172 C 
ATOM      2  N   UNL d   1      -0.195   0.181   2.143  0.00  0.00    -0.070 N 
ATOM      3  C1  UNL d   1       0.008   0.039   3.490  0.00  0.00    -0.004 A 
ATOM      4  C2  UNL d   1       1.326  -0.316   3.683  0.00  0.00    -0.047 A 
ATOM      5  C3  UNL d   1       1.936  -0.388   2.409  0.00  0.00    -0.047 A 
ATOM      6  C4  UNL d   1       0.972  -0.076   1.473  0.00  0.00    -0.004 A 
ENDROOT
TORSDOF 0
ENDMDL
