MODEL 1
REMARK minimizedAffinity -3.55730224
REMARK minimizedRMSD -1
REMARK  0 active torsions:
REMARK  status: ('A' for Active; 'I' for Inactive)
ROOT
ATOM      1  C   UNL d   1      -0.749   0.403   1.631  0.00  0.00     0.172 C 
ATOM      2  N   UNL d   1       0.212  -0.290   0.806  0.00  0.00    -0.070 N 
ATOM      3  C1  UNL d   1       0.004  -0.711  -0.480  0.00  0.00    -0.004 A 
ATOM      4  C2  UNL d   1       1.158  -1.325  -0.915  0.00  0.00    -0.047 A 
ATOM      5  C3  UNL d   1       2.092  -1.272   0.146  0.00  0.00    -0.047 A 
ATOM      6  C4  UNL d   1       1.481  -0.626   1.200  0.00  0.00    -0.004 A 
ENDROOT
TORSDOF 0
ENDMDL
