MODEL 1
REMARK minimizedAffinity -1.93207133
REMARK minimizedRMSD -1
REMARK  0 active torsions:
REMARK  status: ('A' for Active; 'I' for Inactive)
ROOT
ATOM      1  C   UNL d   1      -0.212  -0.304  -1.584  0.00  0.00     0.172 C 
ATOM      2  N   UNL d   1      -0.873   0.062  -0.353  0.00  0.00    -0.070 N 
ATOM      3  C1  UNL d   1      -1.969   0.877  -0.248  0.00  0.00    -0.004 A 
ATOM      4  C2  UNL d   1      -2.293   0.977   1.088  0.00  0.00    -0.047 A 
ATOM      5  C3  UNL d   1      -1.359   0.197   1.810  0.00  0.00    -0.047 A 
ATOM      6  C4  UNL d   1      -0.492  -0.358   0.894  0.00  0.00    -0.004 A 
ENDROOT
TORSDOF 0
ENDMDL
