MODEL 1
REMARK minimizedAffinity -0.70205915
REMARK minimizedRMSD -1
REMARK  0 active torsions:
REMARK  status: ('A' for Active; 'I' for Inactive)
ROOT
ATOM      1  O1  BZF d   1      -0.531   0.992  -2.461  0.00  0.00    -0.204 OA
ATOM      2  C2  BZF d   1       0.259   0.392  -3.423  0.00  0.00     0.174 A 
ATOM      3  C3  BZF d   1       1.166  -0.428  -2.854  0.00  0.00    -0.012 A 
ATOM      4  C3A BZF d   1       0.867  -0.406  -1.455  0.00  0.00    -0.107 A 
ATOM      5  C4  BZF d   1       1.409  -1.032  -0.369  0.00  0.00     0.055 A 
ATOM      6  C5  BZF d   1       0.933  -0.738   0.869  0.00  0.00    -0.016 A 
ATOM      7  C6  BZF d   1      -0.080   0.179   1.059  0.00  0.00     0.022 A 
ATOM      8  C7  BZF d   1      -0.652   0.822   0.012  0.00  0.00     0.029 A 
ATOM      9  C7A BZF d   1      -0.196   0.503  -1.243  0.00  0.00     0.058 A 
ENDROOT
TORSDOF 0
ENDMDL
