MODEL 1
REMARK minimizedAffinity -0.704986334
REMARK minimizedRMSD -1
REMARK  0 active torsions:
REMARK  status: ('A' for Active; 'I' for Inactive)
ROOT
ATOM      1  O1  BZF d   1       0.135   1.229  -2.554  0.00  0.00    -0.204 OA
ATOM      2  C2  BZF d   1       0.365   0.170  -3.411  0.00  0.00     0.174 A 
ATOM      3  C3  BZF d   1       0.810  -0.907  -2.731  0.00  0.00    -0.012 A 
ATOM      4  C3A BZF d   1       0.773  -0.525  -1.353  0.00  0.00    -0.107 A 
ATOM      5  C4  BZF d   1       1.080  -1.171  -0.190  0.00  0.00     0.055 A 
ATOM      6  C5  BZF d   1       1.004  -0.492   0.984  0.00  0.00    -0.016 A 
ATOM      7  C6  BZF d   1       0.630   0.835   1.032  0.00  0.00     0.022 A 
ATOM      8  C7  BZF d   1       0.311   1.518  -0.095  0.00  0.00     0.029 A 
ATOM      9  C7A BZF d   1       0.355   0.824  -1.280  0.00  0.00     0.058 A 
ENDROOT
TORSDOF 0
ENDMDL
