MODEL 1
REMARK minimizedAffinity -4.40251732
REMARK minimizedRMSD -1
REMARK  0 active torsions:
REMARK  status: ('A' for Active; 'I' for Inactive)
ROOT
ATOM      1  O1  BZF d   1      -1.138   0.380  -1.081  0.00  0.00    -0.204 OA
ATOM      2  C2  BZF d   1       0.014   0.135  -1.804  0.00  0.00     0.174 A 
ATOM      3  C3  BZF d   1       1.095   0.138  -0.998  0.00  0.00    -0.012 A 
ATOM      4  C3A BZF d   1       0.577   0.311   0.325  0.00  0.00    -0.107 A 
ATOM      5  C4  BZF d   1       1.158   0.380   1.559  0.00  0.00     0.055 A 
ATOM      6  C5  BZF d   1       0.378   0.627   2.643  0.00  0.00    -0.016 A 
ATOM      7  C6  BZF d   1      -0.984   0.816   2.530  0.00  0.00     0.022 A 
ATOM      8  C7  BZF d   1      -1.606   0.752   1.328  0.00  0.00     0.029 A 
ATOM      9  C7A BZF d   1      -0.825   0.470   0.234  0.00  0.00     0.058 A 
ENDROOT
TORSDOF 0
ENDMDL
