MODEL 1
REMARK minimizedAffinity -6.03883934
REMARK minimizedRMSD -1
REMARK  0 active torsions:
REMARK  status: ('A' for Active; 'I' for Inactive)
ROOT
ATOM      1  O1  BZF d   1       0.325  -0.947  -0.255  0.00  0.00    -0.204 OA
ATOM      2  C2  BZF d   1       1.563  -1.160   0.321  0.00  0.00     0.174 A 
ATOM      3  C3  BZF d   1       1.668  -0.494   1.488  0.00  0.00    -0.012 A 
ATOM      4  C3A BZF d   1       0.385   0.103   1.698  0.00  0.00    -0.107 A 
ATOM      5  C4  BZF d   1      -0.139   0.878   2.693  0.00  0.00     0.055 A 
ATOM      6  C5  BZF d   1      -1.403   1.359   2.560  0.00  0.00    -0.016 A 
ATOM      7  C6  BZF d   1      -2.169   1.089   1.445  0.00  0.00     0.022 A 
ATOM      8  C7  BZF d   1      -1.694   0.321   0.434  0.00  0.00     0.029 A 
ATOM      9  C7A BZF d   1      -0.429  -0.193   0.580  0.00  0.00     0.058 A 
ENDROOT
TORSDOF 0
ENDMDL
