MODEL 1
REMARK minimizedAffinity -4.96171951
REMARK minimizedRMSD -1
REMARK  0 active torsions:
REMARK  status: ('A' for Active; 'I' for Inactive)
ROOT
ATOM      1  O1  BZF d   1       0.943   1.100  -0.217  0.00  0.00    -0.204 OA
ATOM      2  C2  BZF d   1       0.405   0.218  -1.134  0.00  0.00     0.174 A 
ATOM      3  C3  BZF d   1      -0.648  -0.439  -0.606  0.00  0.00    -0.012 A 
ATOM      4  C3A BZF d   1      -0.833   0.130   0.694  0.00  0.00    -0.107 A 
ATOM      5  C4  BZF d   1      -1.731  -0.095   1.698  0.00  0.00     0.055 A 
ATOM      6  C5  BZF d   1      -1.593   0.579   2.870  0.00  0.00    -0.016 A 
ATOM      7  C6  BZF d   1      -0.568   1.480   3.074  0.00  0.00     0.022 A 
ATOM      8  C7  BZF d   1       0.344   1.739   2.105  0.00  0.00     0.029 A 
ATOM      9  C7A BZF d   1       0.188   1.084   0.908  0.00  0.00     0.058 A 
ENDROOT
TORSDOF 0
ENDMDL
