MODEL 1
REMARK minimizedAffinity 5.80280638
REMARK minimizedRMSD -1
REMARK  0 active torsions:
REMARK  status: ('A' for Active; 'I' for Inactive)
ROOT
ATOM      1  C2' OXE d   1      -3.100   3.019  -2.091  0.00  0.00     0.078 C 
ATOM      2  C1' OXE d   1      -1.861   4.537  -4.101  0.00  0.00     0.078 C 
ATOM      3  C1  OXE d   1      -3.319   4.196  -4.276  0.00  0.00    -0.078 A 
ATOM      4  C2  OXE d   1      -3.905   3.413  -3.310  0.00  0.00    -0.078 A 
ATOM      5  C3  OXE d   1      -5.262   3.115  -3.394  0.00  0.00     0.003 A 
ATOM      6  C4  OXE d   1      -5.998   3.475  -4.530  0.00  0.00    -0.002 A 
ATOM      7  C5  OXE d   1      -5.410   4.238  -5.544  0.00  0.00    -0.002 A 
ATOM      8  C6  OXE d   1      -4.086   4.642  -5.412  0.00  0.00     0.003 A 
ENDROOT
TORSDOF 0
ENDMDL
