MODEL 1
REMARK minimizedAffinity 3.43476677
REMARK minimizedRMSD -1
REMARK  0 active torsions:
REMARK  status: ('A' for Active; 'I' for Inactive)
ROOT
ATOM      1  C2' OXE d   1       0.241   2.857  -0.088  0.00  0.00     0.078 C 
ATOM      2  C1' OXE d   1       0.338   3.541   2.633  0.00  0.00     0.078 C 
ATOM      3  C1  OXE d   1       0.402   2.078   2.273  0.00  0.00    -0.078 A 
ATOM      4  C2  OXE d   1       0.307   1.750   0.942  0.00  0.00    -0.078 A 
ATOM      5  C3  OXE d   1       0.415   0.418   0.551  0.00  0.00     0.003 A 
ATOM      6  C4  OXE d   1       0.466  -0.600   1.510  0.00  0.00    -0.002 A 
ATOM      7  C5  OXE d   1       0.524  -0.290   2.873  0.00  0.00    -0.002 A 
ATOM      8  C6  OXE d   1       0.536   1.043   3.268  0.00  0.00     0.003 A 
ENDROOT
TORSDOF 0
ENDMDL
