MODEL 1
REMARK minimizedAffinity 0.474474281
REMARK minimizedRMSD -1
REMARK  0 active torsions:
REMARK  status: ('A' for Active; 'I' for Inactive)
ROOT
ATOM      1  C2' OXE d   1       0.508  -0.725   3.157  0.00  0.00     0.078 C 
ATOM      2  C1' OXE d   1       1.411  -1.005   0.514  0.00  0.00     0.078 C 
ATOM      3  C1  OXE d   1       0.837   0.328   0.923  0.00  0.00    -0.078 A 
ATOM      4  C2  OXE d   1       0.354   0.442   2.205  0.00  0.00    -0.078 A 
ATOM      5  C3  OXE d   1      -0.136   1.666   2.651  0.00  0.00     0.003 A 
ATOM      6  C4  OXE d   1      -0.284   2.737   1.761  0.00  0.00    -0.002 A 
ATOM      7  C5  OXE d   1       0.165   2.630   0.440  0.00  0.00    -0.002 A 
ATOM      8  C6  OXE d   1       0.765   1.448   0.018  0.00  0.00     0.003 A 
ENDROOT
TORSDOF 0
ENDMDL
