MODEL 1
REMARK minimizedAffinity 0.405915141
REMARK minimizedRMSD -1
REMARK  0 active torsions:
REMARK  status: ('A' for Active; 'I' for Inactive)
ROOT
ATOM      1  C2' OXE d   1       2.102  -2.301   4.197  0.00  0.00     0.078 C 
ATOM      2  C1' OXE d   1      -0.512  -1.341   4.553  0.00  0.00     0.078 C 
ATOM      3  C1  OXE d   1       0.229  -0.920   3.309  0.00  0.00    -0.078 A 
ATOM      4  C2  OXE d   1       1.524  -1.357   3.165  0.00  0.00    -0.078 A 
ATOM      5  C3  OXE d   1       2.233  -1.043   2.010  0.00  0.00     0.003 A 
ATOM      6  C4  OXE d   1       1.695  -0.160   1.065  0.00  0.00    -0.002 A 
ATOM      7  C5  OXE d   1       0.392   0.328   1.211  0.00  0.00    -0.002 A 
ATOM      8  C6  OXE d   1      -0.368  -0.075   2.303  0.00  0.00     0.003 A 
ENDROOT
TORSDOF 0
ENDMDL
