MODEL 1
REMARK minimizedAffinity 3.35168171
REMARK minimizedRMSD -1
REMARK  0 active torsions:
REMARK  status: ('A' for Active; 'I' for Inactive)
ROOT
ATOM      1  C2' OXE d   1       1.692   3.326   3.651  0.00  0.00     0.078 C 
ATOM      2  C1' OXE d   1       1.390   4.515   1.126  0.00  0.00     0.078 C 
ATOM      3  C1  OXE d   1       1.142   3.031   1.239  0.00  0.00    -0.078 A 
ATOM      4  C2  OXE d   1       1.338   2.450   2.469  0.00  0.00    -0.078 A 
ATOM      5  C3  OXE d   1       1.070   1.095   2.641  0.00  0.00     0.003 A 
ATOM      6  C4  OXE d   1       0.753   0.289   1.540  0.00  0.00    -0.002 A 
ATOM      7  C5  OXE d   1       0.588   0.855   0.271  0.00  0.00    -0.002 A 
ATOM      8  C6  OXE d   1       0.737   2.228   0.112  0.00  0.00     0.003 A 
ENDROOT
TORSDOF 0
ENDMDL
