MODEL 1
REMARK minimizedAffinity 1.98683381
REMARK minimizedRMSD -1
REMARK  0 active torsions:
REMARK  status: ('A' for Active; 'I' for Inactive)
ROOT
ATOM      1  C2' OXE d   1      -5.392   2.107  -4.125  0.00  0.00     0.078 C 
ATOM      2  C1' OXE d   1      -5.999   4.110  -5.996  0.00  0.00     0.078 C 
ATOM      3  C1  OXE d   1      -4.573   4.006  -5.514  0.00  0.00    -0.078 A 
ATOM      4  C2  OXE d   1      -4.295   3.053  -4.564  0.00  0.00    -0.078 A 
ATOM      5  C3  OXE d   1      -2.985   2.879  -4.126  0.00  0.00     0.003 A 
ATOM      6  C4  OXE d   1      -1.979   3.765  -4.529  0.00  0.00    -0.002 A 
ATOM      7  C5  OXE d   1      -2.250   4.768  -5.466  0.00  0.00    -0.002 A 
ATOM      8  C6  OXE d   1      -3.529   4.875  -6.000  0.00  0.00     0.003 A 
ENDROOT
TORSDOF 0
ENDMDL
