MODEL 1
REMARK minimizedAffinity 2.3655901
REMARK minimizedRMSD -1
REMARK  0 active torsions:
REMARK  status: ('A' for Active; 'I' for Inactive)
ROOT
ATOM      1  C2' OXE d   1      -2.277   4.489  -4.872  0.00  0.00     0.078 C 
ATOM      2  C1' OXE d   1      -2.700   2.254  -3.228  0.00  0.00     0.078 C 
ATOM      3  C1  OXE d   1      -3.789   2.627  -4.202  0.00  0.00    -0.078 A 
ATOM      4  C2  OXE d   1      -3.594   3.750  -4.970  0.00  0.00    -0.078 A 
ATOM      5  C3  OXE d   1      -4.543   4.107  -5.923  0.00  0.00     0.003 A 
ATOM      6  C4  OXE d   1      -5.763   3.424  -5.999  0.00  0.00    -0.002 A 
ATOM      7  C5  OXE d   1      -5.999   2.301  -5.199  0.00  0.00    -0.002 A 
ATOM      8  C6  OXE d   1      -5.007   1.865  -4.327  0.00  0.00     0.003 A 
ENDROOT
TORSDOF 0
ENDMDL
