MODEL 1
REMARK minimizedAffinity 2.32223487
REMARK minimizedRMSD -1
REMARK  0 active torsions:
REMARK  status: ('A' for Active; 'I' for Inactive)
ROOT
ATOM      1  C2' OXE d   1      -4.730   2.540  -1.760  0.00  0.00     0.078 C 
ATOM      2  C1' OXE d   1      -5.998   0.322  -2.924  0.00  0.00     0.078 C 
ATOM      3  C1  OXE d   1      -5.640   1.479  -3.822  0.00  0.00    -0.078 A 
ATOM      4  C2  OXE d   1      -5.063   2.580  -3.236  0.00  0.00    -0.078 A 
ATOM      5  C3  OXE d   1      -4.664   3.653  -4.027  0.00  0.00     0.003 A 
ATOM      6  C4  OXE d   1      -4.984   3.687  -5.390  0.00  0.00    -0.002 A 
ATOM      7  C5  OXE d   1      -5.608   2.593  -6.000  0.00  0.00    -0.002 A 
ATOM      8  C6  OXE d   1      -5.904   1.466  -5.240  0.00  0.00     0.003 A 
ENDROOT
TORSDOF 0
ENDMDL
