MODEL 1
REMARK minimizedAffinity 2.33949685
REMARK minimizedRMSD -1
REMARK  0 active torsions:
REMARK  status: ('A' for Active; 'I' for Inactive)
ROOT
ATOM      1  C2' OXE d   1      -6.000   3.681  -5.981  0.00  0.00     0.078 C 
ATOM      2  C1' OXE d   1      -5.889   2.590  -3.397  0.00  0.00     0.078 C 
ATOM      3  C1  OXE d   1      -4.598   3.067  -4.016  0.00  0.00    -0.078 A 
ATOM      4  C2  OXE d   1      -4.655   3.556  -5.299  0.00  0.00    -0.078 A 
ATOM      5  C3  OXE d   1      -3.503   4.059  -5.896  0.00  0.00     0.003 A 
ATOM      6  C4  OXE d   1      -2.261   3.931  -5.261  0.00  0.00    -0.002 A 
ATOM      7  C5  OXE d   1      -2.176   3.399  -3.970  0.00  0.00    -0.002 A 
ATOM      8  C6  OXE d   1      -3.338   3.002  -3.318  0.00  0.00     0.003 A 
ENDROOT
TORSDOF 0
ENDMDL
