MODEL 1
REMARK minimizedAffinity 2.06186914
REMARK minimizedRMSD -1
REMARK  0 active torsions:
REMARK  status: ('A' for Active; 'I' for Inactive)
ROOT
ATOM      1  C2' OXE d   1      -2.372   3.562  -3.887  0.00  0.00     0.078 C 
ATOM      2  C1' OXE d   1      -3.722   4.825  -6.000  0.00  0.00     0.078 C 
ATOM      3  C1  OXE d   1      -4.292   3.531  -5.474  0.00  0.00    -0.078 A 
ATOM      4  C2  OXE d   1      -3.599   2.896  -4.471  0.00  0.00    -0.078 A 
ATOM      5  C3  OXE d   1      -4.111   1.728  -3.912  0.00  0.00     0.003 A 
ATOM      6  C4  OXE d   1      -5.241   1.114  -4.465  0.00  0.00    -0.002 A 
ATOM      7  C5  OXE d   1      -5.939   1.723  -5.513  0.00  0.00    -0.002 A 
ATOM      8  C6  OXE d   1      -5.503   2.951  -6.000  0.00  0.00     0.003 A 
ENDROOT
TORSDOF 0
ENDMDL
