MODEL 1
REMARK minimizedAffinity -0.598831654
REMARK minimizedRMSD -1
REMARK  0 active torsions:
REMARK  status: ('A' for Active; 'I' for Inactive)
ROOT
ATOM      1  C2' OXE d   1      -5.613   2.205  -3.728  0.00  0.00     0.078 C 
ATOM      2  C1' OXE d   1      -6.000   3.811  -5.997  0.00  0.00     0.078 C 
ATOM      3  C1  OXE d   1      -4.629   3.802  -5.368  0.00  0.00    -0.078 A 
ATOM      4  C2  OXE d   1      -4.461   3.049  -4.230  0.00  0.00    -0.078 A 
ATOM      5  C3  OXE d   1      -3.203   2.962  -3.641  0.00  0.00     0.003 A 
ATOM      6  C4  OXE d   1      -2.147   3.754  -4.106  0.00  0.00    -0.002 A 
ATOM      7  C5  OXE d   1      -2.307   4.558  -5.239  0.00  0.00    -0.002 A 
ATOM      8  C6  OXE d   1      -3.527   4.560  -5.906  0.00  0.00     0.003 A 
ENDROOT
TORSDOF 0
ENDMDL
