MODEL 1
REMARK minimizedAffinity 7.38549614
REMARK minimizedRMSD -1
REMARK  0 active torsions:
REMARK  status: ('A' for Active; 'I' for Inactive)
ROOT
ATOM      1  C2' OXE d   1       0.679   0.498   2.908  0.00  0.00     0.078 C 
ATOM      2  C1' OXE d   1       1.542   2.888   4.100  0.00  0.00     0.078 C 
ATOM      3  C1  OXE d   1       1.124   2.935   2.652  0.00  0.00    -0.078 A 
ATOM      4  C2  OXE d   1       0.747   1.752   2.064  0.00  0.00    -0.078 A 
ATOM      5  C3  OXE d   1       0.299   1.749   0.746  0.00  0.00     0.003 A 
ATOM      6  C4  OXE d   1       0.375   2.911  -0.031  0.00  0.00    -0.002 A 
ATOM      7  C5  OXE d   1       0.794   4.119   0.537  0.00  0.00    -0.002 A 
ATOM      8  C6  OXE d   1       1.130   4.157   1.886  0.00  0.00     0.003 A 
ENDROOT
TORSDOF 0
ENDMDL
