MODEL 1
REMARK minimizedAffinity 2.5334394
REMARK minimizedRMSD -1
REMARK  0 active torsions:
REMARK  status: ('A' for Active; 'I' for Inactive)
ROOT
ATOM      1  C2' OXE d   1      -0.461   2.040  -0.524  0.00  0.00     0.078 C 
ATOM      2  C1' OXE d   1       0.096   3.087   2.020  0.00  0.00     0.078 C 
ATOM      3  C1  OXE d   1       0.296   1.607   1.809  0.00  0.00    -0.078 A 
ATOM      4  C2  OXE d   1      -0.024   1.095   0.574  0.00  0.00    -0.078 A 
ATOM      5  C3  OXE d   1       0.192  -0.254   0.309  0.00  0.00     0.003 A 
ATOM      6  C4  OXE d   1       0.587  -1.123   1.334  0.00  0.00    -0.002 A 
ATOM      7  C5  OXE d   1       0.880  -0.629   2.610  0.00  0.00    -0.002 A 
ATOM      8  C6  OXE d   1       0.781   0.736   2.852  0.00  0.00     0.003 A 
ENDROOT
TORSDOF 0
ENDMDL
