MODEL 1
REMARK minimizedAffinity 8.13559055
REMARK minimizedRMSD -1
REMARK  0 active torsions:
REMARK  status: ('A' for Active; 'I' for Inactive)
ROOT
ATOM      1  C2' OXE d   1      -3.431   3.982  -3.920  0.00  0.00     0.078 C 
ATOM      2  C1' OXE d   1      -5.266   4.412  -5.999  0.00  0.00     0.078 C 
ATOM      3  C1  OXE d   1      -5.171   3.022  -5.422  0.00  0.00    -0.078 A 
ATOM      4  C2  OXE d   1      -4.237   2.810  -4.436  0.00  0.00    -0.078 A 
ATOM      5  C3  OXE d   1      -4.145   1.560  -3.831  0.00  0.00     0.003 A 
ATOM      6  C4  OXE d   1      -4.888   0.479  -4.321  0.00  0.00    -0.002 A 
ATOM      7  C5  OXE d   1      -5.816   0.664  -5.351  0.00  0.00    -0.002 A 
ATOM      8  C6  OXE d   1      -6.000   1.936  -5.882  0.00  0.00     0.003 A 
ENDROOT
TORSDOF 0
ENDMDL
