MODEL 1
REMARK minimizedAffinity 3.63330746
REMARK minimizedRMSD -1
REMARK  0 active torsions:
REMARK  status: ('A' for Active; 'I' for Inactive)
ROOT
ATOM      1  C2' OXE d   1      -4.870   5.542  -5.998  0.00  0.00     0.078 C 
ATOM      2  C1' OXE d   1      -2.895   4.991  -4.081  0.00  0.00     0.078 C 
ATOM      3  C1  OXE d   1      -3.770   3.850  -4.537  0.00  0.00    -0.078 A 
ATOM      4  C2  OXE d   1      -4.764   4.139  -5.441  0.00  0.00    -0.078 A 
ATOM      5  C3  OXE d   1      -5.564   3.113  -5.936  0.00  0.00     0.003 A 
ATOM      6  C4  OXE d   1      -5.467   1.820  -5.407  0.00  0.00    -0.002 A 
ATOM      7  C5  OXE d   1      -4.487   1.514  -4.457  0.00  0.00    -0.002 A 
ATOM      8  C6  OXE d   1      -3.605   2.506  -4.043  0.00  0.00     0.003 A 
ENDROOT
TORSDOF 0
ENDMDL
