MODEL 1
REMARK minimizedAffinity -0.747227848
REMARK minimizedRMSD -1
REMARK  0 active torsions:
REMARK  status: ('A' for Active; 'I' for Inactive)
ROOT
ATOM      1  C2' OXE d   1      -2.082   3.023  -3.903  0.00  0.00     0.078 C 
ATOM      2  C1' OXE d   1      -2.305   4.876  -5.999  0.00  0.00     0.078 C 
ATOM      3  C1  OXE d   1      -3.573   4.248  -5.478  0.00  0.00    -0.078 A 
ATOM      4  C2  OXE d   1      -3.450   3.307  -4.484  0.00  0.00    -0.078 A 
ATOM      5  C3  OXE d   1      -4.593   2.737  -3.929  0.00  0.00     0.003 A 
ATOM      6  C4  OXE d   1      -5.854   2.997  -4.479  0.00  0.00    -0.002 A 
ATOM      7  C5  OXE d   1      -5.997   3.922  -5.519  0.00  0.00    -0.002 A 
ATOM      8  C6  OXE d   1      -4.874   4.586  -6.000  0.00  0.00     0.003 A 
ENDROOT
TORSDOF 0
ENDMDL
