MODEL 1
REMARK minimizedAffinity -4.68745422
REMARK minimizedRMSD -1
REMARK  2 active torsions:
REMARK  status: ('A' for Active; 'I' for Inactive)
REMARK    1  A    between atoms: C1_2  and  C2_3 
REMARK    2  A    between atoms: C2_3  and  C3_4 
ROOT
ATOM      1  C3  UNL d   1       0.747  -0.676   0.259  0.00  0.00    -0.075 A 
ATOM      2  C4  UNL d   1       1.915  -1.446   0.363  0.00  0.00     0.002 A 
ATOM      3  C5  UNL d   1       2.362  -1.890   1.608  0.00  0.00     0.002 A 
ATOM      4  C6  UNL d   1       1.655  -1.563   2.763  0.00  0.00    -0.004 A 
ATOM      5  C7  UNL d   1       0.503  -0.784   2.673  0.00  0.00     0.002 A 
ATOM      6  C8  UNL d   1       0.051  -0.342   1.429  0.00  0.00     0.002 A 
ENDROOT
BRANCH   1   7
ATOM      7  C2  UNL d   1       0.242  -0.217  -1.088  0.00  0.00     0.056 C 
BRANCH   7   8
ATOM      8  C1  UNL d   1      -0.819   0.886  -1.013  0.00  0.00     0.007 C 
ATOM      9  C   UNL d   1      -0.958   1.674  -2.309  0.00  0.00     0.009 C 
ENDBRANCH   7   8
ENDBRANCH   1   7
TORSDOF 2
ENDMDL
