MODEL 1
REMARK minimizedAffinity -4.9781332
REMARK minimizedRMSD -1
REMARK  2 active torsions:
REMARK  status: ('A' for Active; 'I' for Inactive)
REMARK    1  A    between atoms: C1_2  and  C2_3 
REMARK    2  A    between atoms: C2_3  and  C3_4 
ROOT
ATOM      1  C3  UNL d   1       0.473  -0.237   0.024  0.00  0.00    -0.075 A 
ATOM      2  C4  UNL d   1       1.650  -0.990  -0.094  0.00  0.00     0.002 A 
ATOM      3  C5  UNL d   1       2.172  -1.667   1.009  0.00  0.00     0.002 A 
ATOM      4  C6  UNL d   1       1.531  -1.591   2.244  0.00  0.00    -0.004 A 
ATOM      5  C7  UNL d   1       0.370  -0.832   2.377  0.00  0.00     0.002 A 
ATOM      6  C8  UNL d   1      -0.157  -0.158   1.274  0.00  0.00     0.002 A 
ENDROOT
BRANCH   1   7
ATOM      7  C2  UNL d   1      -0.113   0.474  -1.172  0.00  0.00     0.056 C 
BRANCH   7   8
ATOM      8  C1  UNL d   1       0.600   1.781  -1.532  0.00  0.00     0.007 C 
ATOM      9  C   UNL d   1      -0.308   2.789  -2.225  0.00  0.00     0.009 C 
ENDBRANCH   7   8
ENDBRANCH   1   7
TORSDOF 2
ENDMDL
