MODEL 1
REMARK minimizedAffinity -5.81839037
REMARK minimizedRMSD -1
REMARK  2 active torsions:
REMARK  status: ('A' for Active; 'I' for Inactive)
REMARK    1  A    between atoms: C1_2  and  C2_3 
REMARK    2  A    between atoms: C2_3  and  C3_4 
ROOT
ATOM      1  C3  UNL d   1       0.303  -0.535   0.354  0.00  0.00    -0.075 A 
ATOM      2  C4  UNL d   1       0.283  -0.659   1.750  0.00  0.00     0.002 A 
ATOM      3  C5  UNL d   1       1.351  -1.253   2.424  0.00  0.00     0.002 A 
ATOM      4  C6  UNL d   1       2.445  -1.739   1.711  0.00  0.00    -0.004 A 
ATOM      5  C7  UNL d   1       2.468  -1.636   0.322  0.00  0.00     0.002 A 
ATOM      6  C8  UNL d   1       1.403  -1.038  -0.354  0.00  0.00     0.002 A 
ENDROOT
BRANCH   1   7
ATOM      7  C2  UNL d   1      -0.836   0.133  -0.379  0.00  0.00     0.056 C 
BRANCH   7   8
ATOM      8  C1  UNL d   1      -0.545   0.419  -1.856  0.00  0.00     0.007 C 
ATOM      9  C   UNL d   1      -0.479   1.906  -2.179  0.00  0.00     0.009 C 
ENDBRANCH   7   8
ENDBRANCH   1   7
TORSDOF 2
ENDMDL
