MODEL 1
REMARK minimizedAffinity -6.32997847
REMARK minimizedRMSD -1
REMARK  2 active torsions:
REMARK  status: ('A' for Active; 'I' for Inactive)
REMARK    1  A    between atoms: C1_2  and  C2_3 
REMARK    2  A    between atoms: C2_3  and  C3_4 
ROOT
ATOM      1  C3  UNL d   1       0.349  -0.296   0.251  0.00  0.00    -0.075 A 
ATOM      2  C4  UNL d   1       1.652  -0.742   0.513  0.00  0.00     0.002 A 
ATOM      3  C5  UNL d   1       2.059  -1.017   1.819  0.00  0.00     0.002 A 
ATOM      4  C6  UNL d   1       1.172  -0.840   2.879  0.00  0.00    -0.004 A 
ATOM      5  C7  UNL d   1      -0.120  -0.381   2.633  0.00  0.00     0.002 A 
ATOM      6  C8  UNL d   1      -0.530  -0.109   1.326  0.00  0.00     0.002 A 
ENDROOT
BRANCH   1   7
ATOM      7  C2  UNL d   1      -0.106  -0.025  -1.163  0.00  0.00     0.056 C 
BRANCH   7   8
ATOM      8  C1  UNL d   1      -0.423   1.447  -1.445  0.00  0.00     0.007 C 
ATOM      9  C   UNL d   1      -0.068   1.877  -2.862  0.00  0.00     0.009 C 
ENDBRANCH   7   8
ENDBRANCH   1   7
TORSDOF 2
ENDMDL
