MODEL 1
REMARK minimizedAffinity -3.6717484
REMARK minimizedRMSD -1
REMARK  2 active torsions:
REMARK  status: ('A' for Active; 'I' for Inactive)
REMARK    1  A    between atoms: C1_2  and  C2_3 
REMARK    2  A    between atoms: C2_3  and  C3_4 
ROOT
ATOM      1  C3  UNL d   1       1.280  -0.409   0.191  0.00  0.00    -0.075 A 
ATOM      2  C4  UNL d   1       2.313  -1.357   0.218  0.00  0.00     0.002 A 
ATOM      3  C5  UNL d   1       2.755  -1.890   1.429  0.00  0.00     0.002 A 
ATOM      4  C6  UNL d   1       2.179  -1.475   2.627  0.00  0.00    -0.004 A 
ATOM      5  C7  UNL d   1       1.163  -0.521   2.615  0.00  0.00     0.002 A 
ATOM      6  C8  UNL d   1       0.716   0.010   1.404  0.00  0.00     0.002 A 
ENDROOT
BRANCH   1   7
ATOM      7  C2  UNL d   1       0.777   0.150  -1.118  0.00  0.00     0.056 C 
BRANCH   7   8
ATOM      8  C1  UNL d   1      -0.693   0.580  -1.089  0.00  0.00     0.007 C 
ATOM      9  C   UNL d   1      -1.027   1.646  -2.124  0.00  0.00     0.009 C 
ENDBRANCH   7   8
ENDBRANCH   1   7
TORSDOF 2
ENDMDL
