MODEL 1
REMARK minimizedAffinity -0.0813232213
REMARK minimizedRMSD -1
REMARK  1 active torsions:
REMARK  status: ('A' for Active; 'I' for Inactive)
REMARK    1  A    between atoms: C1_2  and  C2_3 
ROOT
ATOM      1  C2  UNL d   1       3.210   4.770  -5.465  0.00  0.00    -0.077 A 
ATOM      2  C3  UNL d   1       3.960   3.776  -4.822  0.00  0.00     0.002 A 
ATOM      3  C4  UNL d   1       5.347   3.894  -4.716  0.00  0.00     0.002 A 
ATOM      4  C5  UNL d   1       5.996   5.006  -5.249  0.00  0.00    -0.004 A 
ATOM      5  C6  UNL d   1       5.259   5.999  -5.893  0.00  0.00     0.002 A 
ATOM      6  C7  UNL d   1       3.872   5.882  -6.000  0.00  0.00     0.002 A 
ENDROOT
BRANCH   1   7
ATOM      7  C1  UNL d   1       1.709   4.668  -5.536  0.00  0.00     0.055 C 
ATOM      8  C   UNL d   1       1.082   6.000  -5.923  0.00  0.00     0.019 C 
ENDBRANCH   1   7
TORSDOF 1
ENDMDL
