MODEL 1
REMARK minimizedAffinity 4.24509382
REMARK minimizedRMSD -1
REMARK  1 active torsions:
REMARK  status: ('A' for Active; 'I' for Inactive)
REMARK    1  A    between atoms: C1_2  and  C2_3 
ROOT
ATOM      1  C2  UNL d   1       2.105   4.838  -5.659  0.00  0.00    -0.077 A 
ATOM      2  C3  UNL d   1       2.853   5.974  -5.999  0.00  0.00     0.002 A 
ATOM      3  C4  UNL d   1       4.233   5.999  -5.790  0.00  0.00     0.002 A 
ATOM      4  C5  UNL d   1       4.877   4.890  -5.245  0.00  0.00    -0.004 A 
ATOM      5  C6  UNL d   1       4.142   3.756  -4.901  0.00  0.00     0.002 A 
ATOM      6  C7  UNL d   1       2.762   3.730  -5.108  0.00  0.00     0.002 A 
ENDROOT
BRANCH   1   7
ATOM      7  C1  UNL d   1       0.623   4.791  -5.928  0.00  0.00     0.055 C 
ATOM      8  C   UNL d   1      -0.086   5.999  -5.336  0.00  0.00     0.019 C 
ENDBRANCH   1   7
TORSDOF 1
ENDMDL
