MODEL 1
REMARK minimizedAffinity 6.05269337
REMARK minimizedRMSD -1
REMARK  1 active torsions:
REMARK  status: ('A' for Active; 'I' for Inactive)
REMARK    1  A    between atoms: C1_2  and  C2_3 
ROOT
ATOM      1  C2  UNL d   1       0.571   1.431   0.215  0.00  0.00    -0.077 A 
ATOM      2  C3  UNL d   1       1.148   0.811   1.332  0.00  0.00     0.002 A 
ATOM      3  C4  UNL d   1       0.413  -0.102   2.091  0.00  0.00     0.002 A 
ATOM      4  C5  UNL d   1      -0.900  -0.406   1.739  0.00  0.00    -0.004 A 
ATOM      5  C6  UNL d   1      -1.483   0.207   0.631  0.00  0.00     0.002 A 
ATOM      6  C7  UNL d   1      -0.751   1.121  -0.128  0.00  0.00     0.002 A 
ENDROOT
BRANCH   1   7
ATOM      7  C1  UNL d   1       1.378   2.379  -0.633  0.00  0.00     0.055 C 
ATOM      8  C   UNL d   1       1.435   3.767  -0.012  0.00  0.00     0.019 C 
ENDBRANCH   1   7
TORSDOF 1
ENDMDL
