MODEL 1
REMARK minimizedAffinity 4.18217897
REMARK minimizedRMSD -1
REMARK  1 active torsions:
REMARK  status: ('A' for Active; 'I' for Inactive)
REMARK    1  A    between atoms: C1_2  and  C2_3 
ROOT
ATOM      1  C2  UNL d   1       0.947   1.699   1.263  0.00  0.00    -0.077 A 
ATOM      2  C3  UNL d   1       0.418   0.577   0.609  0.00  0.00     0.002 A 
ATOM      3  C4  UNL d   1      -0.474  -0.270   1.270  0.00  0.00     0.002 A 
ATOM      4  C5  UNL d   1      -0.846  -0.002   2.586  0.00  0.00    -0.004 A 
ATOM      5  C6  UNL d   1      -0.324   1.110   3.245  0.00  0.00     0.002 A 
ATOM      6  C7  UNL d   1       0.569   1.957   2.586  0.00  0.00     0.002 A 
ENDROOT
BRANCH   1   7
ATOM      7  C1  UNL d   1       1.871   2.641   0.535  0.00  0.00     0.055 C 
ATOM      8  C   UNL d   1       1.100   3.554  -0.408  0.00  0.00     0.019 C 
ENDBRANCH   1   7
TORSDOF 1
ENDMDL
