MODEL 1
REMARK minimizedAffinity 2.13488126
REMARK minimizedRMSD -1
REMARK  1 active torsions:
REMARK  status: ('A' for Active; 'I' for Inactive)
REMARK    1  A    between atoms: C1_2  and  C2_3 
ROOT
ATOM      1  C2  UNL d   1       1.143  -0.164  -0.942  0.00  0.00    -0.077 A 
ATOM      2  C3  UNL d   1       0.713  -0.325   0.383  0.00  0.00     0.002 A 
ATOM      3  C4  UNL d   1       0.814   0.730   1.292  0.00  0.00     0.002 A 
ATOM      4  C5  UNL d   1       1.342   1.954   0.885  0.00  0.00    -0.004 A 
ATOM      5  C6  UNL d   1       1.774   2.123  -0.430  0.00  0.00     0.002 A 
ATOM      6  C7  UNL d   1       1.674   1.070  -1.339  0.00  0.00     0.002 A 
ENDROOT
BRANCH   1   7
ATOM      7  C1  UNL d   1       0.988  -1.285  -1.936  0.00  0.00     0.055 C 
ATOM      8  C   UNL d   1       2.275  -1.515  -2.715  0.00  0.00     0.019 C 
ENDBRANCH   1   7
TORSDOF 1
ENDMDL
