MODEL 1
REMARK minimizedAffinity 1.95713615
REMARK minimizedRMSD -1
REMARK  1 active torsions:
REMARK  status: ('A' for Active; 'I' for Inactive)
REMARK    1  A    between atoms: C1_2  and  C2_3 
ROOT
ATOM      1  C2  UNL d   1      -2.582  -1.597  -3.294  0.00  0.00    -0.077 A 
ATOM      2  C3  UNL d   1      -2.682  -1.643  -1.896  0.00  0.00     0.002 A 
ATOM      3  C4  UNL d   1      -3.782  -2.251  -1.287  0.00  0.00     0.002 A 
ATOM      4  C5  UNL d   1      -4.787  -2.820  -2.067  0.00  0.00    -0.004 A 
ATOM      5  C6  UNL d   1      -4.697  -2.777  -3.458  0.00  0.00     0.002 A 
ATOM      6  C7  UNL d   1      -3.599  -2.169  -4.069  0.00  0.00     0.002 A 
ENDROOT
BRANCH   1   7
ATOM      7  C1  UNL d   1      -1.372  -0.986  -3.952  0.00  0.00     0.055 C 
ATOM      8  C   UNL d   1      -0.480  -2.053  -4.570  0.00  0.00     0.019 C 
ENDBRANCH   1   7
TORSDOF 1
ENDMDL
