MODEL 1
REMARK minimizedAffinity 3.34828734
REMARK minimizedRMSD -1
REMARK  1 active torsions:
REMARK  status: ('A' for Active; 'I' for Inactive)
REMARK    1  A    between atoms: C1_2  and  C2_3 
ROOT
ATOM      1  C2  UNL d   1      -0.714   5.998  -4.217  0.00  0.00    -0.077 A 
ATOM      2  C3  UNL d   1      -0.222   5.997  -2.904  0.00  0.00     0.002 A 
ATOM      3  C4  UNL d   1      -1.102   5.999  -1.820  0.00  0.00     0.002 A 
ATOM      4  C5  UNL d   1      -2.478   5.997  -2.038  0.00  0.00    -0.004 A 
ATOM      5  C6  UNL d   1      -2.977   5.999  -3.340  0.00  0.00     0.002 A 
ATOM      6  C7  UNL d   1      -2.099   5.998  -4.425  0.00  0.00     0.002 A 
ENDROOT
BRANCH   1   7
ATOM      7  C1  UNL d   1       0.234   5.946  -5.387  0.00  0.00     0.055 C 
ATOM      8  C   UNL d   1       1.345   4.933  -5.155  0.00  0.00     0.019 C 
ENDBRANCH   1   7
TORSDOF 1
ENDMDL
