MODEL 1
REMARK minimizedAffinity 1.83984447
REMARK minimizedRMSD -1
REMARK  1 active torsions:
REMARK  status: ('A' for Active; 'I' for Inactive)
REMARK    1  A    between atoms: C1_2  and  C2_3 
ROOT
ATOM      1  C2  UNL d   1       0.691   1.114   1.329  0.00  0.00    -0.077 A 
ATOM      2  C3  UNL d   1       0.062   1.741   2.413  0.00  0.00     0.002 A 
ATOM      3  C4  UNL d   1      -0.669   0.991   3.336  0.00  0.00     0.002 A 
ATOM      4  C5  UNL d   1      -0.775  -0.390   3.187  0.00  0.00    -0.004 A 
ATOM      5  C6  UNL d   1      -0.154  -1.023   2.110  0.00  0.00     0.002 A 
ATOM      6  C7  UNL d   1       0.576  -0.275   1.186  0.00  0.00     0.002 A 
ENDROOT
BRANCH   1   7
ATOM      7  C1  UNL d   1       1.521   1.915   0.360  0.00  0.00     0.055 C 
ATOM      8  C   UNL d   1       1.230   3.404   0.481  0.00  0.00     0.019 C 
ENDBRANCH   1   7
TORSDOF 1
ENDMDL
