MODEL 1
REMARK minimizedAffinity 2.98843312
REMARK minimizedRMSD -1
REMARK  1 active torsions:
REMARK  status: ('A' for Active; 'I' for Inactive)
REMARK    1  A    between atoms: C1_2  and  C2_3 
ROOT
ATOM      1  C2  UNL d   1       0.969   0.465   3.267  0.00  0.00    -0.077 A 
ATOM      2  C3  UNL d   1      -0.432   0.512   3.296  0.00  0.00     0.002 A 
ATOM      3  C4  UNL d   1      -1.167   0.420   2.113  0.00  0.00     0.002 A 
ATOM      4  C5  UNL d   1      -0.510   0.276   0.892  0.00  0.00    -0.004 A 
ATOM      5  C6  UNL d   1       0.883   0.231   0.853  0.00  0.00     0.002 A 
ATOM      6  C7  UNL d   1       1.619   0.324   2.035  0.00  0.00     0.002 A 
ENDROOT
BRANCH   1   7
ATOM      7  C1  UNL d   1       1.761   0.515   4.547  0.00  0.00     0.055 C 
ATOM      8  C   UNL d   1       0.920   1.045   5.699  0.00  0.00     0.019 C 
ENDBRANCH   1   7
TORSDOF 1
ENDMDL
