MODEL 1
REMARK minimizedAffinity -1.77878726
REMARK minimizedRMSD -1
REMARK  1 active torsions:
REMARK  status: ('A' for Active; 'I' for Inactive)
REMARK    1  A    between atoms: C1_2  and  C2_3 
ROOT
ATOM      1  C2  UNL d   1       2.906   4.939  -4.944  0.00  0.00    -0.077 A 
ATOM      2  C3  UNL d   1       2.077   4.534  -6.000  0.00  0.00     0.002 A 
ATOM      3  C4  UNL d   1       0.719   4.859  -5.997  0.00  0.00     0.002 A 
ATOM      4  C5  UNL d   1       0.180   5.594  -4.943  0.00  0.00    -0.004 A 
ATOM      5  C6  UNL d   1       0.995   6.000  -3.887  0.00  0.00     0.002 A 
ATOM      6  C7  UNL d   1       2.352   5.674  -3.888  0.00  0.00     0.002 A 
ENDROOT
BRANCH   1   7
ATOM      7  C1  UNL d   1       4.380   4.631  -4.969  0.00  0.00     0.055 C 
ATOM      8  C   UNL d   1       5.212   5.898  -4.833  0.00  0.00     0.019 C 
ENDBRANCH   1   7
TORSDOF 1
ENDMDL
