MODEL 1
REMARK minimizedAffinity 3.66753221
REMARK minimizedRMSD -1
REMARK  1 active torsions:
REMARK  status: ('A' for Active; 'I' for Inactive)
REMARK    1  A    between atoms: C1_2  and  C2_3 
ROOT
ATOM      1  C2  UNL d   1       1.738   4.792  -5.304  0.00  0.00    -0.077 A 
ATOM      2  C3  UNL d   1       1.075   3.579  -5.070  0.00  0.00     0.002 A 
ATOM      3  C4  UNL d   1      -0.185   3.567  -4.469  0.00  0.00     0.002 A 
ATOM      4  C5  UNL d   1      -0.794   4.765  -4.101  0.00  0.00    -0.004 A 
ATOM      5  C6  UNL d   1      -0.142   5.977  -4.327  0.00  0.00     0.002 A 
ATOM      6  C7  UNL d   1       1.118   5.990  -4.927  0.00  0.00     0.002 A 
ENDROOT
BRANCH   1   7
ATOM      7  C1  UNL d   1       3.076   4.810  -5.997  0.00  0.00     0.055 C 
ATOM      8  C   UNL d   1       3.922   5.988  -5.536  0.00  0.00     0.019 C 
ENDBRANCH   1   7
TORSDOF 1
ENDMDL
