MODEL 1
REMARK minimizedAffinity 1.06648684
REMARK minimizedRMSD -1
REMARK  1 active torsions:
REMARK  status: ('A' for Active; 'I' for Inactive)
REMARK    1  A    between atoms: C1_2  and  C2_3 
ROOT
ATOM      1  C2  UNL d   1       1.529   5.985  -4.839  0.00  0.00    -0.077 A 
ATOM      2  C3  UNL d   1       1.212   5.991  -3.474  0.00  0.00     0.002 A 
ATOM      3  C4  UNL d   1      -0.121   5.999  -3.058  0.00  0.00     0.002 A 
ATOM      4  C5  UNL d   1      -1.146   5.998  -4.002  0.00  0.00    -0.004 A 
ATOM      5  C6  UNL d   1      -0.841   5.994  -5.362  0.00  0.00     0.002 A 
ATOM      6  C7  UNL d   1       0.491   5.987  -5.779  0.00  0.00     0.002 A 
ENDROOT
BRANCH   1   7
ATOM      7  C1  UNL d   1       2.966   5.926  -5.289  0.00  0.00     0.055 C 
ATOM      8  C   UNL d   1       3.625   4.621  -4.867  0.00  0.00     0.019 C 
ENDBRANCH   1   7
TORSDOF 1
ENDMDL
