MODEL 1
REMARK minimizedAffinity 0.36850366
REMARK minimizedRMSD -1
REMARK  1 active torsions:
REMARK  status: ('A' for Active; 'I' for Inactive)
REMARK    1  A    between atoms: C1_2  and  C2_3 
ROOT
ATOM      1  C2  UNL d   1       0.857   0.307   0.273  0.00  0.00    -0.077 A 
ATOM      2  C3  UNL d   1       1.100   1.347   1.181  0.00  0.00     0.002 A 
ATOM      3  C4  UNL d   1       1.832   2.470   0.788  0.00  0.00     0.002 A 
ATOM      4  C5  UNL d   1       2.323   2.564  -0.512  0.00  0.00    -0.004 A 
ATOM      5  C6  UNL d   1       2.088   1.533  -1.421  0.00  0.00     0.002 A 
ATOM      6  C7  UNL d   1       1.358   0.410  -1.031  0.00  0.00     0.002 A 
ENDROOT
BRANCH   1   7
ATOM      7  C1  UNL d   1       0.026  -0.882   0.680  0.00  0.00     0.055 C 
ATOM      8  C   UNL d   1      -1.337  -0.452   1.203  0.00  0.00     0.019 C 
ENDBRANCH   1   7
TORSDOF 1
ENDMDL
