MODEL 1
REMARK minimizedAffinity -2.7635138
REMARK minimizedRMSD -1
REMARK  1 active torsions:
REMARK  status: ('A' for Active; 'I' for Inactive)
REMARK    1  A    between atoms: C3_4  and  O_7 
ROOT
ATOM      1  C   UNL d   1       1.729   0.198  -2.573  0.00  0.00    -0.033 A 
ATOM      2  C1  UNL d   1       1.506   1.347  -1.812  0.00  0.00     0.039 A 
ATOM      3  C2  UNL d   1       0.676   1.295  -0.691  0.00  0.00    -0.080 A 
ATOM      4  C3  UNL d   1       0.076   0.088  -0.341  0.00  0.00     0.150 A 
ATOM      5  C4  UNL d   1       0.296  -1.062  -1.092  0.00  0.00    -0.007 A 
ATOM      6  C5  UNL d   1       1.125  -1.007  -2.212  0.00  0.00     0.039 A 
ENDROOT
BRANCH   4   7
ATOM      7  O   UNL d   1      -0.746  -0.011   0.742  0.00  0.00    -0.526 OA
ATOM      8  H5  UNL d   1      -0.829   0.868   1.148  0.00  0.00     0.418 HD
ENDBRANCH   4   7
TORSDOF 1
ENDMDL
