MODEL 1
REMARK minimizedAffinity -2.43534184
REMARK minimizedRMSD -1
REMARK  1 active torsions:
REMARK  status: ('A' for Active; 'I' for Inactive)
REMARK    1  A    between atoms: C3_4  and  O_7 
ROOT
ATOM      1  C   UNL d   1      -5.563   2.987  -5.987  0.00  0.00    -0.033 A 
ATOM      2  C1  UNL d   1      -5.998   4.305  -5.839  0.00  0.00     0.039 A 
ATOM      3  C2  UNL d   1      -5.070   5.332  -5.655  0.00  0.00    -0.080 A 
ATOM      4  C3  UNL d   1      -3.712   5.027  -5.622  0.00  0.00     0.150 A 
ATOM      5  C4  UNL d   1      -3.271   3.717  -5.774  0.00  0.00    -0.007 A 
ATOM      6  C5  UNL d   1      -4.200   2.693  -5.956  0.00  0.00     0.039 A 
ENDROOT
BRANCH   4   7
ATOM      7  O   UNL d   1      -2.769   5.995  -5.440  0.00  0.00    -0.526 OA
ATOM      8  H5  UNL d   1      -3.221   6.847  -5.322  0.00  0.00     0.418 HD
ENDBRANCH   4   7
TORSDOF 1
ENDMDL
