MODEL 1
REMARK minimizedAffinity -4.09956932
REMARK minimizedRMSD -1
REMARK  1 active torsions:
REMARK  status: ('A' for Active; 'I' for Inactive)
REMARK    1  A    between atoms: C3_4  and  O_7 
ROOT
ATOM      1  C   UNL d   1      -1.812   2.150   2.629  0.00  0.00    -0.033 A 
ATOM      2  C1  UNL d   1      -1.149   1.087   2.013  0.00  0.00     0.039 A 
ATOM      3  C2  UNL d   1      -1.877   0.105   1.338  0.00  0.00    -0.080 A 
ATOM      4  C3  UNL d   1      -3.265   0.199   1.284  0.00  0.00     0.150 A 
ATOM      5  C4  UNL d   1      -3.931   1.258   1.892  0.00  0.00    -0.007 A 
ATOM      6  C5  UNL d   1      -3.203   2.237   2.567  0.00  0.00     0.039 A 
ENDROOT
BRANCH   4   7
ATOM      7  O   UNL d   1      -4.018  -0.737   0.641  0.00  0.00    -0.526 OA
ATOM      8  H5  UNL d   1      -3.425  -1.424   0.294  0.00  0.00     0.418 HD
ENDBRANCH   4   7
TORSDOF 1
ENDMDL
