MODEL 1
REMARK minimizedAffinity -4.46688223
REMARK minimizedRMSD -1
REMARK  1 active torsions:
REMARK  status: ('A' for Active; 'I' for Inactive)
REMARK    1  A    between atoms: C3_4  and  O_7 
ROOT
ATOM      1  C   UNL d   1       0.267  -0.953   0.503  0.00  0.00    -0.033 A 
ATOM      2  C1  UNL d   1       0.578   0.400   0.359  0.00  0.00     0.039 A 
ATOM      3  C2  UNL d   1       1.167   0.862  -0.820  0.00  0.00    -0.080 A 
ATOM      4  C3  UNL d   1       1.438  -0.039  -1.846  0.00  0.00     0.150 A 
ATOM      5  C4  UNL d   1       1.127  -1.388  -1.711  0.00  0.00    -0.007 A 
ATOM      6  C5  UNL d   1       0.540  -1.847  -0.533  0.00  0.00     0.039 A 
ENDROOT
BRANCH   4   7
ATOM      7  O   UNL d   1       2.016   0.364  -3.013  0.00  0.00    -0.526 OA
ATOM      8  H5  UNL d   1       2.201   1.316  -2.953  0.00  0.00     0.418 HD
ENDBRANCH   4   7
TORSDOF 1
ENDMDL
