MODEL 1
REMARK minimizedAffinity -4.19774675
REMARK minimizedRMSD -1
REMARK  1 active torsions:
REMARK  status: ('A' for Active; 'I' for Inactive)
REMARK    1  A    between atoms: C3_4  and  O_7 
ROOT
ATOM      1  C   UNL d   1       2.363   0.179  -2.288  0.00  0.00    -0.033 A 
ATOM      2  C1  UNL d   1       2.385   1.066  -1.210  0.00  0.00     0.039 A 
ATOM      3  C2  UNL d   1       1.398   0.994  -0.225  0.00  0.00    -0.080 A 
ATOM      4  C3  UNL d   1       0.397   0.032  -0.329  0.00  0.00     0.150 A 
ATOM      5  C4  UNL d   1       0.372  -0.857  -1.398  0.00  0.00    -0.007 A 
ATOM      6  C5  UNL d   1       1.357  -0.784  -2.382  0.00  0.00     0.039 A 
ENDROOT
BRANCH   4   7
ATOM      7  O   UNL d   1      -0.589  -0.073   0.606  0.00  0.00    -0.526 OA
ATOM      8  H5  UNL d   1      -0.460   0.624   1.270  0.00  0.00     0.418 HD
ENDBRANCH   4   7
TORSDOF 1
ENDMDL
