MODEL 1
REMARK minimizedAffinity -3.50605941
REMARK minimizedRMSD -1
REMARK  1 active torsions:
REMARK  status: ('A' for Active; 'I' for Inactive)
REMARK    1  A    between atoms: C3_4  and  O_7 
ROOT
ATOM      1  C   UNL d   1       0.172   0.069   0.290  0.00  0.00    -0.033 A 
ATOM      2  C1  UNL d   1       1.478   0.483   0.022  0.00  0.00     0.039 A 
ATOM      3  C2  UNL d   1       1.958   0.480  -1.290  0.00  0.00    -0.080 A 
ATOM      4  C3  UNL d   1       1.122   0.064  -2.322  0.00  0.00     0.150 A 
ATOM      5  C4  UNL d   1      -0.182  -0.346  -2.062  0.00  0.00    -0.007 A 
ATOM      6  C5  UNL d   1      -0.659  -0.343  -0.752  0.00  0.00     0.039 A 
ENDROOT
BRANCH   4   7
ATOM      7  O   UNL d   1       1.547   0.040  -3.617  0.00  0.00    -0.526 OA
ATOM      8  H5  UNL d   1       2.477   0.321  -3.641  0.00  0.00     0.418 HD
ENDBRANCH   4   7
TORSDOF 1
ENDMDL
