MODEL 1
REMARK minimizedAffinity -4.33590031
REMARK minimizedRMSD -1
REMARK  1 active torsions:
REMARK  status: ('A' for Active; 'I' for Inactive)
REMARK    1  A    between atoms: C3_4  and  O_7 
ROOT
ATOM      1  C   UNL d   1       0.484   0.008   0.618  0.00  0.00    -0.033 A 
ATOM      2  C1  UNL d   1       1.360   1.005   0.184  0.00  0.00     0.039 A 
ATOM      3  C2  UNL d   1       1.700   1.099  -1.167  0.00  0.00    -0.080 A 
ATOM      4  C3  UNL d   1       1.157   0.193  -2.073  0.00  0.00     0.150 A 
ATOM      5  C4  UNL d   1       0.281  -0.801  -1.648  0.00  0.00    -0.007 A 
ATOM      6  C5  UNL d   1      -0.056  -0.895  -0.299  0.00  0.00     0.039 A 
ENDROOT
BRANCH   4   7
ATOM      7  O   UNL d   1       1.462   0.242  -3.400  0.00  0.00    -0.526 OA
ATOM      8  H5  UNL d   1       2.101   0.961  -3.543  0.00  0.00     0.418 HD
ENDBRANCH   4   7
TORSDOF 1
ENDMDL
