MODEL 1
REMARK minimizedAffinity -4.51641321
REMARK minimizedRMSD -1
REMARK  1 active torsions:
REMARK  status: ('A' for Active; 'I' for Inactive)
REMARK    1  A    between atoms: C3_4  and  O_7 
ROOT
ATOM      1  C   UNL d   1       2.693  -1.046  -1.849  0.00  0.00    -0.033 A 
ATOM      2  C1  UNL d   1       2.357   0.278  -1.557  0.00  0.00     0.039 A 
ATOM      3  C2  UNL d   1       1.324   0.556  -0.660  0.00  0.00    -0.080 A 
ATOM      4  C3  UNL d   1       0.638  -0.496  -0.060  0.00  0.00     0.150 A 
ATOM      5  C4  UNL d   1       0.970  -1.817  -0.343  0.00  0.00    -0.007 A 
ATOM      6  C5  UNL d   1       2.001  -2.093  -1.240  0.00  0.00     0.039 A 
ENDROOT
BRANCH   4   7
ATOM      7  O   UNL d   1      -0.380  -0.274   0.819  0.00  0.00    -0.526 OA
ATOM      8  H5  UNL d   1      -0.517   0.685   0.895  0.00  0.00     0.418 HD
ENDBRANCH   4   7
TORSDOF 1
ENDMDL
