MODEL 1
REMARK minimizedAffinity -3.42694616
REMARK minimizedRMSD -1
REMARK  1 active torsions:
REMARK  status: ('A' for Active; 'I' for Inactive)
REMARK    1  A    between atoms: C3_4  and  O_7 
ROOT
ATOM      1  C   UNL d   1       0.990   0.595  -2.594  0.00  0.00    -0.033 A 
ATOM      2  C1  UNL d   1      -0.346   0.254  -2.375  0.00  0.00     0.039 A 
ATOM      3  C2  UNL d   1      -0.805   0.020  -1.078  0.00  0.00    -0.080 A 
ATOM      4  C3  UNL d   1       0.080   0.132  -0.009  0.00  0.00     0.150 A 
ATOM      5  C4  UNL d   1       1.412   0.475  -0.220  0.00  0.00    -0.007 A 
ATOM      6  C5  UNL d   1       1.869   0.707  -1.516  0.00  0.00     0.039 A 
ENDROOT
BRANCH   4   7
ATOM      7  O   UNL d   1      -0.320  -0.092   1.275  0.00  0.00    -0.526 OA
ATOM      8  H5  UNL d   1      -1.257  -0.348   1.264  0.00  0.00     0.418 HD
ENDBRANCH   4   7
TORSDOF 1
ENDMDL
