MODEL 1
REMARK minimizedAffinity -4.70626831
REMARK minimizedRMSD -1
REMARK  1 active torsions:
REMARK  status: ('A' for Active; 'I' for Inactive)
REMARK    1  A    between atoms: C3_4  and  O_7 
ROOT
ATOM      1  C   UNL d   1       0.382  -2.072  -1.836  0.00  0.00    -0.033 A 
ATOM      2  C1  UNL d   1      -0.089  -0.966  -1.126  0.00  0.00     0.039 A 
ATOM      3  C2  UNL d   1       0.699   0.180  -1.012  0.00  0.00    -0.080 A 
ATOM      4  C3  UNL d   1       1.955   0.208  -1.612  0.00  0.00     0.150 A 
ATOM      5  C4  UNL d   1       2.430  -0.889  -2.324  0.00  0.00    -0.007 A 
ATOM      6  C5  UNL d   1       1.641  -2.033  -2.436  0.00  0.00     0.039 A 
ENDROOT
BRANCH   4   7
ATOM      7  O   UNL d   1       2.763   1.303  -1.524  0.00  0.00    -0.526 OA
ATOM      8  H5  UNL d   1       2.316   1.972  -0.979  0.00  0.00     0.418 HD
ENDBRANCH   4   7
TORSDOF 1
ENDMDL
