MODEL 1
REMARK minimizedAffinity -3.84913945
REMARK minimizedRMSD -1
REMARK  1 active torsions:
REMARK  status: ('A' for Active; 'I' for Inactive)
REMARK    1  A    between atoms: C3_4  and  O_7 
ROOT
ATOM      1  C   UNL d   1      -3.479  -0.446   2.073  0.00  0.00    -0.033 A 
ATOM      2  C1  UNL d   1      -4.480   0.449   1.690  0.00  0.00     0.039 A 
ATOM      3  C2  UNL d   1      -4.323   1.817   1.925  0.00  0.00    -0.080 A 
ATOM      4  C3  UNL d   1      -3.162   2.276   2.540  0.00  0.00     0.150 A 
ATOM      5  C4  UNL d   1      -2.159   1.390   2.921  0.00  0.00    -0.007 A 
ATOM      6  C5  UNL d   1      -2.318   0.025   2.687  0.00  0.00     0.039 A 
ENDROOT
BRANCH   4   7
ATOM      7  O   UNL d   1      -2.966   3.601   2.794  0.00  0.00    -0.526 OA
ATOM      8  H5  UNL d   1      -3.754   4.090   2.504  0.00  0.00     0.418 HD
ENDBRANCH   4   7
TORSDOF 1
ENDMDL
