MODEL 1
REMARK minimizedAffinity -4.38289881
REMARK minimizedRMSD -1
REMARK  1 active torsions:
REMARK  status: ('A' for Active; 'I' for Inactive)
REMARK    1  A    between atoms: C3_4  and  O_7 
ROOT
ATOM      1  C   UNL d   1       0.081  -2.258  -0.791  0.00  0.00    -0.033 A 
ATOM      2  C1  UNL d   1      -0.229  -0.905  -0.944  0.00  0.00     0.039 A 
ATOM      3  C2  UNL d   1       0.444  -0.137  -1.897  0.00  0.00    -0.080 A 
ATOM      4  C3  UNL d   1       1.421  -0.733  -2.688  0.00  0.00     0.150 A 
ATOM      5  C4  UNL d   1       1.732  -2.081  -2.544  0.00  0.00    -0.007 A 
ATOM      6  C5  UNL d   1       1.061  -2.846  -1.592  0.00  0.00     0.039 A 
ENDROOT
BRANCH   4   7
ATOM      7  O   UNL d   1       2.108  -0.022  -3.628  0.00  0.00    -0.526 OA
ATOM      8  H5  UNL d   1       1.808   0.901  -3.596  0.00  0.00     0.418 HD
ENDBRANCH   4   7
TORSDOF 1
ENDMDL
