MODEL 1
REMARK minimizedAffinity 4.503304
REMARK minimizedRMSD -1
REMARK  0 active torsions:
REMARK  status: ('A' for Active; 'I' for Inactive)
ROOT
ATOM      1  C1  DEN d   1       4.164   4.026   3.452  0.00  0.00     0.130 A 
ATOM      2  C2  DEN d   1       3.493   5.306   3.659  0.00  0.00    -0.031 A 
ATOM      3  C3  DEN d   1       3.421   5.999   2.357  0.00  0.00     0.027 A 
ATOM      4  C4  DEN d   1       4.274   5.216   0.052  0.00  0.00     0.027 A 
ATOM      5  C5  DEN d   1       4.921   4.203  -0.620  0.00  0.00    -0.003 A 
ATOM      6  C6  DEN d   1       5.388   3.084   0.018  0.00  0.00     0.001 A 
ATOM      7  C7  DEN d   1       5.174   2.931   1.363  0.00  0.00     0.017 A 
ATOM      8  C8  DEN d   1       4.529   3.952   2.049  0.00  0.00    -0.094 A 
ATOM      9  C9  DEN d   1       4.053   5.069   1.383  0.00  0.00    -0.072 A 
ENDROOT
TORSDOF 0
ENDMDL
