MODEL 1
REMARK minimizedAffinity 0.570928991
REMARK minimizedRMSD -1
REMARK  0 active torsions:
REMARK  status: ('A' for Active; 'I' for Inactive)
ROOT
ATOM      1  C1  DEN d   1      -3.259  -1.292  -0.070  0.00  0.00     0.130 A 
ATOM      2  C2  DEN d   1      -2.747  -0.636   1.130  0.00  0.00    -0.031 A 
ATOM      3  C3  DEN d   1      -1.423  -1.213   1.436  0.00  0.00     0.027 A 
ATOM      4  C4  DEN d   1      -0.120  -3.046   0.173  0.00  0.00     0.027 A 
ATOM      5  C5  DEN d   1      -0.154  -3.912  -0.898  0.00  0.00    -0.003 A 
ATOM      6  C6  DEN d   1      -1.231  -3.988  -1.741  0.00  0.00     0.001 A 
ATOM      7  C7  DEN d   1      -2.300  -3.153  -1.554  0.00  0.00     0.017 A 
ATOM      8  C8  DEN d   1      -2.277  -2.283  -0.472  0.00  0.00    -0.094 A 
ATOM      9  C9  DEN d   1      -1.174  -2.212   0.362  0.00  0.00    -0.072 A 
ENDROOT
TORSDOF 0
ENDMDL
