MODEL 1
REMARK minimizedAffinity -0.337046057
REMARK minimizedRMSD -1
REMARK  0 active torsions:
REMARK  status: ('A' for Active; 'I' for Inactive)
ROOT
ATOM      1  C1  DEN d   1      -2.012  -2.242  -0.432  0.00  0.00     0.130 A 
ATOM      2  C2  DEN d   1      -0.763  -1.700   0.098  0.00  0.00    -0.031 A 
ATOM      3  C3  DEN d   1       0.286  -2.727  -0.066  0.00  0.00     0.027 A 
ATOM      4  C4  DEN d   1       0.101  -5.088  -1.087  0.00  0.00     0.027 A 
ATOM      5  C5  DEN d   1      -0.759  -5.999  -1.661  0.00  0.00    -0.003 A 
ATOM      6  C6  DEN d   1      -2.092  -5.736  -1.833  0.00  0.00     0.001 A 
ATOM      7  C7  DEN d   1      -2.596  -4.516  -1.468  0.00  0.00     0.017 A 
ATOM      8  C8  DEN d   1      -1.737  -3.595  -0.882  0.00  0.00    -0.094 A 
ATOM      9  C9  DEN d   1      -0.390  -3.875  -0.728  0.00  0.00    -0.072 A 
ENDROOT
TORSDOF 0
ENDMDL
