MODEL 1
REMARK minimizedAffinity 7.63112307
REMARK minimizedRMSD -1
REMARK  0 active torsions:
REMARK  status: ('A' for Active; 'I' for Inactive)
ROOT
ATOM      1  C1  DEN d   1       0.680   2.417   2.716  0.00  0.00     0.130 A 
ATOM      2  C2  DEN d   1       0.195   3.643   3.343  0.00  0.00    -0.031 A 
ATOM      3  C3  DEN d   1       1.288   4.635   3.312  0.00  0.00     0.027 A 
ATOM      4  C4  DEN d   1       3.670   4.396   2.353  0.00  0.00     0.027 A 
ATOM      5  C5  DEN d   1       4.548   3.537   1.730  0.00  0.00    -0.003 A 
ATOM      6  C6  DEN d   1       4.213   2.244   1.426  0.00  0.00     0.001 A 
ATOM      7  C7  DEN d   1       2.952   1.787   1.703  0.00  0.00     0.017 A 
ATOM      8  C8  DEN d   1       2.063   2.645   2.337  0.00  0.00    -0.094 A 
ATOM      9  C9  DEN d   1       2.417   3.952   2.626  0.00  0.00    -0.072 A 
ENDROOT
TORSDOF 0
ENDMDL
