MODEL 1
REMARK minimizedAffinity 8.69800377
REMARK minimizedRMSD -1
REMARK  0 active torsions:
REMARK  status: ('A' for Active; 'I' for Inactive)
ROOT
ATOM      1  C1  DEN d   1       0.605   0.314   1.209  0.00  0.00     0.130 A 
ATOM      2  C2  DEN d   1       1.775   1.188   1.204  0.00  0.00    -0.031 A 
ATOM      3  C3  DEN d   1       2.934   0.396   0.746  0.00  0.00     0.027 A 
ATOM      4  C4  DEN d   1       3.029  -2.084   0.042  0.00  0.00     0.027 A 
ATOM      5  C5  DEN d   1       2.290  -3.237  -0.109  0.00  0.00    -0.003 A 
ATOM      6  C6  DEN d   1       0.957  -3.296   0.199  0.00  0.00     0.001 A 
ATOM      7  C7  DEN d   1       0.310  -2.168   0.631  0.00  0.00     0.017 A 
ATOM      8  C8  DEN d   1       1.049  -1.004   0.792  0.00  0.00    -0.094 A 
ATOM      9  C9  DEN d   1       2.393  -0.961   0.464  0.00  0.00    -0.072 A 
ENDROOT
TORSDOF 0
ENDMDL
