MODEL 1
REMARK minimizedAffinity 11.6607361
REMARK minimizedRMSD -1
REMARK  0 active torsions:
REMARK  status: ('A' for Active; 'I' for Inactive)
ROOT
ATOM      1  C1  DEN d   1       1.185   2.045   1.623  0.00  0.00     0.130 A 
ATOM      2  C2  DEN d   1       1.585   0.690   1.256  0.00  0.00    -0.031 A 
ATOM      3  C3  DEN d   1       3.047   0.581   1.432  0.00  0.00     0.027 A 
ATOM      4  C4  DEN d   1       4.721   2.369   2.239  0.00  0.00     0.027 A 
ATOM      5  C5  DEN d   1       4.854   3.675   2.657  0.00  0.00    -0.003 A 
ATOM      6  C6  DEN d   1       3.788   4.532   2.726  0.00  0.00     0.001 A 
ATOM      7  C7  DEN d   1       2.533   4.080   2.415  0.00  0.00     0.017 A 
ATOM      8  C8  DEN d   1       2.392   2.767   1.986  0.00  0.00    -0.094 A 
ATOM      9  C9  DEN d   1       3.480   1.913   1.935  0.00  0.00    -0.072 A 
ENDROOT
TORSDOF 0
ENDMDL
