MODEL 1
REMARK minimizedAffinity -1.57658541
REMARK minimizedRMSD -1
REMARK  0 active torsions:
REMARK  status: ('A' for Active; 'I' for Inactive)
ROOT
ATOM      1  C1  DEN d   1       2.628  -0.554   0.059  0.00  0.00     0.130 A 
ATOM      2  C2  DEN d   1       1.496   0.312   0.376  0.00  0.00    -0.031 A 
ATOM      3  C3  DEN d   1       0.282  -0.527   0.437  0.00  0.00     0.027 A 
ATOM      4  C4  DEN d   1       0.048  -3.070   0.078  0.00  0.00     0.027 A 
ATOM      5  C5  DEN d   1       0.730  -4.229  -0.224  0.00  0.00    -0.003 A 
ATOM      6  C6  DEN d   1       2.074  -4.238  -0.484  0.00  0.00     0.001 A 
ATOM      7  C7  DEN d   1       2.790  -3.073  -0.403  0.00  0.00     0.017 A 
ATOM      8  C8  DEN d   1       2.108  -1.899  -0.106  0.00  0.00    -0.094 A 
ATOM      9  C9  DEN d   1       0.751  -1.912   0.166  0.00  0.00    -0.072 A 
ENDROOT
TORSDOF 0
ENDMDL
