MODEL 1
REMARK minimizedAffinity 14.6507244
REMARK minimizedRMSD -1
REMARK  0 active torsions:
REMARK  status: ('A' for Active; 'I' for Inactive)
ROOT
ATOM      1  C1  DEN d   1       1.233   1.440   1.393  0.00  0.00     0.130 A 
ATOM      2  C2  DEN d   1       2.097   0.810   0.399  0.00  0.00    -0.031 A 
ATOM      3  C3  DEN d   1       3.423   1.458   0.470  0.00  0.00     0.027 A 
ATOM      4  C4  DEN d   1       4.218   3.361   2.018  0.00  0.00     0.027 A 
ATOM      5  C5  DEN d   1       3.838   4.226   3.020  0.00  0.00    -0.003 A 
ATOM      6  C6  DEN d   1       2.564   4.245   3.523  0.00  0.00     0.001 A 
ATOM      7  C7  DEN d   1       1.636   3.353   3.056  0.00  0.00     0.017 A 
ATOM      8  C8  DEN d   1       2.010   2.483   2.040  0.00  0.00    -0.094 A 
ATOM      9  C9  DEN d   1       3.306   2.470   1.553  0.00  0.00    -0.072 A 
ENDROOT
TORSDOF 0
ENDMDL
