MODEL 1
REMARK minimizedAffinity 9.99552822
REMARK minimizedRMSD -1
REMARK  0 active torsions:
REMARK  status: ('A' for Active; 'I' for Inactive)
ROOT
ATOM      1  C1  DEN d   1       2.946   0.629   0.686  0.00  0.00     0.130 A 
ATOM      2  C2  DEN d   1       1.528   0.371   0.450  0.00  0.00    -0.031 A 
ATOM      3  C3  DEN d   1       0.750   1.364   1.218  0.00  0.00     0.027 A 
ATOM      4  C4  DEN d   1       1.597   3.268   2.737  0.00  0.00     0.027 A 
ATOM      5  C5  DEN d   1       2.720   3.875   3.256  0.00  0.00    -0.003 A 
ATOM      6  C6  DEN d   1       3.985   3.425   2.984  0.00  0.00     0.001 A 
ATOM      7  C7  DEN d   1       4.160   2.364   2.135  0.00  0.00     0.017 A 
ATOM      8  C8  DEN d   1       3.033   1.743   1.613  0.00  0.00    -0.094 A 
ATOM      9  C9  DEN d   1       1.763   2.220   1.890  0.00  0.00    -0.072 A 
ENDROOT
TORSDOF 0
ENDMDL
