MODEL 1
REMARK minimizedAffinity 14.7301226
REMARK minimizedRMSD -1
REMARK  0 active torsions:
REMARK  status: ('A' for Active; 'I' for Inactive)
ROOT
ATOM      1  C1  DEN d   1       5.603   5.053   3.355  0.00  0.00     0.130 A 
ATOM      2  C2  DEN d   1       5.856   4.409   4.641  0.00  0.00    -0.031 A 
ATOM      3  C3  DEN d   1       4.862   3.331   4.816  0.00  0.00     0.027 A 
ATOM      4  C4  DEN d   1       2.967   2.599   3.228  0.00  0.00     0.027 A 
ATOM      5  C5  DEN d   1       2.350   2.854   2.023  0.00  0.00    -0.003 A 
ATOM      6  C6  DEN d   1       2.749   3.874   1.200  0.00  0.00     0.001 A 
ATOM      7  C7  DEN d   1       3.824   4.648   1.551  0.00  0.00     0.017 A 
ATOM      8  C8  DEN d   1       4.446   4.401   2.768  0.00  0.00    -0.094 A 
ATOM      9  C9  DEN d   1       4.035   3.357   3.580  0.00  0.00    -0.072 A 
ENDROOT
TORSDOF 0
ENDMDL
