MODEL 1
REMARK minimizedAffinity 3.06089592
REMARK minimizedRMSD -1
REMARK  0 active torsions:
REMARK  status: ('A' for Active; 'I' for Inactive)
ROOT
ATOM      1  C1  DEN d   1       1.486   2.538   2.643  0.00  0.00     0.130 A 
ATOM      2  C2  DEN d   1       2.536   1.761   1.990  0.00  0.00    -0.031 A 
ATOM      3  C3  DEN d   1       3.772   2.569   1.996  0.00  0.00     0.027 A 
ATOM      4  C4  DEN d   1       4.162   4.932   2.952  0.00  0.00     0.027 A 
ATOM      5  C5  DEN d   1       3.565   5.997   3.591  0.00  0.00    -0.003 A 
ATOM      6  C6  DEN d   1       2.237   5.997   3.926  0.00  0.00     0.001 A 
ATOM      7  C7  DEN d   1       1.471   4.892   3.663  0.00  0.00     0.017 A 
ATOM      8  C8  DEN d   1       2.063   3.818   3.012  0.00  0.00    -0.094 A 
ATOM      9  C9  DEN d   1       3.410   3.832   2.693  0.00  0.00    -0.072 A 
ENDROOT
TORSDOF 0
ENDMDL
