MODEL 1
REMARK minimizedAffinity 12.9326868
REMARK minimizedRMSD -1
REMARK  0 active torsions:
REMARK  status: ('A' for Active; 'I' for Inactive)
ROOT
ATOM      1  C1  DEN d   1       2.221   1.819  -4.952  0.00  0.00     0.130 A 
ATOM      2  C2  DEN d   1       1.835   0.709  -4.085  0.00  0.00    -0.031 A 
ATOM      3  C3  DEN d   1       2.754   0.691  -2.930  0.00  0.00     0.027 A 
ATOM      4  C4  DEN d   1       4.723   2.270  -2.398  0.00  0.00     0.027 A 
ATOM      5  C5  DEN d   1       5.442   3.357  -2.844  0.00  0.00    -0.003 A 
ATOM      6  C6  DEN d   1       5.163   3.980  -4.031  0.00  0.00     0.001 A 
ATOM      7  C7  DEN d   1       4.108   3.550  -4.792  0.00  0.00     0.017 A 
ATOM      8  C8  DEN d   1       3.382   2.451  -4.352  0.00  0.00    -0.094 A 
ATOM      9  C9  DEN d   1       3.673   1.842  -3.143  0.00  0.00    -0.072 A 
ENDROOT
TORSDOF 0
ENDMDL
