MODEL 1
REMARK minimizedAffinity 9.08669567
REMARK minimizedRMSD -1
REMARK  0 active torsions:
REMARK  status: ('A' for Active; 'I' for Inactive)
ROOT
ATOM      1  C1  DEN d   1       3.931  -5.994  -4.938  0.00  0.00     0.130 A 
ATOM      2  C2  DEN d   1       4.889  -5.972  -3.836  0.00  0.00    -0.031 A 
ATOM      3  C3  DEN d   1       4.128  -5.958  -2.570  0.00  0.00     0.027 A 
ATOM      4  C4  DEN d   1       1.574  -5.974  -2.212  0.00  0.00     0.027 A 
ATOM      5  C5  DEN d   1       0.351  -5.981  -2.846  0.00  0.00    -0.003 A 
ATOM      6  C6  DEN d   1       0.237  -5.958  -4.211  0.00  0.00     0.001 A 
ATOM      7  C7  DEN d   1       1.366  -5.973  -4.987  0.00  0.00     0.017 A 
ATOM      8  C8  DEN d   1       2.602  -5.959  -4.355  0.00  0.00    -0.094 A 
ATOM      9  C9  DEN d   1       2.696  -5.995  -2.974  0.00  0.00    -0.072 A 
ENDROOT
TORSDOF 0
ENDMDL
