MODEL 1
REMARK minimizedAffinity 2.32930613
REMARK minimizedRMSD -1
REMARK  0 active torsions:
REMARK  status: ('A' for Active; 'I' for Inactive)
ROOT
ATOM      1  C1  DEN d   1      -1.832  -3.395  -0.985  0.00  0.00     0.130 A 
ATOM      2  C2  DEN d   1      -2.237  -4.526  -1.815  0.00  0.00    -0.031 A 
ATOM      3  C3  DEN d   1      -1.151  -5.525  -1.788  0.00  0.00     0.027 A 
ATOM      4  C4  DEN d   1       1.106  -5.434  -0.543  0.00  0.00     0.027 A 
ATOM      5  C5  DEN d   1       1.904  -4.671   0.280  0.00  0.00    -0.003 A 
ATOM      6  C6  DEN d   1       1.530  -3.424   0.709  0.00  0.00     0.001 A 
ATOM      7  C7  DEN d   1       0.307  -2.923   0.352  0.00  0.00     0.017 A 
ATOM      8  C8  DEN d   1      -0.500  -3.684  -0.484  0.00  0.00    -0.094 A 
ATOM      9  C9  DEN d   1      -0.110  -4.946  -0.897  0.00  0.00    -0.072 A 
ENDROOT
TORSDOF 0
ENDMDL
