MODEL 1
REMARK minimizedAffinity 11.1902494
REMARK minimizedRMSD -1
REMARK  0 active torsions:
REMARK  status: ('A' for Active; 'I' for Inactive)
ROOT
ATOM      1  C1  DEN d   1      -2.996   1.210   1.339  0.00  0.00     0.130 A 
ATOM      2  C2  DEN d   1      -2.571  -0.014   0.666  0.00  0.00    -0.031 A 
ATOM      3  C3  DEN d   1      -3.395  -0.177  -0.548  0.00  0.00     0.027 A 
ATOM      4  C4  DEN d   1      -5.274   1.341  -1.450  0.00  0.00     0.027 A 
ATOM      5  C5  DEN d   1      -6.000   2.489  -1.216  0.00  0.00    -0.003 A 
ATOM      6  C6  DEN d   1      -5.800   3.265  -0.106  0.00  0.00     0.001 A 
ATOM      7  C7  DEN d   1      -4.820   2.929   0.790  0.00  0.00     0.017 A 
ATOM      8  C8  DEN d   1      -4.089   1.770   0.565  0.00  0.00    -0.094 A 
ATOM      9  C9  DEN d   1      -4.298   1.004  -0.569  0.00  0.00    -0.072 A 
ENDROOT
TORSDOF 0
ENDMDL
