MODEL 1
REMARK minimizedAffinity 8.85217476
REMARK minimizedRMSD -1
REMARK  0 active torsions:
REMARK  status: ('A' for Active; 'I' for Inactive)
ROOT
ATOM      1  C1  DEN d   1       2.898   3.607   1.107  0.00  0.00     0.130 A 
ATOM      2  C2  DEN d   1       2.936   2.157   0.943  0.00  0.00    -0.031 A 
ATOM      3  C3  DEN d   1       2.401   1.544   2.175  0.00  0.00     0.027 A 
ATOM      4  C4  DEN d   1       1.518   2.695   4.308  0.00  0.00     0.027 A 
ATOM      5  C5  DEN d   1       1.298   3.910   4.919  0.00  0.00    -0.003 A 
ATOM      6  C6  DEN d   1       1.624   5.098   4.321  0.00  0.00     0.001 A 
ATOM      7  C7  DEN d   1       2.148   5.099   3.055  0.00  0.00     0.017 A 
ATOM      8  C8  DEN d   1       2.380   3.878   2.435  0.00  0.00    -0.094 A 
ATOM      9  C9  DEN d   1       2.031   2.688   3.052  0.00  0.00    -0.072 A 
ENDROOT
TORSDOF 0
ENDMDL
