MODEL 1
REMARK minimizedAffinity 9.12874603
REMARK minimizedRMSD -1
REMARK  0 active torsions:
REMARK  status: ('A' for Active; 'I' for Inactive)
ROOT
ATOM      1  C   UNL d   1      -4.963   2.358  -3.158  0.00  0.00     0.020 A 
ATOM      2  C1  UNL d   1      -5.999   1.877  -2.359  0.00  0.00     0.020 A 
ATOM      3  C2  UNL d   1      -5.961   0.565  -1.882  0.00  0.00     0.034 A 
ATOM      4  C3  UNL d   1      -4.886  -0.270  -2.204  0.00  0.00     0.017 A 
ATOM      5  C4  UNL d   1      -3.846   0.213  -3.006  0.00  0.00     0.017 A 
ATOM      6  C5  UNL d   1      -3.888   1.528  -3.481  0.00  0.00     0.034 A 
ATOM      7 Cl   UNL d   1      -2.485  -0.758  -3.445  0.00  0.00    -0.070 Cl
ATOM      8 Cl1  UNL d   1      -4.904  -1.881  -1.579  0.00  0.00    -0.070 Cl
ENDROOT
TORSDOF 0
ENDMDL
