MODEL 1
REMARK minimizedAffinity 1.8751111
REMARK minimizedRMSD -1
REMARK  0 active torsions:
REMARK  status: ('A' for Active; 'I' for Inactive)
ROOT
ATOM      1  C   UNL d   1       4.886  -5.225  -2.130  0.00  0.00     0.020 A 
ATOM      2  C1  UNL d   1       3.493  -5.258  -2.164  0.00  0.00     0.020 A 
ATOM      3  C2  UNL d   1       2.829  -5.499  -3.369  0.00  0.00     0.034 A 
ATOM      4  C3  UNL d   1       3.559  -5.707  -4.545  0.00  0.00     0.017 A 
ATOM      5  C4  UNL d   1       4.958  -5.674  -4.510  0.00  0.00     0.017 A 
ATOM      6  C5  UNL d   1       5.617  -5.433  -3.301  0.00  0.00     0.034 A 
ATOM      7 Cl   UNL d   1       5.927  -5.923  -5.920  0.00  0.00    -0.070 Cl
ATOM      8 Cl1  UNL d   1       2.673  -6.000  -6.000  0.00  0.00    -0.070 Cl
ENDROOT
TORSDOF 0
ENDMDL
