MODEL 1
REMARK minimizedAffinity 3.00249267
REMARK minimizedRMSD -1
REMARK  0 active torsions:
REMARK  status: ('A' for Active; 'I' for Inactive)
ROOT
ATOM      1  C   UNL d   1       1.771  -4.676   3.007  0.00  0.00     0.020 A 
ATOM      2  C1  UNL d   1       1.089  -4.589   4.220  0.00  0.00     0.020 A 
ATOM      3  C2  UNL d   1       0.945  -3.352   4.853  0.00  0.00     0.034 A 
ATOM      4  C3  UNL d   1       1.483  -2.198   4.272  0.00  0.00     0.017 A 
ATOM      5  C4  UNL d   1       2.167  -2.286   3.054  0.00  0.00     0.017 A 
ATOM      6  C5  UNL d   1       2.308  -3.527   2.426  0.00  0.00     0.034 A 
ATOM      7 Cl   UNL d   1       2.858  -0.906   2.277  0.00  0.00    -0.070 Cl
ATOM      8 Cl1  UNL d   1       1.267  -0.702   5.109  0.00  0.00    -0.070 Cl
ENDROOT
TORSDOF 0
ENDMDL
