MODEL 1
REMARK minimizedAffinity 1.89733863
REMARK minimizedRMSD -1
REMARK  0 active torsions:
REMARK  status: ('A' for Active; 'I' for Inactive)
ROOT
ATOM      1  C   UNL d   1       1.563  -4.199   4.697  0.00  0.00     0.020 A 
ATOM      2  C1  UNL d   1       0.591  -3.382   4.121  0.00  0.00     0.020 A 
ATOM      3  C2  UNL d   1       0.970  -2.306   3.316  0.00  0.00     0.034 A 
ATOM      4  C3  UNL d   1       2.325  -2.044   3.084  0.00  0.00     0.017 A 
ATOM      5  C4  UNL d   1       3.301  -2.865   3.662  0.00  0.00     0.017 A 
ATOM      6  C5  UNL d   1       2.915  -3.941   4.468  0.00  0.00     0.034 A 
ATOM      7 Cl   UNL d   1       4.992  -2.604   3.422  0.00  0.00    -0.070 Cl
ATOM      8 Cl1  UNL d   1       2.722  -0.697   2.078  0.00  0.00    -0.070 Cl
ENDROOT
TORSDOF 0
ENDMDL
