MODEL 1
REMARK minimizedAffinity 2.20863628
REMARK minimizedRMSD -1
REMARK  0 active torsions:
REMARK  status: ('A' for Active; 'I' for Inactive)
ROOT
ATOM      1  C   UNL d   1       1.204  -1.629   4.013  0.00  0.00     0.020 A 
ATOM      2  C1  UNL d   1       1.838  -2.168   2.894  0.00  0.00     0.020 A 
ATOM      3  C2  UNL d   1       2.528  -1.332   2.013  0.00  0.00     0.034 A 
ATOM      4  C3  UNL d   1       2.586   0.046   2.249  0.00  0.00     0.017 A 
ATOM      5  C4  UNL d   1       1.949   0.586   3.372  0.00  0.00     0.017 A 
ATOM      6  C5  UNL d   1       1.260  -0.255   4.251  0.00  0.00     0.034 A 
ATOM      7 Cl   UNL d   1       1.976   2.277   3.729  0.00  0.00    -0.070 Cl
ATOM      8 Cl1  UNL d   1       3.457   1.019   1.117  0.00  0.00    -0.070 Cl
ENDROOT
TORSDOF 0
ENDMDL
