MODEL 1
REMARK minimizedAffinity 1.24929273
REMARK minimizedRMSD -1
REMARK  0 active torsions:
REMARK  status: ('A' for Active; 'I' for Inactive)
ROOT
ATOM      1  C   UNL d   1       2.479  -5.999  -2.040  0.00  0.00     0.020 A 
ATOM      2  C1  UNL d   1       3.865  -5.999  -1.887  0.00  0.00     0.020 A 
ATOM      3  C2  UNL d   1       4.692  -5.999  -3.013  0.00  0.00     0.034 A 
ATOM      4  C3  UNL d   1       4.133  -5.999  -4.296  0.00  0.00     0.017 A 
ATOM      5  C4  UNL d   1       2.742  -5.999  -4.449  0.00  0.00     0.017 A 
ATOM      6  C5  UNL d   1       1.919  -5.999  -3.318  0.00  0.00     0.034 A 
ATOM      7 Cl   UNL d   1       1.979  -5.999  -6.000  0.00  0.00    -0.070 Cl
ATOM      8 Cl1  UNL d   1       5.215  -5.999  -5.644  0.00  0.00    -0.070 Cl
ENDROOT
TORSDOF 0
ENDMDL
