MODEL 1
REMARK minimizedAffinity 3.82919216
REMARK minimizedRMSD -1
REMARK  0 active torsions:
REMARK  status: ('A' for Active; 'I' for Inactive)
ROOT
ATOM      1  C   UNL d   1       4.597  -5.990  -2.030  0.00  0.00     0.020 A 
ATOM      2  C1  UNL d   1       3.334  -5.994  -1.439  0.00  0.00     0.020 A 
ATOM      3  C2  UNL d   1       2.189  -5.997  -2.239  0.00  0.00     0.034 A 
ATOM      4  C3  UNL d   1       2.304  -5.996  -3.633  0.00  0.00     0.017 A 
ATOM      5  C4  UNL d   1       3.572  -5.993  -4.226  0.00  0.00     0.017 A 
ATOM      6  C5  UNL d   1       4.715  -5.990  -3.420  0.00  0.00     0.034 A 
ATOM      7 Cl   UNL d   1       3.795  -5.992  -5.940  0.00  0.00    -0.070 Cl
ATOM      8 Cl1  UNL d   1       0.846  -6.000  -4.560  0.00  0.00    -0.070 Cl
ENDROOT
TORSDOF 0
ENDMDL
