MODEL 1
REMARK minimizedAffinity 6.73290014
REMARK minimizedRMSD -1
REMARK  0 active torsions:
REMARK  status: ('A' for Active; 'I' for Inactive)
ROOT
ATOM      1  C   UNL d   1       2.691  -4.581   2.675  0.00  0.00     0.020 A 
ATOM      2  C1  UNL d   1       1.638  -3.734   2.333  0.00  0.00     0.020 A 
ATOM      3  C2  UNL d   1       1.375  -2.600   3.104  0.00  0.00     0.034 A 
ATOM      4  C3  UNL d   1       2.166  -2.310   4.222  0.00  0.00     0.017 A 
ATOM      5  C4  UNL d   1       3.223  -3.160   4.564  0.00  0.00     0.017 A 
ATOM      6  C5  UNL d   1       3.482  -4.294   3.788  0.00  0.00     0.034 A 
ATOM      7 Cl   UNL d   1       4.243  -2.868   5.929  0.00  0.00    -0.070 Cl
ATOM      8 Cl1  UNL d   1       1.784  -0.891   5.130  0.00  0.00    -0.070 Cl
ENDROOT
TORSDOF 0
ENDMDL
