MODEL 1
REMARK minimizedAffinity 1.89719725
REMARK minimizedRMSD -1
REMARK  0 active torsions:
REMARK  status: ('A' for Active; 'I' for Inactive)
ROOT
ATOM      1  C   UNL d   1       2.167  -4.087   3.937  0.00  0.00     0.020 A 
ATOM      2  C1  UNL d   1       1.164  -3.268   3.420  0.00  0.00     0.020 A 
ATOM      3  C2  UNL d   1       1.497  -2.061   2.801  0.00  0.00     0.034 A 
ATOM      4  C3  UNL d   1       2.837  -1.670   2.697  0.00  0.00     0.017 A 
ATOM      5  C4  UNL d   1       3.844  -2.493   3.216  0.00  0.00     0.017 A 
ATOM      6  C5  UNL d   1       3.504  -3.700   3.835  0.00  0.00     0.034 A 
ATOM      7 Cl   UNL d   1       5.519  -2.077   3.125  0.00  0.00    -0.070 Cl
ATOM      8 Cl1  UNL d   1       3.177  -0.165   1.918  0.00  0.00    -0.070 Cl
ENDROOT
TORSDOF 0
ENDMDL
