MODEL 1
REMARK minimizedAffinity 12.8549423
REMARK minimizedRMSD -1
REMARK  0 active torsions:
REMARK  status: ('A' for Active; 'I' for Inactive)
ROOT
ATOM      1  C   UNL d   1       3.137  -5.347  -2.266  0.00  0.00     0.020 A 
ATOM      2  C1  UNL d   1       4.444  -5.805  -2.427  0.00  0.00     0.020 A 
ATOM      3  C2  UNL d   1       5.258  -6.000  -1.310  0.00  0.00     0.034 A 
ATOM      4  C3  UNL d   1       4.767  -5.736  -0.026  0.00  0.00     0.017 A 
ATOM      5  C4  UNL d   1       3.455  -5.276   0.134  0.00  0.00     0.017 A 
ATOM      6  C5  UNL d   1       2.644  -5.083  -0.988  0.00  0.00     0.034 A 
ATOM      7 Cl   UNL d   1       2.778  -4.929   1.686  0.00  0.00    -0.070 Cl
ATOM      8 Cl1  UNL d   1       5.829  -6.000   1.311  0.00  0.00    -0.070 Cl
ENDROOT
TORSDOF 0
ENDMDL
