MODEL 1
REMARK minimizedAffinity 11.0840168
REMARK minimizedRMSD -1
REMARK  0 active torsions:
REMARK  status: ('A' for Active; 'I' for Inactive)
ROOT
ATOM      1  C   UNL d   1      -5.803   4.538  -1.333  0.00  0.00     0.020 A 
ATOM      2  C1  UNL d   1      -6.000   3.235  -1.788  0.00  0.00     0.020 A 
ATOM      3  C2  UNL d   1      -5.999   2.172  -0.883  0.00  0.00     0.034 A 
ATOM      4  C3  UNL d   1      -5.801   2.410   0.482  0.00  0.00     0.017 A 
ATOM      5  C4  UNL d   1      -5.603   3.718   0.938  0.00  0.00     0.017 A 
ATOM      6  C5  UNL d   1      -5.604   4.779   0.027  0.00  0.00     0.034 A 
ATOM      7 Cl   UNL d   1      -5.351   4.090   2.607  0.00  0.00    -0.070 Cl
ATOM      8 Cl1  UNL d   1      -5.812   1.047   1.545  0.00  0.00    -0.070 Cl
ENDROOT
TORSDOF 0
ENDMDL
