MODEL 1
REMARK minimizedAffinity 8.89622211
REMARK minimizedRMSD -1
REMARK  0 active torsions:
REMARK  status: ('A' for Active; 'I' for Inactive)
ROOT
ATOM      1  C   UNL d   1       3.649  -3.380   4.622  0.00  0.00     0.020 A 
ATOM      2  C1  UNL d   1       2.849  -4.515   4.500  0.00  0.00     0.020 A 
ATOM      3  C2  UNL d   1       1.654  -4.453   3.781  0.00  0.00     0.034 A 
ATOM      4  C3  UNL d   1       1.254  -3.253   3.182  0.00  0.00     0.017 A 
ATOM      5  C4  UNL d   1       2.058  -2.113   3.306  0.00  0.00     0.017 A 
ATOM      6  C5  UNL d   1       3.254  -2.181   4.026  0.00  0.00     0.034 A 
ATOM      7 Cl   UNL d   1       1.631  -0.597   2.595  0.00  0.00    -0.070 Cl
ATOM      8 Cl1  UNL d   1      -0.236  -3.248   2.308  0.00  0.00    -0.070 Cl
ENDROOT
TORSDOF 0
ENDMDL
