MODEL 1
REMARK minimizedAffinity -2.51727891
REMARK minimizedRMSD -1
REMARK  0 active torsions:
REMARK  status: ('A' for Active; 'I' for Inactive)
ROOT
ATOM      1  C   UNL d   1       2.130  -3.488   2.543  0.00  0.00     0.020 A 
ATOM      2  C1  UNL d   1       1.194  -2.632   3.122  0.00  0.00     0.020 A 
ATOM      3  C2  UNL d   1       1.397  -1.251   3.090  0.00  0.00     0.034 A 
ATOM      4  C3  UNL d   1       2.539  -0.722   2.477  0.00  0.00     0.017 A 
ATOM      5  C4  UNL d   1       3.478  -1.582   1.896  0.00  0.00     0.017 A 
ATOM      6  C5  UNL d   1       3.269  -2.965   1.932  0.00  0.00     0.034 A 
ATOM      7 Cl   UNL d   1       4.911  -1.004   1.122  0.00  0.00    -0.070 Cl
ATOM      8 Cl1  UNL d   1       2.726   0.996   2.473  0.00  0.00    -0.070 Cl
ENDROOT
TORSDOF 0
ENDMDL
