MODEL 1
REMARK minimizedAffinity -0.359362274
REMARK minimizedRMSD -1
REMARK  0 active torsions:
REMARK  status: ('A' for Active; 'I' for Inactive)
ROOT
ATOM      1  C   UNL d   1       0.933  -2.176   2.179  0.00  0.00     0.020 A 
ATOM      2  C1  UNL d   1       1.957  -1.412   1.620  0.00  0.00     0.020 A 
ATOM      3  C2  UNL d   1       3.241  -1.456   2.169  0.00  0.00     0.034 A 
ATOM      4  C3  UNL d   1       3.503  -2.265   3.281  0.00  0.00     0.017 A 
ATOM      5  C4  UNL d   1       2.475  -3.032   3.841  0.00  0.00     0.017 A 
ATOM      6  C5  UNL d   1       1.192  -2.984   3.287  0.00  0.00     0.034 A 
ATOM      7 Cl   UNL d   1       2.722  -4.054   5.212  0.00  0.00    -0.070 Cl
ATOM      8 Cl1  UNL d   1       5.113  -2.272   3.908  0.00  0.00    -0.070 Cl
ENDROOT
TORSDOF 0
ENDMDL
