MODEL 1
REMARK minimizedAffinity -1.58706462
REMARK minimizedRMSD -1
REMARK  0 active torsions:
REMARK  status: ('A' for Active; 'I' for Inactive)
ROOT
ATOM      1  C   UNL d   1      -1.529  -2.918   3.100  0.00  0.00     0.077 C 
ATOM      2  C1  UNL d   1      -0.229  -3.055   2.363  0.00  0.00    -0.074 A 
ATOM      3  C2  UNL d   1       0.638  -4.121   2.628  0.00  0.00    -0.005 A 
ATOM      4  C3  UNL d   1       1.838  -4.241   1.928  0.00  0.00     0.006 A 
ATOM      5  C4  UNL d   1       2.184  -3.298   0.959  0.00  0.00    -0.005 A 
ATOM      6  C5  UNL d   1       1.329  -2.227   0.680  0.00  0.00    -0.074 A 
ATOM      7  C6  UNL d   1       1.681  -1.211  -0.365  0.00  0.00     0.077 C 
ATOM      8  C7  UNL d   1       0.121  -2.117   1.383  0.00  0.00    -0.001 A 
ENDROOT
TORSDOF 0
ENDMDL
