MODEL 1
REMARK minimizedAffinity 2.33910108
REMARK minimizedRMSD -1
REMARK  0 active torsions:
REMARK  status: ('A' for Active; 'I' for Inactive)
ROOT
ATOM      1  C   UNL d   1       2.918   1.830   1.086  0.00  0.00     0.077 C 
ATOM      2  C1  UNL d   1       2.050   0.608   1.056  0.00  0.00    -0.074 A 
ATOM      3  C2  UNL d   1       0.788   0.608   1.660  0.00  0.00    -0.005 A 
ATOM      4  C3  UNL d   1      -0.012  -0.534   1.616  0.00  0.00     0.006 A 
ATOM      5  C4  UNL d   1       0.440  -1.685   0.969  0.00  0.00    -0.005 A 
ATOM      6  C5  UNL d   1       1.698  -1.703   0.359  0.00  0.00    -0.074 A 
ATOM      7  C6  UNL d   1       2.195  -2.928  -0.349  0.00  0.00     0.077 C 
ATOM      8  C7  UNL d   1       2.494  -0.550   0.402  0.00  0.00    -0.001 A 
ENDROOT
TORSDOF 0
ENDMDL
