MODEL 1
REMARK minimizedAffinity -2.67899394
REMARK minimizedRMSD -1
REMARK  0 active torsions:
REMARK  status: ('A' for Active; 'I' for Inactive)
ROOT
ATOM      1  C   UNL d   1      -0.923  -3.192   2.976  0.00  0.00     0.077 C 
ATOM      2  C1  UNL d   1       0.046  -2.802   1.899  0.00  0.00    -0.074 A 
ATOM      3  C2  UNL d   1      -0.189  -1.684   1.091  0.00  0.00    -0.005 A 
ATOM      4  C3  UNL d   1       0.726  -1.328   0.101  0.00  0.00     0.006 A 
ATOM      5  C4  UNL d   1       1.883  -2.084  -0.092  0.00  0.00    -0.005 A 
ATOM      6  C5  UNL d   1       2.135  -3.204   0.707  0.00  0.00    -0.074 A 
ATOM      7  C6  UNL d   1       3.379  -4.022   0.520  0.00  0.00     0.077 C 
ATOM      8  C7  UNL d   1       1.214  -3.551   1.705  0.00  0.00    -0.001 A 
ENDROOT
TORSDOF 0
ENDMDL
