MODEL 1
REMARK minimizedAffinity 2.29752135
REMARK minimizedRMSD -1
REMARK  0 active torsions:
REMARK  status: ('A' for Active; 'I' for Inactive)
ROOT
ATOM      1  C   UNL d   1       1.067   2.897  -5.755  0.00  0.00     0.077 C 
ATOM      2  C1  UNL d   1      -0.107   3.819  -5.603  0.00  0.00    -0.074 A 
ATOM      3  C2  UNL d   1      -0.027   5.157  -5.999  0.00  0.00    -0.005 A 
ATOM      4  C3  UNL d   1      -1.129   6.000  -5.860  0.00  0.00     0.006 A 
ATOM      5  C4  UNL d   1      -2.322   5.513  -5.324  0.00  0.00    -0.005 A 
ATOM      6  C5  UNL d   1      -2.422   4.177  -4.922  0.00  0.00    -0.074 A 
ATOM      7  C6  UNL d   1      -3.699   3.635  -4.353  0.00  0.00     0.077 C 
ATOM      8  C7  UNL d   1      -1.311   3.335  -5.072  0.00  0.00    -0.001 A 
ENDROOT
TORSDOF 0
ENDMDL
