MODEL 1
REMARK minimizedAffinity 3.78160477
REMARK minimizedRMSD -1
REMARK  0 active torsions:
REMARK  status: ('A' for Active; 'I' for Inactive)
ROOT
ATOM      1  C   UNL d   1       2.822  -4.043   1.384  0.00  0.00     0.077 C 
ATOM      2  C1  UNL d   1       2.015  -2.779   1.359  0.00  0.00    -0.074 A 
ATOM      3  C2  UNL d   1       0.698  -2.757   1.827  0.00  0.00    -0.005 A 
ATOM      4  C3  UNL d   1      -0.037  -1.572   1.805  0.00  0.00     0.006 A 
ATOM      5  C4  UNL d   1       0.538  -0.398   1.317  0.00  0.00    -0.005 A 
ATOM      6  C5  UNL d   1       1.855  -0.400   0.845  0.00  0.00    -0.074 A 
ATOM      7  C6  UNL d   1       2.491   0.855   0.326  0.00  0.00     0.077 C 
ATOM      8  C7  UNL d   1       2.588  -1.594   0.876  0.00  0.00    -0.001 A 
ENDROOT
TORSDOF 0
ENDMDL
