MODEL 1
REMARK minimizedAffinity 3.8007412
REMARK minimizedRMSD -1
REMARK  0 active torsions:
REMARK  status: ('A' for Active; 'I' for Inactive)
ROOT
ATOM      1  C   UNL d   1      -5.851  -0.028  -5.980  0.00  0.00     0.077 C 
ATOM      2  C1  UNL d   1      -4.986  -1.253  -5.994  0.00  0.00    -0.074 A 
ATOM      3  C2  UNL d   1      -3.591  -1.148  -5.995  0.00  0.00    -0.005 A 
ATOM      4  C3  UNL d   1      -2.799  -2.296  -5.998  0.00  0.00     0.006 A 
ATOM      5  C4  UNL d   1      -3.393  -3.559  -6.000  0.00  0.00    -0.005 A 
ATOM      6  C5  UNL d   1      -4.786  -3.683  -5.997  0.00  0.00    -0.074 A 
ATOM      7  C6  UNL d   1      -5.440  -5.033  -5.988  0.00  0.00     0.077 C 
ATOM      8  C7  UNL d   1      -5.575  -2.525  -5.987  0.00  0.00    -0.001 A 
ENDROOT
TORSDOF 0
ENDMDL
