MODEL 1
REMARK minimizedAffinity 1.46819508
REMARK minimizedRMSD -1
REMARK  0 active torsions:
REMARK  status: ('A' for Active; 'I' for Inactive)
ROOT
ATOM      1  C   UNL d   1      -3.394   5.306   5.981  0.00  0.00     0.077 C 
ATOM      2  C1  UNL d   1      -4.058   4.064   5.463  0.00  0.00    -0.074 A 
ATOM      3  C2  UNL d   1      -5.273   3.624   5.996  0.00  0.00    -0.005 A 
ATOM      4  C3  UNL d   1      -5.883   2.472   5.499  0.00  0.00     0.006 A 
ATOM      5  C4  UNL d   1      -5.285   1.751   4.465  0.00  0.00    -0.005 A 
ATOM      6  C5  UNL d   1      -4.069   2.176   3.919  0.00  0.00    -0.074 A 
ATOM      7  C6  UNL d   1      -3.417   1.418   2.801  0.00  0.00     0.077 C 
ATOM      8  C7  UNL d   1      -3.466   3.338   4.420  0.00  0.00    -0.001 A 
ENDROOT
TORSDOF 0
ENDMDL
