MODEL 1
REMARK minimizedAffinity -1.495646
REMARK minimizedRMSD -1
REMARK  0 active torsions:
REMARK  status: ('A' for Active; 'I' for Inactive)
ROOT
ATOM      1  C   UNL d   1       1.370  -0.575   1.877  0.00  0.00     0.124 A 
ATOM      2  C1  UNL d   1       0.228  -1.354   1.759  0.00  0.00     0.062 A 
ATOM      3  C2  UNL d   1      -0.770  -1.001   0.854  0.00  0.00     0.162 A 
ATOM      4  C3  UNL d   1      -0.628   0.137   0.059  0.00  0.00    -0.034 A 
ATOM      5  C4  UNL d   1       0.523   0.916   0.185  0.00  0.00     0.162 A 
ATOM      6  C5  UNL d   1       1.517   0.559   1.090  0.00  0.00     0.062 A 
ATOM      7  F   UNL d   1       2.621   1.312   1.203  0.00  0.00    -0.097 F 
ATOM      8  F1  UNL d   1       0.692   2.016  -0.564  0.00  0.00    -0.096 F 
ATOM      9  I   UNL d   1      -2.117   0.668  -1.294  0.00  0.00    -0.060 I 
ATOM     10  F2  UNL d   1      -1.863  -1.772   0.761  0.00  0.00    -0.096 F 
ATOM     11  F3  UNL d   1       0.083  -2.449   2.518  0.00  0.00    -0.097 F 
ATOM     12  F4  UNL d   1       2.328  -0.916   2.749  0.00  0.00    -0.092 F 
ENDROOT
TORSDOF 0
ENDMDL
