MODEL 1
REMARK minimizedAffinity -3.80959272
REMARK minimizedRMSD -1
REMARK  0 active torsions:
REMARK  status: ('A' for Active; 'I' for Inactive)
ROOT
ATOM      1  C   UNL d   1       2.958  -0.227   1.805  0.00  0.00     0.124 A 
ATOM      2  C1  UNL d   1       2.193  -1.367   1.603  0.00  0.00     0.062 A 
ATOM      3  C2  UNL d   1       0.975  -1.285   0.935  0.00  0.00     0.162 A 
ATOM      4  C3  UNL d   1       0.514  -0.056   0.462  0.00  0.00    -0.034 A 
ATOM      5  C4  UNL d   1       1.288   1.087   0.670  0.00  0.00     0.162 A 
ATOM      6  C5  UNL d   1       2.505   0.999   1.339  0.00  0.00     0.062 A 
ATOM      7  F   UNL d   1       3.242   2.102   1.533  0.00  0.00    -0.097 F 
ATOM      8  F1  UNL d   1       0.875   2.285   0.229  0.00  0.00    -0.096 F 
ATOM      9  I   UNL d   1      -1.306   0.072  -0.538  0.00  0.00    -0.060 I 
ATOM     10  F2  UNL d   1       0.258  -2.403   0.754  0.00  0.00    -0.096 F 
ATOM     11  F3  UNL d   1       2.629  -2.553   2.054  0.00  0.00    -0.097 F 
ATOM     12  F4  UNL d   1       4.129  -0.309   2.450  0.00  0.00    -0.092 F 
ENDROOT
TORSDOF 0
ENDMDL
