MODEL 1
REMARK minimizedAffinity -1.21212733
REMARK minimizedRMSD -1
REMARK  0 active torsions:
REMARK  status: ('A' for Active; 'I' for Inactive)
ROOT
ATOM      1  C   UNL d   1       0.880   1.668   0.256  0.00  0.00     0.124 A 
ATOM      2  C1  UNL d   1      -0.284   0.918   0.363  0.00  0.00     0.062 A 
ATOM      3  C2  UNL d   1      -0.257  -0.331   0.977  0.00  0.00     0.162 A 
ATOM      4  C3  UNL d   1       0.936  -0.838   1.490  0.00  0.00    -0.034 A 
ATOM      5  C4  UNL d   1       2.102  -0.078   1.378  0.00  0.00     0.162 A 
ATOM      6  C5  UNL d   1       2.071   1.169   0.763  0.00  0.00     0.062 A 
ATOM      7  F   UNL d   1       3.196   1.892   0.661  0.00  0.00    -0.097 F 
ATOM      8  F1  UNL d   1       3.267  -0.536   1.860  0.00  0.00    -0.096 F 
ATOM      9  I   UNL d   1       0.980  -2.705   2.408  0.00  0.00    -0.060 I 
ATOM     10  F2  UNL d   1      -1.397  -1.033   1.066  0.00  0.00    -0.096 F 
ATOM     11  F3  UNL d   1      -1.436   1.398  -0.127  0.00  0.00    -0.097 F 
ATOM     12  F4  UNL d   1       0.852   2.869  -0.336  0.00  0.00    -0.092 F 
ENDROOT
TORSDOF 0
ENDMDL
