MODEL 1
REMARK minimizedAffinity -1.08510399
REMARK minimizedRMSD -1
REMARK  0 active torsions:
REMARK  status: ('A' for Active; 'I' for Inactive)
ROOT
ATOM      1  C   UNL d   1       2.025  -0.179   1.171  0.00  0.00     0.124 A 
ATOM      2  C1  UNL d   1       1.921   1.086   0.610  0.00  0.00     0.062 A 
ATOM      3  C2  UNL d   1       0.773   1.450  -0.088  0.00  0.00     0.162 A 
ATOM      4  C3  UNL d   1      -0.282   0.548  -0.228  0.00  0.00    -0.034 A 
ATOM      5  C4  UNL d   1      -0.169  -0.723   0.339  0.00  0.00     0.162 A 
ATOM      6  C5  UNL d   1       0.980  -1.082   1.035  0.00  0.00     0.062 A 
ATOM      7  F   UNL d   1       1.079  -2.305   1.577  0.00  0.00    -0.097 F 
ATOM      8  F1  UNL d   1      -1.164  -1.615   0.223  0.00  0.00    -0.096 F 
ATOM      9  I   UNL d   1      -2.000   1.088  -1.270  0.00  0.00    -0.060 I 
ATOM     10  F2  UNL d   1       0.700   2.679  -0.620  0.00  0.00    -0.096 F 
ATOM     11  F3  UNL d   1       2.929   1.960   0.739  0.00  0.00    -0.097 F 
ATOM     12  F4  UNL d   1       3.131  -0.527   1.841  0.00  0.00    -0.092 F 
ENDROOT
TORSDOF 0
ENDMDL
