MODEL 1
REMARK minimizedAffinity 1.00920081
REMARK minimizedRMSD -1
REMARK  0 active torsions:
REMARK  status: ('A' for Active; 'I' for Inactive)
ROOT
ATOM      1  C   UNL d   1      -2.092  -0.626   0.329  0.00  0.00     0.124 A 
ATOM      2  C1  UNL d   1      -1.412  -1.692   0.901  0.00  0.00     0.062 A 
ATOM      3  C2  UNL d   1      -0.029  -1.642   1.050  0.00  0.00     0.162 A 
ATOM      4  C3  UNL d   1       0.684  -0.521   0.627  0.00  0.00    -0.034 A 
ATOM      5  C4  UNL d   1      -0.006   0.548   0.051  0.00  0.00     0.162 A 
ATOM      6  C5  UNL d   1      -1.388   0.493  -0.096  0.00  0.00     0.062 A 
ATOM      7  F   UNL d   1      -2.043   1.524  -0.649  0.00  0.00    -0.097 F 
ATOM      8  F1  UNL d   1       0.649   1.641  -0.367  0.00  0.00    -0.096 F 
ATOM      9  I   UNL d   1       2.752  -0.442   0.848  0.00  0.00    -0.060 I 
ATOM     10  F2  UNL d   1       0.601  -2.687   1.607  0.00  0.00    -0.096 F 
ATOM     11  F3  UNL d   1      -2.089  -2.774   1.311  0.00  0.00    -0.097 F 
ATOM     12  F4  UNL d   1      -3.422  -0.677   0.186  0.00  0.00    -0.092 F 
ENDROOT
TORSDOF 0
ENDMDL
