MODEL 1
REMARK minimizedAffinity 0.48317346
REMARK minimizedRMSD -1
REMARK  0 active torsions:
REMARK  status: ('A' for Active; 'I' for Inactive)
ROOT
ATOM      1  C   UNL d   1      -2.976   1.401  -3.172  0.00  0.00     0.124 A 
ATOM      2  C1  UNL d   1      -2.700   0.070  -3.451  0.00  0.00     0.062 A 
ATOM      3  C2  UNL d   1      -2.195  -0.764  -2.457  0.00  0.00     0.162 A 
ATOM      4  C3  UNL d   1      -1.963  -0.268  -1.174  0.00  0.00    -0.034 A 
ATOM      5  C4  UNL d   1      -2.243   1.072  -0.901  0.00  0.00     0.162 A 
ATOM      6  C5  UNL d   1      -2.747   1.901  -1.898  0.00  0.00     0.062 A 
ATOM      7  F   UNL d   1      -3.014   3.187  -1.627  0.00  0.00    -0.097 F 
ATOM      8  F1  UNL d   1      -2.032   1.581   0.322  0.00  0.00    -0.096 F 
ATOM      9  I   UNL d   1      -1.209  -1.511   0.315  0.00  0.00    -0.060 I 
ATOM     10  F2  UNL d   1      -1.937  -2.046  -2.755  0.00  0.00    -0.096 F 
ATOM     11  F3  UNL d   1      -2.919  -0.415  -4.682  0.00  0.00    -0.097 F 
ATOM     12  F4  UNL d   1      -3.461   2.201  -4.131  0.00  0.00    -0.092 F 
ENDROOT
TORSDOF 0
ENDMDL
