MODEL 1
REMARK minimizedAffinity 6.57674122
REMARK minimizedRMSD -1
REMARK  0 active torsions:
REMARK  status: ('A' for Active; 'I' for Inactive)
ROOT
ATOM      1  C   UNL d   1       0.486  -0.710   0.332  0.00  0.00     0.124 A 
ATOM      2  C1  UNL d   1       1.656  -1.026   1.008  0.00  0.00     0.062 A 
ATOM      3  C2  UNL d   1       2.218  -0.115   1.897  0.00  0.00     0.162 A 
ATOM      4  C3  UNL d   1       1.611   1.122   2.116  0.00  0.00    -0.034 A 
ATOM      5  C4  UNL d   1       0.434   1.432   1.431  0.00  0.00     0.162 A 
ATOM      6  C5  UNL d   1      -0.123   0.518   0.543  0.00  0.00     0.062 A 
ATOM      7  F   UNL d   1      -1.254   0.825  -0.109  0.00  0.00    -0.097 F 
ATOM      8  F1  UNL d   1      -0.176   2.612   1.618  0.00  0.00    -0.096 F 
ATOM      9  I   UNL d   1       2.448   2.487   3.445  0.00  0.00    -0.060 I 
ATOM     10  F2  UNL d   1       3.349  -0.446   2.537  0.00  0.00    -0.096 F 
ATOM     11  F3  UNL d   1       2.248  -2.212   0.804  0.00  0.00    -0.097 F 
ATOM     12  F4  UNL d   1      -0.052  -1.589  -0.524  0.00  0.00    -0.092 F 
ENDROOT
TORSDOF 0
ENDMDL
