MODEL 1
REMARK minimizedAffinity 2.23274994
REMARK minimizedRMSD -1
REMARK  0 active torsions:
REMARK  status: ('A' for Active; 'I' for Inactive)
ROOT
ATOM      1  N1  IND d   1       0.094  -1.567   2.811  0.00  0.00    -0.196 N 
ATOM      2  C2  IND d   1       1.461  -1.553   2.788  0.00  0.00     0.054 A 
ATOM      3  C3  IND d   1       1.927  -2.509   1.954  0.00  0.00    -0.031 A 
ATOM      4  C4  IND d   1       0.626  -4.141   0.447  0.00  0.00     0.051 A 
ATOM      5  C5  IND d   1      -0.643  -4.555   0.151  0.00  0.00    -0.031 A 
ATOM      6  C6  IND d   1      -1.753  -3.982   0.736  0.00  0.00     0.015 A 
ATOM      7  C7  IND d   1      -1.636  -2.959   1.635  0.00  0.00    -0.016 A 
ATOM      8  C8  IND d   1      -0.349  -2.540   1.943  0.00  0.00    -0.047 A 
ATOM      9  C9  IND d   1       0.783  -3.147   1.384  0.00  0.00    -0.096 A 
ATOM     10  HN1 IND d   1      -0.405  -1.053   3.287  0.00  0.00     0.298 HD
ENDROOT
TORSDOF 0
ENDMDL
