MODEL 1
REMARK minimizedAffinity 7.32198906
REMARK minimizedRMSD -1
REMARK  0 active torsions:
REMARK  status: ('A' for Active; 'I' for Inactive)
ROOT
ATOM      1  N1  IND d   1       0.539   2.584  -3.423  0.00  0.00    -0.196 N 
ATOM      2  C2  IND d   1       1.780   2.774  -2.882  0.00  0.00     0.054 A 
ATOM      3  C3  IND d   1       2.374   3.855  -3.436  0.00  0.00    -0.031 A 
ATOM      4  C4  IND d   1       1.452   5.517  -5.173  0.00  0.00     0.051 A 
ATOM      5  C5  IND d   1       0.378   5.737  -5.989  0.00  0.00    -0.031 A 
ATOM      6  C6  IND d   1      -0.721   4.902  -5.989  0.00  0.00     0.015 A 
ATOM      7  C7  IND d   1      -0.791   3.817  -5.161  0.00  0.00    -0.016 A 
ATOM      8  C8  IND d   1       0.301   3.586  -4.337  0.00  0.00    -0.047 A 
ATOM      9  C9  IND d   1       1.436   4.406  -4.363  0.00  0.00    -0.096 A 
ATOM     10  HN1 IND d   1      -0.001   1.945  -3.226  0.00  0.00     0.298 HD
ENDROOT
TORSDOF 0
ENDMDL
