MODEL 1
REMARK minimizedAffinity 8.45355034
REMARK minimizedRMSD -1
REMARK  0 active torsions:
REMARK  status: ('A' for Active; 'I' for Inactive)
ROOT
ATOM      1  N1  IND d   1       2.217   4.185  -4.484  0.00  0.00    -0.196 N 
ATOM      2  C2  IND d   1       2.238   3.774  -3.180  0.00  0.00     0.054 A 
ATOM      3  C3  IND d   1       1.007   3.883  -2.633  0.00  0.00    -0.031 A 
ATOM      4  C4  IND d   1      -1.208   4.616  -3.721  0.00  0.00     0.051 A 
ATOM      5  C5  IND d   1      -1.723   5.118  -4.883  0.00  0.00    -0.031 A 
ATOM      6  C6  IND d   1      -0.936   5.338  -5.995  0.00  0.00     0.015 A 
ATOM      7  C7  IND d   1       0.400   5.050  -5.989  0.00  0.00    -0.016 A 
ATOM      8  C8  IND d   1       0.928   4.546  -4.809  0.00  0.00    -0.047 A 
ATOM      9  C9  IND d   1       0.142   4.362  -3.664  0.00  0.00    -0.096 A 
ATOM     10  HN1 IND d   1       2.895   4.214  -5.012  0.00  0.00     0.298 HD
ENDROOT
TORSDOF 0
ENDMDL
