MODEL 1
REMARK minimizedAffinity 7.05552006
REMARK minimizedRMSD -1
REMARK  0 active torsions:
REMARK  status: ('A' for Active; 'I' for Inactive)
ROOT
ATOM      1  N1  IND d   1       1.101   5.401  -5.462  0.00  0.00    -0.196 N 
ATOM      2  C2  IND d   1      -0.199   5.262  -5.862  0.00  0.00     0.054 A 
ATOM      3  C3  IND d   1      -0.830   4.341  -5.099  0.00  0.00    -0.031 A 
ATOM      4  C4  IND d   1       0.049   3.015  -3.075  0.00  0.00     0.051 A 
ATOM      5  C5  IND d   1       1.185   2.776  -2.355  0.00  0.00    -0.031 A 
ATOM      6  C6  IND d   1       2.375   3.415  -2.637  0.00  0.00     0.015 A 
ATOM      7  C7  IND d   1       2.470   4.329  -3.648  0.00  0.00    -0.016 A 
ATOM      8  C8  IND d   1       1.320   4.569  -4.386  0.00  0.00    -0.047 A 
ATOM      9  C9  IND d   1       0.120   3.892  -4.131  0.00  0.00    -0.096 A 
ATOM     10  HN1 IND d   1       1.683   5.921  -5.822  0.00  0.00     0.298 HD
ENDROOT
TORSDOF 0
ENDMDL
