MODEL 1
REMARK minimizedAffinity 5.22757196
REMARK minimizedRMSD -1
REMARK  0 active torsions:
REMARK  status: ('A' for Active; 'I' for Inactive)
ROOT
ATOM      1  N1  IND d   1       1.004   4.159  -2.764  0.00  0.00    -0.196 N 
ATOM      2  C2  IND d   1       2.263   3.936  -3.248  0.00  0.00     0.054 A 
ATOM      3  C3  IND d   1       2.357   4.360  -4.528  0.00  0.00    -0.031 A 
ATOM      4  C4  IND d   1       0.601   5.543  -5.991  0.00  0.00     0.051 A 
ATOM      5  C5  IND d   1      -0.710   5.932  -5.999  0.00  0.00    -0.031 A 
ATOM      6  C6  IND d   1      -1.531   5.749  -4.906  0.00  0.00     0.015 A 
ATOM      7  C7  IND d   1      -1.068   5.177  -3.755  0.00  0.00    -0.016 A 
ATOM      8  C8  IND d   1       0.260   4.774  -3.746  0.00  0.00    -0.047 A 
ATOM      9  C9  IND d   1       1.087   4.919  -4.867  0.00  0.00    -0.096 A 
ATOM     10  HN1 IND d   1       0.725   3.949  -1.978  0.00  0.00     0.298 HD
ENDROOT
TORSDOF 0
ENDMDL
