MODEL 1
REMARK minimizedAffinity -0.865595222
REMARK minimizedRMSD -1
REMARK  0 active torsions:
REMARK  status: ('A' for Active; 'I' for Inactive)
ROOT
ATOM      1  N1  IND d   1      -5.996   1.903  -5.141  0.00  0.00    -0.196 N 
ATOM      2  C2  IND d   1      -5.974   0.778  -5.916  0.00  0.00     0.054 A 
ATOM      3  C3  IND d   1      -5.933  -0.328  -5.139  0.00  0.00    -0.031 A 
ATOM      4  C4  IND d   1      -5.999  -0.528  -2.574  0.00  0.00     0.051 A 
ATOM      5  C5  IND d   1      -5.984   0.226  -1.434  0.00  0.00    -0.031 A 
ATOM      6  C6  IND d   1      -5.975   1.605  -1.472  0.00  0.00     0.015 A 
ATOM      7  C7  IND d   1      -5.992   2.285  -2.657  0.00  0.00    -0.016 A 
ATOM      8  C8  IND d   1      -6.000   1.523  -3.817  0.00  0.00    -0.047 A 
ATOM      9  C9  IND d   1      -5.966   0.123  -3.784  0.00  0.00    -0.096 A 
ATOM     10  HN1 IND d   1      -6.006   2.712  -5.431  0.00  0.00     0.298 HD
ENDROOT
TORSDOF 0
ENDMDL
