MODEL 1
REMARK minimizedAffinity 2.0074296
REMARK minimizedRMSD -1
REMARK  0 active torsions:
REMARK  status: ('A' for Active; 'I' for Inactive)
ROOT
ATOM      1  N1  IND d   1      -0.732   4.696  -5.390  0.00  0.00    -0.196 N 
ATOM      2  C2  IND d   1      -0.156   5.776  -6.000  0.00  0.00     0.054 A 
ATOM      3  C3  IND d   1       1.098   5.968  -5.531  0.00  0.00    -0.031 A 
ATOM      4  C4  IND d   1       2.442   4.570  -3.839  0.00  0.00     0.051 A 
ATOM      5  C5  IND d   1       2.327   3.509  -2.984  0.00  0.00    -0.031 A 
ATOM      6  C6  IND d   1       1.163   2.774  -2.888  0.00  0.00     0.015 A 
ATOM      7  C7  IND d   1       0.071   3.066  -3.655  0.00  0.00    -0.016 A 
ATOM      8  C8  IND d   1       0.182   4.146  -4.518  0.00  0.00    -0.047 A 
ATOM      9  C9  IND d   1       1.346   4.923  -4.589  0.00  0.00    -0.096 A 
ATOM     10  HN1 IND d   1      -1.530   4.409  -5.528  0.00  0.00     0.298 HD
ENDROOT
TORSDOF 0
ENDMDL
