MODEL 1
REMARK minimizedAffinity 8.61135674
REMARK minimizedRMSD -1
REMARK  0 active torsions:
REMARK  status: ('A' for Active; 'I' for Inactive)
ROOT
ATOM      1  N1  IND d   1      -5.643  -3.780   2.621  0.00  0.00    -0.196 N 
ATOM      2  C2  IND d   1      -5.219  -5.036   2.953  0.00  0.00     0.054 A 
ATOM      3  C3  IND d   1      -3.902  -5.175   2.684  0.00  0.00    -0.031 A 
ATOM      4  C4  IND d   1      -2.223  -3.438   1.793  0.00  0.00     0.051 A 
ATOM      5  C5  IND d   1      -2.148  -2.162   1.310  0.00  0.00    -0.031 A 
ATOM      6  C6  IND d   1      -3.256  -1.342   1.241  0.00  0.00     0.015 A 
ATOM      7  C7  IND d   1      -4.484  -1.766   1.665  0.00  0.00    -0.016 A 
ATOM      8  C8  IND d   1      -4.565  -3.064   2.149  0.00  0.00    -0.047 A 
ATOM      9  C9  IND d   1      -3.453  -3.915   2.182  0.00  0.00    -0.096 A 
ATOM     10  HN1 IND d   1      -6.448  -3.486   2.695  0.00  0.00     0.298 HD
ENDROOT
TORSDOF 0
ENDMDL
