MODEL 1
REMARK minimizedAffinity 7.82629013
REMARK minimizedRMSD -1
REMARK  0 active torsions:
REMARK  status: ('A' for Active; 'I' for Inactive)
ROOT
ATOM      1  N1  IND d   1      -4.930  -5.999  -5.988  0.00  0.00    -0.196 N 
ATOM      2  C2  IND d   1      -5.878  -5.783  -5.027  0.00  0.00     0.054 A 
ATOM      3  C3  IND d   1      -5.291  -5.518  -3.838  0.00  0.00    -0.031 A 
ATOM      4  C4  IND d   1      -2.792  -5.289  -3.264  0.00  0.00     0.051 A 
ATOM      5  C5  IND d   1      -1.545  -5.434  -3.803  0.00  0.00    -0.031 A 
ATOM      6  C6  IND d   1      -1.359  -5.779  -5.126  0.00  0.00     0.015 A 
ATOM      7  C7  IND d   1      -2.418  -5.982  -5.965  0.00  0.00    -0.016 A 
ATOM      8  C8  IND d   1      -3.686  -5.842  -5.419  0.00  0.00    -0.047 A 
ATOM      9  C9  IND d   1      -3.881  -5.534  -4.067  0.00  0.00    -0.096 A 
ATOM     10  HN1 IND d   1      -5.086  -6.199  -6.810  0.00  0.00     0.298 HD
ENDROOT
TORSDOF 0
ENDMDL
