MODEL 1
REMARK minimizedAffinity 4.02289963
REMARK minimizedRMSD -1
REMARK  0 active torsions:
REMARK  status: ('A' for Active; 'I' for Inactive)
ROOT
ATOM      1  N1  IND d   1       2.514   3.910  -4.057  0.00  0.00    -0.196 N 
ATOM      2  C2  IND d   1       2.048   3.152  -3.019  0.00  0.00     0.054 A 
ATOM      3  C3  IND d   1       0.716   3.326  -2.870  0.00  0.00    -0.031 A 
ATOM      4  C4  IND d   1      -0.918   4.728  -4.281  0.00  0.00     0.051 A 
ATOM      5  C5  IND d   1      -0.956   5.623  -5.314  0.00  0.00    -0.031 A 
ATOM      6  C6  IND d   1       0.184   5.998  -5.996  0.00  0.00     0.015 A 
ATOM      7  C7  IND d   1       1.407   5.481  -5.676  0.00  0.00    -0.016 A 
ATOM      8  C8  IND d   1       1.450   4.578  -4.624  0.00  0.00    -0.047 A 
ATOM      9  C9  IND d   1       0.304   4.226  -3.901  0.00  0.00    -0.096 A 
ATOM     10  HN1 IND d   1       3.333   3.961  -4.313  0.00  0.00     0.298 HD
ENDROOT
TORSDOF 0
ENDMDL
