MODEL 1
REMARK minimizedAffinity 5.33365822
REMARK minimizedRMSD -1
REMARK  0 active torsions:
REMARK  status: ('A' for Active; 'I' for Inactive)
ROOT
ATOM      1  N1  IND d   1      -5.977  -0.621  -3.455  0.00  0.00    -0.196 N 
ATOM      2  C2  IND d   1      -5.977  -0.786  -4.812  0.00  0.00     0.054 A 
ATOM      3  C3  IND d   1      -5.999   0.416  -5.432  0.00  0.00    -0.031 A 
ATOM      4  C4  IND d   1      -5.933   2.781  -4.416  0.00  0.00     0.051 A 
ATOM      5  C5  IND d   1      -5.964   3.441  -3.220  0.00  0.00    -0.031 A 
ATOM      6  C6  IND d   1      -5.998   2.767  -2.016  0.00  0.00     0.015 A 
ATOM      7  C7  IND d   1      -5.992   1.401  -1.964  0.00  0.00    -0.016 A 
ATOM      8  C8  IND d   1      -5.968   0.728  -3.177  0.00  0.00    -0.047 A 
ATOM      9  C9  IND d   1      -5.976   1.407  -4.402  0.00  0.00    -0.096 A 
ATOM     10  HN1 IND d   1      -5.982  -1.254  -2.873  0.00  0.00     0.298 HD
ENDROOT
TORSDOF 0
ENDMDL
