MODEL 1
REMARK minimizedAffinity 6.97135687
REMARK minimizedRMSD -1
REMARK  0 active torsions:
REMARK  status: ('A' for Active; 'I' for Inactive)
ROOT
ATOM      1  N1  IND d   1       2.555   4.154  -4.095  0.00  0.00    -0.196 N 
ATOM      2  C2  IND d   1       2.208   3.499  -2.946  0.00  0.00     0.054 A 
ATOM      3  C3  IND d   1       0.892   3.665  -2.688  0.00  0.00    -0.031 A 
ATOM      4  C4  IND d   1      -0.903   4.889  -4.070  0.00  0.00     0.051 A 
ATOM      5  C5  IND d   1      -1.061   5.673  -5.178  0.00  0.00    -0.031 A 
ATOM      6  C6  IND d   1      -0.000   5.995  -6.000  0.00  0.00     0.015 A 
ATOM      7  C7  IND d   1       1.261   5.534  -5.749  0.00  0.00    -0.016 A 
ATOM      8  C8  IND d   1       1.426   4.743  -4.621  0.00  0.00    -0.047 A 
ATOM      9  C9  IND d   1       0.361   4.448  -3.759  0.00  0.00    -0.096 A 
ATOM     10  HN1 IND d   1       3.345   4.193  -4.432  0.00  0.00     0.298 HD
ENDROOT
TORSDOF 0
ENDMDL
