MODEL 1
REMARK minimizedAffinity 15.4222822
REMARK minimizedRMSD -1
REMARK  0 active torsions:
REMARK  status: ('A' for Active; 'I' for Inactive)
ROOT
ATOM      1  N1  IND d   1       1.067   1.895  -2.232  0.00  0.00    -0.196 N 
ATOM      2  C2  IND d   1       1.252   2.807  -3.234  0.00  0.00     0.054 A 
ATOM      3  C3  IND d   1       1.587   4.011  -2.718  0.00  0.00    -0.031 A 
ATOM      4  C4  IND d   1       1.988   4.685  -0.266  0.00  0.00     0.051 A 
ATOM      5  C5  IND d   1       1.905   4.205   1.011  0.00  0.00    -0.031 A 
ATOM      6  C6  IND d   1       1.534   2.903   1.277  0.00  0.00     0.015 A 
ATOM      7  C7  IND d   1       1.241   2.025   0.271  0.00  0.00    -0.016 A 
ATOM      8  C8  IND d   1       1.317   2.512  -1.026  0.00  0.00    -0.047 A 
ATOM      9  C9  IND d   1       1.653   3.844  -1.301  0.00  0.00    -0.096 A 
ATOM     10  HN1 IND d   1       0.834   1.074  -2.338  0.00  0.00     0.298 HD
ENDROOT
TORSDOF 0
ENDMDL
