MODEL 1
REMARK minimizedAffinity 3.15552592
REMARK minimizedRMSD -1
REMARK  0 active torsions:
REMARK  status: ('A' for Active; 'I' for Inactive)
ROOT
ATOM      1  N1  IND d   1       0.591   5.316  -5.597  0.00  0.00    -0.196 N 
ATOM      2  C2  IND d   1      -0.670   4.949  -5.977  0.00  0.00     0.054 A 
ATOM      3  C3  IND d   1      -1.196   4.080  -5.084  0.00  0.00    -0.031 A 
ATOM      4  C4  IND d   1      -0.203   3.201  -2.877  0.00  0.00     0.051 A 
ATOM      5  C5  IND d   1       0.938   3.225  -2.125  0.00  0.00    -0.031 A 
ATOM      6  C6  IND d   1       2.042   3.963  -2.497  0.00  0.00     0.015 A 
ATOM      7  C7  IND d   1       2.043   4.718  -3.636  0.00  0.00    -0.016 A 
ATOM      8  C8  IND d   1       0.889   4.692  -4.406  0.00  0.00    -0.047 A 
ATOM      9  C9  IND d   1      -0.219   3.910  -4.055  0.00  0.00    -0.096 A 
ATOM     10  HN1 IND d   1       1.110   5.847  -6.030  0.00  0.00     0.298 HD
ENDROOT
TORSDOF 0
ENDMDL
