MODEL 1
REMARK minimizedAffinity 4.26514196
REMARK minimizedRMSD -1
REMARK  0 active torsions:
REMARK  status: ('A' for Active; 'I' for Inactive)
ROOT
ATOM      1  N1  IND d   1       0.421   3.111  -3.153  0.00  0.00    -0.196 N 
ATOM      2  C2  IND d   1       1.586   3.494  -2.547  0.00  0.00     0.054 A 
ATOM      3  C3  IND d   1       2.093   4.590  -3.155  0.00  0.00    -0.031 A 
ATOM      4  C4  IND d   1       1.126   5.979  -5.096  0.00  0.00     0.051 A 
ATOM      5  C5  IND d   1       0.102   6.000  -6.000  0.00  0.00    -0.031 A 
ATOM      6  C6  IND d   1      -0.890   5.040  -5.999  0.00  0.00     0.015 A 
ATOM      7  C7  IND d   1      -0.901   4.027  -5.083  0.00  0.00    -0.016 A 
ATOM      8  C8  IND d   1       0.142   3.999  -4.168  0.00  0.00    -0.047 A 
ATOM      9  C9  IND d   1       1.175   4.945  -4.191  0.00  0.00    -0.096 A 
ATOM     10  HN1 IND d   1      -0.056   2.429  -2.936  0.00  0.00     0.298 HD
ENDROOT
TORSDOF 0
ENDMDL
