MODEL 1
REMARK minimizedAffinity 9.4408493
REMARK minimizedRMSD -1
REMARK  0 active torsions:
REMARK  status: ('A' for Active; 'I' for Inactive)
ROOT
ATOM      1  N1  IND d   1       2.479   4.416  -4.493  0.00  0.00    -0.196 N 
ATOM      2  C2  IND d   1       2.478   4.012  -3.187  0.00  0.00     0.054 A 
ATOM      3  C3  IND d   1       1.258   4.203  -2.636  0.00  0.00    -0.031 A 
ATOM      4  C4  IND d   1      -0.909   5.070  -3.721  0.00  0.00     0.051 A 
ATOM      5  C5  IND d   1      -1.395   5.598  -4.885  0.00  0.00    -0.031 A 
ATOM      6  C6  IND d   1      -0.598   5.760  -6.000  0.00  0.00     0.015 A 
ATOM      7  C7  IND d   1       0.716   5.388  -5.997  0.00  0.00    -0.016 A 
ATOM      8  C8  IND d   1       1.214   4.857  -4.815  0.00  0.00    -0.047 A 
ATOM      9  C9  IND d   1       0.422   4.730  -3.667  0.00  0.00    -0.096 A 
ATOM     10  HN1 IND d   1       3.155   4.398  -5.023  0.00  0.00     0.298 HD
ENDROOT
TORSDOF 0
ENDMDL
