MODEL 1
REMARK minimizedAffinity 11.9647398
REMARK minimizedRMSD -1
REMARK  0 active torsions:
REMARK  status: ('A' for Active; 'I' for Inactive)
ROOT
ATOM      1  N1  IND d   1       4.292  -0.002   2.216  0.00  0.00    -0.196 N 
ATOM      2  C2  IND d   1       3.516   0.943   1.603  0.00  0.00     0.054 A 
ATOM      3  C3  IND d   1       2.208   0.615   1.705  0.00  0.00    -0.031 A 
ATOM      4  C4  IND d   1       1.110  -1.372   2.919  0.00  0.00     0.051 A 
ATOM      5  C5  IND d   1       1.410  -2.522   3.593  0.00  0.00    -0.031 A 
ATOM      6  C6  IND d   1       2.713  -2.897   3.850  0.00  0.00     0.015 A 
ATOM      7  C7  IND d   1       3.768  -2.126   3.451  0.00  0.00    -0.016 A 
ATOM      8  C8  IND d   1       3.467  -0.961   2.760  0.00  0.00    -0.047 A 
ATOM      9  C9  IND d   1       2.148  -0.597   2.458  0.00  0.00    -0.096 A 
ATOM     10  HN1 IND d   1       5.151   0.003   2.254  0.00  0.00     0.298 HD
ENDROOT
TORSDOF 0
ENDMDL
