MODEL 1
REMARK minimizedAffinity 6.82185936
REMARK minimizedRMSD -1
REMARK  0 active torsions:
REMARK  status: ('A' for Active; 'I' for Inactive)
ROOT
ATOM      1  N1  IND d   1       1.144   4.862  -3.990  0.00  0.00    -0.196 N 
ATOM      2  C2  IND d   1      -0.169   4.917  -4.367  0.00  0.00     0.054 A 
ATOM      3  C3  IND d   1      -0.849   3.865  -3.858  0.00  0.00    -0.031 A 
ATOM      4  C4  IND d   1      -0.029   1.989  -2.296  0.00  0.00     0.051 A 
ATOM      5  C5  IND d   1       1.100   1.494  -1.707  0.00  0.00    -0.031 A 
ATOM      6  C6  IND d   1       2.326   2.111  -1.850  0.00  0.00     0.015 A 
ATOM      7  C7  IND d   1       2.467   3.256  -2.580  0.00  0.00    -0.016 A 
ATOM      8  C8  IND d   1       1.324   3.758  -3.186  0.00  0.00    -0.047 A 
ATOM      9  C9  IND d   1       0.084   3.113  -3.080  0.00  0.00    -0.096 A 
ATOM     10  HN1 IND d   1       1.755   5.423  -4.217  0.00  0.00     0.298 HD
ENDROOT
TORSDOF 0
ENDMDL
