MODEL 1
REMARK minimizedAffinity 3.54611373
REMARK minimizedRMSD -1
REMARK  0 active torsions:
REMARK  status: ('A' for Active; 'I' for Inactive)
ROOT
ATOM      1  C1  BNZ d   1       0.385  -1.934   2.568  0.00  0.00     0.000 A 
ATOM      2  C2  BNZ d   1       1.350  -2.390   3.425  0.00  0.00     0.000 A 
ATOM      3  C3  BNZ d   1       1.012  -3.082   4.555  0.00  0.00     0.000 A 
ATOM      4  C4  BNZ d   1      -0.290  -3.281   4.846  0.00  0.00     0.000 A 
ATOM      5  C5  BNZ d   1      -1.275  -2.819   3.996  0.00  0.00     0.000 A 
ATOM      6  C6  BNZ d   1      -0.930  -2.157   2.840  0.00  0.00     0.000 A 
ENDROOT
TORSDOF 0
ENDMDL
