MODEL 1
REMARK minimizedAffinity 4.44884014
REMARK minimizedRMSD -1
REMARK  0 active torsions:
REMARK  status: ('A' for Active; 'I' for Inactive)
ROOT
ATOM      1  C1  BNZ d   1      -1.484  -3.421  -5.138  0.00  0.00     0.000 A 
ATOM      2  C2  BNZ d   1      -2.569  -3.545  -5.964  0.00  0.00     0.000 A 
ATOM      3  C3  BNZ d   1      -3.292  -4.705  -6.000  0.00  0.00     0.000 A 
ATOM      4  C4  BNZ d   1      -2.906  -5.751  -5.241  0.00  0.00     0.000 A 
ATOM      5  C5  BNZ d   1      -1.809  -5.644  -4.410  0.00  0.00     0.000 A 
ATOM      6  C6  BNZ d   1      -1.106  -4.463  -4.348  0.00  0.00     0.000 A 
ENDROOT
TORSDOF 0
ENDMDL
