MODEL 1
REMARK minimizedAffinity -0.599445343
REMARK minimizedRMSD -1
REMARK  0 active torsions:
REMARK  status: ('A' for Active; 'I' for Inactive)
ROOT
ATOM      1  C1  BNZ d   1      -3.200  -3.667  -5.623  0.00  0.00     0.000 A 
ATOM      2  C2  BNZ d   1      -1.862  -3.687  -5.334  0.00  0.00     0.000 A 
ATOM      3  C3  BNZ d   1      -1.149  -4.851  -5.400  0.00  0.00     0.000 A 
ATOM      4  C4  BNZ d   1      -1.782  -5.999  -5.715  0.00  0.00     0.000 A 
ATOM      5  C5  BNZ d   1      -3.133  -5.997  -6.000  0.00  0.00     0.000 A 
ATOM      6  C6  BNZ d   1      -3.840  -4.817  -5.970  0.00  0.00     0.000 A 
ENDROOT
TORSDOF 0
ENDMDL
