MODEL 1
REMARK minimizedAffinity 0.785362899
REMARK minimizedRMSD -1
REMARK  0 active torsions:
REMARK  status: ('A' for Active; 'I' for Inactive)
ROOT
ATOM      1  C1  BNZ d   1      -0.621  -5.791  -3.627  0.00  0.00     0.000 A 
ATOM      2  C2  BNZ d   1      -0.005  -5.642  -4.841  0.00  0.00     0.000 A 
ATOM      3  C3  BNZ d   1      -0.731  -5.646  -6.000  0.00  0.00     0.000 A 
ATOM      4  C4  BNZ d   1      -2.064  -5.838  -5.946  0.00  0.00     0.000 A 
ATOM      5  C5  BNZ d   1      -2.699  -5.999  -4.730  0.00  0.00     0.000 A 
ATOM      6  C6  BNZ d   1      -1.970  -5.956  -3.564  0.00  0.00     0.000 A 
ENDROOT
TORSDOF 0
ENDMDL
