MODEL 1
REMARK minimizedAffinity 5.48891163
REMARK minimizedRMSD -1
REMARK  0 active torsions:
REMARK  status: ('A' for Active; 'I' for Inactive)
ROOT
ATOM      1  C1  BNZ d   1       4.856  -2.618   0.756  0.00  0.00     0.000 A 
ATOM      2  C2  BNZ d   1       3.726  -1.857   0.897  0.00  0.00     0.000 A 
ATOM      3  C3  BNZ d   1       3.730  -0.737   1.680  0.00  0.00     0.000 A 
ATOM      4  C4  BNZ d   1       4.851  -0.402   2.352  0.00  0.00     0.000 A 
ATOM      5  C5  BNZ d   1       5.995  -1.164   2.227  0.00  0.00     0.000 A 
ATOM      6  C6  BNZ d   1       5.998  -2.269   1.407  0.00  0.00     0.000 A 
ENDROOT
TORSDOF 0
ENDMDL
