MODEL 1
REMARK minimizedAffinity -1.38125157
REMARK minimizedRMSD -1
REMARK  0 active torsions:
REMARK  status: ('A' for Active; 'I' for Inactive)
ROOT
ATOM      1  C1  BNZ d   1      -4.180  -4.740  -5.993  0.00  0.00     0.000 A 
ATOM      2  C2  BNZ d   1      -3.561  -5.935  -5.740  0.00  0.00     0.000 A 
ATOM      3  C3  BNZ d   1      -2.220  -5.988  -5.479  0.00  0.00     0.000 A 
ATOM      4  C4  BNZ d   1      -1.493  -4.853  -5.510  0.00  0.00     0.000 A 
ATOM      5  C5  BNZ d   1      -2.101  -3.641  -5.773  0.00  0.00     0.000 A 
ATOM      6  C6  BNZ d   1      -3.457  -3.587  -5.997  0.00  0.00     0.000 A 
ENDROOT
TORSDOF 0
ENDMDL
