MODEL 1
REMARK minimizedAffinity -1.20901942
REMARK minimizedRMSD -1
REMARK  0 active torsions:
REMARK  status: ('A' for Active; 'I' for Inactive)
ROOT
ATOM      1  C1  BNZ d   1      -0.759   3.103  -1.851  0.00  0.00     0.000 A 
ATOM      2  C2  BNZ d   1      -1.886   3.406  -1.134  0.00  0.00     0.000 A 
ATOM      3  C3  BNZ d   1      -2.949   4.026  -1.730  0.00  0.00     0.000 A 
ATOM      4  C4  BNZ d   1      -2.869   4.376  -3.029  0.00  0.00     0.000 A 
ATOM      5  C5  BNZ d   1      -1.736   4.086  -3.763  0.00  0.00     0.000 A 
ATOM      6  C6  BNZ d   1      -0.683   3.427  -3.170  0.00  0.00     0.000 A 
ENDROOT
TORSDOF 0
ENDMDL
