MODEL 1
REMARK minimizedAffinity 1.40675688
REMARK minimizedRMSD -1
REMARK  0 active torsions:
REMARK  status: ('A' for Active; 'I' for Inactive)
ROOT
ATOM      1  C1  BNZ d   1      -3.626  -3.661  -5.994  0.00  0.00     0.000 A 
ATOM      2  C2  BNZ d   1      -2.288  -3.670  -5.703  0.00  0.00     0.000 A 
ATOM      3  C3  BNZ d   1      -1.642  -4.840  -5.416  0.00  0.00     0.000 A 
ATOM      4  C4  BNZ d   1      -2.341  -5.992  -5.380  0.00  0.00     0.000 A 
ATOM      5  C5  BNZ d   1      -3.693  -5.998  -5.662  0.00  0.00     0.000 A 
ATOM      6  C6  BNZ d   1      -4.332  -4.824  -5.989  0.00  0.00     0.000 A 
ENDROOT
TORSDOF 0
ENDMDL
