MODEL 1
REMARK minimizedAffinity -1.53086662
REMARK minimizedRMSD -1
REMARK  0 active torsions:
REMARK  status: ('A' for Active; 'I' for Inactive)
ROOT
ATOM      1  C1  BNZ d   1      -0.588  -5.934  -3.621  0.00  0.00     0.000 A 
ATOM      2  C2  BNZ d   1      -0.005  -5.999  -4.858  0.00  0.00     0.000 A 
ATOM      3  C3  BNZ d   1      -0.768  -5.998  -5.992  0.00  0.00     0.000 A 
ATOM      4  C4  BNZ d   1      -2.112  -5.972  -5.887  0.00  0.00     0.000 A 
ATOM      5  C5  BNZ d   1      -2.715  -5.916  -4.646  0.00  0.00     0.000 A 
ATOM      6  C6  BNZ d   1      -1.943  -5.878  -3.508  0.00  0.00     0.000 A 
ENDROOT
TORSDOF 0
ENDMDL
