MODEL 1
REMARK minimizedAffinity -2.4771142
REMARK minimizedRMSD -1
REMARK  0 active torsions:
REMARK  status: ('A' for Active; 'I' for Inactive)
ROOT
ATOM      1  C1  BNZ d   1      -4.077  -3.595  -5.999  0.00  0.00     0.000 A 
ATOM      2  C2  BNZ d   1      -2.709  -3.656  -5.981  0.00  0.00     0.000 A 
ATOM      3  C3  BNZ d   1      -2.063  -4.861  -5.965  0.00  0.00     0.000 A 
ATOM      4  C4  BNZ d   1      -2.784  -6.000  -5.928  0.00  0.00     0.000 A 
ATOM      5  C5  BNZ d   1      -4.164  -5.954  -5.937  0.00  0.00     0.000 A 
ATOM      6  C6  BNZ d   1      -4.811  -4.740  -5.991  0.00  0.00     0.000 A 
ENDROOT
TORSDOF 0
ENDMDL
