MODEL 1
REMARK minimizedAffinity -1.52487814
REMARK minimizedRMSD -1
REMARK  0 active torsions:
REMARK  status: ('A' for Active; 'I' for Inactive)
ROOT
ATOM      1  C1  BNZ d   1      -5.589  -1.496  -4.502  0.00  0.00     0.000 A 
ATOM      2  C2  BNZ d   1      -5.213  -2.315  -3.471  0.00  0.00     0.000 A 
ATOM      3  C3  BNZ d   1      -5.251  -1.874  -2.178  0.00  0.00     0.000 A 
ATOM      4  C4  BNZ d   1      -5.627  -0.605  -1.921  0.00  0.00     0.000 A 
ATOM      5  C5  BNZ d   1      -6.000   0.236  -2.950  0.00  0.00     0.000 A 
ATOM      6  C6  BNZ d   1      -5.997  -0.223  -4.247  0.00  0.00     0.000 A 
ENDROOT
TORSDOF 0
ENDMDL
