MODEL 1
REMARK minimizedAffinity 7.4623251
REMARK minimizedRMSD -1
REMARK  0 active torsions:
REMARK  status: ('A' for Active; 'I' for Inactive)
ROOT
ATOM      1  C1  BNZ d   1      -3.258  -5.428  -5.924  0.00  0.00     0.000 A 
ATOM      2  C2  BNZ d   1      -3.382  -4.066  -5.999  0.00  0.00     0.000 A 
ATOM      3  C3  BNZ d   1      -2.283  -3.258  -5.911  0.00  0.00     0.000 A 
ATOM      4  C4  BNZ d   1      -1.069  -3.809  -5.708  0.00  0.00     0.000 A 
ATOM      5  C5  BNZ d   1      -0.929  -5.180  -5.621  0.00  0.00     0.000 A 
ATOM      6  C6  BNZ d   1      -2.032  -5.992  -5.749  0.00  0.00     0.000 A 
ENDROOT
TORSDOF 0
ENDMDL
