MODEL 1
REMARK minimizedAffinity -0.488875806
REMARK minimizedRMSD -1
REMARK  0 active torsions:
REMARK  status: ('A' for Active; 'I' for Inactive)
ROOT
ATOM      1  C1  BNZ d   1      -5.970  -1.921  -4.888  0.00  0.00     0.000 A 
ATOM      2  C2  BNZ d   1      -5.984  -1.120  -5.998  0.00  0.00     0.000 A 
ATOM      3  C3  BNZ d   1      -5.978   0.242  -5.878  0.00  0.00     0.000 A 
ATOM      4  C4  BNZ d   1      -5.999   0.799  -4.651  0.00  0.00     0.000 A 
ATOM      5  C5  BNZ d   1      -5.995   0.005  -3.522  0.00  0.00     0.000 A 
ATOM      6  C6  BNZ d   1      -5.962  -1.365  -3.646  0.00  0.00     0.000 A 
ENDROOT
TORSDOF 0
ENDMDL
