MODEL 1
REMARK minimizedAffinity 0.984080553
REMARK minimizedRMSD -1
REMARK  0 active torsions:
REMARK  status: ('A' for Active; 'I' for Inactive)
ROOT
ATOM      1  C1  BNZ d   1       0.371  -3.040   1.375  0.00  0.00     0.000 A 
ATOM      2  C2  BNZ d   1       0.434  -2.022   0.461  0.00  0.00     0.000 A 
ATOM      3  C3  BNZ d   1      -0.195  -0.832   0.696  0.00  0.00     0.000 A 
ATOM      4  C4  BNZ d   1      -0.919  -0.675   1.823  0.00  0.00     0.000 A 
ATOM      5  C5  BNZ d   1      -1.001  -1.696   2.749  0.00  0.00     0.000 A 
ATOM      6  C6  BNZ d   1      -0.334  -2.879   2.528  0.00  0.00     0.000 A 
ENDROOT
TORSDOF 0
ENDMDL
