MODEL 1
REMARK minimizedAffinity 1.85257542
REMARK minimizedRMSD -1
REMARK  0 active torsions:
REMARK  status: ('A' for Active; 'I' for Inactive)
ROOT
ATOM      1  C1  BNZ d   1      -2.157  -3.752  -5.220  0.00  0.00     0.000 A 
ATOM      2  C2  BNZ d   1      -3.526  -3.735  -5.270  0.00  0.00     0.000 A 
ATOM      3  C3  BNZ d   1      -4.227  -4.851  -5.632  0.00  0.00     0.000 A 
ATOM      4  C4  BNZ d   1      -3.560  -5.969  -5.982  0.00  0.00     0.000 A 
ATOM      5  C5  BNZ d   1      -2.180  -6.000  -5.946  0.00  0.00     0.000 A 
ATOM      6  C6  BNZ d   1      -1.478  -4.887  -5.543  0.00  0.00     0.000 A 
ENDROOT
TORSDOF 0
ENDMDL
