MODEL 1
REMARK minimizedAffinity -0.784607232
REMARK minimizedRMSD -1
REMARK  0 active torsions:
REMARK  status: ('A' for Active; 'I' for Inactive)
ROOT
ATOM      1  C1  BNZ d   1      -2.024  -4.805  -4.627  0.00  0.00     0.000 A 
ATOM      2  C2  BNZ d   1      -2.429  -4.088  -3.533  0.00  0.00     0.000 A 
ATOM      3  C3  BNZ d   1      -3.323  -3.062  -3.660  0.00  0.00     0.000 A 
ATOM      4  C4  BNZ d   1      -3.780  -2.728  -4.885  0.00  0.00     0.000 A 
ATOM      5  C5  BNZ d   1      -3.374  -3.436  -5.999  0.00  0.00     0.000 A 
ATOM      6  C6  BNZ d   1      -2.504  -4.493  -5.862  0.00  0.00     0.000 A 
ENDROOT
TORSDOF 0
ENDMDL
