MODEL 1
REMARK minimizedAffinity -1.35633981
REMARK minimizedRMSD -1
REMARK  0 active torsions:
REMARK  status: ('A' for Active; 'I' for Inactive)
ROOT
ATOM      1  C1  BNZ d   1      -5.567  -5.146  -5.999  0.00  0.00     0.000 A 
ATOM      2  C2  BNZ d   1      -4.496  -6.000  -5.995  0.00  0.00     0.000 A 
ATOM      3  C3  BNZ d   1      -3.217  -5.519  -5.968  0.00  0.00     0.000 A 
ATOM      4  C4  BNZ d   1      -3.009  -4.186  -5.986  0.00  0.00     0.000 A 
ATOM      5  C5  BNZ d   1      -4.078  -3.312  -6.000  0.00  0.00     0.000 A 
ATOM      6  C6  BNZ d   1      -5.365  -3.800  -5.988  0.00  0.00     0.000 A 
ENDROOT
TORSDOF 0
ENDMDL
