MODEL 1
REMARK minimizedAffinity -4.09063673
REMARK minimizedRMSD -1
REMARK  0 active torsions:
REMARK  status: ('A' for Active; 'I' for Inactive)
ROOT
ATOM      1  C   UNL d   1       2.315  -0.692   1.996  0.00  0.00     0.020 A 
ATOM      2  C1  UNL d   1       2.900   0.277   1.181  0.00  0.00     0.020 A 
ATOM      3  C2  UNL d   1       2.116   1.298   0.639  0.00  0.00     0.034 A 
ATOM      4  C3  UNL d   1       0.745   1.353   0.911  0.00  0.00     0.017 A 
ATOM      5  C4  UNL d   1       0.159   0.380   1.729  0.00  0.00     0.017 A 
ATOM      6  C5  UNL d   1       0.948  -0.640   2.269  0.00  0.00     0.034 A 
ATOM      7 Cl   UNL d   1      -1.527   0.382   2.109  0.00  0.00    -0.070 Cl
ATOM      8 Cl1  UNL d   1      -0.163   2.644   0.207  0.00  0.00    -0.070 Cl
ENDROOT
TORSDOF 0
ENDMDL
