MODEL 1
REMARK minimizedAffinity 2.93908286
REMARK minimizedRMSD -1
REMARK  0 active torsions:
REMARK  status: ('A' for Active; 'I' for Inactive)
ROOT
ATOM      1  C   UNL d   1       1.037   2.337   1.099  0.00  0.00     0.020 A 
ATOM      2  C1  UNL d   1       0.498   2.470   2.378  0.00  0.00     0.020 A 
ATOM      3  C2  UNL d   1      -0.451   1.552   2.834  0.00  0.00     0.034 A 
ATOM      4  C3  UNL d   1      -0.864   0.498   2.011  0.00  0.00     0.017 A 
ATOM      5  C4  UNL d   1      -0.323   0.366   0.728  0.00  0.00     0.017 A 
ATOM      6  C5  UNL d   1       0.627   1.287   0.275  0.00  0.00     0.034 A 
ATOM      7 Cl   UNL d   1      -0.783  -0.908  -0.346  0.00  0.00    -0.070 Cl
ATOM      8 Cl1  UNL d   1      -2.041  -0.599   2.641  0.00  0.00    -0.070 Cl
ENDROOT
TORSDOF 0
ENDMDL
