MODEL 1
REMARK minimizedAffinity -2.81376052
REMARK minimizedRMSD -1
REMARK  0 active torsions:
REMARK  status: ('A' for Active; 'I' for Inactive)
ROOT
ATOM      1  C   UNL d   1      -1.926  -0.287   0.890  0.00  0.00     0.020 A 
ATOM      2  C1  UNL d   1      -0.842  -0.824   0.197  0.00  0.00     0.020 A 
ATOM      3  C2  UNL d   1       0.449  -0.353   0.448  0.00  0.00     0.034 A 
ATOM      4  C3  UNL d   1       0.658   0.658   1.392  0.00  0.00     0.017 A 
ATOM      5  C4  UNL d   1      -0.431   1.197   2.087  0.00  0.00     0.017 A 
ATOM      6  C5  UNL d   1      -1.721   0.721   1.832  0.00  0.00     0.034 A 
ATOM      7 Cl   UNL d   1      -0.252   2.446   3.267  0.00  0.00    -0.070 Cl
ATOM      8 Cl1  UNL d   1       2.281   1.193   1.651  0.00  0.00    -0.070 Cl
ENDROOT
TORSDOF 0
ENDMDL
