MODEL 1
REMARK minimizedAffinity -4.17972326
REMARK minimizedRMSD -1
REMARK  0 active torsions:
REMARK  status: ('A' for Active; 'I' for Inactive)
ROOT
ATOM      1  C   UNL d   1       2.437   1.071   1.573  0.00  0.00     0.020 A 
ATOM      2  C1  UNL d   1       1.321   1.783   2.013  0.00  0.00     0.020 A 
ATOM      3  C2  UNL d   1       0.042   1.398   1.603  0.00  0.00     0.034 A 
ATOM      4  C3  UNL d   1      -0.124   0.300   0.751  0.00  0.00     0.017 A 
ATOM      5  C4  UNL d   1       0.997  -0.413   0.311  0.00  0.00     0.017 A 
ATOM      6  C5  UNL d   1       2.275  -0.024   0.724  0.00  0.00     0.034 A 
ATOM      7 Cl   UNL d   1       0.872  -1.779  -0.741  0.00  0.00    -0.070 Cl
ATOM      8 Cl1  UNL d   1      -1.734  -0.119   0.284  0.00  0.00    -0.070 Cl
ENDROOT
TORSDOF 0
ENDMDL
