MODEL 1
REMARK minimizedAffinity -0.816678345
REMARK minimizedRMSD -1
REMARK  0 active torsions:
REMARK  status: ('A' for Active; 'I' for Inactive)
ROOT
ATOM      1  C   UNL d   1      -0.497   0.662   2.878  0.00  0.00     0.020 A 
ATOM      2  C1  UNL d   1       0.420   1.492   2.235  0.00  0.00     0.020 A 
ATOM      3  C2  UNL d   1       0.400   1.608   0.844  0.00  0.00     0.034 A 
ATOM      4  C3  UNL d   1      -0.538   0.893   0.091  0.00  0.00     0.017 A 
ATOM      5  C4  UNL d   1      -1.458   0.060   0.737  0.00  0.00     0.017 A 
ATOM      6  C5  UNL d   1      -1.434  -0.052   2.131  0.00  0.00     0.034 A 
ATOM      7 Cl   UNL d   1      -2.646  -0.854  -0.124  0.00  0.00    -0.070 Cl
ATOM      8 Cl1  UNL d   1      -0.505   1.084  -1.626  0.00  0.00    -0.070 Cl
ENDROOT
TORSDOF 0
ENDMDL
