MODEL 1
REMARK minimizedAffinity 2.04333019
REMARK minimizedRMSD -1
REMARK  0 active torsions:
REMARK  status: ('A' for Active; 'I' for Inactive)
ROOT
ATOM      1  C   UNL d   1      -0.844   0.607   3.163  0.00  0.00     0.020 A 
ATOM      2  C1  UNL d   1      -1.835  -0.006   2.397  0.00  0.00     0.020 A 
ATOM      3  C2  UNL d   1      -1.576  -0.359   1.072  0.00  0.00     0.034 A 
ATOM      4  C3  UNL d   1      -0.322  -0.099   0.507  0.00  0.00     0.017 A 
ATOM      5  C4  UNL d   1       0.673   0.515   1.276  0.00  0.00     0.017 A 
ATOM      6  C5  UNL d   1       0.408   0.867   2.603  0.00  0.00     0.034 A 
ATOM      7 Cl   UNL d   1       2.245   0.867   0.648  0.00  0.00    -0.070 Cl
ATOM      8 Cl1  UNL d   1      -0.070  -0.563  -1.139  0.00  0.00    -0.070 Cl
ENDROOT
TORSDOF 0
ENDMDL
