MODEL 1
REMARK minimizedAffinity -3.36305714
REMARK minimizedRMSD -1
REMARK  0 active torsions:
REMARK  status: ('A' for Active; 'I' for Inactive)
ROOT
ATOM      1  C   UNL d   1      -1.951  -0.524   1.055  0.00  0.00     0.020 A 
ATOM      2  C1  UNL d   1      -1.092  -0.944   0.040  0.00  0.00     0.020 A 
ATOM      3  C2  UNL d   1       0.212  -0.447  -0.021  0.00  0.00     0.034 A 
ATOM      4  C3  UNL d   1       0.661   0.471   0.935  0.00  0.00     0.017 A 
ATOM      5  C4  UNL d   1      -0.202   0.892   1.954  0.00  0.00     0.017 A 
ATOM      6  C5  UNL d   1      -1.506   0.391   2.010  0.00  0.00     0.034 A 
ATOM      7 Cl   UNL d   1       0.280   2.022   3.169  0.00  0.00    -0.070 Cl
ATOM      8 Cl1  UNL d   1       2.286   1.043   0.799  0.00  0.00    -0.070 Cl
ENDROOT
TORSDOF 0
ENDMDL
