MODEL 1
REMARK minimizedAffinity -5.23511457
REMARK minimizedRMSD -1
REMARK  0 active torsions:
REMARK  status: ('A' for Active; 'I' for Inactive)
ROOT
ATOM      1  C   UNL d   1       0.184   0.884   3.924  0.00  0.00     0.020 A 
ATOM      2  C1  UNL d   1      -1.095   0.861   3.370  0.00  0.00     0.020 A 
ATOM      3  C2  UNL d   1      -1.265   0.562   2.017  0.00  0.00     0.034 A 
ATOM      4  C3  UNL d   1      -0.153   0.285   1.213  0.00  0.00     0.017 A 
ATOM      5  C4  UNL d   1       1.131   0.308   1.770  0.00  0.00     0.017 A 
ATOM      6  C5  UNL d   1       1.294   0.608   3.126  0.00  0.00     0.034 A 
ATOM      7 Cl   UNL d   1       2.551  -0.023   0.842  0.00  0.00    -0.070 Cl
ATOM      8 Cl1  UNL d   1      -0.436  -0.078  -0.453  0.00  0.00    -0.070 Cl
ENDROOT
TORSDOF 0
ENDMDL
