MODEL 1
REMARK minimizedAffinity -3.01098013
REMARK minimizedRMSD -1
REMARK  0 active torsions:
REMARK  status: ('A' for Active; 'I' for Inactive)
ROOT
ATOM      1  C   UNL d   1       0.771   2.476   2.012  0.00  0.00     0.020 A 
ATOM      2  C1  UNL d   1       1.202   2.085   0.745  0.00  0.00     0.020 A 
ATOM      3  C2  UNL d   1       0.659   0.948   0.142  0.00  0.00     0.034 A 
ATOM      4  C3  UNL d   1      -0.318   0.198   0.806  0.00  0.00     0.017 A 
ATOM      5  C4  UNL d   1      -0.751   0.591   2.078  0.00  0.00     0.017 A 
ATOM      6  C5  UNL d   1      -0.204   1.730   2.677  0.00  0.00     0.034 A 
ATOM      7 Cl   UNL d   1      -1.953  -0.283   2.960  0.00  0.00    -0.070 Cl
ATOM      8 Cl1  UNL d   1      -0.946  -1.196   0.002  0.00  0.00    -0.070 Cl
ENDROOT
TORSDOF 0
ENDMDL
