MODEL 1
REMARK minimizedAffinity 1.45934677
REMARK minimizedRMSD -1
REMARK  0 active torsions:
REMARK  status: ('A' for Active; 'I' for Inactive)
ROOT
ATOM      1  C   UNL d   1       1.085   1.964   2.452  0.00  0.00     0.020 A 
ATOM      2  C1  UNL d   1       1.403   1.769   1.109  0.00  0.00     0.020 A 
ATOM      3  C2  UNL d   1       0.616   0.927   0.320  0.00  0.00     0.034 A 
ATOM      4  C3  UNL d   1      -0.493   0.277   0.874  0.00  0.00     0.017 A 
ATOM      5  C4  UNL d   1      -0.811   0.473   2.223  0.00  0.00     0.017 A 
ATOM      6  C5  UNL d   1      -0.020   1.317   3.008  0.00  0.00     0.034 A 
ATOM      7 Cl   UNL d   1      -2.164  -0.294   2.977  0.00  0.00    -0.070 Cl
ATOM      8 Cl1  UNL d   1      -1.422  -0.750  -0.160  0.00  0.00    -0.070 Cl
ENDROOT
TORSDOF 0
ENDMDL
