MODEL 1
REMARK minimizedAffinity -0.840556145
REMARK minimizedRMSD -1
REMARK  0 active torsions:
REMARK  status: ('A' for Active; 'I' for Inactive)
ROOT
ATOM      1  C   UNL d   1       1.311   1.175   0.015  0.00  0.00     0.020 A 
ATOM      2  C1  UNL d   1       1.634   1.335   1.362  0.00  0.00     0.020 A 
ATOM      3  C2  UNL d   1       0.714   0.971   2.348  0.00  0.00     0.034 A 
ATOM      4  C3  UNL d   1      -0.532   0.445   1.989  0.00  0.00     0.017 A 
ATOM      5  C4  UNL d   1      -0.854   0.284   0.636  0.00  0.00     0.017 A 
ATOM      6  C5  UNL d   1       0.070   0.650  -0.347  0.00  0.00     0.034 A 
ATOM      7 Cl   UNL d   1      -2.372  -0.359   0.116  0.00  0.00    -0.070 Cl
ATOM      8 Cl1  UNL d   1      -1.620   0.015   3.261  0.00  0.00    -0.070 Cl
ENDROOT
TORSDOF 0
ENDMDL
