MODEL 1
REMARK minimizedAffinity -0.0815352648
REMARK minimizedRMSD -1
REMARK  0 active torsions:
REMARK  status: ('A' for Active; 'I' for Inactive)
ROOT
ATOM      1  C1  BNZ d   1       2.905  -2.156  -0.933  0.00  0.00     0.000 A 
ATOM      2  C2  BNZ d   1       3.481  -1.165  -0.183  0.00  0.00     0.000 A 
ATOM      3  C3  BNZ d   1       3.386   0.145  -0.563  0.00  0.00     0.000 A 
ATOM      4  C4  BNZ d   1       2.751   0.458  -1.711  0.00  0.00     0.000 A 
ATOM      5  C5  BNZ d   1       2.173  -0.531  -2.482  0.00  0.00     0.000 A 
ATOM      6  C6  BNZ d   1       2.237  -1.844  -2.077  0.00  0.00     0.000 A 
ENDROOT
TORSDOF 0
ENDMDL
