MODEL 1
REMARK minimizedAffinity 1.1038543
REMARK minimizedRMSD -1
REMARK  0 active torsions:
REMARK  status: ('A' for Active; 'I' for Inactive)
ROOT
ATOM      1  C1  BNZ d   1      -5.626   2.287   5.073  0.00  0.00     0.000 A 
ATOM      2  C2  BNZ d   1      -5.650   1.275   5.995  0.00  0.00     0.000 A 
ATOM      3  C3  BNZ d   1      -5.815  -0.025   5.604  0.00  0.00     0.000 A 
ATOM      4  C4  BNZ d   1      -5.996  -0.306   4.298  0.00  0.00     0.000 A 
ATOM      5  C5  BNZ d   1      -5.984   0.704   3.357  0.00  0.00     0.000 A 
ATOM      6  C6  BNZ d   1      -5.778   2.007   3.750  0.00  0.00     0.000 A 
ENDROOT
TORSDOF 0
ENDMDL
