MODEL 1
REMARK minimizedAffinity 5.60753584
REMARK minimizedRMSD -1
REMARK  0 active torsions:
REMARK  status: ('A' for Active; 'I' for Inactive)
ROOT
ATOM      1  C1  BNZ d   1       1.649   2.800  -4.230  0.00  0.00     0.000 A 
ATOM      2  C2  BNZ d   1       1.356   1.475  -4.042  0.00  0.00     0.000 A 
ATOM      3  C3  BNZ d   1       0.968   1.011  -2.817  0.00  0.00     0.000 A 
ATOM      4  C4  BNZ d   1       0.912   1.862  -1.772  0.00  0.00     0.000 A 
ATOM      5  C5  BNZ d   1       1.214   3.199  -1.943  0.00  0.00     0.000 A 
ATOM      6  C6  BNZ d   1       1.566   3.670  -3.187  0.00  0.00     0.000 A 
ENDROOT
TORSDOF 0
ENDMDL
