MODEL 1
REMARK minimizedAffinity 7.18882895
REMARK minimizedRMSD -1
REMARK  0 active torsions:
REMARK  status: ('A' for Active; 'I' for Inactive)
ROOT
ATOM      1  C1  BNZ d   1      -5.998  -1.525   4.500  0.00  0.00     0.000 A 
ATOM      2  C2  BNZ d   1      -5.250  -1.103   5.566  0.00  0.00     0.000 A 
ATOM      3  C3  BNZ d   1      -4.506   0.041   5.490  0.00  0.00     0.000 A 
ATOM      4  C4  BNZ d   1      -4.480   0.740   4.337  0.00  0.00     0.000 A 
ATOM      5  C5  BNZ d   1      -5.222   0.322   3.250  0.00  0.00     0.000 A 
ATOM      6  C6  BNZ d   1      -6.000  -0.809   3.343  0.00  0.00     0.000 A 
ENDROOT
TORSDOF 0
ENDMDL
