MODEL 1
REMARK minimizedAffinity 6.34624338
REMARK minimizedRMSD -1
REMARK  0 active torsions:
REMARK  status: ('A' for Active; 'I' for Inactive)
ROOT
ATOM      1  C1  BNZ d   1       2.180   0.529  -2.543  0.00  0.00     0.000 A 
ATOM      2  C2  BNZ d   1       1.909   1.846  -2.287  0.00  0.00     0.000 A 
ATOM      3  C3  BNZ d   1       0.834   2.204  -1.522  0.00  0.00     0.000 A 
ATOM      4  C4  BNZ d   1       0.011   1.247  -1.047  0.00  0.00     0.000 A 
ATOM      5  C5  BNZ d   1       0.266  -0.086  -1.304  0.00  0.00     0.000 A 
ATOM      6  C6  BNZ d   1       1.371  -0.444  -2.042  0.00  0.00     0.000 A 
ENDROOT
TORSDOF 0
ENDMDL
