MODEL 1
REMARK minimizedAffinity 1.71976912
REMARK minimizedRMSD -1
REMARK  0 active torsions:
REMARK  status: ('A' for Active; 'I' for Inactive)
ROOT
ATOM      1  C1  BNZ d   1       4.117  -2.165  -0.724  0.00  0.00     0.000 A 
ATOM      2  C2  BNZ d   1       4.165  -1.016  -1.467  0.00  0.00     0.000 A 
ATOM      3  C3  BNZ d   1       3.140  -0.683  -2.309  0.00  0.00     0.000 A 
ATOM      4  C4  BNZ d   1       2.089  -1.519  -2.437  0.00  0.00     0.000 A 
ATOM      5  C5  BNZ d   1       2.031  -2.686  -1.702  0.00  0.00     0.000 A 
ATOM      6  C6  BNZ d   1       3.045  -2.998  -0.826  0.00  0.00     0.000 A 
ENDROOT
TORSDOF 0
ENDMDL
