MODEL 1
REMARK minimizedAffinity -2.30717301
REMARK minimizedRMSD -1
REMARK  0 active torsions:
REMARK  status: ('A' for Active; 'I' for Inactive)
ROOT
ATOM      1  C1  BNZ d   1       5.955  -2.663   3.552  0.00  0.00     0.000 A 
ATOM      2  C2  BNZ d   1       5.997  -4.028   3.657  0.00  0.00     0.000 A 
ATOM      3  C3  BNZ d   1       5.981  -4.637   4.880  0.00  0.00     0.000 A 
ATOM      4  C4  BNZ d   1       5.964  -3.880   5.997  0.00  0.00     0.000 A 
ATOM      5  C5  BNZ d   1       5.931  -2.503   5.908  0.00  0.00     0.000 A 
ATOM      6  C6  BNZ d   1       5.908  -1.895   4.674  0.00  0.00     0.000 A 
ENDROOT
TORSDOF 0
ENDMDL
