MODEL 1
REMARK minimizedAffinity -0.656334817
REMARK minimizedRMSD -1
REMARK  0 active torsions:
REMARK  status: ('A' for Active; 'I' for Inactive)
ROOT
ATOM      1  C1  BNZ d   1       2.885  -1.082  -0.026  0.00  0.00     0.000 A 
ATOM      2  C2  BNZ d   1       2.920  -0.028  -0.899  0.00  0.00     0.000 A 
ATOM      3  C3  BNZ d   1       2.141  -0.023  -2.022  0.00  0.00     0.000 A 
ATOM      4  C4  BNZ d   1       1.359  -1.088  -2.290  0.00  0.00     0.000 A 
ATOM      5  C5  BNZ d   1       1.319  -2.163  -1.425  0.00  0.00     0.000 A 
ATOM      6  C6  BNZ d   1       2.076  -2.147  -0.276  0.00  0.00     0.000 A 
ENDROOT
TORSDOF 0
ENDMDL
