MODEL 1
REMARK minimizedAffinity 0.0108171273
REMARK minimizedRMSD -1
REMARK  0 active torsions:
REMARK  status: ('A' for Active; 'I' for Inactive)
ROOT
ATOM      1  C1  BNZ d   1       2.236  -2.873   0.386  0.00  0.00     0.000 A 
ATOM      2  C2  BNZ d   1       2.770  -1.889  -0.403  0.00  0.00     0.000 A 
ATOM      3  C3  BNZ d   1       1.978  -1.168  -1.253  0.00  0.00     0.000 A 
ATOM      4  C4  BNZ d   1       0.664  -1.458  -1.342  0.00  0.00     0.000 A 
ATOM      5  C5  BNZ d   1       0.114  -2.454  -0.560  0.00  0.00     0.000 A 
ATOM      6  C6  BNZ d   1       0.906  -3.151   0.323  0.00  0.00     0.000 A 
ENDROOT
TORSDOF 0
ENDMDL
