MODEL 1
REMARK minimizedAffinity 2.36091375
REMARK minimizedRMSD -1
REMARK  0 active torsions:
REMARK  status: ('A' for Active; 'I' for Inactive)
ROOT
ATOM      1  C1  BNZ d   1       2.371  -2.466  -0.389  0.00  0.00     0.000 A 
ATOM      2  C2  BNZ d   1       3.081  -1.299  -0.487  0.00  0.00     0.000 A 
ATOM      3  C3  BNZ d   1       2.708  -0.325  -1.370  0.00  0.00     0.000 A 
ATOM      4  C4  BNZ d   1       1.651  -0.535  -2.181  0.00  0.00     0.000 A 
ATOM      5  C5  BNZ d   1       0.931  -1.710  -2.101  0.00  0.00     0.000 A 
ATOM      6  C6  BNZ d   1       1.286  -2.672  -1.183  0.00  0.00     0.000 A 
ENDROOT
TORSDOF 0
ENDMDL
