MODEL 1
REMARK minimizedAffinity -2.23759842
REMARK minimizedRMSD -1
REMARK  0 active torsions:
REMARK  status: ('A' for Active; 'I' for Inactive)
ROOT
ATOM      1  C1  BNZ d   1       0.747   1.696   0.283  0.00  0.00     0.000 A 
ATOM      2  C2  BNZ d   1       0.491   2.545   1.327  0.00  0.00     0.000 A 
ATOM      3  C3  BNZ d   1      -0.219   3.697   1.133  0.00  0.00     0.000 A 
ATOM      4  C4  BNZ d   1      -0.637   4.018  -0.108  0.00  0.00     0.000 A 
ATOM      5  C5  BNZ d   1      -0.379   3.177  -1.172  0.00  0.00     0.000 A 
ATOM      6  C6  BNZ d   1       0.303   1.999  -0.967  0.00  0.00     0.000 A 
ENDROOT
TORSDOF 0
ENDMDL
