MODEL 1
REMARK minimizedAffinity -1.47512329
REMARK minimizedRMSD -1
REMARK  0 active torsions:
REMARK  status: ('A' for Active; 'I' for Inactive)
ROOT
ATOM      1  C1  BNZ d   1       1.890   0.604  -2.522  0.00  0.00     0.000 A 
ATOM      2  C2  BNZ d   1       2.894   1.300  -1.901  0.00  0.00     0.000 A 
ATOM      3  C3  BNZ d   1       3.892   0.644  -1.236  0.00  0.00     0.000 A 
ATOM      4  C4  BNZ d   1       3.865  -0.702  -1.159  0.00  0.00     0.000 A 
ATOM      5  C5  BNZ d   1       2.855  -1.417  -1.772  0.00  0.00     0.000 A 
ATOM      6  C6  BNZ d   1       1.873  -0.756  -2.473  0.00  0.00     0.000 A 
ENDROOT
TORSDOF 0
ENDMDL
