MODEL 1
REMARK minimizedAffinity 2.41816664
REMARK minimizedRMSD -1
REMARK  0 active torsions:
REMARK  status: ('A' for Active; 'I' for Inactive)
ROOT
ATOM      1  C1  BNZ d   1       5.945   5.999  -2.265  0.00  0.00     0.000 A 
ATOM      2  C2  BNZ d   1       4.803   6.000  -3.021  0.00  0.00     0.000 A 
ATOM      3  C3  BNZ d   1       3.703   5.289  -2.629  0.00  0.00     0.000 A 
ATOM      4  C4  BNZ d   1       3.760   4.547  -1.504  0.00  0.00     0.000 A 
ATOM      5  C5  BNZ d   1       4.906   4.529  -0.736  0.00  0.00     0.000 A 
ATOM      6  C6  BNZ d   1       5.998   5.277  -1.113  0.00  0.00     0.000 A 
ENDROOT
TORSDOF 0
ENDMDL
