MODEL 1
REMARK minimizedAffinity 0.87240833
REMARK minimizedRMSD -1
REMARK  0 active torsions:
REMARK  status: ('A' for Active; 'I' for Inactive)
ROOT
ATOM      1  C1  BNZ d   1       3.063   1.486  -2.165  0.00  0.00     0.000 A 
ATOM      2  C2  BNZ d   1       1.818   2.034  -2.010  0.00  0.00     0.000 A 
ATOM      3  C3  BNZ d   1       0.743   1.251  -1.695  0.00  0.00     0.000 A 
ATOM      4  C4  BNZ d   1       0.906  -0.082  -1.575  0.00  0.00     0.000 A 
ATOM      5  C5  BNZ d   1       2.154  -0.651  -1.736  0.00  0.00     0.000 A 
ATOM      6  C6  BNZ d   1       3.241   0.145  -2.015  0.00  0.00     0.000 A 
ENDROOT
TORSDOF 0
ENDMDL
