MODEL 1
REMARK minimizedAffinity 7.31853771
REMARK minimizedRMSD -1
REMARK  0 active torsions:
REMARK  status: ('A' for Active; 'I' for Inactive)
ROOT
ATOM      1  C1  BNZ d   1       2.793  -1.551  -1.107  0.00  0.00     0.000 A 
ATOM      2  C2  BNZ d   1       3.465  -0.364  -1.236  0.00  0.00     0.000 A 
ATOM      3  C3  BNZ d   1       2.909   0.684  -1.915  0.00  0.00     0.000 A 
ATOM      4  C4  BNZ d   1       1.703   0.532  -2.498  0.00  0.00     0.000 A 
ATOM      5  C5  BNZ d   1       1.017  -0.661  -2.385  0.00  0.00     0.000 A 
ATOM      6  C6  BNZ d   1       1.562  -1.701  -1.668  0.00  0.00     0.000 A 
ENDROOT
TORSDOF 0
ENDMDL
