MODEL 1
REMARK minimizedAffinity 7.05972862
REMARK minimizedRMSD -1
REMARK  0 active torsions:
REMARK  status: ('A' for Active; 'I' for Inactive)
ROOT
ATOM      1  C1  BNZ d   1       1.464   1.974  -0.149  0.00  0.00     0.000 A 
ATOM      2  C2  BNZ d   1       1.943   2.335   1.083  0.00  0.00     0.000 A 
ATOM      3  C3  BNZ d   1       1.088   2.679   2.092  0.00  0.00     0.000 A 
ATOM      4  C4  BNZ d   1      -0.240   2.702   1.858  0.00  0.00     0.000 A 
ATOM      5  C5  BNZ d   1      -0.737   2.350   0.619  0.00  0.00     0.000 A 
ATOM      6  C6  BNZ d   1       0.124   1.966  -0.383  0.00  0.00     0.000 A 
ENDROOT
TORSDOF 0
ENDMDL
