MODEL 1
REMARK minimizedAffinity -1.6048522
REMARK minimizedRMSD -1
REMARK  0 active torsions:
REMARK  status: ('A' for Active; 'I' for Inactive)
ROOT
ATOM      1  C   UNL d   1       2.067   0.666  -2.795  0.00  0.00    -0.002 A 
ATOM      2  C1  UNL d   1       1.269  -0.446  -3.025  0.00  0.00     0.010 A 
ATOM      3  C2  UNL d   1       0.407  -0.920  -2.034  0.00  0.00     0.041 A 
ATOM      4  C3  UNL d   1       0.359  -0.250  -0.796  0.00  0.00    -0.075 A 
ATOM      5  S   UNL d   1      -0.621  -0.650   0.565  0.00  0.00     0.015 SA
ATOM      6  C4  UNL d   1      -0.003   0.646   1.485  0.00  0.00     0.022 A 
ATOM      7  C5  UNL d   1       0.929   1.376   0.786  0.00  0.00     0.026 A 
ATOM      8  C6  UNL d   1       1.153   0.872  -0.540  0.00  0.00    -0.082 A 
ATOM      9  C7  UNL d   1       2.017   1.327  -1.565  0.00  0.00     0.045 A 
ENDROOT
TORSDOF 0
ENDMDL
