MODEL 1
REMARK minimizedAffinity -3.51478815
REMARK minimizedRMSD -1
REMARK  0 active torsions:
REMARK  status: ('A' for Active; 'I' for Inactive)
ROOT
ATOM      1  C   UNL d   1       1.987   0.214  -2.496  0.00  0.00    -0.002 A 
ATOM      2  C1  UNL d   1       1.980   1.453  -1.871  0.00  0.00     0.010 A 
ATOM      3  C2  UNL d   1       1.069   1.729  -0.850  0.00  0.00     0.041 A 
ATOM      4  C3  UNL d   1       0.157   0.728  -0.462  0.00  0.00    -0.075 A 
ATOM      5  S   UNL d   1      -1.049   0.840   0.765  0.00  0.00     0.015 SA
ATOM      6  C4  UNL d   1      -1.583  -0.755   0.491  0.00  0.00     0.022 A 
ATOM      7  C5  UNL d   1      -0.870  -1.373  -0.509  0.00  0.00     0.026 A 
ATOM      8  C6  UNL d   1       0.145  -0.528  -1.075  0.00  0.00    -0.082 A 
ATOM      9  C7  UNL d   1       1.081  -0.777  -2.107  0.00  0.00     0.045 A 
ENDROOT
TORSDOF 0
ENDMDL
