MODEL 1
REMARK minimizedAffinity -1.00968003
REMARK minimizedRMSD -1
REMARK  0 active torsions:
REMARK  status: ('A' for Active; 'I' for Inactive)
ROOT
ATOM      1  C   UNL d   1       1.616   0.371  -3.062  0.00  0.00    -0.002 A 
ATOM      2  C1  UNL d   1       0.707  -0.677  -3.114  0.00  0.00     0.010 A 
ATOM      3  C2  UNL d   1      -0.066  -1.003  -1.998  0.00  0.00     0.041 A 
ATOM      4  C3  UNL d   1       0.090  -0.250  -0.818  0.00  0.00    -0.075 A 
ATOM      5  S   UNL d   1      -0.750  -0.466   0.672  0.00  0.00     0.015 SA
ATOM      6  C4  UNL d   1       0.078   0.827   1.413  0.00  0.00     0.022 A 
ATOM      7  C5  UNL d   1       0.976   1.421   0.558  0.00  0.00     0.026 A 
ATOM      8  C6  UNL d   1       0.998   0.811  -0.741  0.00  0.00    -0.082 A 
ATOM      9  C7  UNL d   1       1.767   1.115  -1.890  0.00  0.00     0.045 A 
ENDROOT
TORSDOF 0
ENDMDL
