MODEL 1
REMARK minimizedAffinity -4.4702363
REMARK minimizedRMSD -1
REMARK  0 active torsions:
REMARK  status: ('A' for Active; 'I' for Inactive)
ROOT
ATOM      1  C   UNL d   1       1.212   0.429  -2.725  0.00  0.00    -0.002 A 
ATOM      2  C1  UNL d   1       0.397  -0.683  -2.886  0.00  0.00     0.010 A 
ATOM      3  C2  UNL d   1      -0.358  -1.170  -1.817  0.00  0.00     0.041 A 
ATOM      4  C3  UNL d   1      -0.282  -0.514  -0.573  0.00  0.00    -0.075 A 
ATOM      5  S   UNL d   1      -1.118  -0.932   0.876  0.00  0.00     0.015 SA
ATOM      6  C4  UNL d   1      -0.414   0.357   1.742  0.00  0.00     0.022 A 
ATOM      7  C5  UNL d   1       0.441   1.097   0.960  0.00  0.00     0.026 A 
ATOM      8  C6  UNL d   1       0.530   0.608  -0.387  0.00  0.00    -0.082 A 
ATOM      9  C7  UNL d   1       1.285   1.078  -1.489  0.00  0.00     0.045 A 
ENDROOT
TORSDOF 0
ENDMDL
