MODEL 1
REMARK minimizedAffinity -3.00615239
REMARK minimizedRMSD -1
REMARK  0 active torsions:
REMARK  status: ('A' for Active; 'I' for Inactive)
ROOT
ATOM      1  C   UNL d   1       1.364   0.713  -2.576  0.00  0.00    -0.002 A 
ATOM      2  C1  UNL d   1       0.414  -0.220  -2.965  0.00  0.00     0.010 A 
ATOM      3  C2  UNL d   1      -0.367  -0.877  -2.012  0.00  0.00     0.041 A 
ATOM      4  C3  UNL d   1      -0.177  -0.575  -0.649  0.00  0.00    -0.075 A 
ATOM      5  S   UNL d   1      -1.019  -1.254   0.693  0.00  0.00     0.015 SA
ATOM      6  C4  UNL d   1      -0.138  -0.320   1.814  0.00  0.00     0.022 A 
ATOM      7  C5  UNL d   1       0.780   0.495   1.196  0.00  0.00     0.026 A 
ATOM      8  C6  UNL d   1       0.773   0.362  -0.233  0.00  0.00    -0.082 A 
ATOM      9  C7  UNL d   1       1.550   1.010  -1.224  0.00  0.00     0.045 A 
ENDROOT
TORSDOF 0
ENDMDL
