MODEL 1
REMARK minimizedAffinity -1.20352936
REMARK minimizedRMSD -1
REMARK  0 active torsions:
REMARK  status: ('A' for Active; 'I' for Inactive)
ROOT
ATOM      1  C   UNL d   1       2.077   0.902  -1.322  0.00  0.00    -0.002 A 
ATOM      2  C1  UNL d   1       1.586  -0.078  -2.172  0.00  0.00     0.010 A 
ATOM      3  C2  UNL d   1       0.426  -0.784  -1.848  0.00  0.00     0.041 A 
ATOM      4  C3  UNL d   1      -0.241  -0.483  -0.644  0.00  0.00    -0.075 A 
ATOM      5  S   UNL d   1      -1.680  -1.217  -0.041  0.00  0.00     0.015 SA
ATOM      6  C4  UNL d   1      -1.677  -0.246   1.360  0.00  0.00     0.022 A 
ATOM      7  C5  UNL d   1      -0.611   0.622   1.383  0.00  0.00     0.026 A 
ATOM      8  C6  UNL d   1       0.234   0.500   0.228  0.00  0.00    -0.082 A 
ATOM      9  C7  UNL d   1       1.413   1.197  -0.128  0.00  0.00     0.045 A 
ENDROOT
TORSDOF 0
ENDMDL
