MODEL 1
REMARK minimizedAffinity -0.793445408
REMARK minimizedRMSD -1
REMARK  0 active torsions:
REMARK  status: ('A' for Active; 'I' for Inactive)
ROOT
ATOM      1  C   UNL d   1      -2.848   3.306   4.319  0.00  0.00    -0.002 A 
ATOM      2  C1  UNL d   1      -1.806   2.426   4.574  0.00  0.00     0.010 A 
ATOM      3  C2  UNL d   1      -1.712   1.217   3.881  0.00  0.00     0.041 A 
ATOM      4  C3  UNL d   1      -2.691   0.907   2.917  0.00  0.00    -0.075 A 
ATOM      5  S   UNL d   1      -2.778  -0.515   1.945  0.00  0.00     0.015 SA
ATOM      6  C4  UNL d   1      -4.200   0.014   1.168  0.00  0.00     0.022 A 
ATOM      7  C5  UNL d   1      -4.612   1.242   1.627  0.00  0.00     0.026 A 
ATOM      8  C6  UNL d   1      -3.749   1.778   2.642  0.00  0.00    -0.082 A 
ATOM      9  C7  UNL d   1      -3.817   2.995   3.362  0.00  0.00     0.045 A 
ENDROOT
TORSDOF 0
ENDMDL
