MODEL 1
REMARK minimizedAffinity 5.5411973
REMARK minimizedRMSD -1
REMARK  0 active torsions:
REMARK  status: ('A' for Active; 'I' for Inactive)
ROOT
ATOM      1  C   UNL d   1      -0.821  -2.142   1.065  0.00  0.00    -0.002 A 
ATOM      2  C1  UNL d   1      -0.004  -2.818   0.170  0.00  0.00     0.010 A 
ATOM      3  C2  UNL d   1       0.868  -2.116  -0.665  0.00  0.00     0.041 A 
ATOM      4  C3  UNL d   1       0.907  -0.711  -0.583  0.00  0.00    -0.075 A 
ATOM      5  S   UNL d   1       1.896   0.357  -1.506  0.00  0.00     0.015 SA
ATOM      6  C4  UNL d   1       1.259   1.736  -0.734  0.00  0.00     0.022 A 
ATOM      7  C5  UNL d   1       0.312   1.408   0.208  0.00  0.00     0.026 A 
ATOM      8  C6  UNL d   1       0.094  -0.007   0.311  0.00  0.00    -0.082 A 
ATOM      9  C7  UNL d   1      -0.780  -0.747   1.144  0.00  0.00     0.045 A 
ENDROOT
TORSDOF 0
ENDMDL
