MODEL 1
REMARK minimizedAffinity 3.95189524
REMARK minimizedRMSD -1
REMARK  0 active torsions:
REMARK  status: ('A' for Active; 'I' for Inactive)
ROOT
ATOM      1  C   UNL d   1       2.267   5.851  -5.319  0.00  0.00     0.078 C 
ATOM      2  C1  UNL d   1       0.868   5.896  -4.781  0.00  0.00    -0.077 A 
ATOM      3  C2  UNL d   1      -0.235   5.936  -5.643  0.00  0.00    -0.001 A 
ATOM      4  C3  UNL d   1      -1.532   5.986  -5.128  0.00  0.00     0.003 A 
ATOM      5  C4  UNL d   1      -1.737   6.000  -3.750  0.00  0.00    -0.005 A 
ATOM      6  C5  UNL d   1      -0.646   5.963  -2.884  0.00  0.00     0.003 A 
ATOM      7  C6  UNL d   1       0.651   5.912  -3.397  0.00  0.00    -0.001 A 
ENDROOT
TORSDOF 0
ENDMDL
