MODEL 1
REMARK minimizedAffinity -3.3863349
REMARK minimizedRMSD -1
REMARK  0 active torsions:
REMARK  status: ('A' for Active; 'I' for Inactive)
ROOT
ATOM      1  C   UNL d   1      -3.109   5.998  -3.242  0.00  0.00     0.078 C 
ATOM      2  C1  UNL d   1      -1.772   5.988  -3.921  0.00  0.00    -0.077 A 
ATOM      3  C2  UNL d   1      -0.586   5.996  -3.177  0.00  0.00    -0.001 A 
ATOM      4  C3  UNL d   1       0.652   5.997  -3.822  0.00  0.00     0.003 A 
ATOM      5  C4  UNL d   1       0.715   5.991  -5.214  0.00  0.00    -0.005 A 
ATOM      6  C5  UNL d   1      -0.460   5.985  -5.963  0.00  0.00     0.003 A 
ATOM      7  C6  UNL d   1      -1.698   5.984  -5.319  0.00  0.00    -0.001 A 
ENDROOT
TORSDOF 0
ENDMDL
