MODEL 1
REMARK minimizedAffinity -2.91722202
REMARK minimizedRMSD -1
REMARK  0 active torsions:
REMARK  status: ('A' for Active; 'I' for Inactive)
ROOT
ATOM      1  C   UNL d   1       5.613   5.381  -4.145  0.00  0.00     0.078 C 
ATOM      2  C1  UNL d   1       4.200   5.159  -4.594  0.00  0.00    -0.077 A 
ATOM      3  C2  UNL d   1       3.434   4.110  -4.071  0.00  0.00    -0.001 A 
ATOM      4  C3  UNL d   1       2.123   3.909  -4.505  0.00  0.00     0.003 A 
ATOM      5  C4  UNL d   1       1.567   4.752  -5.466  0.00  0.00    -0.005 A 
ATOM      6  C5  UNL d   1       2.322   5.797  -5.993  0.00  0.00     0.003 A 
ATOM      7  C6  UNL d   1       3.633   5.999  -5.560  0.00  0.00    -0.001 A 
ENDROOT
TORSDOF 0
ENDMDL
