MODEL 1
REMARK minimizedAffinity -0.269458443
REMARK minimizedRMSD -1
REMARK  0 active torsions:
REMARK  status: ('A' for Active; 'I' for Inactive)
ROOT
ATOM      1  C   UNL d   1       1.335   5.960  -4.781  0.00  0.00     0.078 C 
ATOM      2  C1  UNL d   1       0.023   5.975  -4.055  0.00  0.00    -0.077 A 
ATOM      3  C2  UNL d   1      -0.026   5.957  -2.655  0.00  0.00    -0.001 A 
ATOM      4  C3  UNL d   1      -1.255   5.962  -1.992  0.00  0.00     0.003 A 
ATOM      5  C4  UNL d   1      -2.443   5.983  -2.720  0.00  0.00    -0.005 A 
ATOM      6  C5  UNL d   1      -2.403   5.999  -4.113  0.00  0.00     0.003 A 
ATOM      7  C6  UNL d   1      -1.176   5.994  -4.778  0.00  0.00    -0.001 A 
ENDROOT
TORSDOF 0
ENDMDL
