MODEL 1
REMARK minimizedAffinity 6.90477085
REMARK minimizedRMSD -1
REMARK  0 active torsions:
REMARK  status: ('A' for Active; 'I' for Inactive)
ROOT
ATOM      1  C   UNL d   1      -1.403  -2.017  -6.000  0.00  0.00     0.078 C 
ATOM      2  C1  UNL d   1      -0.391  -1.149  -5.313  0.00  0.00    -0.077 A 
ATOM      3  C2  UNL d   1      -0.019   0.089  -5.851  0.00  0.00    -0.001 A 
ATOM      4  C3  UNL d   1       0.932   0.882  -5.206  0.00  0.00     0.003 A 
ATOM      5  C4  UNL d   1       1.519   0.445  -4.020  0.00  0.00    -0.005 A 
ATOM      6  C5  UNL d   1       1.156  -0.787  -3.478  0.00  0.00     0.003 A 
ATOM      7  C6  UNL d   1       0.206  -1.581  -4.122  0.00  0.00    -0.001 A 
ENDROOT
TORSDOF 0
ENDMDL
