MODEL 1
REMARK minimizedAffinity 1.03501523
REMARK minimizedRMSD -1
REMARK  0 active torsions:
REMARK  status: ('A' for Active; 'I' for Inactive)
ROOT
ATOM      1  C   UNL d   1      -3.715   5.986  -1.354  0.00  0.00     0.078 C 
ATOM      2  C1  UNL d   1      -2.549   5.981  -2.297  0.00  0.00    -0.077 A 
ATOM      3  C2  UNL d   1      -1.234   5.978  -1.817  0.00  0.00    -0.001 A 
ATOM      4  C3  UNL d   1      -0.157   5.983  -2.705  0.00  0.00     0.003 A 
ATOM      5  C4  UNL d   1      -0.385   5.992  -4.080  0.00  0.00    -0.005 A 
ATOM      6  C5  UNL d   1      -1.691   5.997  -4.567  0.00  0.00     0.003 A 
ATOM      7  C6  UNL d   1      -2.768   5.992  -3.680  0.00  0.00    -0.001 A 
ENDROOT
TORSDOF 0
ENDMDL
