MODEL 1
REMARK minimizedAffinity -1.66144311
REMARK minimizedRMSD -1
REMARK  0 active torsions:
REMARK  status: ('A' for Active; 'I' for Inactive)
ROOT
ATOM      1  C   UNL d   1       0.626   5.995  -5.267  0.00  0.00     0.078 C 
ATOM      2  C1  UNL d   1      -0.667   5.989  -4.507  0.00  0.00    -0.077 A 
ATOM      3  C2  UNL d   1      -1.897   5.993  -5.177  0.00  0.00    -0.001 A 
ATOM      4  C3  UNL d   1      -3.093   5.997  -4.456  0.00  0.00     0.003 A 
ATOM      5  C4  UNL d   1      -3.070   6.000  -3.063  0.00  0.00    -0.005 A 
ATOM      6  C5  UNL d   1      -1.851   5.998  -2.388  0.00  0.00     0.003 A 
ATOM      7  C6  UNL d   1      -0.654   5.994  -3.107  0.00  0.00    -0.001 A 
ENDROOT
TORSDOF 0
ENDMDL
