MODEL 1
REMARK minimizedAffinity -0.218067974
REMARK minimizedRMSD -1
REMARK  0 active torsions:
REMARK  status: ('A' for Active; 'I' for Inactive)
ROOT
ATOM      1  C   UNL d   1      -2.555   5.998  -1.975  0.00  0.00     0.078 C 
ATOM      2  C1  UNL d   1      -1.768   5.998  -3.251  0.00  0.00    -0.077 A 
ATOM      3  C2  UNL d   1      -2.410   5.986  -4.495  0.00  0.00    -0.001 A 
ATOM      4  C3  UNL d   1      -1.664   5.975  -5.675  0.00  0.00     0.003 A 
ATOM      5  C4  UNL d   1      -0.271   5.976  -5.622  0.00  0.00    -0.005 A 
ATOM      6  C5  UNL d   1       0.377   5.986  -4.388  0.00  0.00     0.003 A 
ATOM      7  C6  UNL d   1      -0.368   5.996  -3.208  0.00  0.00    -0.001 A 
ENDROOT
TORSDOF 0
ENDMDL
