MODEL 1
REMARK minimizedAffinity -1.37171721
REMARK minimizedRMSD -1
REMARK  0 active torsions:
REMARK  status: ('A' for Active; 'I' for Inactive)
ROOT
ATOM      1  C   UNL d   1       2.367   5.983  -4.694  0.00  0.00     0.078 C 
ATOM      2  C1  UNL d   1       0.870   5.994  -4.598  0.00  0.00    -0.077 A 
ATOM      3  C2  UNL d   1       0.228   6.000  -3.354  0.00  0.00    -0.001 A 
ATOM      4  C3  UNL d   1      -1.166   6.000  -3.280  0.00  0.00     0.003 A 
ATOM      5  C4  UNL d   1      -1.929   5.992  -4.446  0.00  0.00    -0.005 A 
ATOM      6  C5  UNL d   1      -1.298   5.984  -5.688  0.00  0.00     0.003 A 
ATOM      7  C6  UNL d   1       0.095   5.984  -5.764  0.00  0.00    -0.001 A 
ENDROOT
TORSDOF 0
ENDMDL
