MODEL 1
REMARK minimizedAffinity -0.27457276
REMARK minimizedRMSD -1
REMARK  0 active torsions:
REMARK  status: ('A' for Active; 'I' for Inactive)
ROOT
ATOM      1  C   UNL d   1      -3.754   5.986  -2.301  0.00  0.00     0.078 C 
ATOM      2  C1  UNL d   1      -2.436   5.982  -3.015  0.00  0.00    -0.077 A 
ATOM      3  C2  UNL d   1      -1.230   5.982  -2.303  0.00  0.00    -0.001 A 
ATOM      4  C3  UNL d   1      -0.010   5.988  -2.981  0.00  0.00     0.003 A 
ATOM      5  C4  UNL d   1       0.017   5.996  -4.374  0.00  0.00    -0.005 A 
ATOM      6  C5  UNL d   1      -1.178   5.999  -5.091  0.00  0.00     0.003 A 
ATOM      7  C6  UNL d   1      -2.399   5.993  -4.415  0.00  0.00    -0.001 A 
ENDROOT
TORSDOF 0
ENDMDL
