MODEL 1
REMARK minimizedAffinity -3.14588189
REMARK minimizedRMSD -1
REMARK  0 active torsions:
REMARK  status: ('A' for Active; 'I' for Inactive)
ROOT
ATOM      1  C   UNL d   1       1.789   5.987  -5.214  0.00  0.00     0.078 C 
ATOM      2  C1  UNL d   1       0.343   5.999  -4.819  0.00  0.00    -0.077 A 
ATOM      3  C2  UNL d   1      -0.036   5.998  -3.471  0.00  0.00    -0.001 A 
ATOM      4  C3  UNL d   1      -1.387   5.999  -3.117  0.00  0.00     0.003 A 
ATOM      5  C4  UNL d   1      -2.369   6.000  -4.106  0.00  0.00    -0.005 A 
ATOM      6  C5  UNL d   1      -2.001   5.998  -5.450  0.00  0.00     0.003 A 
ATOM      7  C6  UNL d   1      -0.651   5.997  -5.805  0.00  0.00    -0.001 A 
ENDROOT
TORSDOF 0
ENDMDL
