MODEL 1
REMARK minimizedAffinity -1.7138778
REMARK minimizedRMSD -1
REMARK  0 active torsions:
REMARK  status: ('A' for Active; 'I' for Inactive)
ROOT
ATOM      1  C   UNL d   1       0.755   5.973  -5.283  0.00  0.00     0.078 C 
ATOM      2  C1  UNL d   1      -0.447   5.990  -4.386  0.00  0.00    -0.077 A 
ATOM      3  C2  UNL d   1      -0.307   5.989  -2.993  0.00  0.00    -0.001 A 
ATOM      4  C3  UNL d   1      -1.434   5.995  -2.170  0.00  0.00     0.003 A 
ATOM      5  C4  UNL d   1      -2.710   6.000  -2.731  0.00  0.00    -0.005 A 
ATOM      6  C5  UNL d   1      -2.859   5.998  -4.116  0.00  0.00     0.003 A 
ATOM      7  C6  UNL d   1      -1.733   5.992  -4.941  0.00  0.00    -0.001 A 
ENDROOT
TORSDOF 0
ENDMDL
