MODEL 1
REMARK minimizedAffinity 10.7123985
REMARK minimizedRMSD -1
REMARK  0 active torsions:
REMARK  status: ('A' for Active; 'I' for Inactive)
ROOT
ATOM      1  C   UNL d   1      -1.800   5.971  -5.963  0.00  0.00     0.078 C 
ATOM      2  C1  UNL d   1      -0.476   5.982  -5.259  0.00  0.00    -0.077 A 
ATOM      3  C2  UNL d   1       0.725   5.966  -5.979  0.00  0.00    -0.001 A 
ATOM      4  C3  UNL d   1       1.950   5.967  -5.310  0.00  0.00     0.003 A 
ATOM      5  C4  UNL d   1       1.986   5.982  -3.917  0.00  0.00    -0.005 A 
ATOM      6  C5  UNL d   1       0.797   5.995  -3.192  0.00  0.00     0.003 A 
ATOM      7  C6  UNL d   1      -0.429   5.995  -3.859  0.00  0.00    -0.001 A 
ENDROOT
TORSDOF 0
ENDMDL
