MODEL 1
REMARK minimizedAffinity -0.129816815
REMARK minimizedRMSD -1
REMARK  0 active torsions:
REMARK  status: ('A' for Active; 'I' for Inactive)
ROOT
ATOM      1  C   UNL d   1       0.067  -1.102  -0.616  0.00  0.00     0.078 C 
ATOM      2  C1  UNL d   1      -0.711  -1.455  -1.848  0.00  0.00    -0.077 A 
ATOM      3  C2  UNL d   1      -2.109  -1.526  -1.823  0.00  0.00    -0.001 A 
ATOM      4  C3  UNL d   1      -2.819  -1.866  -2.976  0.00  0.00     0.003 A 
ATOM      5  C4  UNL d   1      -2.140  -2.138  -4.161  0.00  0.00    -0.005 A 
ATOM      6  C5  UNL d   1      -0.749  -2.071  -4.196  0.00  0.00     0.003 A 
ATOM      7  C6  UNL d   1      -0.037  -1.732  -3.044  0.00  0.00    -0.001 A 
ENDROOT
TORSDOF 0
ENDMDL
