MODEL 1
REMARK minimizedAffinity 1.3965652
REMARK minimizedRMSD -1
REMARK  0 active torsions:
REMARK  status: ('A' for Active; 'I' for Inactive)
ROOT
ATOM      1  C   UNL d   1       6.000   4.613  -2.662  0.00  0.00     0.078 C 
ATOM      2  C1  UNL d   1       4.791   4.130  -3.406  0.00  0.00    -0.077 A 
ATOM      3  C2  UNL d   1       4.737   4.179  -4.804  0.00  0.00    -0.001 A 
ATOM      4  C3  UNL d   1       3.601   3.736  -5.483  0.00  0.00     0.003 A 
ATOM      5  C4  UNL d   1       2.510   3.241  -4.772  0.00  0.00    -0.005 A 
ATOM      6  C5  UNL d   1       2.553   3.190  -3.380  0.00  0.00     0.003 A 
ATOM      7  C6  UNL d   1       3.688   3.633  -2.699  0.00  0.00    -0.001 A 
ENDROOT
TORSDOF 0
ENDMDL
