MODEL 1
REMARK minimizedAffinity -0.558981895
REMARK minimizedRMSD -1
REMARK  0 active torsions:
REMARK  status: ('A' for Active; 'I' for Inactive)
ROOT
ATOM      1  C   UNL d   1      -4.506   5.621  -2.238  0.00  0.00     0.078 C 
ATOM      2  C1  UNL d   1      -3.032   5.626  -2.512  0.00  0.00    -0.077 A 
ATOM      3  C2  UNL d   1      -2.530   5.250  -3.764  0.00  0.00    -0.001 A 
ATOM      4  C3  UNL d   1      -1.155   5.250  -4.003  0.00  0.00     0.003 A 
ATOM      5  C4  UNL d   1      -0.270   5.625  -2.994  0.00  0.00    -0.005 A 
ATOM      6  C5  UNL d   1      -0.760   6.000  -1.744  0.00  0.00     0.003 A 
ATOM      7  C6  UNL d   1      -2.135   6.000  -1.504  0.00  0.00    -0.001 A 
ENDROOT
TORSDOF 0
ENDMDL
