MODEL 1
REMARK minimizedAffinity 1.77441943
REMARK minimizedRMSD -1
REMARK  1 active torsions:
REMARK  status: ('A' for Active; 'I' for Inactive)
REMARK    1  A    between atoms: C1_2  and  C2_3 
ROOT
ATOM      1  C2  UNL d   1       5.981   4.530   3.072  0.00  0.00    -0.076 A 
ATOM      2  C3  UNL d   1       5.965   3.280   2.430  0.00  0.00     0.004 A 
ATOM      3  C4  UNL d   1       5.974   2.096   3.165  0.00  0.00    -0.003 A 
ATOM      4  C5  UNL d   1       5.998   2.143   4.554  0.00  0.00     0.000 A 
ATOM      5  C6  UNL d   1       5.996   3.374   5.208  0.00  0.00     0.000 A 
ATOM      6  C7  UNL d   1       5.972   4.578   4.482  0.00  0.00    -0.073 A 
ATOM      7  C8  UNL d   1       5.977   5.877   5.239  0.00  0.00     0.078 C 
ENDROOT
BRANCH   1   8
ATOM      8  C1  UNL d   1       5.999   5.781   2.222  0.00  0.00     0.053 C 
ATOM      9  C   UNL d   1       5.970   5.474   0.733  0.00  0.00     0.018 C 
ENDBRANCH   1   8
TORSDOF 1
ENDMDL
