MODEL 1
REMARK minimizedAffinity 1.15654457
REMARK minimizedRMSD -1
REMARK  1 active torsions:
REMARK  status: ('A' for Active; 'I' for Inactive)
REMARK    1  A    between atoms: C1_2  and  C2_3 
ROOT
ATOM      1  C2  UNL d   1       5.929   0.232   5.114  0.00  0.00    -0.076 A 
ATOM      2  C3  UNL d   1       5.884   1.498   5.723  0.00  0.00     0.004 A 
ATOM      3  C4  UNL d   1       5.905   2.664   4.958  0.00  0.00    -0.003 A 
ATOM      4  C5  UNL d   1       5.972   2.582   3.572  0.00  0.00     0.000 A 
ATOM      5  C6  UNL d   1       5.999   1.334   2.950  0.00  0.00     0.000 A 
ATOM      6  C7  UNL d   1       5.961   0.149   3.705  0.00  0.00    -0.073 A 
ATOM      7  C8  UNL d   1       5.999  -1.169   2.982  0.00  0.00     0.078 C 
ENDROOT
BRANCH   1   8
ATOM      8  C1  UNL d   1       5.930  -0.996   5.995  0.00  0.00     0.053 C 
ATOM      9  C   UNL d   1       5.456  -2.241   5.261  0.00  0.00     0.018 C 
ENDBRANCH   1   8
TORSDOF 1
ENDMDL
