MODEL 1
REMARK minimizedAffinity 4.65855026
REMARK minimizedRMSD -1
REMARK  1 active torsions:
REMARK  status: ('A' for Active; 'I' for Inactive)
REMARK    1  A    between atoms: C1_2  and  C2_3 
ROOT
ATOM      1  C2  UNL d   1       5.629   2.124   4.480  0.00  0.00    -0.076 A 
ATOM      2  C3  UNL d   1       5.282   0.965   5.196  0.00  0.00     0.004 A 
ATOM      3  C4  UNL d   1       4.909  -0.203   4.534  0.00  0.00    -0.003 A 
ATOM      4  C5  UNL d   1       4.878  -0.232   3.144  0.00  0.00     0.000 A 
ATOM      5  C6  UNL d   1       5.236   0.903   2.417  0.00  0.00     0.000 A 
ATOM      6  C7  UNL d   1       5.630   2.084   3.069  0.00  0.00    -0.073 A 
ATOM      7  C8  UNL d   1       6.000   3.280   2.236  0.00  0.00     0.078 C 
ENDROOT
BRANCH   1   8
ATOM      8  C1  UNL d   1       5.998   3.370   5.253  0.00  0.00     0.053 C 
ATOM      9  C   UNL d   1       5.972   4.621   4.389  0.00  0.00     0.018 C 
ENDBRANCH   1   8
TORSDOF 1
ENDMDL
