MODEL 1
REMARK minimizedAffinity 7.06114864
REMARK minimizedRMSD -1
REMARK  1 active torsions:
REMARK  status: ('A' for Active; 'I' for Inactive)
REMARK    1  A    between atoms: C1_2  and  C2_3 
ROOT
ATOM      1  C2  UNL d   1      -1.087   0.861   3.281  0.00  0.00    -0.076 A 
ATOM      2  C3  UNL d   1      -1.499   1.772   4.268  0.00  0.00     0.004 A 
ATOM      3  C4  UNL d   1      -1.301   3.143   4.108  0.00  0.00    -0.003 A 
ATOM      4  C5  UNL d   1      -0.687   3.624   2.957  0.00  0.00     0.000 A 
ATOM      5  C6  UNL d   1      -0.287   2.735   1.959  0.00  0.00     0.000 A 
ATOM      6  C7  UNL d   1      -0.495   1.352   2.098  0.00  0.00    -0.073 A 
ATOM      7  C8  UNL d   1      -0.038   0.439   0.993  0.00  0.00     0.078 C 
ENDROOT
BRANCH   1   8
ATOM      8  C1  UNL d   1      -1.304  -0.616   3.522  0.00  0.00     0.053 C 
ATOM      9  C   UNL d   1      -2.765  -0.956   3.775  0.00  0.00     0.018 C 
ENDBRANCH   1   8
TORSDOF 1
ENDMDL
