MODEL 1
REMARK minimizedAffinity 3.78163242
REMARK minimizedRMSD -1
REMARK  1 active torsions:
REMARK  status: ('A' for Active; 'I' for Inactive)
REMARK    1  A    between atoms: C1_2  and  C2_3 
ROOT
ATOM      1  C2  UNL d   1       5.993   3.028   3.353  0.00  0.00    -0.076 A 
ATOM      2  C3  UNL d   1       5.998   3.667   4.605  0.00  0.00     0.004 A 
ATOM      3  C4  UNL d   1       5.971   2.929   5.787  0.00  0.00    -0.003 A 
ATOM      4  C5  UNL d   1       5.939   1.540   5.737  0.00  0.00     0.000 A 
ATOM      5  C6  UNL d   1       5.951   0.889   4.504  0.00  0.00     0.000 A 
ATOM      6  C7  UNL d   1       5.994   1.617   3.303  0.00  0.00    -0.073 A 
ATOM      7  C8  UNL d   1       5.999   0.863   2.001  0.00  0.00     0.078 C 
ENDROOT
BRANCH   1   8
ATOM      8  C1  UNL d   1       5.996   3.880   2.104  0.00  0.00     0.053 C 
ATOM      9  C   UNL d   1       6.000   5.369   2.416  0.00  0.00     0.018 C 
ENDBRANCH   1   8
TORSDOF 1
ENDMDL
