MODEL 1
REMARK minimizedAffinity -0.94337672
REMARK minimizedRMSD -1
REMARK  1 active torsions:
REMARK  status: ('A' for Active; 'I' for Inactive)
REMARK    1  A    between atoms: C1_2  and  C2_3 
ROOT
ATOM      1  C2  UNL d   1       5.249   3.582   3.504  0.00  0.00    -0.076 A 
ATOM      2  C3  UNL d   1       5.105   2.597   4.497  0.00  0.00     0.004 A 
ATOM      3  C4  UNL d   1       5.395   1.260   4.229  0.00  0.00    -0.003 A 
ATOM      4  C5  UNL d   1       5.835   0.887   2.963  0.00  0.00     0.000 A 
ATOM      5  C6  UNL d   1       6.000   1.853   1.971  0.00  0.00     0.000 A 
ATOM      6  C7  UNL d   1       5.727   3.207   2.230  0.00  0.00    -0.073 A 
ATOM      7  C8  UNL d   1       5.917   4.207   1.122  0.00  0.00     0.078 C 
ENDROOT
BRANCH   1   8
ATOM      8  C1  UNL d   1       4.893   5.011   3.845  0.00  0.00     0.053 C 
ATOM      9  C   UNL d   1       5.996   5.991   3.475  0.00  0.00     0.018 C 
ENDBRANCH   1   8
TORSDOF 1
ENDMDL
