MODEL 1
REMARK minimizedAffinity 5.63676119
REMARK minimizedRMSD -1
REMARK  1 active torsions:
REMARK  status: ('A' for Active; 'I' for Inactive)
REMARK    1  A    between atoms: C1_2  and  C2_3 
ROOT
ATOM      1  C2  UNL d   1       5.433   1.500   3.219  0.00  0.00    -0.076 A 
ATOM      2  C3  UNL d   1       5.237   0.245   3.821  0.00  0.00     0.004 A 
ATOM      3  C4  UNL d   1       5.416   0.071   5.192  0.00  0.00    -0.003 A 
ATOM      4  C5  UNL d   1       5.794   1.150   5.984  0.00  0.00     0.000 A 
ATOM      5  C6  UNL d   1       5.976   2.406   5.406  0.00  0.00     0.000 A 
ATOM      6  C7  UNL d   1       5.784   2.602   4.028  0.00  0.00    -0.073 A 
ATOM      7  C8  UNL d   1       6.000   3.976   3.457  0.00  0.00     0.078 C 
ENDROOT
BRANCH   1   8
ATOM      8  C1  UNL d   1       5.250   1.622   1.723  0.00  0.00     0.053 C 
ATOM      9  C   UNL d   1       3.786   1.703   1.319  0.00  0.00     0.018 C 
ENDBRANCH   1   8
TORSDOF 1
ENDMDL
