MODEL 1
REMARK minimizedAffinity 15.650075
REMARK minimizedRMSD -1
REMARK  1 active torsions:
REMARK  status: ('A' for Active; 'I' for Inactive)
REMARK    1  A    between atoms: C1_2  and  C2_3 
ROOT
ATOM      1  C2  UNL d   1      -1.554   4.283   3.408  0.00  0.00    -0.076 A 
ATOM      2  C3  UNL d   1      -2.425   3.847   2.394  0.00  0.00     0.004 A 
ATOM      3  C4  UNL d   1      -1.944   3.155   1.284  0.00  0.00    -0.003 A 
ATOM      4  C5  UNL d   1      -0.585   2.887   1.169  0.00  0.00     0.000 A 
ATOM      5  C6  UNL d   1       0.291   3.296   2.174  0.00  0.00     0.000 A 
ATOM      6  C7  UNL d   1      -0.179   3.981   3.308  0.00  0.00    -0.073 A 
ATOM      7  C8  UNL d   1       0.811   4.404   4.358  0.00  0.00     0.078 C 
ENDROOT
BRANCH   1   8
ATOM      8  C1  UNL d   1      -2.129   5.052   4.576  0.00  0.00     0.053 C 
ATOM      9  C   UNL d   1      -3.490   4.527   5.006  0.00  0.00     0.018 C 
ENDBRANCH   1   8
TORSDOF 1
ENDMDL
