MODEL 1
REMARK minimizedAffinity -0.190952137
REMARK minimizedRMSD -1
REMARK  1 active torsions:
REMARK  status: ('A' for Active; 'I' for Inactive)
REMARK    1  A    between atoms: C1_2  and  C2_3 
ROOT
ATOM      1  C2  UNL d   1       5.919   1.587   4.425  0.00  0.00    -0.076 A 
ATOM      2  C3  UNL d   1       5.926   1.098   5.743  0.00  0.00     0.004 A 
ATOM      3  C4  UNL d   1       5.959  -0.271   6.000  0.00  0.00    -0.003 A 
ATOM      4  C5  UNL d   1       5.987  -1.174   4.943  0.00  0.00     0.000 A 
ATOM      5  C6  UNL d   1       5.998  -0.707   3.629  0.00  0.00     0.000 A 
ATOM      6  C7  UNL d   1       5.981   0.671   3.353  0.00  0.00    -0.073 A 
ATOM      7  C8  UNL d   1       5.989   1.120   1.917  0.00  0.00     0.078 C 
ENDROOT
BRANCH   1   8
ATOM      8  C1  UNL d   1       5.854   3.082   4.207  0.00  0.00     0.053 C 
ATOM      9  C   UNL d   1       5.998   3.464   2.742  0.00  0.00     0.018 C 
ENDBRANCH   1   8
TORSDOF 1
ENDMDL
