MODEL 1
REMARK minimizedAffinity -0.241739452
REMARK minimizedRMSD -1
REMARK  1 active torsions:
REMARK  status: ('A' for Active; 'I' for Inactive)
REMARK    1  A    between atoms: C1_2  and  C2_3 
ROOT
ATOM      1  C2  UNL d   1       5.397   1.098   3.504  0.00  0.00    -0.076 A 
ATOM      2  C3  UNL d   1       5.466   2.042   2.465  0.00  0.00     0.004 A 
ATOM      3  C4  UNL d   1       5.763   3.378   2.728  0.00  0.00    -0.003 A 
ATOM      4  C5  UNL d   1       5.997   3.792   4.034  0.00  0.00     0.000 A 
ATOM      5  C6  UNL d   1       5.951   2.866   5.076  0.00  0.00     0.000 A 
ATOM      6  C7  UNL d   1       5.669   1.512   4.826  0.00  0.00    -0.073 A 
ATOM      7  C8  UNL d   1       5.626   0.558   5.988  0.00  0.00     0.078 C 
ENDROOT
BRANCH   1   8
ATOM      8  C1  UNL d   1       5.044  -0.332   3.162  0.00  0.00     0.053 C 
ATOM      9  C   UNL d   1       6.000  -0.941   2.148  0.00  0.00     0.018 C 
ENDBRANCH   1   8
TORSDOF 1
ENDMDL
