MODEL 1
REMARK minimizedAffinity 7.9522357
REMARK minimizedRMSD -1
REMARK  1 active torsions:
REMARK  status: ('A' for Active; 'I' for Inactive)
REMARK    1  A    between atoms: C1_2  and  C2_3 
ROOT
ATOM      1  C2  UNL d   1       5.725  -0.246   3.566  0.00  0.00    -0.076 A 
ATOM      2  C3  UNL d   1       5.903   0.075   2.209  0.00  0.00     0.004 A 
ATOM      3  C4  UNL d   1       5.993   1.402   1.792  0.00  0.00    -0.003 A 
ATOM      4  C5  UNL d   1       5.907   2.429   2.725  0.00  0.00     0.000 A 
ATOM      5  C6  UNL d   1       5.747   2.128   4.077  0.00  0.00     0.000 A 
ATOM      6  C7  UNL d   1       5.671   0.795   4.517  0.00  0.00    -0.073 A 
ATOM      7  C8  UNL d   1       5.493   0.529   5.986  0.00  0.00     0.078 C 
ENDROOT
BRANCH   1   8
ATOM      8  C1  UNL d   1       5.606  -1.702   3.956  0.00  0.00     0.053 C 
ATOM      9  C   UNL d   1       5.753  -2.638   2.766  0.00  0.00     0.018 C 
ENDBRANCH   1   8
TORSDOF 1
ENDMDL
