MODEL 1
REMARK minimizedAffinity 2.08227539
REMARK minimizedRMSD -1
REMARK  1 active torsions:
REMARK  status: ('A' for Active; 'I' for Inactive)
REMARK    1  A    between atoms: C1_2  and  C2_3 
ROOT
ATOM      1  C2  UNL d   1       5.912   3.634   2.872  0.00  0.00    -0.076 A 
ATOM      2  C3  UNL d   1       5.876   3.310   4.239  0.00  0.00     0.004 A 
ATOM      3  C4  UNL d   1       5.911   4.307   5.213  0.00  0.00    -0.003 A 
ATOM      4  C5  UNL d   1       5.981   5.643   4.835  0.00  0.00     0.000 A 
ATOM      5  C6  UNL d   1       5.999   5.983   3.483  0.00  0.00     0.000 A 
ATOM      6  C7  UNL d   1       5.949   4.991   2.488  0.00  0.00    -0.073 A 
ATOM      7  C8  UNL d   1       5.978   5.414   1.045  0.00  0.00     0.078 C 
ENDROOT
BRANCH   1   8
ATOM      8  C1  UNL d   1       5.900   2.509   1.861  0.00  0.00     0.053 C 
ATOM      9  C   UNL d   1       5.954   1.137   2.516  0.00  0.00     0.018 C 
ENDBRANCH   1   8
TORSDOF 1
ENDMDL
