MODEL 1
REMARK minimizedAffinity 5.10228682
REMARK minimizedRMSD -1
REMARK  1 active torsions:
REMARK  status: ('A' for Active; 'I' for Inactive)
REMARK    1  A    between atoms: C1_2  and  C2_3 
ROOT
ATOM      1  C2  UNL d   1       5.981   0.549   3.454  0.00  0.00    -0.076 A 
ATOM      2  C3  UNL d   1       5.986  -0.259   2.304  0.00  0.00     0.004 A 
ATOM      3  C4  UNL d   1       5.996  -1.649   2.403  0.00  0.00    -0.003 A 
ATOM      4  C5  UNL d   1       6.000  -2.254   3.655  0.00  0.00     0.000 A 
ATOM      5  C6  UNL d   1       5.977  -1.469   4.807  0.00  0.00     0.000 A 
ATOM      6  C7  UNL d   1       5.951  -0.066   4.724  0.00  0.00    -0.073 A 
ATOM      7  C8  UNL d   1       5.933   0.732   5.999  0.00  0.00     0.078 C 
ENDROOT
BRANCH   1   8
ATOM      8  C1  UNL d   1       5.998   2.051   3.284  0.00  0.00     0.053 C 
ATOM      9  C   UNL d   1       4.608   2.663   3.366  0.00  0.00     0.018 C 
ENDBRANCH   1   8
TORSDOF 1
ENDMDL
