MODEL 1
REMARK minimizedAffinity -1.90734148
REMARK minimizedRMSD -1
REMARK  0 active torsions:
REMARK  status: ('A' for Active; 'I' for Inactive)
ROOT
ATOM      1  C1  DEN d   1      -2.064   0.777  -5.989  0.00  0.00     0.130 A 
ATOM      2  C2  DEN d   1      -3.051  -0.299  -5.962  0.00  0.00    -0.031 A 
ATOM      3  C3  DEN d   1      -4.394   0.314  -5.954  0.00  0.00     0.027 A 
ATOM      4  C4  DEN d   1      -5.039   2.811  -5.986  0.00  0.00     0.027 A 
ATOM      5  C5  DEN d   1      -4.546   4.098  -5.999  0.00  0.00    -0.003 A 
ATOM      6  C6  DEN d   1      -3.203   4.366  -5.976  0.00  0.00     0.001 A 
ATOM      7  C7  DEN d   1      -2.305   3.332  -5.984  0.00  0.00     0.017 A 
ATOM      8  C8  DEN d   1      -2.794   2.032  -5.963  0.00  0.00    -0.094 A 
ATOM      9  C9  DEN d   1      -4.155   1.782  -5.999  0.00  0.00    -0.072 A 
ENDROOT
TORSDOF 0
ENDMDL
