MODEL 1
REMARK minimizedAffinity 0.541366756
REMARK minimizedRMSD -1
REMARK  0 active torsions:
REMARK  status: ('A' for Active; 'I' for Inactive)
ROOT
ATOM      1  C1  DEN d   1      -4.859   3.717  -5.999  0.00  0.00     0.130 A 
ATOM      2  C2  DEN d   1      -3.636   4.515  -5.993  0.00  0.00    -0.031 A 
ATOM      3  C3  DEN d   1      -2.486   3.589  -5.980  0.00  0.00     0.027 A 
ATOM      4  C4  DEN d   1      -2.480   1.010  -5.973  0.00  0.00     0.027 A 
ATOM      5  C5  DEN d   1      -3.276  -0.114  -5.963  0.00  0.00    -0.003 A 
ATOM      6  C6  DEN d   1      -4.643  -0.041  -5.930  0.00  0.00     0.001 A 
ATOM      7  C7  DEN d   1      -5.258   1.183  -5.952  0.00  0.00     0.017 A 
ATOM      8  C8  DEN d   1      -4.462   2.321  -5.954  0.00  0.00    -0.094 A 
ATOM      9  C9  DEN d   1      -3.082   2.226  -6.000  0.00  0.00    -0.072 A 
ENDROOT
TORSDOF 0
ENDMDL
