MODEL 1
REMARK minimizedAffinity -1.45524323
REMARK minimizedRMSD -1
REMARK  0 active torsions:
REMARK  status: ('A' for Active; 'I' for Inactive)
ROOT
ATOM      1  C1  DEN d   1      -4.965   1.382  -5.969  0.00  0.00     0.130 A 
ATOM      2  C2  DEN d   1      -3.698   0.656  -5.990  0.00  0.00    -0.031 A 
ATOM      3  C3  DEN d   1      -2.604   1.647  -5.999  0.00  0.00     0.027 A 
ATOM      4  C4  DEN d   1      -2.748   4.222  -5.977  0.00  0.00     0.027 A 
ATOM      5  C5  DEN d   1      -3.607   5.299  -5.970  0.00  0.00    -0.003 A 
ATOM      6  C6  DEN d   1      -4.968   5.146  -5.997  0.00  0.00     0.001 A 
ATOM      7  C7  DEN d   1      -5.511   3.889  -5.985  0.00  0.00     0.017 A 
ATOM      8  C8  DEN d   1      -4.651   2.799  -6.000  0.00  0.00    -0.094 A 
ATOM      9  C9  DEN d   1      -3.278   2.973  -5.961  0.00  0.00    -0.072 A 
ENDROOT
TORSDOF 0
ENDMDL
