MODEL 1
REMARK minimizedAffinity 11.9843054
REMARK minimizedRMSD -1
REMARK  0 active torsions:
REMARK  status: ('A' for Active; 'I' for Inactive)
ROOT
ATOM      1  C1  DEN d   1      -1.967  -5.393  -5.091  0.00  0.00     0.130 A 
ATOM      2  C2  DEN d   1      -2.935  -6.000  -6.000  0.00  0.00    -0.031 A 
ATOM      3  C3  DEN d   1      -4.160  -5.175  -5.980  0.00  0.00     0.027 A 
ATOM      4  C4  DEN d   1      -4.646  -3.025  -4.640  0.00  0.00     0.027 A 
ATOM      5  C5  DEN d   1      -4.133  -2.133  -3.725  0.00  0.00    -0.003 A 
ATOM      6  C6  DEN d   1      -2.885  -2.282  -3.179  0.00  0.00     0.001 A 
ATOM      7  C7  DEN d   1      -2.090  -3.324  -3.579  0.00  0.00     0.017 A 
ATOM      8  C8  DEN d   1      -2.603  -4.232  -4.496  0.00  0.00    -0.094 A 
ATOM      9  C9  DEN d   1      -3.862  -4.056  -5.045  0.00  0.00    -0.072 A 
ENDROOT
TORSDOF 0
ENDMDL
