MODEL 1
REMARK minimizedAffinity 2.93735981
REMARK minimizedRMSD -1
REMARK  0 active torsions:
REMARK  status: ('A' for Active; 'I' for Inactive)
ROOT
ATOM      1  C1  DEN d   1       2.750  -2.303  -1.363  0.00  0.00     0.130 A 
ATOM      2  C2  DEN d   1       4.175  -2.145  -1.640  0.00  0.00    -0.031 A 
ATOM      3  C3  DEN d   1       4.539  -0.738  -1.373  0.00  0.00     0.027 A 
ATOM      4  C4  DEN d   1       3.042   1.198  -0.559  0.00  0.00     0.027 A 
ATOM      5  C5  DEN d   1       1.760   1.551  -0.199  0.00  0.00    -0.003 A 
ATOM      6  C6  DEN d   1       0.720   0.660  -0.234  0.00  0.00     0.001 A 
ATOM      7  C7  DEN d   1       0.953  -0.641  -0.595  0.00  0.00     0.017 A 
ATOM      8  C8  DEN d   1       2.241  -1.003  -0.966  0.00  0.00    -0.094 A 
ATOM      9  C9  DEN d   1       3.282  -0.090  -0.912  0.00  0.00    -0.072 A 
ENDROOT
TORSDOF 0
ENDMDL
