MODEL 1
REMARK minimizedAffinity -1.68069291
REMARK minimizedRMSD -1
REMARK  0 active torsions:
REMARK  status: ('A' for Active; 'I' for Inactive)
ROOT
ATOM      1  C1  DEN d   1      -2.411   2.319  -5.967  0.00  0.00     0.130 A 
ATOM      2  C2  DEN d   1      -3.252   3.513  -5.985  0.00  0.00    -0.031 A 
ATOM      3  C3  DEN d   1      -4.663   3.077  -5.992  0.00  0.00     0.027 A 
ATOM      4  C4  DEN d   1      -5.622   0.683  -5.972  0.00  0.00     0.027 A 
ATOM      5  C5  DEN d   1      -5.299  -0.656  -5.969  0.00  0.00    -0.003 A 
ATOM      6  C6  DEN d   1      -4.001  -1.094  -5.998  0.00  0.00     0.001 A 
ATOM      7  C7  DEN d   1      -2.977  -0.184  -5.987  0.00  0.00     0.017 A 
ATOM      8  C8  DEN d   1      -3.296   1.168  -5.999  0.00  0.00    -0.094 A 
ATOM      9  C9  DEN d   1      -4.614   1.590  -5.956  0.00  0.00    -0.072 A 
ENDROOT
TORSDOF 0
ENDMDL
