MODEL 1
REMARK minimizedAffinity -3.5193398
REMARK minimizedRMSD -1
REMARK  0 active torsions:
REMARK  status: ('A' for Active; 'I' for Inactive)
ROOT
ATOM      1  C1  DEN d   1      -2.682   0.025  -5.990  0.00  0.00     0.130 A 
ATOM      2  C2  DEN d   1      -3.832  -0.876  -5.980  0.00  0.00    -0.031 A 
ATOM      3  C3  DEN d   1      -5.057  -0.052  -5.970  0.00  0.00     0.027 A 
ATOM      4  C4  DEN d   1      -5.285   2.518  -5.975  0.00  0.00     0.027 A 
ATOM      5  C5  DEN d   1      -4.589   3.706  -5.971  0.00  0.00    -0.003 A 
ATOM      6  C6  DEN d   1      -3.220   3.751  -5.939  0.00  0.00     0.001 A 
ATOM      7  C7  DEN d   1      -2.503   2.584  -5.956  0.00  0.00     0.017 A 
ATOM      8  C8  DEN d   1      -3.197   1.382  -5.952  0.00  0.00    -0.094 A 
ATOM      9  C9  DEN d   1      -4.581   1.358  -5.997  0.00  0.00    -0.072 A 
ENDROOT
TORSDOF 0
ENDMDL
