MODEL 1
REMARK minimizedAffinity -1.79091728
REMARK minimizedRMSD -1
REMARK  0 active torsions:
REMARK  status: ('A' for Active; 'I' for Inactive)
ROOT
ATOM      1  C1  DEN d   1      -1.979  -0.856  -5.902  0.00  0.00     0.130 A 
ATOM      2  C2  DEN d   1      -2.994   0.193  -5.950  0.00  0.00    -0.031 A 
ATOM      3  C3  DEN d   1      -4.319  -0.456  -5.998  0.00  0.00     0.027 A 
ATOM      4  C4  DEN d   1      -4.896  -2.970  -5.998  0.00  0.00     0.027 A 
ATOM      5  C5  DEN d   1      -4.369  -4.242  -5.980  0.00  0.00    -0.003 A 
ATOM      6  C6  DEN d   1      -3.019  -4.473  -5.968  0.00  0.00     0.001 A 
ATOM      7  C7  DEN d   1      -2.149  -3.416  -5.930  0.00  0.00     0.017 A 
ATOM      8  C8  DEN d   1      -2.673  -2.130  -5.956  0.00  0.00    -0.094 A 
ATOM      9  C9  DEN d   1      -4.041  -1.917  -5.955  0.00  0.00    -0.072 A 
ENDROOT
TORSDOF 0
ENDMDL
