MODEL 1
REMARK minimizedAffinity 2.71491385
REMARK minimizedRMSD -1
REMARK  0 active torsions:
REMARK  status: ('A' for Active; 'I' for Inactive)
ROOT
ATOM      1  C1  DEN d   1      -3.268  -0.268  -5.998  0.00  0.00     0.130 A 
ATOM      2  C2  DEN d   1      -4.497  -1.056  -5.967  0.00  0.00    -0.031 A 
ATOM      3  C3  DEN d   1      -5.639  -0.120  -5.954  0.00  0.00     0.027 A 
ATOM      4  C4  DEN d   1      -5.624   2.459  -5.983  0.00  0.00     0.027 A 
ATOM      5  C5  DEN d   1      -4.819   3.577  -5.998  0.00  0.00    -0.003 A 
ATOM      6  C6  DEN d   1      -3.452   3.492  -5.980  0.00  0.00     0.001 A 
ATOM      7  C7  DEN d   1      -2.848   2.263  -5.991  0.00  0.00     0.017 A 
ATOM      8  C8  DEN d   1      -3.653   1.132  -5.969  0.00  0.00    -0.094 A 
ATOM      9  C9  DEN d   1      -5.033   1.238  -6.000  0.00  0.00    -0.072 A 
ENDROOT
TORSDOF 0
ENDMDL
