MODEL 1
REMARK minimizedAffinity -4.14512825
REMARK minimizedRMSD -1
REMARK  0 active torsions:
REMARK  status: ('A' for Active; 'I' for Inactive)
ROOT
ATOM      1  C1  DEN d   1      -3.667  -1.236  -6.000  0.00  0.00     0.130 A 
ATOM      2  C2  DEN d   1      -4.987  -1.860  -5.965  0.00  0.00    -0.031 A 
ATOM      3  C3  DEN d   1      -6.000  -0.785  -5.950  0.00  0.00     0.027 A 
ATOM      4  C4  DEN d   1      -5.654   1.770  -5.980  0.00  0.00     0.027 A 
ATOM      5  C5  DEN d   1      -4.713   2.776  -5.998  0.00  0.00    -0.003 A 
ATOM      6  C6  DEN d   1      -3.368   2.517  -5.983  0.00  0.00     0.001 A 
ATOM      7  C7  DEN d   1      -2.926   1.221  -5.995  0.00  0.00     0.017 A 
ATOM      8  C8  DEN d   1      -3.869   0.202  -5.970  0.00  0.00    -0.094 A 
ATOM      9  C9  DEN d   1      -5.225   0.483  -5.998  0.00  0.00    -0.072 A 
ENDROOT
TORSDOF 0
ENDMDL
