MODEL 1
REMARK minimizedAffinity -3.96107054
REMARK minimizedRMSD -1
REMARK  0 active torsions:
REMARK  status: ('A' for Active; 'I' for Inactive)
ROOT
ATOM      1  C1  DEN d   1      -3.401  -0.496  -5.998  0.00  0.00     0.130 A 
ATOM      2  C2  DEN d   1      -4.735  -1.090  -6.000  0.00  0.00    -0.031 A 
ATOM      3  C3  DEN d   1      -5.724   0.007  -5.972  0.00  0.00     0.027 A 
ATOM      4  C4  DEN d   1      -5.321   2.554  -5.932  0.00  0.00     0.027 A 
ATOM      5  C5  DEN d   1      -4.357   3.538  -5.909  0.00  0.00    -0.003 A 
ATOM      6  C6  DEN d   1      -3.019   3.248  -5.880  0.00  0.00     0.001 A 
ATOM      7  C7  DEN d   1      -2.606   1.942  -5.919  0.00  0.00     0.017 A 
ATOM      8  C8  DEN d   1      -3.572   0.945  -5.935  0.00  0.00    -0.094 A 
ATOM      9  C9  DEN d   1      -4.920   1.258  -5.976  0.00  0.00    -0.072 A 
ENDROOT
TORSDOF 0
ENDMDL
