MODEL 1
REMARK minimizedAffinity 0.137495175
REMARK minimizedRMSD -1
REMARK  0 active torsions:
REMARK  status: ('A' for Active; 'I' for Inactive)
ROOT
ATOM      1  C1  DEN d   1      -4.919   0.056  -5.955  0.00  0.00     0.130 A 
ATOM      2  C2  DEN d   1      -3.768  -0.842  -5.980  0.00  0.00    -0.031 A 
ATOM      3  C3  DEN d   1      -2.545  -0.015  -6.000  0.00  0.00     0.027 A 
ATOM      4  C4  DEN d   1      -2.323   2.555  -5.988  0.00  0.00     0.027 A 
ATOM      5  C5  DEN d   1      -3.021   3.742  -5.981  0.00  0.00    -0.003 A 
ATOM      6  C6  DEN d   1      -4.390   3.783  -5.998  0.00  0.00     0.001 A 
ATOM      7  C7  DEN d   1      -5.105   2.615  -5.979  0.00  0.00     0.017 A 
ATOM      8  C8  DEN d   1      -4.408   1.414  -5.994  0.00  0.00    -0.094 A 
ATOM      9  C9  DEN d   1      -3.024   1.393  -5.963  0.00  0.00    -0.072 A 
ENDROOT
TORSDOF 0
ENDMDL
