MODEL 1
REMARK minimizedAffinity -3.5437746
REMARK minimizedRMSD -1
REMARK  0 active torsions:
REMARK  status: ('A' for Active; 'I' for Inactive)
ROOT
ATOM      1  C1  DEN d   1      -5.998  -0.402  -5.891  0.00  0.00     0.130 A 
ATOM      2  C2  DEN d   1      -5.005  -1.468  -5.996  0.00  0.00    -0.031 A 
ATOM      3  C3  DEN d   1      -3.666  -0.845  -5.997  0.00  0.00     0.027 A 
ATOM      4  C4  DEN d   1      -3.038   1.652  -5.841  0.00  0.00     0.027 A 
ATOM      5  C5  DEN d   1      -3.539   2.932  -5.748  0.00  0.00    -0.003 A 
ATOM      6  C6  DEN d   1      -4.884   3.190  -5.731  0.00  0.00     0.001 A 
ATOM      7  C7  DEN d   1      -5.775   2.150  -5.762  0.00  0.00     0.017 A 
ATOM      8  C8  DEN d   1      -5.278   0.858  -5.863  0.00  0.00    -0.094 A 
ATOM      9  C9  DEN d   1      -3.915   0.617  -5.867  0.00  0.00    -0.072 A 
ENDROOT
TORSDOF 0
ENDMDL
