MODEL 1
REMARK minimizedAffinity -3.66200638
REMARK minimizedRMSD -1
REMARK  0 active torsions:
REMARK  status: ('A' for Active; 'I' for Inactive)
ROOT
ATOM      1  C1  DEN d   1      -5.303  -1.075  -5.973  0.00  0.00     0.130 A 
ATOM      2  C2  DEN d   1      -4.375  -2.202  -5.997  0.00  0.00    -0.031 A 
ATOM      3  C3  DEN d   1      -3.001  -1.662  -5.999  0.00  0.00     0.027 A 
ATOM      4  C4  DEN d   1      -2.224   0.797  -5.963  0.00  0.00     0.027 A 
ATOM      5  C5  DEN d   1      -2.648   2.108  -5.950  0.00  0.00    -0.003 A 
ATOM      6  C6  DEN d   1      -3.974   2.447  -5.978  0.00  0.00     0.001 A 
ATOM      7  C7  DEN d   1      -4.927   1.463  -5.975  0.00  0.00     0.017 A 
ATOM      8  C8  DEN d   1      -4.508   0.139  -5.995  0.00  0.00    -0.094 A 
ATOM      9  C9  DEN d   1      -3.162  -0.184  -5.954  0.00  0.00    -0.072 A 
ENDROOT
TORSDOF 0
ENDMDL
