MODEL 1
REMARK minimizedAffinity -3.63689899
REMARK minimizedRMSD -1
REMARK  0 active torsions:
REMARK  status: ('A' for Active; 'I' for Inactive)
ROOT
ATOM      1  C1  DEN d   1      -5.946   2.986  -5.994  0.00  0.00     0.130 A 
ATOM      2  C2  DEN d   1      -4.931   4.036  -5.956  0.00  0.00    -0.031 A 
ATOM      3  C3  DEN d   1      -3.604   3.388  -5.941  0.00  0.00     0.027 A 
ATOM      4  C4  DEN d   1      -3.025   0.875  -5.977  0.00  0.00     0.027 A 
ATOM      5  C5  DEN d   1      -3.550  -0.398  -5.999  0.00  0.00    -0.003 A 
ATOM      6  C6  DEN d   1      -4.900  -0.631  -5.986  0.00  0.00     0.001 A 
ATOM      7  C7  DEN d   1      -5.771   0.426  -5.997  0.00  0.00     0.017 A 
ATOM      8  C8  DEN d   1      -5.249   1.712  -5.968  0.00  0.00    -0.094 A 
ATOM      9  C9  DEN d   1      -3.882   1.927  -5.993  0.00  0.00    -0.072 A 
ENDROOT
TORSDOF 0
ENDMDL
