MODEL 1
REMARK minimizedAffinity -2.85321999
REMARK minimizedRMSD -1
REMARK  0 active torsions:
REMARK  status: ('A' for Active; 'I' for Inactive)
ROOT
ATOM      1  C1  DEN d   1      -3.737  -0.677  -5.737  0.00  0.00     0.130 A 
ATOM      2  C2  DEN d   1      -5.094  -1.161  -5.977  0.00  0.00    -0.031 A 
ATOM      3  C3  DEN d   1      -6.000   0.005  -5.980  0.00  0.00     0.027 A 
ATOM      4  C4  DEN d   1      -5.436   2.500  -5.644  0.00  0.00     0.027 A 
ATOM      5  C5  DEN d   1      -4.421   3.398  -5.398  0.00  0.00    -0.003 A 
ATOM      6  C6  DEN d   1      -3.123   3.001  -5.215  0.00  0.00     0.001 A 
ATOM      7  C7  DEN d   1      -2.798   1.674  -5.321  0.00  0.00     0.017 A 
ATOM      8  C8  DEN d   1      -3.817   0.762  -5.562  0.00  0.00    -0.094 A 
ATOM      9  C9  DEN d   1      -5.121   1.184  -5.756  0.00  0.00    -0.072 A 
ENDROOT
TORSDOF 0
ENDMDL
