MODEL 1
REMARK minimizedAffinity 16.1321812
REMARK minimizedRMSD -1
REMARK  0 active torsions:
REMARK  status: ('A' for Active; 'I' for Inactive)
ROOT
ATOM      1  C   UNL d   1       3.847   2.655  -0.309  0.00  0.00     0.023 A 
ATOM      2  C1  UNL d   1       2.980   2.611   0.783  0.00  0.00     0.003 A 
ATOM      3  C2  UNL d   1       1.807   1.855   0.715  0.00  0.00     0.048 A 
ATOM      4  C3  UNL d   1       1.509   1.145  -0.448  0.00  0.00     0.023 A 
ATOM      5  C4  UNL d   1       2.374   1.186  -1.542  0.00  0.00     0.048 A 
ATOM      6  C5  UNL d   1       3.545   1.944  -1.470  0.00  0.00     0.003 A 
ATOM      7  I   UNL d   1      -0.235   0.020  -0.552  0.00  0.00    -0.146 I 
ENDROOT
TORSDOF 0
ENDMDL
