MODEL 1
REMARK minimizedAffinity 8.66455364
REMARK minimizedRMSD -1
REMARK  0 active torsions:
REMARK  status: ('A' for Active; 'I' for Inactive)
ROOT
ATOM      1  C   UNL d   1       0.279  -0.294  -1.450  0.00  0.00     0.023 A 
ATOM      2  C1  UNL d   1      -1.113  -0.356  -1.407  0.00  0.00     0.003 A 
ATOM      3  C2  UNL d   1      -1.785  -0.166  -0.198  0.00  0.00     0.048 A 
ATOM      4  C3  UNL d   1      -1.057   0.088   0.965  0.00  0.00     0.023 A 
ATOM      5  C4  UNL d   1       0.336   0.153   0.926  0.00  0.00     0.048 A 
ATOM      6  C5  UNL d   1       1.003  -0.039  -0.286  0.00  0.00     0.003 A 
ATOM      7  I   UNL d   1      -2.054   0.373   2.766  0.00  0.00    -0.146 I 
ENDROOT
TORSDOF 0
ENDMDL
