MODEL 1
REMARK minimizedAffinity 4.11006021
REMARK minimizedRMSD -1
REMARK  0 active torsions:
REMARK  status: ('A' for Active; 'I' for Inactive)
ROOT
ATOM      1  C   UNL d   1      -1.504  -1.785   4.766  0.00  0.00     0.023 A 
ATOM      2  C1  UNL d   1      -0.455  -1.318   3.973  0.00  0.00     0.003 A 
ATOM      3  C2  UNL d   1      -0.726  -0.673   2.764  0.00  0.00     0.048 A 
ATOM      4  C3  UNL d   1      -2.047  -0.498   2.355  0.00  0.00     0.023 A 
ATOM      5  C4  UNL d   1      -3.099  -0.963   3.145  0.00  0.00     0.048 A 
ATOM      6  C5  UNL d   1      -2.824  -1.607   4.352  0.00  0.00     0.003 A 
ATOM      7  I   UNL d   1      -2.452   0.462   0.556  0.00  0.00    -0.146 I 
ENDROOT
TORSDOF 0
ENDMDL
