MODEL 1
REMARK minimizedAffinity 10.9290018
REMARK minimizedRMSD -1
REMARK  0 active torsions:
REMARK  status: ('A' for Active; 'I' for Inactive)
ROOT
ATOM      1  C   UNL d   1       4.171   4.276   2.894  0.00  0.00     0.023 A 
ATOM      2  C1  UNL d   1       4.492   2.944   3.158  0.00  0.00     0.003 A 
ATOM      3  C2  UNL d   1       4.018   1.931   2.321  0.00  0.00     0.048 A 
ATOM      4  C3  UNL d   1       3.224   2.258   1.222  0.00  0.00     0.023 A 
ATOM      5  C4  UNL d   1       2.901   3.589   0.954  0.00  0.00     0.048 A 
ATOM      6  C5  UNL d   1       3.377   4.598   1.794  0.00  0.00     0.003 A 
ATOM      7  I   UNL d   1       2.516   0.752  -0.024  0.00  0.00    -0.146 I 
ENDROOT
TORSDOF 0
ENDMDL
