MODEL 1
REMARK minimizedAffinity 2.65309429
REMARK minimizedRMSD -1
REMARK  0 active torsions:
REMARK  status: ('A' for Active; 'I' for Inactive)
ROOT
ATOM      1  C   UNL d   1       1.850   0.791   0.956  0.00  0.00     0.023 A 
ATOM      2  C1  UNL d   1       2.570   1.471  -0.026  0.00  0.00     0.003 A 
ATOM      3  C2  UNL d   1       2.141   1.440  -1.355  0.00  0.00     0.048 A 
ATOM      4  C3  UNL d   1       0.990   0.729  -1.694  0.00  0.00     0.023 A 
ATOM      5  C4  UNL d   1       0.266   0.048  -0.714  0.00  0.00     0.048 A 
ATOM      6  C5  UNL d   1       0.700   0.080   0.613  0.00  0.00     0.003 A 
ATOM      7  I   UNL d   1       0.350   0.682  -3.670  0.00  0.00    -0.146 I 
ENDROOT
TORSDOF 0
ENDMDL
