MODEL 1
REMARK minimizedAffinity 6.95207405
REMARK minimizedRMSD -1
REMARK  0 active torsions:
REMARK  status: ('A' for Active; 'I' for Inactive)
ROOT
ATOM      1  C   UNL d   1       2.556   1.249  -0.790  0.00  0.00     0.023 A 
ATOM      2  C1  UNL d   1       1.880   1.172   0.428  0.00  0.00     0.003 A 
ATOM      3  C2  UNL d   1       2.335   1.904   1.527  0.00  0.00     0.048 A 
ATOM      4  C3  UNL d   1       3.464   2.711   1.401  0.00  0.00     0.023 A 
ATOM      5  C4  UNL d   1       4.143   2.792   0.183  0.00  0.00     0.048 A 
ATOM      6  C5  UNL d   1       3.686   2.057  -0.912  0.00  0.00     0.003 A 
ATOM      7  I   UNL d   1       4.143   3.802   3.035  0.00  0.00    -0.146 I 
ENDROOT
TORSDOF 0
ENDMDL
