MODEL 1
REMARK minimizedAffinity 6.06414032
REMARK minimizedRMSD -1
REMARK  0 active torsions:
REMARK  status: ('A' for Active; 'I' for Inactive)
ROOT
ATOM      1  C   UNL d   1      -2.854   0.390   1.262  0.00  0.00     0.023 A 
ATOM      2  C1  UNL d   1      -2.525  -0.023  -0.028  0.00  0.00     0.003 A 
ATOM      3  C2  UNL d   1      -1.186  -0.106  -0.416  0.00  0.00     0.048 A 
ATOM      4  C3  UNL d   1      -0.181   0.226   0.492  0.00  0.00     0.023 A 
ATOM      5  C4  UNL d   1      -0.506   0.639   1.785  0.00  0.00     0.048 A 
ATOM      6  C5  UNL d   1      -1.846   0.721   2.168  0.00  0.00     0.003 A 
ATOM      7  I   UNL d   1       1.813   0.104  -0.082  0.00  0.00    -0.146 I 
ENDROOT
TORSDOF 0
ENDMDL
