MODEL 1
REMARK minimizedAffinity 2.04013824
REMARK minimizedRMSD -1
REMARK  0 active torsions:
REMARK  status: ('A' for Active; 'I' for Inactive)
ROOT
ATOM      1  C   UNL d   1       0.725   0.515   0.735  0.00  0.00     0.023 A 
ATOM      2  C1  UNL d   1      -0.462   0.392   0.012  0.00  0.00     0.003 A 
ATOM      3  C2  UNL d   1      -0.448   0.508  -1.379  0.00  0.00     0.048 A 
ATOM      4  C3  UNL d   1       0.756   0.746  -2.042  0.00  0.00     0.023 A 
ATOM      5  C4  UNL d   1       1.946   0.868  -1.322  0.00  0.00     0.048 A 
ATOM      6  C5  UNL d   1       1.927   0.752   0.069  0.00  0.00     0.003 A 
ATOM      7  I   UNL d   1       0.779   0.918  -4.113  0.00  0.00    -0.146 I 
ENDROOT
TORSDOF 0
ENDMDL
