MODEL 1
REMARK minimizedAffinity 9.61857319
REMARK minimizedRMSD -1
REMARK  0 active torsions:
REMARK  status: ('A' for Active; 'I' for Inactive)
ROOT
ATOM      1  C   UNL d   1      -2.334  -1.629   4.093  0.00  0.00     0.023 A 
ATOM      2  C1  UNL d   1      -1.093  -1.285   3.556  0.00  0.00     0.003 A 
ATOM      3  C2  UNL d   1      -1.022  -0.461   2.431  0.00  0.00     0.048 A 
ATOM      4  C3  UNL d   1      -2.195   0.016   1.849  0.00  0.00     0.023 A 
ATOM      5  C4  UNL d   1      -3.439  -0.325   2.383  0.00  0.00     0.048 A 
ATOM      6  C5  UNL d   1      -3.505  -1.150   3.507  0.00  0.00     0.003 A 
ATOM      7  I   UNL d   1      -2.092   1.243   0.174  0.00  0.00    -0.146 I 
ENDROOT
TORSDOF 0
ENDMDL
