MODEL 1
REMARK minimizedAffinity 0.878040195
REMARK minimizedRMSD -1
REMARK  0 active torsions:
REMARK  status: ('A' for Active; 'I' for Inactive)
ROOT
ATOM      1  C   UNL d   1      -2.157   0.709   0.882  0.00  0.00     0.023 A 
ATOM      2  C1  UNL d   1      -2.529   0.698   2.227  0.00  0.00     0.003 A 
ATOM      3  C2  UNL d   1      -1.670   0.157   3.186  0.00  0.00     0.048 A 
ATOM      4  C3  UNL d   1      -0.440  -0.369   2.793  0.00  0.00     0.023 A 
ATOM      5  C4  UNL d   1      -0.063  -0.359   1.450  0.00  0.00     0.048 A 
ATOM      6  C5  UNL d   1      -0.925   0.182   0.494  0.00  0.00     0.003 A 
ATOM      7  I   UNL d   1       0.841  -1.174   4.219  0.00  0.00    -0.146 I 
ENDROOT
TORSDOF 0
ENDMDL
