MODEL 1
REMARK minimizedAffinity -0.2798976
REMARK minimizedRMSD -1
REMARK  0 active torsions:
REMARK  status: ('A' for Active; 'I' for Inactive)
ROOT
ATOM      1  C   UNL d   1      -2.406  -0.249  -2.104  0.00  0.00     0.077 C 
ATOM      2  C1  UNL d   1      -2.550   1.191  -2.497  0.00  0.00    -0.074 A 
ATOM      3  C2  UNL d   1      -3.783   1.843  -2.395  0.00  0.00    -0.005 A 
ATOM      4  C3  UNL d   1      -3.901   3.186  -2.756  0.00  0.00     0.006 A 
ATOM      5  C4  UNL d   1      -2.788   3.888  -3.221  0.00  0.00    -0.005 A 
ATOM      6  C5  UNL d   1      -1.547   3.253  -3.328  0.00  0.00    -0.074 A 
ATOM      7  C6  UNL d   1      -0.339   3.996  -3.816  0.00  0.00     0.077 C 
ATOM      8  C7  UNL d   1      -1.436   1.906  -2.957  0.00  0.00    -0.001 A 
ENDROOT
TORSDOF 0
ENDMDL
