MODEL 1
REMARK minimizedAffinity -0.791747272
REMARK minimizedRMSD -1
REMARK  0 active torsions:
REMARK  status: ('A' for Active; 'I' for Inactive)
ROOT
ATOM      1  C   UNL d   1      -0.748   3.787  -3.348  0.00  0.00     0.077 C 
ATOM      2  C1  UNL d   1      -0.420   3.136  -2.037  0.00  0.00    -0.074 A 
ATOM      3  C2  UNL d   1      -0.127   3.905  -0.906  0.00  0.00    -0.005 A 
ATOM      4  C3  UNL d   1       0.166   3.286   0.308  0.00  0.00     0.006 A 
ATOM      5  C4  UNL d   1       0.170   1.894   0.404  0.00  0.00    -0.005 A 
ATOM      6  C5  UNL d   1      -0.121   1.108  -0.716  0.00  0.00    -0.074 A 
ATOM      7  C6  UNL d   1      -0.131  -0.389  -0.628  0.00  0.00     0.077 C 
ATOM      8  C7  UNL d   1      -0.422   1.739  -1.931  0.00  0.00    -0.001 A 
ENDROOT
TORSDOF 0
ENDMDL
