MODEL 1
REMARK minimizedAffinity -5.00843382
REMARK minimizedRMSD -1
REMARK  0 active torsions:
REMARK  status: ('A' for Active; 'I' for Inactive)
ROOT
ATOM      1  C   UNL d   1       1.650   0.200   2.568  0.00  0.00     0.077 C 
ATOM      2  C1  UNL d   1       0.589  -0.020   1.531  0.00  0.00    -0.074 A 
ATOM      3  C2  UNL d   1       0.885   0.079   0.168  0.00  0.00    -0.005 A 
ATOM      4  C3  UNL d   1      -0.111  -0.139  -0.785  0.00  0.00     0.006 A 
ATOM      5  C4  UNL d   1      -1.409  -0.456  -0.385  0.00  0.00    -0.005 A 
ATOM      6  C5  UNL d   1      -1.723  -0.559   0.974  0.00  0.00    -0.074 A 
ATOM      7  C6  UNL d   1      -3.112  -0.909   1.421  0.00  0.00     0.077 C 
ATOM      8  C7  UNL d   1      -0.716  -0.347   1.925  0.00  0.00    -0.001 A 
ENDROOT
TORSDOF 0
ENDMDL
