MODEL 1
REMARK minimizedAffinity 0.188881606
REMARK minimizedRMSD -1
REMARK  0 active torsions:
REMARK  status: ('A' for Active; 'I' for Inactive)
ROOT
ATOM      1  C   UNL d   1      -3.091   2.480  -3.384  0.00  0.00     0.077 C 
ATOM      2  C1  UNL d   1      -1.681   2.808  -2.991  0.00  0.00    -0.074 A 
ATOM      3  C2  UNL d   1      -1.277   2.753  -1.653  0.00  0.00    -0.005 A 
ATOM      4  C3  UNL d   1       0.040   3.051  -1.303  0.00  0.00     0.006 A 
ATOM      5  C4  UNL d   1       0.964   3.407  -2.286  0.00  0.00    -0.005 A 
ATOM      6  C5  UNL d   1       0.579   3.467  -3.629  0.00  0.00    -0.074 A 
ATOM      7  C6  UNL d   1       1.562   3.838  -4.699  0.00  0.00     0.077 C 
ATOM      8  C7  UNL d   1      -0.745   3.159  -3.973  0.00  0.00    -0.001 A 
ENDROOT
TORSDOF 0
ENDMDL
