MODEL 1
REMARK minimizedAffinity -2.06080508
REMARK minimizedRMSD -1
REMARK  0 active torsions:
REMARK  status: ('A' for Active; 'I' for Inactive)
ROOT
ATOM      1  C   UNL d   1       2.248  -0.717   2.664  0.00  0.00     0.077 C 
ATOM      2  C1  UNL d   1       1.670  -0.668   1.281  0.00  0.00    -0.074 A 
ATOM      3  C2  UNL d   1       2.425  -1.065   0.173  0.00  0.00    -0.005 A 
ATOM      4  C3  UNL d   1       1.870  -1.024  -1.107  0.00  0.00     0.006 A 
ATOM      5  C4  UNL d   1       0.558  -0.586  -1.290  0.00  0.00    -0.005 A 
ATOM      6  C5  UNL d   1      -0.212  -0.186  -0.193  0.00  0.00    -0.074 A 
ATOM      7  C6  UNL d   1      -1.627   0.278  -0.372  0.00  0.00     0.077 C 
ATOM      8  C7  UNL d   1       0.350  -0.237   1.090  0.00  0.00    -0.001 A 
ENDROOT
TORSDOF 0
ENDMDL
