MODEL 1
REMARK minimizedAffinity -3.17987967
REMARK minimizedRMSD -1
REMARK  0 active torsions:
REMARK  status: ('A' for Active; 'I' for Inactive)
ROOT
ATOM      1  C   UNL d   1      -0.216   0.370  -0.977  0.00  0.00     0.077 C 
ATOM      2  C1  UNL d   1      -0.122   1.492  -1.968  0.00  0.00    -0.074 A 
ATOM      3  C2  UNL d   1      -0.482   2.796  -1.614  0.00  0.00    -0.005 A 
ATOM      4  C3  UNL d   1      -0.380   3.831  -2.544  0.00  0.00     0.006 A 
ATOM      5  C4  UNL d   1       0.082   3.572  -3.835  0.00  0.00    -0.005 A 
ATOM      6  C5  UNL d   1       0.447   2.275  -4.207  0.00  0.00    -0.074 A 
ATOM      7  C6  UNL d   1       0.955   1.981  -5.588  0.00  0.00     0.077 C 
ATOM      8  C7  UNL d   1       0.348   1.242  -3.265  0.00  0.00    -0.001 A 
ENDROOT
TORSDOF 0
ENDMDL
