MODEL 1
REMARK minimizedAffinity -2.10687113
REMARK minimizedRMSD -1
REMARK  0 active torsions:
REMARK  status: ('A' for Active; 'I' for Inactive)
ROOT
ATOM      1  C   UNL d   1       0.897   3.154  -3.422  0.00  0.00     0.077 C 
ATOM      2  C1  UNL d   1       0.289   1.977  -2.719  0.00  0.00    -0.074 A 
ATOM      3  C2  UNL d   1      -1.099   1.805  -2.673  0.00  0.00    -0.005 A 
ATOM      4  C3  UNL d   1      -1.649   0.700  -2.024  0.00  0.00     0.006 A 
ATOM      5  C4  UNL d   1      -0.820  -0.243  -1.416  0.00  0.00    -0.005 A 
ATOM      6  C5  UNL d   1       0.570  -0.089  -1.453  0.00  0.00    -0.074 A 
ATOM      7  C6  UNL d   1       1.476  -1.098  -0.813  0.00  0.00     0.077 C 
ATOM      8  C7  UNL d   1       1.116   1.021  -2.113  0.00  0.00    -0.001 A 
ENDROOT
TORSDOF 0
ENDMDL
