MODEL 1
REMARK minimizedAffinity -1.29660451
REMARK minimizedRMSD -1
REMARK  0 active torsions:
REMARK  status: ('A' for Active; 'I' for Inactive)
ROOT
ATOM      1  C   UNL d   1      -0.626  -2.282   3.187  0.00  0.00     0.077 C 
ATOM      2  C1  UNL d   1       0.077  -1.325   2.271  0.00  0.00    -0.074 A 
ATOM      3  C2  UNL d   1       1.434  -1.032   2.442  0.00  0.00    -0.005 A 
ATOM      4  C3  UNL d   1       2.077  -0.147   1.577  0.00  0.00     0.006 A 
ATOM      5  C4  UNL d   1       1.371   0.452   0.533  0.00  0.00    -0.005 A 
ATOM      6  C5  UNL d   1       0.014   0.170   0.345  0.00  0.00    -0.074 A 
ATOM      7  C6  UNL d   1      -0.757   0.798  -0.778  0.00  0.00     0.077 C 
ATOM      8  C7  UNL d   1      -0.623  -0.726   1.215  0.00  0.00    -0.001 A 
ENDROOT
TORSDOF 0
ENDMDL
