MODEL 1
REMARK minimizedAffinity 13.6568127
REMARK minimizedRMSD -1
REMARK  0 active torsions:
REMARK  status: ('A' for Active; 'I' for Inactive)
ROOT
ATOM      1  C   UNL d   1       1.907  -0.750   1.814  0.00  0.00     0.020 A 
ATOM      2  C1  UNL d   1       1.125  -0.010   2.700  0.00  0.00     0.020 A 
ATOM      3  C2  UNL d   1       0.883  -0.493   3.988  0.00  0.00     0.034 A 
ATOM      4  C3  UNL d   1       1.424  -1.719   4.393  0.00  0.00     0.017 A 
ATOM      5  C4  UNL d   1       2.208  -2.461   3.502  0.00  0.00     0.017 A 
ATOM      6  C5  UNL d   1       2.447  -1.972   2.214  0.00  0.00     0.034 A 
ATOM      7 Cl   UNL d   1       2.909  -3.982   3.929  0.00  0.00    -0.070 Cl
ATOM      8 Cl1  UNL d   1       1.084  -2.256   6.000  0.00  0.00    -0.070 Cl
ENDROOT
TORSDOF 0
ENDMDL
