MODEL 1
REMARK minimizedAffinity 9.34361839
REMARK minimizedRMSD -1
REMARK  0 active torsions:
REMARK  status: ('A' for Active; 'I' for Inactive)
ROOT
ATOM      1  C   UNL d   1       1.764  -1.757   1.749  0.00  0.00     0.020 A 
ATOM      2  C1  UNL d   1       2.292  -3.022   2.005  0.00  0.00     0.020 A 
ATOM      3  C2  UNL d   1       2.500  -3.438   3.322  0.00  0.00     0.034 A 
ATOM      4  C3  UNL d   1       2.179  -2.589   4.388  0.00  0.00     0.017 A 
ATOM      5  C4  UNL d   1       1.649  -1.320   4.129  0.00  0.00     0.017 A 
ATOM      6  C5  UNL d   1       1.443  -0.908   2.809  0.00  0.00     0.034 A 
ATOM      7 Cl   UNL d   1       1.228  -0.217   5.392  0.00  0.00    -0.070 Cl
ATOM      8 Cl1  UNL d   1       2.462  -3.169   5.990  0.00  0.00    -0.070 Cl
ENDROOT
TORSDOF 0
ENDMDL
