MODEL 1
REMARK minimizedAffinity 6.21415138
REMARK minimizedRMSD -1
REMARK  0 active torsions:
REMARK  status: ('A' for Active; 'I' for Inactive)
ROOT
ATOM      1  C   UNL d   1       1.888  -1.125   1.680  0.00  0.00     0.020 A 
ATOM      2  C1  UNL d   1       1.397  -0.292   2.684  0.00  0.00     0.020 A 
ATOM      3  C2  UNL d   1       1.368  -0.735   4.008  0.00  0.00     0.034 A 
ATOM      4  C3  UNL d   1       1.832  -2.015   4.331  0.00  0.00     0.017 A 
ATOM      5  C4  UNL d   1       2.326  -2.851   3.323  0.00  0.00     0.017 A 
ATOM      6  C5  UNL d   1       2.352  -2.402   1.999  0.00  0.00     0.034 A 
ATOM      7 Cl   UNL d   1       2.916  -4.443   3.645  0.00  0.00    -0.070 Cl
ATOM      8 Cl1  UNL d   1       1.768  -2.497   5.989  0.00  0.00    -0.070 Cl
ENDROOT
TORSDOF 0
ENDMDL
