MODEL 1
REMARK minimizedAffinity 11.423068
REMARK minimizedRMSD -1
REMARK  0 active torsions:
REMARK  status: ('A' for Active; 'I' for Inactive)
ROOT
ATOM      1  C   UNL d   1      -0.965   1.501  -1.187  0.00  0.00     0.020 A 
ATOM      2  C1  UNL d   1      -2.054   0.709  -1.552  0.00  0.00     0.020 A 
ATOM      3  C2  UNL d   1      -2.295  -0.495  -0.886  0.00  0.00     0.034 A 
ATOM      4  C3  UNL d   1      -1.447  -0.910   0.146  0.00  0.00     0.017 A 
ATOM      5  C4  UNL d   1      -0.355  -0.115   0.511  0.00  0.00     0.017 A 
ATOM      6  C5  UNL d   1      -0.118   1.090  -0.158  0.00  0.00     0.034 A 
ATOM      7 Cl   UNL d   1       0.736  -0.561   1.776  0.00  0.00    -0.070 Cl
ATOM      8 Cl1  UNL d   1      -1.805  -2.410   0.926  0.00  0.00    -0.070 Cl
ENDROOT
TORSDOF 0
ENDMDL
