MODEL 1
REMARK minimizedAffinity 4.54524279
REMARK minimizedRMSD -1
REMARK  0 active torsions:
REMARK  status: ('A' for Active; 'I' for Inactive)
ROOT
ATOM      1  C   UNL d   1      -3.639   3.794  -5.999  0.00  0.00     0.020 A 
ATOM      2  C1  UNL d   1      -4.169   4.942  -5.411  0.00  0.00     0.020 A 
ATOM      3  C2  UNL d   1      -4.469   4.953  -4.048  0.00  0.00     0.034 A 
ATOM      4  C3  UNL d   1      -4.240   3.814  -3.267  0.00  0.00     0.017 A 
ATOM      5  C4  UNL d   1      -3.708   2.662  -3.858  0.00  0.00     0.017 A 
ATOM      6  C5  UNL d   1      -3.408   2.657  -5.224  0.00  0.00     0.034 A 
ATOM      7 Cl   UNL d   1      -3.397   1.219  -2.960  0.00  0.00    -0.070 Cl
ATOM      8 Cl1  UNL d   1      -4.635   3.898  -1.587  0.00  0.00    -0.070 Cl
ENDROOT
TORSDOF 0
ENDMDL
