MODEL 1
REMARK minimizedAffinity 6.62838697
REMARK minimizedRMSD -1
REMARK  0 active torsions:
REMARK  status: ('A' for Active; 'I' for Inactive)
ROOT
ATOM      1  C   UNL d   1       2.943  -2.246   5.230  0.00  0.00     0.020 A 
ATOM      2  C1  UNL d   1       2.739  -2.967   4.055  0.00  0.00     0.020 A 
ATOM      3  C2  UNL d   1       2.063  -2.380   2.983  0.00  0.00     0.034 A 
ATOM      4  C3  UNL d   1       1.588  -1.067   3.085  0.00  0.00     0.017 A 
ATOM      5  C4  UNL d   1       1.793  -0.344   4.266  0.00  0.00     0.017 A 
ATOM      6  C5  UNL d   1       2.471  -0.937   5.335  0.00  0.00     0.034 A 
ATOM      7 Cl   UNL d   1       1.237   1.280   4.466  0.00  0.00    -0.070 Cl
ATOM      8 Cl1  UNL d   1       0.761  -0.404   1.721  0.00  0.00    -0.070 Cl
ENDROOT
TORSDOF 0
ENDMDL
