MODEL 1
REMARK minimizedAffinity 3.94651985
REMARK minimizedRMSD -1
REMARK  0 active torsions:
REMARK  status: ('A' for Active; 'I' for Inactive)
ROOT
ATOM      1  C   UNL d   1       2.365  -3.391   2.169  0.00  0.00     0.020 A 
ATOM      2  C1  UNL d   1       2.142  -2.181   1.513  0.00  0.00     0.020 A 
ATOM      3  C2  UNL d   1       1.763  -1.051   2.241  0.00  0.00     0.034 A 
ATOM      4  C3  UNL d   1       1.606  -1.129   3.630  0.00  0.00     0.017 A 
ATOM      5  C4  UNL d   1       1.829  -2.344   4.287  0.00  0.00     0.017 A 
ATOM      6  C5  UNL d   1       2.209  -3.472   3.553  0.00  0.00     0.034 A 
ATOM      7 Cl   UNL d   1       1.655  -2.518   5.998  0.00  0.00    -0.070 Cl
ATOM      8 Cl1  UNL d   1       1.135   0.307   4.467  0.00  0.00    -0.070 Cl
ENDROOT
TORSDOF 0
ENDMDL
