MODEL 1
REMARK minimizedAffinity 11.1171131
REMARK minimizedRMSD -1
REMARK  0 active torsions:
REMARK  status: ('A' for Active; 'I' for Inactive)
ROOT
ATOM      1  C   UNL d   1      -1.656  -4.854   0.064  0.00  0.00     0.020 A 
ATOM      2  C1  UNL d   1      -2.242  -4.865  -1.201  0.00  0.00     0.020 A 
ATOM      3  C2  UNL d   1      -2.718  -3.678  -1.761  0.00  0.00     0.034 A 
ATOM      4  C3  UNL d   1      -2.607  -2.474  -1.056  0.00  0.00     0.017 A 
ATOM      5  C4  UNL d   1      -2.019  -2.463   0.214  0.00  0.00     0.017 A 
ATOM      6  C5  UNL d   1      -1.544  -3.656   0.769  0.00  0.00     0.034 A 
ATOM      7 Cl   UNL d   1      -1.847  -1.017   1.144  0.00  0.00    -0.070 Cl
ATOM      8 Cl1  UNL d   1      -3.216  -1.043  -1.809  0.00  0.00    -0.070 Cl
ENDROOT
TORSDOF 0
ENDMDL
