MODEL 1
REMARK minimizedAffinity 14.4780197
REMARK minimizedRMSD -1
REMARK  0 active torsions:
REMARK  status: ('A' for Active; 'I' for Inactive)
ROOT
ATOM      1  C   UNL d   1      -2.240  -5.212   0.167  0.00  0.00     0.020 A 
ATOM      2  C1  UNL d   1      -2.049  -5.822  -1.072  0.00  0.00     0.020 A 
ATOM      3  C2  UNL d   1      -0.787  -5.810  -1.669  0.00  0.00     0.034 A 
ATOM      4  C3  UNL d   1       0.290  -5.187  -1.027  0.00  0.00     0.017 A 
ATOM      5  C4  UNL d   1       0.097  -4.574   0.217  0.00  0.00     0.017 A 
ATOM      6  C5  UNL d   1      -1.170  -4.589   0.810  0.00  0.00     0.034 A 
ATOM      7 Cl   UNL d   1       1.376  -3.785   1.070  0.00  0.00    -0.070 Cl
ATOM      8 Cl1  UNL d   1       1.823  -5.210  -1.823  0.00  0.00    -0.070 Cl
ENDROOT
TORSDOF 0
ENDMDL
