MODEL 1
REMARK minimizedAffinity 7.79276657
REMARK minimizedRMSD -1
REMARK  0 active torsions:
REMARK  status: ('A' for Active; 'I' for Inactive)
ROOT
ATOM      1  C   UNL d   1       1.523  -2.264   6.000  0.00  0.00     0.020 A 
ATOM      2  C1  UNL d   1       2.303  -3.340   5.579  0.00  0.00     0.020 A 
ATOM      3  C2  UNL d   1       2.704  -3.432   4.244  0.00  0.00     0.034 A 
ATOM      4  C3  UNL d   1       2.325  -2.445   3.326  0.00  0.00     0.017 A 
ATOM      5  C4  UNL d   1       1.542  -1.366   3.750  0.00  0.00     0.017 A 
ATOM      6  C5  UNL d   1       1.143  -1.279   5.087  0.00  0.00     0.034 A 
ATOM      7 Cl   UNL d   1       1.035  -0.110   2.676  0.00  0.00    -0.070 Cl
ATOM      8 Cl1  UNL d   1       2.857  -2.622   1.692  0.00  0.00    -0.070 Cl
ENDROOT
TORSDOF 0
ENDMDL
