MODEL 1
REMARK minimizedAffinity 4.27861834
REMARK minimizedRMSD -1
REMARK  1 active torsions:
REMARK  status: ('A' for Active; 'I' for Inactive)
REMARK    1  A    between atoms: C1_2  and  C2_3 
ROOT
ATOM      1  C2  UNL d   1      -0.835   2.353  -1.521  0.00  0.00    -0.073 A 
ATOM      2  C3  UNL d   1      -0.387   3.586  -2.010  0.00  0.00    -0.002 A 
ATOM      3  C4  UNL d   1       0.278   4.478  -1.168  0.00  0.00     0.004 A 
ATOM      4  C5  UNL d   1       0.507   4.146   0.167  0.00  0.00    -0.004 A 
ATOM      5  C6  UNL d   1       0.077   2.915   0.671  0.00  0.00    -0.075 A 
ATOM      6  C7  UNL d   1       0.314   2.543   2.106  0.00  0.00     0.076 C 
ATOM      7  C8  UNL d   1      -0.592   2.025  -0.180  0.00  0.00     0.001 A 
ENDROOT
BRANCH   1   8
ATOM      8  C1  UNL d   1      -1.548   1.384  -2.428  0.00  0.00     0.053 C 
ATOM      9  C   UNL d   1      -2.323   0.336  -1.645  0.00  0.00     0.018 C 
ENDBRANCH   1   8
TORSDOF 1
ENDMDL
