MODEL 1
REMARK minimizedAffinity 10.5435143
REMARK minimizedRMSD -1
REMARK  1 active torsions:
REMARK  status: ('A' for Active; 'I' for Inactive)
REMARK    1  A    between atoms: C1_2  and  C2_3 
ROOT
ATOM      1  C2  UNL d   1       1.962  -0.699   2.621  0.00  0.00    -0.073 A 
ATOM      2  C3  UNL d   1       1.061  -0.787   3.689  0.00  0.00    -0.002 A 
ATOM      3  C4  UNL d   1      -0.111  -0.030   3.686  0.00  0.00     0.004 A 
ATOM      4  C5  UNL d   1      -0.398   0.816   2.615  0.00  0.00    -0.004 A 
ATOM      5  C6  UNL d   1       0.484   0.909   1.534  0.00  0.00    -0.075 A 
ATOM      6  C7  UNL d   1       0.192   1.817   0.375  0.00  0.00     0.076 C 
ATOM      7  C8  UNL d   1       1.661   0.148   1.545  0.00  0.00     0.001 A 
ENDROOT
BRANCH   1   8
ATOM      8  C1  UNL d   1       3.226  -1.519   2.617  0.00  0.00     0.053 C 
ATOM      9  C   UNL d   1       3.946  -1.464   3.955  0.00  0.00     0.018 C 
ENDBRANCH   1   8
TORSDOF 1
ENDMDL
