MODEL 1
REMARK minimizedAffinity 6.32691765
REMARK minimizedRMSD -1
REMARK  1 active torsions:
REMARK  status: ('A' for Active; 'I' for Inactive)
REMARK    1  A    between atoms: C1_2  and  C2_3 
ROOT
ATOM      1  C2  UNL d   1       0.190   3.084   0.750  0.00  0.00    -0.073 A 
ATOM      2  C3  UNL d   1      -1.039   2.750   1.330  0.00  0.00    -0.002 A 
ATOM      3  C4  UNL d   1      -1.100   2.336   2.661  0.00  0.00     0.004 A 
ATOM      4  C5  UNL d   1       0.063   2.257   3.426  0.00  0.00    -0.004 A 
ATOM      5  C6  UNL d   1       1.299   2.598   2.868  0.00  0.00    -0.075 A 
ATOM      6  C7  UNL d   1       2.561   2.518   3.677  0.00  0.00     0.076 C 
ATOM      7  C8  UNL d   1       1.353   3.011   1.530  0.00  0.00     0.001 A 
ENDROOT
BRANCH   1   8
ATOM      8  C1  UNL d   1       0.261   3.539  -0.685  0.00  0.00     0.053 C 
ATOM      9  C   UNL d   1      -0.479   4.849  -0.906  0.00  0.00     0.018 C 
ENDBRANCH   1   8
TORSDOF 1
ENDMDL
