MODEL 1
REMARK minimizedAffinity 8.35807323
REMARK minimizedRMSD -1
REMARK  1 active torsions:
REMARK  status: ('A' for Active; 'I' for Inactive)
REMARK    1  A    between atoms: C1_2  and  C2_3 
ROOT
ATOM      1  C2  UNL d   1       3.745  -2.181  -0.851  0.00  0.00    -0.073 A 
ATOM      2  C3  UNL d   1       4.756  -3.071  -0.471  0.00  0.00    -0.002 A 
ATOM      3  C4  UNL d   1       5.658  -3.559  -1.418  0.00  0.00     0.004 A 
ATOM      4  C5  UNL d   1       5.563  -3.157  -2.750  0.00  0.00    -0.004 A 
ATOM      5  C6  UNL d   1       4.567  -2.259  -3.147  0.00  0.00    -0.075 A 
ATOM      6  C7  UNL d   1       4.450  -1.818  -4.576  0.00  0.00     0.076 C 
ATOM      7  C8  UNL d   1       3.663  -1.776  -2.191  0.00  0.00     0.001 A 
ENDROOT
BRANCH   1   8
ATOM      8  C1  UNL d   1       2.773  -1.647   0.169  0.00  0.00     0.053 C 
ATOM      9  C   UNL d   1       1.721  -2.677   0.548  0.00  0.00     0.018 C 
ENDBRANCH   1   8
TORSDOF 1
ENDMDL
