MODEL 1
REMARK minimizedAffinity 1.61237252
REMARK minimizedRMSD -1
REMARK  1 active torsions:
REMARK  status: ('A' for Active; 'I' for Inactive)
REMARK    1  A    between atoms: C1_2  and  C2_3 
ROOT
ATOM      1  C2  UNL d   1       3.739  -3.185  -2.243  0.00  0.00    -0.073 A 
ATOM      2  C3  UNL d   1       4.876  -3.913  -2.611  0.00  0.00    -0.002 A 
ATOM      3  C4  UNL d   1       4.848  -5.308  -2.614  0.00  0.00     0.004 A 
ATOM      4  C5  UNL d   1       3.684  -5.989  -2.256  0.00  0.00    -0.004 A 
ATOM      5  C6  UNL d   1       2.535  -5.278  -1.897  0.00  0.00    -0.075 A 
ATOM      6  C7  UNL d   1       1.275  -5.995  -1.508  0.00  0.00     0.076 C 
ATOM      7  C8  UNL d   1       2.571  -3.877  -1.894  0.00  0.00     0.001 A 
ENDROOT
BRANCH   1   8
ATOM      8  C1  UNL d   1       3.762  -1.678  -2.244  0.00  0.00     0.053 C 
ATOM      9  C   UNL d   1       2.898  -1.094  -1.138  0.00  0.00     0.018 C 
ENDBRANCH   1   8
TORSDOF 1
ENDMDL
