MODEL 1
REMARK minimizedAffinity 4.14484501
REMARK minimizedRMSD -1
REMARK  1 active torsions:
REMARK  status: ('A' for Active; 'I' for Inactive)
REMARK    1  A    between atoms: C1_2  and  C2_3 
ROOT
ATOM      1  C2  UNL d   1       3.171  -4.691  -1.466  0.00  0.00    -0.073 A 
ATOM      2  C3  UNL d   1       3.916  -4.367  -0.326  0.00  0.00    -0.002 A 
ATOM      3  C4  UNL d   1       4.611  -3.159  -0.259  0.00  0.00     0.004 A 
ATOM      4  C5  UNL d   1       4.564  -2.261  -1.325  0.00  0.00    -0.004 A 
ATOM      5  C6  UNL d   1       3.815  -2.562  -2.468  0.00  0.00    -0.075 A 
ATOM      6  C7  UNL d   1       3.756  -1.607  -3.624  0.00  0.00     0.076 C 
ATOM      7  C8  UNL d   1       3.122  -3.778  -2.529  0.00  0.00     0.001 A 
ENDROOT
BRANCH   1   8
ATOM      8  C1  UNL d   1       2.414  -5.992  -1.541  0.00  0.00     0.053 C 
ATOM      9  C   UNL d   1       1.406  -6.000  -2.680  0.00  0.00     0.018 C 
ENDBRANCH   1   8
TORSDOF 1
ENDMDL
