MODEL 1
REMARK minimizedAffinity 5.22394323
REMARK minimizedRMSD -1
REMARK  1 active torsions:
REMARK  status: ('A' for Active; 'I' for Inactive)
REMARK    1  A    between atoms: C1_2  and  C2_3 
ROOT
ATOM      1  C2  UNL d   1       2.907  -4.137  -2.176  0.00  0.00    -0.073 A 
ATOM      2  C3  UNL d   1       3.001  -2.752  -2.356  0.00  0.00    -0.002 A 
ATOM      3  C4  UNL d   1       4.064  -2.205  -3.076  0.00  0.00     0.004 A 
ATOM      4  C5  UNL d   1       5.039  -3.036  -3.628  0.00  0.00    -0.004 A 
ATOM      5  C6  UNL d   1       4.957  -4.423  -3.468  0.00  0.00    -0.075 A 
ATOM      6  C7  UNL d   1       5.999  -5.330  -4.054  0.00  0.00     0.076 C 
ATOM      7  C8  UNL d   1       3.888  -4.964  -2.742  0.00  0.00     0.001 A 
ENDROOT
BRANCH   1   8
ATOM      8  C1  UNL d   1       1.758  -4.732  -1.405  0.00  0.00     0.053 C 
ATOM      9  C   UNL d   1       1.236  -3.784  -0.337  0.00  0.00     0.018 C 
ENDBRANCH   1   8
TORSDOF 1
ENDMDL
