MODEL 1
REMARK minimizedAffinity 10.0433626
REMARK minimizedRMSD -1
REMARK  0 active torsions:
REMARK  status: ('A' for Active; 'I' for Inactive)
ROOT
ATOM      1  C   UNL d   1      -1.940  -4.602  -2.675  0.00  0.00     0.078 C 
ATOM      2  C1  UNL d   1      -2.615  -3.932  -3.834  0.00  0.00    -0.077 A 
ATOM      3  C2  UNL d   1      -3.086  -4.675  -4.923  0.00  0.00    -0.001 A 
ATOM      4  C3  UNL d   1      -3.703  -4.037  -6.000  0.00  0.00     0.003 A 
ATOM      5  C4  UNL d   1      -3.853  -2.651  -5.999  0.00  0.00    -0.005 A 
ATOM      6  C5  UNL d   1      -3.384  -1.903  -4.922  0.00  0.00     0.003 A 
ATOM      7  C6  UNL d   1      -2.767  -2.540  -3.844  0.00  0.00    -0.001 A 
ENDROOT
TORSDOF 0
ENDMDL
