MODEL 1
REMARK minimizedAffinity 7.86555243
REMARK minimizedRMSD -1
REMARK  0 active torsions:
REMARK  status: ('A' for Active; 'I' for Inactive)
ROOT
ATOM      1  C   UNL d   1      -5.693  -5.995  -6.000  0.00  0.00     0.078 C 
ATOM      2  C1  UNL d   1      -4.856  -4.842  -5.534  0.00  0.00    -0.077 A 
ATOM      3  C2  UNL d   1      -3.808  -5.032  -4.624  0.00  0.00    -0.001 A 
ATOM      4  C3  UNL d   1      -3.043  -3.947  -4.192  0.00  0.00     0.003 A 
ATOM      5  C4  UNL d   1      -3.319  -2.665  -4.663  0.00  0.00    -0.005 A 
ATOM      6  C5  UNL d   1      -4.360  -2.466  -5.566  0.00  0.00     0.003 A 
ATOM      7  C6  UNL d   1      -5.126  -3.549  -6.000  0.00  0.00    -0.001 A 
ENDROOT
TORSDOF 0
ENDMDL
