MODEL 1
REMARK minimizedAffinity 4.31429338
REMARK minimizedRMSD -1
REMARK  0 active torsions:
REMARK  status: ('A' for Active; 'I' for Inactive)
ROOT
ATOM      1  C   UNL d   1       2.467  -0.480  -4.577  0.00  0.00     0.078 C 
ATOM      2  C1  UNL d   1       2.201  -0.187  -3.130  0.00  0.00    -0.077 A 
ATOM      3  C2  UNL d   1       1.166  -0.830  -2.442  0.00  0.00    -0.001 A 
ATOM      4  C3  UNL d   1       0.924  -0.540  -1.098  0.00  0.00     0.003 A 
ATOM      5  C4  UNL d   1       1.713   0.395  -0.432  0.00  0.00    -0.005 A 
ATOM      6  C5  UNL d   1       2.744   1.042  -1.109  0.00  0.00     0.003 A 
ATOM      7  C6  UNL d   1       2.988   0.754  -2.453  0.00  0.00    -0.001 A 
ENDROOT
TORSDOF 0
ENDMDL
