MODEL 1
REMARK minimizedAffinity 9.22964001
REMARK minimizedRMSD -1
REMARK  0 active torsions:
REMARK  status: ('A' for Active; 'I' for Inactive)
ROOT
ATOM      1  C   UNL d   1      -6.000  -1.487  -6.000  0.00  0.00     0.078 C 
ATOM      2  C1  UNL d   1      -4.911  -2.518  -5.992  0.00  0.00    -0.077 A 
ATOM      3  C2  UNL d   1      -3.562  -2.143  -5.994  0.00  0.00    -0.001 A 
ATOM      4  C3  UNL d   1      -2.559  -3.114  -5.998  0.00  0.00     0.003 A 
ATOM      5  C4  UNL d   1      -2.895  -4.466  -6.000  0.00  0.00    -0.005 A 
ATOM      6  C5  UNL d   1      -4.234  -4.849  -6.000  0.00  0.00     0.003 A 
ATOM      7  C6  UNL d   1      -5.239  -3.880  -5.997  0.00  0.00    -0.001 A 
ENDROOT
TORSDOF 0
ENDMDL
