MODEL 1
REMARK minimizedAffinity 1.15505373
REMARK minimizedRMSD -1
REMARK  0 active torsions:
REMARK  status: ('A' for Active; 'I' for Inactive)
ROOT
ATOM      1  C   UNL d   1      -2.758  -3.150  -5.319  0.00  0.00     0.078 C 
ATOM      2  C1  UNL d   1      -2.002  -3.948  -4.299  0.00  0.00    -0.077 A 
ATOM      3  C2  UNL d   1      -2.676  -4.701  -3.330  0.00  0.00    -0.001 A 
ATOM      4  C3  UNL d   1      -1.960  -5.431  -2.379  0.00  0.00     0.003 A 
ATOM      5  C4  UNL d   1      -0.567  -5.414  -2.388  0.00  0.00    -0.005 A 
ATOM      6  C5  UNL d   1       0.112  -4.665  -3.347  0.00  0.00     0.003 A 
ATOM      7  C6  UNL d   1      -0.602  -3.934  -4.298  0.00  0.00    -0.001 A 
ENDROOT
TORSDOF 0
ENDMDL
