MODEL 1
REMARK minimizedAffinity 4.3298378
REMARK minimizedRMSD -1
REMARK  0 active torsions:
REMARK  status: ('A' for Active; 'I' for Inactive)
ROOT
ATOM      1  C   UNL d   1      -0.136  -4.644  -2.816  0.00  0.00     0.078 C 
ATOM      2  C1  UNL d   1       0.820  -3.642  -2.241  0.00  0.00    -0.077 A 
ATOM      3  C2  UNL d   1       1.805  -4.030  -1.324  0.00  0.00    -0.001 A 
ATOM      4  C3  UNL d   1       2.683  -3.085  -0.790  0.00  0.00     0.003 A 
ATOM      5  C4  UNL d   1       2.583  -1.746  -1.164  0.00  0.00    -0.005 A 
ATOM      6  C5  UNL d   1       1.605  -1.351  -2.074  0.00  0.00     0.003 A 
ATOM      7  C6  UNL d   1       0.726  -2.295  -2.610  0.00  0.00    -0.001 A 
ENDROOT
TORSDOF 0
ENDMDL
