MODEL 1
REMARK minimizedAffinity 11.8842554
REMARK minimizedRMSD -1
REMARK  0 active torsions:
REMARK  status: ('A' for Active; 'I' for Inactive)
ROOT
ATOM      1  C   UNL d   1      -6.000  -2.625   2.250  0.00  0.00     0.078 C 
ATOM      2  C1  UNL d   1      -4.965  -1.677   2.779  0.00  0.00    -0.077 A 
ATOM      3  C2  UNL d   1      -4.604  -0.530   2.062  0.00  0.00    -0.001 A 
ATOM      4  C3  UNL d   1      -3.632   0.338   2.562  0.00  0.00     0.003 A 
ATOM      5  C4  UNL d   1      -3.012   0.067   3.780  0.00  0.00    -0.005 A 
ATOM      6  C5  UNL d   1      -3.364  -1.073   4.500  0.00  0.00     0.003 A 
ATOM      7  C6  UNL d   1      -4.335  -1.942   4.002  0.00  0.00    -0.001 A 
ENDROOT
TORSDOF 0
ENDMDL
