MODEL 1
REMARK minimizedAffinity 6.39403296
REMARK minimizedRMSD -1
REMARK  0 active torsions:
REMARK  status: ('A' for Active; 'I' for Inactive)
ROOT
ATOM      1  C   UNL d   1       2.984   1.278  -0.926  0.00  0.00     0.078 C 
ATOM      2  C1  UNL d   1       2.568  -0.095  -1.363  0.00  0.00    -0.077 A 
ATOM      3  C2  UNL d   1       1.851  -0.288  -2.550  0.00  0.00    -0.001 A 
ATOM      4  C3  UNL d   1       1.462  -1.571  -2.939  0.00  0.00     0.003 A 
ATOM      5  C4  UNL d   1       1.785  -2.671  -2.146  0.00  0.00    -0.005 A 
ATOM      6  C5  UNL d   1       2.497  -2.488  -0.962  0.00  0.00     0.003 A 
ATOM      7  C6  UNL d   1       2.886  -1.206  -0.571  0.00  0.00    -0.001 A 
ENDROOT
TORSDOF 0
ENDMDL
