MODEL 1
REMARK minimizedAffinity 8.11196518
REMARK minimizedRMSD -1
REMARK  0 active torsions:
REMARK  status: ('A' for Active; 'I' for Inactive)
ROOT
ATOM      1  C   UNL d   1       2.645  -2.811  -0.553  0.00  0.00     0.078 C 
ATOM      2  C1  UNL d   1       2.555  -1.499  -1.273  0.00  0.00    -0.077 A 
ATOM      3  C2  UNL d   1       2.013  -1.418  -2.561  0.00  0.00    -0.001 A 
ATOM      4  C3  UNL d   1       1.944  -0.191  -3.223  0.00  0.00     0.003 A 
ATOM      5  C4  UNL d   1       2.417   0.965  -2.604  0.00  0.00    -0.005 A 
ATOM      6  C5  UNL d   1       2.960   0.894  -1.323  0.00  0.00     0.003 A 
ATOM      7  C6  UNL d   1       3.029  -0.332  -0.660  0.00  0.00    -0.001 A 
ENDROOT
TORSDOF 0
ENDMDL
