MODEL 1
REMARK minimizedAffinity 13.4425707
REMARK minimizedRMSD -1
REMARK  0 active torsions:
REMARK  status: ('A' for Active; 'I' for Inactive)
ROOT
ATOM      1  C   UNL d   1       1.674   1.926   1.959  0.00  0.00     0.078 C 
ATOM      2  C1  UNL d   1       1.193   1.483   3.308  0.00  0.00    -0.077 A 
ATOM      3  C2  UNL d   1       0.101   0.616   3.436  0.00  0.00    -0.001 A 
ATOM      4  C3  UNL d   1      -0.342   0.220   4.699  0.00  0.00     0.003 A 
ATOM      5  C4  UNL d   1       0.300   0.687   5.844  0.00  0.00    -0.005 A 
ATOM      6  C5  UNL d   1       1.387   1.552   5.727  0.00  0.00     0.003 A 
ATOM      7  C6  UNL d   1       1.831   1.949   4.465  0.00  0.00    -0.001 A 
ENDROOT
TORSDOF 0
ENDMDL
