MODEL 1
REMARK minimizedAffinity 9.43082619
REMARK minimizedRMSD -1
REMARK  0 active torsions:
REMARK  status: ('A' for Active; 'I' for Inactive)
ROOT
ATOM      1  C   UNL d   1       1.573   1.305   6.000  0.00  0.00     0.078 C 
ATOM      2  C1  UNL d   1       0.726   1.106   4.778  0.00  0.00    -0.077 A 
ATOM      3  C2  UNL d   1       0.054   2.181   4.184  0.00  0.00    -0.001 A 
ATOM      4  C3  UNL d   1      -0.739   1.980   3.053  0.00  0.00     0.003 A 
ATOM      5  C4  UNL d   1      -0.868   0.704   2.507  0.00  0.00    -0.005 A 
ATOM      6  C5  UNL d   1      -0.205  -0.372   3.093  0.00  0.00     0.003 A 
ATOM      7  C6  UNL d   1       0.589  -0.173   4.224  0.00  0.00    -0.001 A 
ENDROOT
TORSDOF 0
ENDMDL
