MODEL 1
REMARK minimizedAffinity -4.39105415
REMARK minimizedRMSD -1
REMARK  0 active torsions:
REMARK  status: ('A' for Active; 'I' for Inactive)
ROOT
ATOM      1  C   UNL d   1       2.982  -4.874  -0.722  0.00  0.00     0.078 C 
ATOM      2  C1  UNL d   1       2.655  -3.599  -1.438  0.00  0.00    -0.077 A 
ATOM      3  C2  UNL d   1       2.723  -3.517  -2.835  0.00  0.00    -0.001 A 
ATOM      4  C3  UNL d   1       2.424  -2.320  -3.487  0.00  0.00     0.003 A 
ATOM      5  C4  UNL d   1       2.057  -1.195  -2.752  0.00  0.00    -0.005 A 
ATOM      6  C5  UNL d   1       1.988  -1.266  -1.362  0.00  0.00     0.003 A 
ATOM      7  C6  UNL d   1       2.286  -2.462  -0.708  0.00  0.00    -0.001 A 
ENDROOT
TORSDOF 0
ENDMDL
