MODEL 1
REMARK minimizedAffinity 17.1717548
REMARK minimizedRMSD -1
REMARK  0 active torsions:
REMARK  status: ('A' for Active; 'I' for Inactive)
ROOT
ATOM      1  C   UNL d   1      -3.780  -2.431   4.889  0.00  0.00     0.078 C 
ATOM      2  C1  UNL d   1      -3.748  -0.932   4.861  0.00  0.00    -0.077 A 
ATOM      3  C2  UNL d   1      -3.396  -0.197   6.000  0.00  0.00    -0.001 A 
ATOM      4  C3  UNL d   1      -3.380   1.198   5.963  0.00  0.00     0.003 A 
ATOM      5  C4  UNL d   1      -3.716   1.871   4.789  0.00  0.00    -0.005 A 
ATOM      6  C5  UNL d   1      -4.071   1.148   3.652  0.00  0.00     0.003 A 
ATOM      7  C6  UNL d   1      -4.088  -0.247   3.688  0.00  0.00    -0.001 A 
ENDROOT
TORSDOF 0
ENDMDL
