MODEL 1
REMARK minimizedAffinity 3.81041622
REMARK minimizedRMSD -1
REMARK  0 active torsions:
REMARK  status: ('A' for Active; 'I' for Inactive)
ROOT
ATOM      1  C   UNL d   1      -2.796  -5.979  -2.712  0.00  0.00     0.078 C 
ATOM      2  C1  UNL d   1      -3.199  -5.098  -3.857  0.00  0.00    -0.077 A 
ATOM      3  C2  UNL d   1      -4.130  -5.532  -4.809  0.00  0.00    -0.001 A 
ATOM      4  C3  UNL d   1      -4.488  -4.706  -5.874  0.00  0.00     0.003 A 
ATOM      5  C4  UNL d   1      -3.920  -3.440  -6.000  0.00  0.00    -0.005 A 
ATOM      6  C5  UNL d   1      -2.991  -3.000  -5.059  0.00  0.00     0.003 A 
ATOM      7  C6  UNL d   1      -2.631  -3.825  -3.993  0.00  0.00    -0.001 A 
ENDROOT
TORSDOF 0
ENDMDL
