MODEL 1
REMARK minimizedAffinity 15.7539301
REMARK minimizedRMSD -1
REMARK  0 active torsions:
REMARK  status: ('A' for Active; 'I' for Inactive)
ROOT
ATOM      1  C   UNL d   1      -3.438   1.299   3.762  0.00  0.00     0.078 C 
ATOM      2  C1  UNL d   1      -1.955   1.168   3.584  0.00  0.00    -0.077 A 
ATOM      3  C2  UNL d   1      -1.091   1.198   4.685  0.00  0.00    -0.001 A 
ATOM      4  C3  UNL d   1       0.288   1.084   4.504  0.00  0.00     0.003 A 
ATOM      5  C4  UNL d   1       0.816   0.941   3.222  0.00  0.00    -0.005 A 
ATOM      6  C5  UNL d   1      -0.036   0.913   2.120  0.00  0.00     0.003 A 
ATOM      7  C6  UNL d   1      -1.415   1.026   2.299  0.00  0.00    -0.001 A 
ENDROOT
TORSDOF 0
ENDMDL
