MODEL 1
REMARK minimizedAffinity 6.91124535
REMARK minimizedRMSD -1
REMARK  0 active torsions:
REMARK  status: ('A' for Active; 'I' for Inactive)
ROOT
ATOM      1  C   UNL d   1      -2.811  -5.936  -0.765  0.00  0.00     0.078 C 
ATOM      2  C1  UNL d   1      -2.523  -4.936  -1.845  0.00  0.00    -0.077 A 
ATOM      3  C2  UNL d   1      -1.269  -4.321  -1.944  0.00  0.00    -0.001 A 
ATOM      4  C3  UNL d   1      -1.018  -3.385  -2.948  0.00  0.00     0.003 A 
ATOM      5  C4  UNL d   1      -2.017  -3.054  -3.861  0.00  0.00    -0.005 A 
ATOM      6  C5  UNL d   1      -3.269  -3.659  -3.770  0.00  0.00     0.003 A 
ATOM      7  C6  UNL d   1      -3.522  -4.595  -2.766  0.00  0.00    -0.001 A 
ENDROOT
TORSDOF 0
ENDMDL
