MODEL 1
REMARK minimizedAffinity 4.2981019
REMARK minimizedRMSD -1
REMARK  0 active torsions:
REMARK  status: ('A' for Active; 'I' for Inactive)
ROOT
ATOM      1  C   UNL d   1       1.273  -3.663  -3.801  0.00  0.00     0.078 C 
ATOM      2  C1  UNL d   1       1.705  -2.995  -2.530  0.00  0.00    -0.077 A 
ATOM      3  C2  UNL d   1       1.932  -1.614  -2.481  0.00  0.00    -0.001 A 
ATOM      4  C3  UNL d   1       2.344  -1.008  -1.293  0.00  0.00     0.003 A 
ATOM      5  C4  UNL d   1       2.533  -1.775  -0.145  0.00  0.00    -0.005 A 
ATOM      6  C5  UNL d   1       2.312  -3.150  -0.184  0.00  0.00     0.003 A 
ATOM      7  C6  UNL d   1       1.900  -3.758  -1.372  0.00  0.00    -0.001 A 
ENDROOT
TORSDOF 0
ENDMDL
