MODEL 1
REMARK minimizedAffinity -2.86503768
REMARK minimizedRMSD -1
REMARK  0 active torsions:
REMARK  status: ('A' for Active; 'I' for Inactive)
ROOT
ATOM      1  C   UNL d   1      -0.366  -2.345   2.997  0.00  0.00     0.078 C 
ATOM      2  C1  UNL d   1       0.041  -1.116   2.240  0.00  0.00    -0.077 A 
ATOM      3  C2  UNL d   1      -0.812  -0.537   1.292  0.00  0.00    -0.001 A 
ATOM      4  C3  UNL d   1      -0.417   0.601   0.588  0.00  0.00     0.003 A 
ATOM      5  C4  UNL d   1       0.833   1.171   0.823  0.00  0.00    -0.005 A 
ATOM      6  C5  UNL d   1       1.690   0.601   1.763  0.00  0.00     0.003 A 
ATOM      7  C6  UNL d   1       1.296  -0.538   2.468  0.00  0.00    -0.001 A 
ENDROOT
TORSDOF 0
ENDMDL
