MODEL 1
REMARK minimizedAffinity -0.544881642
REMARK minimizedRMSD -1
REMARK  0 active torsions:
REMARK  status: ('A' for Active; 'I' for Inactive)
ROOT
ATOM      1  C   UNL d   1       1.601  -0.942  -1.118  0.00  0.00     0.078 C 
ATOM      2  C1  UNL d   1       0.634  -0.416  -0.099  0.00  0.00    -0.077 A 
ATOM      3  C2  UNL d   1       0.490  -1.038   1.147  0.00  0.00    -0.001 A 
ATOM      4  C3  UNL d   1      -0.420  -0.543   2.082  0.00  0.00     0.003 A 
ATOM      5  C4  UNL d   1      -1.195   0.575   1.781  0.00  0.00    -0.005 A 
ATOM      6  C5  UNL d   1      -1.060   1.199   0.542  0.00  0.00     0.003 A 
ATOM      7  C6  UNL d   1      -0.150   0.706  -0.394  0.00  0.00    -0.001 A 
ENDROOT
TORSDOF 0
ENDMDL
