MODEL 1
REMARK minimizedAffinity -3.19704437
REMARK minimizedRMSD -1
REMARK  0 active torsions:
REMARK  status: ('A' for Active; 'I' for Inactive)
ROOT
ATOM      1  C   UNL d   1      -0.500   3.067  -1.641  0.00  0.00     0.078 C 
ATOM      2  C1  UNL d   1      -0.420   1.787  -0.865  0.00  0.00    -0.077 A 
ATOM      3  C2  UNL d   1      -0.411   1.792   0.536  0.00  0.00    -0.001 A 
ATOM      4  C3  UNL d   1      -0.326   0.593   1.245  0.00  0.00     0.003 A 
ATOM      5  C4  UNL d   1      -0.248  -0.620   0.564  0.00  0.00    -0.005 A 
ATOM      6  C5  UNL d   1      -0.254  -0.635  -0.830  0.00  0.00     0.003 A 
ATOM      7  C6  UNL d   1      -0.339   0.563  -1.541  0.00  0.00    -0.001 A 
ENDROOT
TORSDOF 0
ENDMDL
