MODEL 1
REMARK minimizedAffinity -5.09624386
REMARK minimizedRMSD -1
REMARK  0 active torsions:
REMARK  status: ('A' for Active; 'I' for Inactive)
ROOT
ATOM      1  C   UNL d   1       1.430  -0.729   2.852  0.00  0.00     0.078 C 
ATOM      2  C1  UNL d   1       0.836  -0.512   1.492  0.00  0.00    -0.077 A 
ATOM      3  C2  UNL d   1      -0.495  -0.103   1.343  0.00  0.00    -0.001 A 
ATOM      4  C3  UNL d   1      -1.037   0.086   0.071  0.00  0.00     0.003 A 
ATOM      5  C4  UNL d   1      -0.256  -0.133  -1.062  0.00  0.00    -0.005 A 
ATOM      6  C5  UNL d   1       1.069  -0.542  -0.924  0.00  0.00     0.003 A 
ATOM      7  C6  UNL d   1       1.613  -0.732   0.348  0.00  0.00    -0.001 A 
ENDROOT
TORSDOF 0
ENDMDL
