MODEL 1
REMARK minimizedAffinity -1.26706147
REMARK minimizedRMSD -1
REMARK  0 active torsions:
REMARK  status: ('A' for Active; 'I' for Inactive)
ROOT
ATOM      1  C   UNL d   1      -0.583   1.906  -2.315  0.00  0.00     0.078 C 
ATOM      2  C1  UNL d   1       0.002   0.951  -1.318  0.00  0.00    -0.077 A 
ATOM      3  C2  UNL d   1       0.535  -0.279  -1.725  0.00  0.00    -0.001 A 
ATOM      4  C3  UNL d   1       1.068  -1.162  -0.785  0.00  0.00     0.003 A 
ATOM      5  C4  UNL d   1       1.073  -0.826   0.568  0.00  0.00    -0.005 A 
ATOM      6  C5  UNL d   1       0.543   0.395   0.982  0.00  0.00     0.003 A 
ATOM      7  C6  UNL d   1       0.009   1.279   0.043  0.00  0.00    -0.001 A 
ENDROOT
TORSDOF 0
ENDMDL
