MODEL 1
REMARK minimizedAffinity 3.02428532
REMARK minimizedRMSD -1
REMARK  0 active torsions:
REMARK  status: ('A' for Active; 'I' for Inactive)
ROOT
ATOM      1  C   UNL d   1      -1.357  -0.433  -0.272  0.00  0.00     0.078 C 
ATOM      2  C1  UNL d   1       0.139  -0.519  -0.236  0.00  0.00    -0.077 A 
ATOM      3  C2  UNL d   1       0.890  -0.541  -1.418  0.00  0.00    -0.001 A 
ATOM      4  C3  UNL d   1       2.282  -0.631  -1.369  0.00  0.00     0.003 A 
ATOM      5  C4  UNL d   1       2.935  -0.702  -0.141  0.00  0.00    -0.005 A 
ATOM      6  C5  UNL d   1       2.197  -0.683   1.041  0.00  0.00     0.003 A 
ATOM      7  C6  UNL d   1       0.805  -0.593   0.994  0.00  0.00    -0.001 A 
ENDROOT
TORSDOF 0
ENDMDL
