MODEL 1
REMARK minimizedAffinity -0.809709013
REMARK minimizedRMSD -1
REMARK  0 active torsions:
REMARK  status: ('A' for Active; 'I' for Inactive)
ROOT
ATOM      1  C4' PXY d   1      -3.417   0.417  -1.376  0.00  0.00     0.077 C 
ATOM      2  C1' PXY d   1       1.879   0.941   0.883  0.00  0.00     0.077 C 
ATOM      3  C1  PXY d   1       0.491   0.790   0.291  0.00  0.00    -0.082 A 
ATOM      4  C2  PXY d   1      -0.035   1.786  -0.405  0.00  0.00     0.003 A 
ATOM      5  C3  PXY d   1      -1.301   1.679  -0.920  0.00  0.00     0.003 A 
ATOM      6  C4  PXY d   1      -2.015   0.521  -0.768  0.00  0.00    -0.082 A 
ATOM      7  C5  PXY d   1      -1.482  -0.503  -0.069  0.00  0.00     0.003 A 
ATOM      8  C6  PXY d   1      -0.211  -0.359   0.482  0.00  0.00     0.003 A 
ENDROOT
TORSDOF 0
ENDMDL
