MODEL 1
REMARK minimizedAffinity -2.50870395
REMARK minimizedRMSD -1
REMARK  0 active torsions:
REMARK  status: ('A' for Active; 'I' for Inactive)
ROOT
ATOM      1  C4' PXY d   1      -2.256  -0.351  -2.191  0.00  0.00     0.077 C 
ATOM      2  C1' PXY d   1       2.188   1.604   0.946  0.00  0.00     0.077 C 
ATOM      3  C1  PXY d   1       1.017   1.087   0.134  0.00  0.00    -0.082 A 
ATOM      4  C2  PXY d   1       1.178   0.825  -1.153  0.00  0.00     0.003 A 
ATOM      5  C3  PXY d   1       0.122   0.387  -1.909  0.00  0.00     0.003 A 
ATOM      6  C4  PXY d   1      -1.099   0.164  -1.330  0.00  0.00    -0.082 A 
ATOM      7  C5  PXY d   1      -1.269   0.419  -0.016  0.00  0.00     0.003 A 
ATOM      8  C6  PXY d   1      -0.194   0.902   0.726  0.00  0.00     0.003 A 
ENDROOT
TORSDOF 0
ENDMDL
