MODEL 1
REMARK minimizedAffinity -1.25256288
REMARK minimizedRMSD -1
REMARK  0 active torsions:
REMARK  status: ('A' for Active; 'I' for Inactive)
ROOT
ATOM      1  C4' PXY d   1      -2.616  -1.136  -2.696  0.00  0.00     0.077 C 
ATOM      2  C1' PXY d   1      -3.491   4.572  -2.434  0.00  0.00     0.077 C 
ATOM      3  C1  PXY d   1      -3.258   3.075  -2.490  0.00  0.00    -0.082 A 
ATOM      4  C2  PXY d   1      -2.960   2.502  -3.645  0.00  0.00     0.003 A 
ATOM      5  C3  PXY d   1      -2.778   1.145  -3.719  0.00  0.00     0.003 A 
ATOM      6  C4  PXY d   1      -2.849   0.373  -2.590  0.00  0.00    -0.082 A 
ATOM      7  C5  PXY d   1      -3.143   0.952  -1.406  0.00  0.00     0.003 A 
ATOM      8  C6  PXY d   1      -3.365   2.325  -1.359  0.00  0.00     0.003 A 
ENDROOT
TORSDOF 0
ENDMDL
