MODEL 1
REMARK minimizedAffinity 7.59891081
REMARK minimizedRMSD -1
REMARK  0 active torsions:
REMARK  status: ('A' for Active; 'I' for Inactive)
ROOT
ATOM      1  C4' PXY d   1       1.770  -1.643   3.895  0.00  0.00     0.077 C 
ATOM      2  C1' PXY d   1       2.209   2.711   0.119  0.00  0.00     0.077 C 
ATOM      3  C1  PXY d   1       2.081   1.567   1.106  0.00  0.00    -0.082 A 
ATOM      4  C2  PXY d   1       2.875   1.524   2.164  0.00  0.00     0.003 A 
ATOM      5  C3  PXY d   1       2.795   0.480   3.049  0.00  0.00     0.003 A 
ATOM      6  C4  PXY d   1       1.857  -0.502   2.878  0.00  0.00    -0.082 A 
ATOM      7  C5  PXY d   1       1.037  -0.460   1.807  0.00  0.00     0.003 A 
ATOM      8  C6  PXY d   1       1.162   0.586   0.898  0.00  0.00     0.003 A 
ENDROOT
TORSDOF 0
ENDMDL
