MODEL 1
REMARK minimizedAffinity -5.87522268
REMARK minimizedRMSD -1
REMARK  0 active torsions:
REMARK  status: ('A' for Active; 'I' for Inactive)
ROOT
ATOM      1  C4' PXY d   1      -1.616   0.338  -0.226  0.00  0.00     0.077 C 
ATOM      2  C1' PXY d   1       3.611  -1.263   1.653  0.00  0.00     0.077 C 
ATOM      3  C1  PXY d   1       2.237  -0.856   1.157  0.00  0.00    -0.082 A 
ATOM      4  C2  PXY d   1       2.022   0.395   0.780  0.00  0.00     0.003 A 
ATOM      5  C3  PXY d   1       0.778   0.788   0.360  0.00  0.00     0.003 A 
ATOM      6  C4  PXY d   1      -0.243  -0.120   0.272  0.00  0.00    -0.082 A 
ATOM      7  C5  PXY d   1      -0.029  -1.400   0.644  0.00  0.00     0.003 A 
ATOM      8  C6  PXY d   1       1.231  -1.770   1.107  0.00  0.00     0.003 A 
ENDROOT
TORSDOF 0
ENDMDL
