MODEL 1
REMARK minimizedAffinity -4.94992304
REMARK minimizedRMSD -1
REMARK  0 active torsions:
REMARK  status: ('A' for Active; 'I' for Inactive)
ROOT
ATOM      1  C4' PXY d   1      -1.011  -0.049  -0.099  0.00  0.00     0.077 C 
ATOM      2  C1' PXY d   1       4.112  -1.928   1.809  0.00  0.00     0.077 C 
ATOM      3  C1  PXY d   1       2.763  -1.447   1.312  0.00  0.00    -0.082 A 
ATOM      4  C2  PXY d   1       2.705  -0.482   0.407  0.00  0.00     0.003 A 
ATOM      5  C3  PXY d   1       1.493  -0.013  -0.030  0.00  0.00     0.003 A 
ATOM      6  C4  PXY d   1       0.329  -0.573   0.424  0.00  0.00    -0.082 A 
ATOM      7  C5  PXY d   1       0.380  -1.564   1.339  0.00  0.00     0.003 A 
ATOM      8  C6  PXY d   1       1.620  -1.998   1.800  0.00  0.00     0.003 A 
ENDROOT
TORSDOF 0
ENDMDL
