MODEL 1
REMARK minimizedAffinity -3.26064491
REMARK minimizedRMSD -1
REMARK  0 active torsions:
REMARK  status: ('A' for Active; 'I' for Inactive)
ROOT
ATOM      1  C4' PXY d   1      -2.292  -0.530  -2.363  0.00  0.00     0.077 C 
ATOM      2  C1' PXY d   1       1.942   1.036   1.247  0.00  0.00     0.077 C 
ATOM      3  C1  PXY d   1       0.827   0.618   0.310  0.00  0.00    -0.082 A 
ATOM      4  C2  PXY d   1       1.012   0.687  -0.998  0.00  0.00     0.003 A 
ATOM      5  C3  PXY d   1       0.002   0.343  -1.861  0.00  0.00     0.003 A 
ATOM      6  C4  PXY d   1      -1.190  -0.127  -1.379  0.00  0.00    -0.082 A 
ATOM      7  C5  PXY d   1      -1.383  -0.210  -0.046  0.00  0.00     0.003 A 
ATOM      8  C6  PXY d   1      -0.360   0.183   0.813  0.00  0.00     0.003 A 
ENDROOT
TORSDOF 0
ENDMDL
