MODEL 1
REMARK minimizedAffinity -5.45675945
REMARK minimizedRMSD -1
REMARK  0 active torsions:
REMARK  status: ('A' for Active; 'I' for Inactive)
ROOT
ATOM      1  C4' PXY d   1      -1.318  -1.046  -0.211  0.00  0.00     0.077 C 
ATOM      2  C1' PXY d   1       3.811  -1.999   2.280  0.00  0.00     0.077 C 
ATOM      3  C1  PXY d   1       2.461  -1.760   1.631  0.00  0.00    -0.082 A 
ATOM      4  C2  PXY d   1       2.375  -0.972   0.572  0.00  0.00     0.003 A 
ATOM      5  C3  PXY d   1       1.158  -0.720  -0.007  0.00  0.00     0.003 A 
ATOM      6  C4  PXY d   1       0.025  -1.323   0.470  0.00  0.00    -0.082 A 
ATOM      7  C5  PXY d   1       0.107  -2.137   1.544  0.00  0.00     0.003 A 
ATOM      8  C6  PXY d   1       1.345  -2.347   2.143  0.00  0.00     0.003 A 
ENDROOT
TORSDOF 0
ENDMDL
