MODEL 1
REMARK minimizedAffinity -1.78563523
REMARK minimizedRMSD -1
REMARK  0 active torsions:
REMARK  status: ('A' for Active; 'I' for Inactive)
ROOT
ATOM      1  C4' PXY d   1       1.181   2.404  -0.093  0.00  0.00     0.077 C 
ATOM      2  C1' PXY d   1      -1.441  -2.598   1.137  0.00  0.00     0.077 C 
ATOM      3  C1  PXY d   1      -0.744  -1.289   0.823  0.00  0.00    -0.082 A 
ATOM      4  C2  PXY d   1      -1.440  -0.281   0.324  0.00  0.00     0.003 A 
ATOM      5  C3  PXY d   1      -0.820   0.899   0.004  0.00  0.00     0.003 A 
ATOM      6  C4  PXY d   1       0.517   1.067   0.248  0.00  0.00    -0.082 A 
ATOM      7  C5  PXY d   1       1.232   0.047   0.767  0.00  0.00     0.003 A 
ATOM      8  C6  PXY d   1       0.592  -1.157   1.046  0.00  0.00     0.003 A 
ENDROOT
TORSDOF 0
ENDMDL
