MODEL 1
REMARK minimizedAffinity -4.25973606
REMARK minimizedRMSD -1
REMARK  0 active torsions:
REMARK  status: ('A' for Active; 'I' for Inactive)
ROOT
ATOM      1  C4' PXY d   1       2.582   0.319   1.437  0.00  0.00     0.077 C 
ATOM      2  C1' PXY d   1      -2.612   0.131  -1.092  0.00  0.00     0.077 C 
ATOM      3  C1  PXY d   1      -1.247   0.191  -0.435  0.00  0.00    -0.082 A 
ATOM      4  C2  PXY d   1      -0.690  -0.920   0.017  0.00  0.00     0.003 A 
ATOM      5  C3  PXY d   1       0.530  -0.879   0.643  0.00  0.00     0.003 A 
ATOM      6  C4  PXY d   1       1.210   0.304   0.759  0.00  0.00    -0.082 A 
ATOM      7  C5  PXY d   1       0.652   1.440   0.290  0.00  0.00     0.003 A 
ATOM      8  C6  PXY d   1      -0.605   1.384  -0.305  0.00  0.00     0.003 A 
ENDROOT
TORSDOF 0
ENDMDL
