MODEL 1
REMARK minimizedAffinity -4.40346718
REMARK minimizedRMSD -1
REMARK  0 active torsions:
REMARK  status: ('A' for Active; 'I' for Inactive)
ROOT
ATOM      1  C4' PXY d   1      -0.984  -0.066  -0.854  0.00  0.00     0.077 C 
ATOM      2  C1' PXY d   1       4.028  -1.115   1.828  0.00  0.00     0.077 C 
ATOM      3  C1  PXY d   1       2.714  -0.827   1.129  0.00  0.00    -0.082 A 
ATOM      4  C2  PXY d   1       1.860  -1.814   0.909  0.00  0.00     0.003 A 
ATOM      5  C3  PXY d   1       0.682  -1.578   0.249  0.00  0.00     0.003 A 
ATOM      6  C4  PXY d   1       0.350  -0.309  -0.143  0.00  0.00    -0.082 A 
ATOM      7  C5  PXY d   1       1.211   0.705   0.087  0.00  0.00     0.003 A 
ATOM      8  C6  PXY d   1       2.420   0.437   0.721  0.00  0.00     0.003 A 
ENDROOT
TORSDOF 0
ENDMDL
