MODEL 1
REMARK minimizedAffinity -3.11512947
REMARK minimizedRMSD -1
REMARK  0 active torsions:
REMARK  status: ('A' for Active; 'I' for Inactive)
ROOT
ATOM      1  C4' PXY d   1      -2.548   0.185  -1.788  0.00  0.00     0.077 C 
ATOM      2  C1' PXY d   1       2.306   0.760   1.297  0.00  0.00     0.077 C 
ATOM      3  C1  PXY d   1       1.032   0.597   0.492  0.00  0.00    -0.082 A 
ATOM      4  C2  PXY d   1       0.794   1.407  -0.527  0.00  0.00     0.003 A 
ATOM      5  C3  PXY d   1      -0.368   1.294  -1.246  0.00  0.00     0.003 A 
ATOM      6  C4  PXY d   1      -1.271   0.307  -0.953  0.00  0.00    -0.082 A 
ATOM      7  C5  PXY d   1      -1.030  -0.530   0.078  0.00  0.00     0.003 A 
ATOM      8  C6  PXY d   1       0.136  -0.372   0.822  0.00  0.00     0.003 A 
ENDROOT
TORSDOF 0
ENDMDL
