MODEL 1
REMARK minimizedAffinity -4.84691095
REMARK minimizedRMSD -1
REMARK  0 active torsions:
REMARK  status: ('A' for Active; 'I' for Inactive)
ROOT
ATOM      1  C4' PXY d   1       0.750   2.925  -0.648  0.00  0.00     0.077 C 
ATOM      2  C1' PXY d   1       1.500  -2.250   1.816  0.00  0.00     0.077 C 
ATOM      3  C1  PXY d   1       1.292  -0.897   1.164  0.00  0.00    -0.082 A 
ATOM      4  C2  PXY d   1       2.334  -0.115   0.934  0.00  0.00     0.003 A 
ATOM      5  C3  PXY d   1       2.161   1.125   0.375  0.00  0.00     0.003 A 
ATOM      6  C4  PXY d   1       0.914   1.547  -0.001  0.00  0.00    -0.082 A 
ATOM      7  C5  PXY d   1      -0.153   0.751   0.221  0.00  0.00     0.003 A 
ATOM      8  C6  PXY d   1       0.039  -0.487   0.827  0.00  0.00     0.003 A 
ENDROOT
TORSDOF 0
ENDMDL
