MODEL 1
REMARK minimizedAffinity -2.50934958
REMARK minimizedRMSD -1
REMARK  0 active torsions:
REMARK  status: ('A' for Active; 'I' for Inactive)
ROOT
ATOM      1  C4' PXY d   1       0.438   0.940   0.406  0.00  0.00     0.077 C 
ATOM      2  C1' PXY d   1      -4.223  -0.694  -2.597  0.00  0.00     0.077 C 
ATOM      3  C1  PXY d   1      -3.005  -0.272  -1.799  0.00  0.00    -0.082 A 
ATOM      4  C2  PXY d   1      -2.345   0.821  -2.144  0.00  0.00     0.003 A 
ATOM      5  C3  PXY d   1      -1.222   1.200  -1.453  0.00  0.00     0.003 A 
ATOM      6  C4  PXY d   1      -0.803   0.481  -0.365  0.00  0.00    -0.082 A 
ATOM      7  C5  PXY d   1      -1.478  -0.629  -0.001  0.00  0.00     0.003 A 
ATOM      8  C6  PXY d   1      -2.591  -1.020  -0.740  0.00  0.00     0.003 A 
ENDROOT
TORSDOF 0
ENDMDL
