MODEL 1
REMARK minimizedAffinity 13.4117975
REMARK minimizedRMSD -1
REMARK  2 active torsions:
REMARK  status: ('A' for Active; 'I' for Inactive)
REMARK    1  A    between atoms: C2'_3  and  C1'_4 
REMARK    2  A    between atoms: C1'_4  and  C1_5 
ROOT
ATOM      1  C1  I4B d   1       2.998   2.528  -2.848  0.00  0.00    -0.075 A 
ATOM      2  C2  I4B d   1       3.708   3.571  -2.310  0.00  0.00     0.003 A 
ATOM      3  C3  I4B d   1       4.611   4.309  -3.114  0.00  0.00     0.002 A 
ATOM      4  C4  I4B d   1       4.809   3.939  -4.429  0.00  0.00    -0.004 A 
ATOM      5  C5  I4B d   1       4.070   2.895  -4.979  0.00  0.00     0.002 A 
ATOM      6  C6  I4B d   1       3.150   2.193  -4.188  0.00  0.00     0.003 A 
ENDROOT
BRANCH   1   7
ATOM      7  C1' I4B d   1       2.077   1.750  -1.962  0.00  0.00     0.060 C 
BRANCH   7   8
ATOM      8  C2' I4B d   1       2.848   1.356  -0.719  0.00  0.00    -0.013 C 
ATOM      9  C4' I4B d   1       1.920   0.909   0.379  0.00  0.00     0.013 C 
ATOM     10  C3' I4B d   1       3.808   0.267  -1.094  0.00  0.00     0.013 C 
ENDBRANCH   7   8
ENDBRANCH   1   7
TORSDOF 2
ENDMDL
