MODEL 1
REMARK minimizedAffinity 10.9105043
REMARK minimizedRMSD -1
REMARK  2 active torsions:
REMARK  status: ('A' for Active; 'I' for Inactive)
REMARK    1  A    between atoms: C2'_3  and  C1'_4 
REMARK    2  A    between atoms: C1'_4  and  C1_5 
ROOT
ATOM      1  C1  I4B d   1       1.299  -1.241   1.513  0.00  0.00    -0.075 A 
ATOM      2  C2  I4B d   1       1.322  -2.599   1.713  0.00  0.00     0.003 A 
ATOM      3  C3  I4B d   1       0.134  -3.288   2.060  0.00  0.00     0.002 A 
ATOM      4  C4  I4B d   1      -1.034  -2.577   2.245  0.00  0.00    -0.004 A 
ATOM      5  C5  I4B d   1      -1.060  -1.204   2.019  0.00  0.00     0.002 A 
ATOM      6  C6  I4B d   1       0.111  -0.533   1.639  0.00  0.00     0.003 A 
ENDROOT
BRANCH   1   7
ATOM      7  C1' I4B d   1       2.578  -0.541   1.179  0.00  0.00     0.060 C 
BRANCH   7   8
ATOM      8  C2' I4B d   1       2.230   0.782   0.527  0.00  0.00    -0.013 C 
ATOM      9  C4' I4B d   1       2.951   1.924   1.193  0.00  0.00     0.013 C 
ATOM     10  C3' I4B d   1       2.587   0.690  -0.926  0.00  0.00     0.013 C 
ENDBRANCH   7   8
ENDBRANCH   1   7
TORSDOF 2
ENDMDL
