MODEL 1
REMARK minimizedAffinity 18.7901783
REMARK minimizedRMSD -1
REMARK  2 active torsions:
REMARK  status: ('A' for Active; 'I' for Inactive)
REMARK    1  A    between atoms: C2'_3  and  C1'_4 
REMARK    2  A    between atoms: C1'_4  and  C1_5 
ROOT
ATOM      1  C1  I4B d   1      -1.963  -0.603   0.049  0.00  0.00    -0.075 A 
ATOM      2  C2  I4B d   1      -3.028   0.166   0.446  0.00  0.00     0.003 A 
ATOM      3  C3  I4B d   1      -4.196   0.233  -0.352  0.00  0.00     0.002 A 
ATOM      4  C4  I4B d   1      -4.236  -0.440  -1.556  0.00  0.00    -0.004 A 
ATOM      5  C5  I4B d   1      -3.164  -1.238  -1.946  0.00  0.00     0.002 A 
ATOM      6  C6  I4B d   1      -2.024  -1.330  -1.133  0.00  0.00     0.003 A 
ENDROOT
BRANCH   1   7
ATOM      7  C1' I4B d   1      -0.732  -0.624   0.899  0.00  0.00     0.060 C 
BRANCH   7   8
ATOM      8  C2' I4B d   1      -0.890  -1.733   1.920  0.00  0.00    -0.013 C 
ATOM      9  C4' I4B d   1      -1.448  -2.981   1.288  0.00  0.00     0.013 C 
ATOM     10  C3' I4B d   1       0.454  -1.991   2.534  0.00  0.00     0.013 C 
ENDBRANCH   7   8
ENDBRANCH   1   7
TORSDOF 2
ENDMDL
