MODEL 1
REMARK minimizedAffinity 15.1732149
REMARK minimizedRMSD -1
REMARK  2 active torsions:
REMARK  status: ('A' for Active; 'I' for Inactive)
REMARK    1  A    between atoms: C2'_3  and  C1'_4 
REMARK    2  A    between atoms: C1'_4  and  C1_5 
ROOT
ATOM      1  C1  I4B d   1       3.990   2.620  -0.292  0.00  0.00    -0.075 A 
ATOM      2  C2  I4B d   1       5.145   3.232  -0.712  0.00  0.00     0.003 A 
ATOM      3  C3  I4B d   1       5.997   3.865   0.225  0.00  0.00     0.002 A 
ATOM      4  C4  I4B d   1       5.634   3.906   1.555  0.00  0.00    -0.004 A 
ATOM      5  C5  I4B d   1       4.475   3.265   1.983  0.00  0.00     0.002 A 
ATOM      6  C6  I4B d   1       3.654   2.607   1.055  0.00  0.00     0.003 A 
ENDROOT
BRANCH   1   7
ATOM      7  C1' I4B d   1       3.097   1.989  -1.312  0.00  0.00     0.060 C 
BRANCH   7   8
ATOM      8  C2' I4B d   1       2.767   3.037  -2.356  0.00  0.00    -0.013 C 
ATOM      9  C4' I4B d   1       3.682   2.927  -3.547  0.00  0.00     0.013 C 
ATOM     10  C3' I4B d   1       1.333   2.857  -2.756  0.00  0.00     0.013 C 
ENDBRANCH   7   8
ENDBRANCH   1   7
TORSDOF 2
ENDMDL
