MODEL 1
REMARK minimizedAffinity 18.0538731
REMARK minimizedRMSD -1
REMARK  2 active torsions:
REMARK  status: ('A' for Active; 'I' for Inactive)
REMARK    1  A    between atoms: C2'_3  and  C1'_4 
REMARK    2  A    between atoms: C1'_4  and  C1_5 
ROOT
ATOM      1  C1  I4B d   1      -3.529  -0.018   1.483  0.00  0.00    -0.075 A 
ATOM      2  C2  I4B d   1      -3.155   0.850   2.477  0.00  0.00     0.003 A 
ATOM      3  C3  I4B d   1      -1.897   0.709   3.111  0.00  0.00     0.002 A 
ATOM      4  C4  I4B d   1      -1.071  -0.337   2.756  0.00  0.00    -0.004 A 
ATOM      5  C5  I4B d   1      -1.441  -1.203   1.732  0.00  0.00     0.002 A 
ATOM      6  C6  I4B d   1      -2.673  -1.036   1.082  0.00  0.00     0.003 A 
ENDROOT
BRANCH   1   7
ATOM      7  C1' I4B d   1      -4.879   0.139   0.857  0.00  0.00     0.060 C 
BRANCH   7   8
ATOM      8  C2' I4B d   1      -4.699   0.850  -0.469  0.00  0.00    -0.013 C 
ATOM      9  C4' I4B d   1      -5.208   0.010  -1.610  0.00  0.00     0.013 C 
ATOM     10  C3' I4B d   1      -5.425   2.160  -0.394  0.00  0.00     0.013 C 
ENDBRANCH   7   8
ENDBRANCH   1   7
TORSDOF 2
ENDMDL
