MODEL 1
REMARK minimizedAffinity 13.0117979
REMARK minimizedRMSD -1
REMARK  2 active torsions:
REMARK  status: ('A' for Active; 'I' for Inactive)
REMARK    1  A    between atoms: C2'_3  and  C1'_4 
REMARK    2  A    between atoms: C1'_4  and  C1_5 
ROOT
ATOM      1  C1  I4B d   1       5.266   2.828   1.236  0.00  0.00    -0.075 A 
ATOM      2  C2  I4B d   1       5.554   2.755  -0.104  0.00  0.00     0.003 A 
ATOM      3  C3  I4B d   1       5.953   3.916  -0.811  0.00  0.00     0.002 A 
ATOM      4  C4  I4B d   1       6.000   5.129  -0.155  0.00  0.00    -0.004 A 
ATOM      5  C5  I4B d   1       5.729   5.196   1.209  0.00  0.00     0.002 A 
ATOM      6  C6  I4B d   1       5.371   4.037   1.912  0.00  0.00     0.003 A 
ENDROOT
BRANCH   1   7
ATOM      7  C1' I4B d   1       4.816   1.589   1.945  0.00  0.00     0.060 C 
BRANCH   7   8
ATOM      8  C2' I4B d   1       3.979   0.777   0.978  0.00  0.00    -0.013 C 
ATOM      9  C4' I4B d   1       3.363  -0.417   1.660  0.00  0.00     0.013 C 
ATOM     10  C3' I4B d   1       2.925   1.678   0.408  0.00  0.00     0.013 C 
ENDBRANCH   7   8
ENDBRANCH   1   7
TORSDOF 2
ENDMDL
