MODEL 1
REMARK minimizedAffinity 9.09717655
REMARK minimizedRMSD -1
REMARK  2 active torsions:
REMARK  status: ('A' for Active; 'I' for Inactive)
REMARK    1  A    between atoms: C2'_3  and  C1'_4 
REMARK    2  A    between atoms: C1'_4  and  C1_5 
ROOT
ATOM      1  C1  I4B d   1       2.710   4.096  -3.503  0.00  0.00    -0.075 A 
ATOM      2  C2  I4B d   1       2.635   3.673  -4.807  0.00  0.00     0.003 A 
ATOM      3  C3  I4B d   1       3.779   3.726  -5.640  0.00  0.00     0.002 A 
ATOM      4  C4  I4B d   1       4.955   4.253  -5.147  0.00  0.00    -0.004 A 
ATOM      5  C5  I4B d   1       5.035   4.660  -3.818  0.00  0.00     0.002 A 
ATOM      6  C6  I4B d   1       3.909   4.570  -2.987  0.00  0.00     0.003 A 
ENDROOT
BRANCH   1   7
ATOM      7  C1' I4B d   1       1.474   4.057  -2.661  0.00  0.00     0.060 C 
BRANCH   7   8
ATOM      8  C2' I4B d   1       0.624   5.258  -3.023  0.00  0.00    -0.013 C 
ATOM      9  C4' I4B d   1      -0.631   4.840  -3.742  0.00  0.00     0.013 C 
ATOM     10  C3' I4B d   1       0.303   5.996  -1.757  0.00  0.00     0.013 C 
ENDBRANCH   7   8
ENDBRANCH   1   7
TORSDOF 2
ENDMDL
