MODEL 1
REMARK minimizedAffinity 18.2532845
REMARK minimizedRMSD -1
REMARK  2 active torsions:
REMARK  status: ('A' for Active; 'I' for Inactive)
REMARK    1  A    between atoms: C2'_3  and  C1'_4 
REMARK    2  A    between atoms: C1'_4  and  C1_5 
ROOT
ATOM      1  C1  I4B d   1      -2.623   1.201   3.556  0.00  0.00    -0.075 A 
ATOM      2  C2  I4B d   1      -2.719   0.807   2.245  0.00  0.00     0.003 A 
ATOM      3  C3  I4B d   1      -2.018  -0.336   1.790  0.00  0.00     0.002 A 
ATOM      4  C4  I4B d   1      -1.198  -1.022   2.663  0.00  0.00    -0.004 A 
ATOM      5  C5  I4B d   1      -1.119  -0.635   3.997  0.00  0.00     0.002 A 
ATOM      6  C6  I4B d   1      -1.845   0.476   4.451  0.00  0.00     0.003 A 
ENDROOT
BRANCH   1   7
ATOM      7  C1' I4B d   1      -3.350   2.432   3.995  0.00  0.00     0.060 C 
BRANCH   7   8
ATOM      8  C2' I4B d   1      -4.533   2.000   4.838  0.00  0.00    -0.013 C 
ATOM      9  C4' I4B d   1      -4.745   2.934   6.000  0.00  0.00     0.013 C 
ATOM     10  C3' I4B d   1      -5.742   1.955   3.951  0.00  0.00     0.013 C 
ENDBRANCH   7   8
ENDBRANCH   1   7
TORSDOF 2
ENDMDL
