MODEL 1
REMARK minimizedAffinity 18.0274258
REMARK minimizedRMSD -1
REMARK  2 active torsions:
REMARK  status: ('A' for Active; 'I' for Inactive)
REMARK    1  A    between atoms: C2'_3  and  C1'_4 
REMARK    2  A    between atoms: C1'_4  and  C1_5 
ROOT
ATOM      1  C1  I4B d   1       4.715   3.776  -3.022  0.00  0.00    -0.075 A 
ATOM      2  C2  I4B d   1       4.890   3.731  -4.383  0.00  0.00     0.003 A 
ATOM      3  C3  I4B d   1       3.799   3.427  -5.232  0.00  0.00     0.002 A 
ATOM      4  C4  I4B d   1       2.571   3.126  -4.679  0.00  0.00    -0.004 A 
ATOM      5  C5  I4B d   1       2.390   3.194  -3.301  0.00  0.00     0.002 A 
ATOM      6  C6  I4B d   1       3.466   3.533  -2.467  0.00  0.00     0.003 A 
ENDROOT
BRANCH   1   7
ATOM      7  C1' I4B d   1       5.897   4.068  -2.153  0.00  0.00     0.060 C 
BRANCH   7   8
ATOM      8  C2' I4B d   1       5.382   4.529  -0.805  0.00  0.00    -0.013 C 
ATOM      9  C4' I4B d   1       5.999   3.733   0.315  0.00  0.00     0.013 C 
ATOM     10  C3' I4B d   1       5.692   5.990  -0.665  0.00  0.00     0.013 C 
ENDBRANCH   7   8
ENDBRANCH   1   7
TORSDOF 2
ENDMDL
