MODEL 1
REMARK minimizedAffinity 2.69912362
REMARK minimizedRMSD -1
REMARK  2 active torsions:
REMARK  status: ('A' for Active; 'I' for Inactive)
REMARK    1  A    between atoms: C2'_3  and  C1'_4 
REMARK    2  A    between atoms: C1'_4  and  C1_5 
ROOT
ATOM      1  C1  I4B d   1      -3.395   1.133   3.422  0.00  0.00    -0.075 A 
ATOM      2  C2  I4B d   1      -2.254   0.370   3.438  0.00  0.00     0.003 A 
ATOM      3  C3  I4B d   1      -2.045  -0.621   2.449  0.00  0.00     0.002 A 
ATOM      4  C4  I4B d   1      -3.019  -0.849   1.498  0.00  0.00    -0.004 A 
ATOM      5  C5  I4B d   1      -4.165  -0.059   1.469  0.00  0.00     0.002 A 
ATOM      6  C6  I4B d   1      -4.349   0.947   2.429  0.00  0.00     0.003 A 
ENDROOT
BRANCH   1   7
ATOM      7  C1' I4B d   1      -3.599   2.148   4.501  0.00  0.00     0.060 C 
BRANCH   7   8
ATOM      8  C2' I4B d   1      -5.087   2.259   4.763  0.00  0.00    -0.013 C 
ATOM      9  C4' I4B d   1      -5.481   1.495   6.000  0.00  0.00     0.013 C 
ATOM     10  C3' I4B d   1      -5.428   3.713   4.894  0.00  0.00     0.013 C 
ENDBRANCH   7   8
ENDBRANCH   1   7
TORSDOF 2
ENDMDL
