MODEL 1
REMARK minimizedAffinity 15.8018713
REMARK minimizedRMSD -1
REMARK  2 active torsions:
REMARK  status: ('A' for Active; 'I' for Inactive)
REMARK    1  A    between atoms: C2'_3  and  C1'_4 
REMARK    2  A    between atoms: C1'_4  and  C1_5 
ROOT
ATOM      1  C1  I4B d   1       3.985   2.306  -1.607  0.00  0.00    -0.075 A 
ATOM      2  C2  I4B d   1       4.852   3.305  -1.973  0.00  0.00     0.003 A 
ATOM      3  C3  I4B d   1       4.609   4.067  -3.142  0.00  0.00     0.002 A 
ATOM      4  C4  I4B d   1       3.522   3.764  -3.936  0.00  0.00    -0.004 A 
ATOM      5  C5  I4B d   1       2.631   2.766  -3.551  0.00  0.00     0.002 A 
ATOM      6  C6  I4B d   1       2.857   2.040  -2.372  0.00  0.00     0.003 A 
ENDROOT
BRANCH   1   7
ATOM      7  C1' I4B d   1       4.290   1.500  -0.384  0.00  0.00     0.060 C 
BRANCH   7   8
ATOM      8  C2' I4B d   1       3.312   1.906   0.699  0.00  0.00    -0.013 C 
ATOM      9  C4' I4B d   1       2.495   0.730   1.166  0.00  0.00     0.013 C 
ATOM     10  C3' I4B d   1       4.096   2.504   1.829  0.00  0.00     0.013 C 
ENDBRANCH   7   8
ENDBRANCH   1   7
TORSDOF 2
ENDMDL
