MODEL 1
REMARK minimizedAffinity 22.1101131
REMARK minimizedRMSD -1
REMARK  2 active torsions:
REMARK  status: ('A' for Active; 'I' for Inactive)
REMARK    1  A    between atoms: C2'_3  and  C1'_4 
REMARK    2  A    between atoms: C1'_4  and  C1_5 
ROOT
ATOM      1  C1  I4B d   1       5.106   4.632  -3.232  0.00  0.00    -0.075 A 
ATOM      2  C2  I4B d   1       3.845   4.234  -2.866  0.00  0.00     0.003 A 
ATOM      3  C3  I4B d   1       2.980   3.642  -3.817  0.00  0.00     0.002 A 
ATOM      4  C4  I4B d   1       3.395   3.514  -5.127  0.00  0.00    -0.004 A 
ATOM      5  C5  I4B d   1       4.683   3.898  -5.492  0.00  0.00     0.002 A 
ATOM      6  C6  I4B d   1       5.548   4.449  -4.536  0.00  0.00     0.003 A 
ENDROOT
BRANCH   1   7
ATOM      7  C1' I4B d   1       5.982   5.284  -2.210  0.00  0.00     0.060 C 
BRANCH   7   8
ATOM      8  C2' I4B d   1       5.457   4.909  -0.839  0.00  0.00    -0.013 C 
ATOM      9  C4' I4B d   1       5.980   3.566  -0.403  0.00  0.00     0.013 C 
ATOM     10  C3' I4B d   1       5.864   5.986   0.123  0.00  0.00     0.013 C 
ENDBRANCH   7   8
ENDBRANCH   1   7
TORSDOF 2
ENDMDL
