MODEL 1
REMARK minimizedAffinity 21.787571
REMARK minimizedRMSD -1
REMARK  2 active torsions:
REMARK  status: ('A' for Active; 'I' for Inactive)
REMARK    1  A    between atoms: C2'_3  and  C1'_4 
REMARK    2  A    between atoms: C1'_4  and  C1_5 
ROOT
ATOM      1  C1  I4B d   1       3.353   2.358   0.105  0.00  0.00    -0.075 A 
ATOM      2  C2  I4B d   1       2.901   3.408  -0.654  0.00  0.00     0.003 A 
ATOM      3  C3  I4B d   1       2.323   3.172  -1.925  0.00  0.00     0.002 A 
ATOM      4  C4  I4B d   1       2.263   1.884  -2.416  0.00  0.00    -0.004 A 
ATOM      5  C5  I4B d   1       2.701   0.818  -1.635  0.00  0.00     0.002 A 
ATOM      6  C6  I4B d   1       3.239   1.055  -0.361  0.00  0.00     0.003 A 
ENDROOT
BRANCH   1   7
ATOM      7  C1' I4B d   1       3.988   2.647   1.429  0.00  0.00     0.060 C 
BRANCH   7   8
ATOM      8  C2' I4B d   1       5.045   3.712   1.217  0.00  0.00    -0.013 C 
ATOM      9  C4' I4B d   1       5.873   3.913   2.459  0.00  0.00     0.013 C 
ATOM     10  C3' I4B d   1       5.900   3.291   0.059  0.00  0.00     0.013 C 
ENDBRANCH   7   8
ENDBRANCH   1   7
TORSDOF 2
ENDMDL
