MODEL 1
REMARK minimizedAffinity 16.0155525
REMARK minimizedRMSD -1
REMARK  2 active torsions:
REMARK  status: ('A' for Active; 'I' for Inactive)
REMARK    1  A    between atoms: C2'_3  and  C1'_4 
REMARK    2  A    between atoms: C1'_4  and  C1_5 
ROOT
ATOM      1  C1  I4B d   1      -2.523   0.070   1.445  0.00  0.00    -0.075 A 
ATOM      2  C2  I4B d   1      -2.845   0.957   2.441  0.00  0.00     0.003 A 
ATOM      3  C3  I4B d   1      -2.341   0.772   3.752  0.00  0.00     0.002 A 
ATOM      4  C4  I4B d   1      -1.566  -0.335   4.031  0.00  0.00    -0.004 A 
ATOM      5  C5  I4B d   1      -1.222  -1.221   3.014  0.00  0.00     0.002 A 
ATOM      6  C6  I4B d   1      -1.693  -1.011   1.710  0.00  0.00     0.003 A 
ENDROOT
BRANCH   1   7
ATOM      7  C1' I4B d   1      -3.099   0.278   0.081  0.00  0.00     0.060 C 
BRANCH   7   8
ATOM      8  C2' I4B d   1      -4.510   0.807   0.245  0.00  0.00    -0.013 C 
ATOM      9  C4' I4B d   1      -5.145   1.092  -1.090  0.00  0.00     0.013 C 
ATOM     10  C3' I4B d   1      -5.299  -0.210   1.014  0.00  0.00     0.013 C 
ENDBRANCH   7   8
ENDBRANCH   1   7
TORSDOF 2
ENDMDL
