MODEL 1
REMARK minimizedAffinity 10.6228685
REMARK minimizedRMSD -1
REMARK  2 active torsions:
REMARK  status: ('A' for Active; 'I' for Inactive)
REMARK    1  A    between atoms: C2'_3  and  C1'_4 
REMARK    2  A    between atoms: C1'_4  and  C1_5 
ROOT
ATOM      1  C1  I4B d   1      -2.855   0.815   3.129  0.00  0.00    -0.075 A 
ATOM      2  C2  I4B d   1      -1.795   0.073   3.587  0.00  0.00     0.003 A 
ATOM      3  C3  I4B d   1      -1.261  -0.972   2.794  0.00  0.00     0.002 A 
ATOM      4  C4  I4B d   1      -1.844  -1.270   1.580  0.00  0.00    -0.004 A 
ATOM      5  C5  I4B d   1      -2.904  -0.502   1.107  0.00  0.00     0.002 A 
ATOM      6  C6  I4B d   1      -3.405   0.556   1.880  0.00  0.00     0.003 A 
ENDROOT
BRANCH   1   7
ATOM      7  C1' I4B d   1      -3.416   1.889   4.006  0.00  0.00     0.060 C 
BRANCH   7   8
ATOM      8  C2' I4B d   1      -4.711   1.377   4.601  0.00  0.00    -0.013 C 
ATOM      9  C4' I4B d   1      -4.913   1.899   5.999  0.00  0.00     0.013 C 
ATOM     10  C3' I4B d   1      -5.833   1.796   3.699  0.00  0.00     0.013 C 
ENDBRANCH   7   8
ENDBRANCH   1   7
TORSDOF 2
ENDMDL
