MODEL 1
REMARK minimizedAffinity 12.7058764
REMARK minimizedRMSD -1
REMARK  2 active torsions:
REMARK  status: ('A' for Active; 'I' for Inactive)
REMARK    1  A    between atoms: C2'_3  and  C1'_4 
REMARK    2  A    between atoms: C1'_4  and  C1_5 
ROOT
ATOM      1  C1  I4B d   1       2.753   4.636  -2.306  0.00  0.00    -0.075 A 
ATOM      2  C2  I4B d   1       1.637   5.428  -2.201  0.00  0.00     0.003 A 
ATOM      3  C3  I4B d   1       0.350   4.876  -2.411  0.00  0.00     0.002 A 
ATOM      4  C4  I4B d   1       0.229   3.550  -2.770  0.00  0.00    -0.004 A 
ATOM      5  C5  I4B d   1       1.361   2.743  -2.853  0.00  0.00     0.002 A 
ATOM      6  C6  I4B d   1       2.630   3.286  -2.608  0.00  0.00     0.003 A 
ENDROOT
BRANCH   1   7
ATOM      7  C1' I4B d   1       4.099   5.259  -2.110  0.00  0.00     0.060 C 
BRANCH   7   8
ATOM      8  C2' I4B d   1       5.148   4.204  -2.399  0.00  0.00    -0.013 C 
ATOM      9  C4' I4B d   1       5.981   4.577  -3.597  0.00  0.00     0.013 C 
ATOM     10  C3' I4B d   1       5.999   4.050  -1.174  0.00  0.00     0.013 C 
ENDBRANCH   7   8
ENDBRANCH   1   7
TORSDOF 2
ENDMDL
