MODEL 1
REMARK minimizedAffinity 25.7015686
REMARK minimizedRMSD -1
REMARK  2 active torsions:
REMARK  status: ('A' for Active; 'I' for Inactive)
REMARK    1  A    between atoms: C2'_3  and  C1'_4 
REMARK    2  A    between atoms: C1'_4  and  C1_5 
ROOT
ATOM      1  C1  I4B d   1      -2.682   4.901  -3.408  0.00  0.00    -0.075 A 
ATOM      2  C2  I4B d   1      -1.392   5.327  -3.608  0.00  0.00     0.003 A 
ATOM      3  C3  I4B d   1      -0.894   5.498  -4.923  0.00  0.00     0.002 A 
ATOM      4  C4  I4B d   1      -1.698   5.186  -6.000  0.00  0.00    -0.004 A 
ATOM      5  C5  I4B d   1      -3.012   4.776  -5.795  0.00  0.00     0.002 A 
ATOM      6  C6  I4B d   1      -3.512   4.644  -4.491  0.00  0.00     0.003 A 
ENDROOT
BRANCH   1   7
ATOM      7  C1' I4B d   1      -3.165   4.700  -2.007  0.00  0.00     0.060 C 
BRANCH   7   8
ATOM      8  C2' I4B d   1      -4.680   4.723  -2.027  0.00  0.00    -0.013 C 
ATOM      9  C4' I4B d   1      -5.251   3.397  -1.597  0.00  0.00     0.013 C 
ATOM     10  C3' I4B d   1      -5.138   5.828  -1.124  0.00  0.00     0.013 C 
ENDBRANCH   7   8
ENDBRANCH   1   7
TORSDOF 2
ENDMDL
