MODEL 1
REMARK minimizedAffinity 8.58998394
REMARK minimizedRMSD -1
REMARK  1 active torsions:
REMARK  status: ('A' for Active; 'I' for Inactive)
REMARK    1  A    between atoms: C3_4  and  O_7 
ROOT
ATOM      1  C   UNL d   1       0.791   3.483  -0.681  0.00  0.00    -0.033 A 
ATOM      2  C1  UNL d   1       1.078   4.101  -1.900  0.00  0.00     0.039 A 
ATOM      3  C2  UNL d   1       0.046   4.637  -2.672  0.00  0.00    -0.080 A 
ATOM      4  C3  UNL d   1      -1.266   4.550  -2.215  0.00  0.00     0.150 A 
ATOM      5  C4  UNL d   1      -1.558   3.939  -1.000  0.00  0.00    -0.007 A 
ATOM      6  C5  UNL d   1      -0.527   3.403  -0.231  0.00  0.00     0.039 A 
ENDROOT
BRANCH   4   7
ATOM      7  O   UNL d   1      -2.307   5.055  -2.937  0.00  0.00    -0.526 OA
ATOM      8  H5  UNL d   1      -1.957   5.421  -3.766  0.00  0.00     0.418 HD
ENDBRANCH   4   7
TORSDOF 1
ENDMDL
