MODEL 1
REMARK minimizedAffinity 6.32384348
REMARK minimizedRMSD -1
REMARK  1 active torsions:
REMARK  status: ('A' for Active; 'I' for Inactive)
REMARK    1  A    between atoms: C3_4  and  O_7 
ROOT
ATOM      1  C   UNL d   1       1.905  -2.987  -1.080  0.00  0.00    -0.033 A 
ATOM      2  C1  UNL d   1       2.059  -4.352  -1.328  0.00  0.00     0.039 A 
ATOM      3  C2  UNL d   1       3.271  -4.983  -1.042  0.00  0.00    -0.080 A 
ATOM      4  C3  UNL d   1       4.320  -4.238  -0.508  0.00  0.00     0.150 A 
ATOM      5  C4  UNL d   1       4.172  -2.878  -0.255  0.00  0.00    -0.007 A 
ATOM      6  C5  UNL d   1       2.961  -2.250  -0.542  0.00  0.00     0.039 A 
ENDROOT
BRANCH   4   7
ATOM      7  O   UNL d   1       5.523  -4.809  -0.217  0.00  0.00    -0.526 OA
ATOM      8  H5  UNL d   1       5.489  -5.746  -0.471  0.00  0.00     0.418 HD
ENDBRANCH   4   7
TORSDOF 1
ENDMDL
