MODEL 1
REMARK minimizedAffinity 2.81280613
REMARK minimizedRMSD -1
REMARK  1 active torsions:
REMARK  status: ('A' for Active; 'I' for Inactive)
REMARK    1  A    between atoms: C3_4  and  O_7 
ROOT
ATOM      1  C   UNL d   1      -0.329   2.342   0.611  0.00  0.00    -0.033 A 
ATOM      2  C1  UNL d   1      -0.349   2.875  -0.679  0.00  0.00     0.039 A 
ATOM      3  C2  UNL d   1       0.723   3.644  -1.135  0.00  0.00    -0.080 A 
ATOM      4  C3  UNL d   1       1.809   3.871  -0.293  0.00  0.00     0.150 A 
ATOM      5  C4  UNL d   1       1.837   3.340   0.992  0.00  0.00    -0.007 A 
ATOM      6  C5  UNL d   1       0.765   2.573   1.446  0.00  0.00     0.039 A 
ENDROOT
BRANCH   4   7
ATOM      7  O   UNL d   1       2.876   4.619  -0.693  0.00  0.00    -0.526 OA
ATOM      8  H5  UNL d   1       2.705   4.944  -1.592  0.00  0.00     0.418 HD
ENDBRANCH   4   7
TORSDOF 1
ENDMDL
