MODEL 1
REMARK minimizedAffinity 3.17794204
REMARK minimizedRMSD -1
REMARK  1 active torsions:
REMARK  status: ('A' for Active; 'I' for Inactive)
REMARK    1  A    between atoms: C3_4  and  O_7 
ROOT
ATOM      1  C   UNL d   1      -3.005   5.992   1.495  0.00  0.00    -0.033 A 
ATOM      2  C1  UNL d   1      -2.038   5.773   0.512  0.00  0.00     0.039 A 
ATOM      3  C2  UNL d   1      -2.421   5.558  -0.813  0.00  0.00    -0.080 A 
ATOM      4  C3  UNL d   1      -3.774   5.566  -1.142  0.00  0.00     0.150 A 
ATOM      5  C4  UNL d   1      -4.743   5.786  -0.169  0.00  0.00    -0.007 A 
ATOM      6  C5  UNL d   1      -4.358   6.000   1.154  0.00  0.00     0.039 A 
ENDROOT
BRANCH   4   7
ATOM      7  O   UNL d   1      -4.197   5.356  -2.421  0.00  0.00    -0.526 OA
ATOM      8  H5  UNL d   1      -3.420   5.189  -2.979  0.00  0.00     0.418 HD
ENDBRANCH   4   7
TORSDOF 1
ENDMDL
