MODEL 1
REMARK minimizedAffinity 10.1360903
REMARK minimizedRMSD -1
REMARK  1 active torsions:
REMARK  status: ('A' for Active; 'I' for Inactive)
REMARK    1  A    between atoms: C3_4  and  O_7 
ROOT
ATOM      1  C   UNL d   1       2.810  -4.500  -3.825  0.00  0.00    -0.033 A 
ATOM      2  C1  UNL d   1       3.452  -4.705  -2.603  0.00  0.00     0.039 A 
ATOM      3  C2  UNL d   1       2.705  -4.793  -1.426  0.00  0.00    -0.080 A 
ATOM      4  C3  UNL d   1       1.320  -4.674  -1.486  0.00  0.00     0.150 A 
ATOM      5  C4  UNL d   1       0.673  -4.473  -2.701  0.00  0.00    -0.007 A 
ATOM      6  C5  UNL d   1       1.420  -4.385  -3.875  0.00  0.00     0.039 A 
ENDROOT
BRANCH   4   7
ATOM      7  O   UNL d   1       0.549  -4.748  -0.364  0.00  0.00    -0.526 OA
ATOM      8  H5  UNL d   1       1.134  -4.860   0.404  0.00  0.00     0.418 HD
ENDBRANCH   4   7
TORSDOF 1
ENDMDL
