MODEL 1
REMARK minimizedAffinity 7.01736641
REMARK minimizedRMSD -1
REMARK  1 active torsions:
REMARK  status: ('A' for Active; 'I' for Inactive)
REMARK    1  A    between atoms: C3_4  and  O_7 
ROOT
ATOM      1  C   UNL d   1       5.467  -5.026  -3.709  0.00  0.00    -0.033 A 
ATOM      2  C1  UNL d   1       5.999  -4.089  -2.821  0.00  0.00     0.039 A 
ATOM      3  C2  UNL d   1       5.601  -4.087  -1.483  0.00  0.00    -0.080 A 
ATOM      4  C3  UNL d   1       4.671  -5.026  -1.046  0.00  0.00     0.150 A 
ATOM      5  C4  UNL d   1       4.139  -5.965  -1.924  0.00  0.00    -0.007 A 
ATOM      6  C5  UNL d   1       4.538  -5.965  -3.259  0.00  0.00     0.039 A 
ENDROOT
BRANCH   4   7
ATOM      7  O   UNL d   1       4.248  -5.060   0.250  0.00  0.00    -0.526 OA
ATOM      8  H5  UNL d   1       4.678  -4.335   0.733  0.00  0.00     0.418 HD
ENDBRANCH   4   7
TORSDOF 1
ENDMDL
