MODEL 1
REMARK minimizedAffinity -1.62814283
REMARK minimizedRMSD -1
REMARK  0 active torsions:
REMARK  status: ('A' for Active; 'I' for Inactive)
ROOT
ATOM      1  C2' OXE d   1      -0.047   0.774  -1.623  0.00  0.00     0.078 C 
ATOM      2  C1' OXE d   1      -2.256   0.217   0.017  0.00  0.00     0.078 C 
ATOM      3  C1  OXE d   1      -0.894   0.264   0.663  0.00  0.00    -0.078 A 
ATOM      4  C2  OXE d   1       0.187   0.491  -0.155  0.00  0.00    -0.078 A 
ATOM      5  C3  OXE d   1       1.459   0.598   0.398  0.00  0.00     0.003 A 
ATOM      6  C4  OXE d   1       1.668   0.325   1.755  0.00  0.00    -0.002 A 
ATOM      7  C5  OXE d   1       0.586   0.052   2.599  0.00  0.00    -0.002 A 
ATOM      8  C6  OXE d   1      -0.703   0.060   2.078  0.00  0.00     0.003 A 
ENDROOT
TORSDOF 0
ENDMDL
