MODEL 1
REMARK minimizedAffinity -2.31046796
REMARK minimizedRMSD -1
REMARK  0 active torsions:
REMARK  status: ('A' for Active; 'I' for Inactive)
ROOT
ATOM      1  C2' OXE d   1      -2.398   0.696  -0.389  0.00  0.00     0.078 C 
ATOM      2  C1' OXE d   1       0.139   0.334  -1.535  0.00  0.00     0.078 C 
ATOM      3  C1  OXE d   1       0.034   0.296  -0.030  0.00  0.00    -0.078 A 
ATOM      4  C2  OXE d   1      -1.203   0.521   0.523  0.00  0.00    -0.078 A 
ATOM      5  C3  OXE d   1      -1.365   0.443   1.903  0.00  0.00     0.003 A 
ATOM      6  C4  OXE d   1      -0.253   0.290   2.740  0.00  0.00    -0.002 A 
ATOM      7  C5  OXE d   1       1.022   0.099   2.198  0.00  0.00    -0.002 A 
ATOM      8  C6  OXE d   1       1.176   0.057   0.817  0.00  0.00     0.003 A 
ENDROOT
TORSDOF 0
ENDMDL
