MODEL 1
REMARK minimizedAffinity -4.1549015
REMARK minimizedRMSD -1
REMARK  0 active torsions:
REMARK  status: ('A' for Active; 'I' for Inactive)
ROOT
ATOM      1  C2' OXE d   1      -2.356   0.198   3.725  0.00  0.00     0.078 C 
ATOM      2  C1' OXE d   1      -3.530   0.787   1.244  0.00  0.00     0.078 C 
ATOM      3  C1  OXE d   1      -2.078   0.377   1.256  0.00  0.00    -0.078 A 
ATOM      4  C2  OXE d   1      -1.500   0.135   2.479  0.00  0.00    -0.078 A 
ATOM      5  C3  OXE d   1      -0.179  -0.299   2.543  0.00  0.00     0.003 A 
ATOM      6  C4  OXE d   1       0.609  -0.344   1.387  0.00  0.00    -0.002 A 
ATOM      7  C5  OXE d   1       0.050  -0.064   0.135  0.00  0.00    -0.002 A 
ATOM      8  C6  OXE d   1      -1.300   0.256   0.048  0.00  0.00     0.003 A 
ENDROOT
TORSDOF 0
ENDMDL
