MODEL 1
REMARK minimizedAffinity -3.27379131
REMARK minimizedRMSD -1
REMARK  0 active torsions:
REMARK  status: ('A' for Active; 'I' for Inactive)
ROOT
ATOM      1  C2' OXE d   1       1.738   0.338   1.384  0.00  0.00     0.078 C 
ATOM      2  C1' OXE d   1       0.426   0.647  -1.078  0.00  0.00     0.078 C 
ATOM      3  C1  OXE d   1      -0.407   0.719   0.177  0.00  0.00    -0.078 A 
ATOM      4  C2  OXE d   1       0.236   0.520   1.375  0.00  0.00    -0.078 A 
ATOM      5  C3  OXE d   1      -0.476   0.630   2.566  0.00  0.00     0.003 A 
ATOM      6  C4  OXE d   1      -1.867   0.789   2.548  0.00  0.00    -0.002 A 
ATOM      7  C5  OXE d   1      -2.547   0.954   1.337  0.00  0.00    -0.002 A 
ATOM      8  C6  OXE d   1      -1.828   0.964   0.147  0.00  0.00     0.003 A 
ENDROOT
TORSDOF 0
ENDMDL
