MODEL 1
REMARK minimizedAffinity -4.23424816
REMARK minimizedRMSD -1
REMARK  0 active torsions:
REMARK  status: ('A' for Active; 'I' for Inactive)
ROOT
ATOM      1  C2' OXE d   1      -1.971   1.115  -0.532  0.00  0.00     0.078 C 
ATOM      2  C1' OXE d   1       0.400  -0.007   0.466  0.00  0.00     0.078 C 
ATOM      3  C1  OXE d   1      -0.748   0.179   1.425  0.00  0.00    -0.078 A 
ATOM      4  C2  OXE d   1      -1.889   0.771   0.939  0.00  0.00    -0.078 A 
ATOM      5  C3  OXE d   1      -2.997   0.916   1.769  0.00  0.00     0.003 A 
ATOM      6  C4  OXE d   1      -2.909   0.604   3.131  0.00  0.00    -0.002 A 
ATOM      7  C5  OXE d   1      -1.743   0.036   3.655  0.00  0.00    -0.002 A 
ATOM      8  C6  OXE d   1      -0.671  -0.222   2.809  0.00  0.00     0.003 A 
ENDROOT
TORSDOF 0
ENDMDL
