MODEL 1
REMARK minimizedAffinity -2.22807431
REMARK minimizedRMSD -1
REMARK  0 active torsions:
REMARK  status: ('A' for Active; 'I' for Inactive)
ROOT
ATOM      1  C2' OXE d   1      -0.427   0.861   2.447  0.00  0.00     0.078 C 
ATOM      2  C1' OXE d   1      -2.436   0.399   0.542  0.00  0.00     0.078 C 
ATOM      3  C1  OXE d   1      -1.011   0.486   0.055  0.00  0.00    -0.078 A 
ATOM      4  C2  OXE d   1      -0.040   0.759   0.987  0.00  0.00    -0.078 A 
ATOM      5  C3  OXE d   1       1.297   0.795   0.600  0.00  0.00     0.003 A 
ATOM      6  C4  OXE d   1       1.645   0.709  -0.753  0.00  0.00    -0.002 A 
ATOM      7  C5  OXE d   1       0.667   0.471  -1.724  0.00  0.00    -0.002 A 
ATOM      8  C6  OXE d   1      -0.658   0.314  -1.333  0.00  0.00     0.003 A 
ENDROOT
TORSDOF 0
ENDMDL
