MODEL 1
REMARK minimizedAffinity -1.01709604
REMARK minimizedRMSD -1
REMARK  0 active torsions:
REMARK  status: ('A' for Active; 'I' for Inactive)
ROOT
ATOM      1  C2' OXE d   1      -0.377  -1.935  -2.989  0.00  0.00     0.078 C 
ATOM      2  C1' OXE d   1       0.394   0.425  -1.679  0.00  0.00     0.078 C 
ATOM      3  C1  OXE d   1       1.368  -0.189  -2.653  0.00  0.00    -0.078 A 
ATOM      4  C2  OXE d   1       1.001  -1.369  -3.254  0.00  0.00    -0.078 A 
ATOM      5  C3  OXE d   1       1.840  -1.950  -4.202  0.00  0.00     0.003 A 
ATOM      6  C4  OXE d   1       3.117  -1.426  -4.434  0.00  0.00    -0.002 A 
ATOM      7  C5  OXE d   1       3.526  -0.246  -3.803  0.00  0.00    -0.002 A 
ATOM      8  C6  OXE d   1       2.649   0.406  -2.943  0.00  0.00     0.003 A 
ENDROOT
TORSDOF 0
ENDMDL
