MODEL 1
REMARK minimizedAffinity -1.27312052
REMARK minimizedRMSD -1
REMARK  0 active torsions:
REMARK  status: ('A' for Active; 'I' for Inactive)
ROOT
ATOM      1  C2' OXE d   1      -2.204   0.174   0.476  0.00  0.00     0.078 C 
ATOM      2  C1' OXE d   1      -1.135   0.119   3.071  0.00  0.00     0.078 C 
ATOM      3  C1  OXE d   1      -0.182   0.333   1.923  0.00  0.00    -0.078 A 
ATOM      4  C2  OXE d   1      -0.707   0.312   0.653  0.00  0.00    -0.078 A 
ATOM      5  C3  OXE d   1       0.120   0.559  -0.439  0.00  0.00     0.003 A 
ATOM      6  C4  OXE d   1       1.505   0.675  -0.268  0.00  0.00    -0.002 A 
ATOM      7  C5  OXE d   1       2.065   0.660   1.014  0.00  0.00    -0.002 A 
ATOM      8  C6  OXE d   1       1.233   0.533   2.120  0.00  0.00     0.003 A 
ENDROOT
TORSDOF 0
ENDMDL
