MODEL 1
REMARK minimizedAffinity 1.20049214
REMARK minimizedRMSD -1
REMARK  0 active torsions:
REMARK  status: ('A' for Active; 'I' for Inactive)
ROOT
ATOM      1  C2' OXE d   1      -1.444  -1.492   2.048  0.00  0.00     0.078 C 
ATOM      2  C1' OXE d   1      -3.171   0.317   0.773  0.00  0.00     0.078 C 
ATOM      3  C1  OXE d   1      -1.816   0.082   0.154  0.00  0.00    -0.078 A 
ATOM      4  C2  OXE d   1      -0.959  -0.769   0.810  0.00  0.00    -0.078 A 
ATOM      5  C3  OXE d   1       0.282  -1.062   0.252  0.00  0.00     0.003 A 
ATOM      6  C4  OXE d   1       0.726  -0.381  -0.888  0.00  0.00    -0.002 A 
ATOM      7  C5  OXE d   1      -0.116   0.519  -1.549  0.00  0.00    -0.002 A 
ATOM      8  C6  OXE d   1      -1.403   0.730  -1.067  0.00  0.00     0.003 A 
ENDROOT
TORSDOF 0
ENDMDL
