MODEL 1
REMARK minimizedAffinity -1.79999542
REMARK minimizedRMSD -1
REMARK  0 active torsions:
REMARK  status: ('A' for Active; 'I' for Inactive)
ROOT
ATOM      1  C2' OXE d   1       1.117   1.021   0.756  0.00  0.00     0.078 C 
ATOM      2  C1' OXE d   1      -0.354   0.551   3.101  0.00  0.00     0.078 C 
ATOM      3  C1  OXE d   1      -0.368  -0.516   2.035  0.00  0.00    -0.078 A 
ATOM      4  C2  OXE d   1       0.316  -0.258   0.872  0.00  0.00    -0.078 A 
ATOM      5  C3  OXE d   1       0.380  -1.231  -0.121  0.00  0.00     0.003 A 
ATOM      6  C4  OXE d   1      -0.372  -2.407  -0.010  0.00  0.00    -0.002 A 
ATOM      7  C5  OXE d   1      -1.108  -2.673   1.149  0.00  0.00    -0.002 A 
ATOM      8  C6  OXE d   1      -1.083  -1.759   2.197  0.00  0.00     0.003 A 
ENDROOT
TORSDOF 0
ENDMDL
