MODEL 1
REMARK minimizedAffinity -3.07769728
REMARK minimizedRMSD -1
REMARK  0 active torsions:
REMARK  status: ('A' for Active; 'I' for Inactive)
ROOT
ATOM      1  C2' OXE d   1      -2.456   0.327   0.374  0.00  0.00     0.078 C 
ATOM      2  C1' OXE d   1      -0.169  -0.277   1.887  0.00  0.00     0.078 C 
ATOM      3  C1  OXE d   1      -0.004  -0.113   0.397  0.00  0.00    -0.078 A 
ATOM      4  C2  OXE d   1      -1.136   0.136  -0.341  0.00  0.00    -0.078 A 
ATOM      5  C3  OXE d   1      -1.032   0.349  -1.713  0.00  0.00     0.003 A 
ATOM      6  C4  OXE d   1       0.191   0.161  -2.369  0.00  0.00    -0.002 A 
ATOM      7  C5  OXE d   1       1.349  -0.132  -1.641  0.00  0.00    -0.002 A 
ATOM      8  C6  OXE d   1       1.277  -0.230  -0.256  0.00  0.00     0.003 A 
ENDROOT
TORSDOF 0
ENDMDL
