MODEL 1
REMARK minimizedAffinity -3.00170088
REMARK minimizedRMSD -1
REMARK  0 active torsions:
REMARK  status: ('A' for Active; 'I' for Inactive)
ROOT
ATOM      1  C2' OXE d   1      -2.138   0.654  -0.495  0.00  0.00     0.078 C 
ATOM      2  C1' OXE d   1       0.128  -0.534  -1.650  0.00  0.00     0.078 C 
ATOM      3  C1  OXE d   1       0.154  -0.266  -0.166  0.00  0.00    -0.078 A 
ATOM      4  C2  OXE d   1      -0.941   0.358   0.383  0.00  0.00    -0.078 A 
ATOM      5  C3  OXE d   1      -0.992   0.579   1.756  0.00  0.00     0.003 A 
ATOM      6  C4  OXE d   1       0.123   0.312   2.559  0.00  0.00    -0.002 A 
ATOM      7  C5  OXE d   1       1.263  -0.288   2.014  0.00  0.00    -0.002 A 
ATOM      8  C6  OXE d   1       1.278  -0.621   0.664  0.00  0.00     0.003 A 
ENDROOT
TORSDOF 0
ENDMDL
