MODEL 1
REMARK minimizedAffinity -3.52246666
REMARK minimizedRMSD -1
REMARK  0 active torsions:
REMARK  status: ('A' for Active; 'I' for Inactive)
ROOT
ATOM      1  C2' OXE d   1       2.221  -0.387   0.933  0.00  0.00     0.078 C 
ATOM      2  C1' OXE d   1       1.009  -0.188  -1.591  0.00  0.00     0.078 C 
ATOM      3  C1  OXE d   1       0.161   0.107  -0.379  0.00  0.00    -0.078 A 
ATOM      4  C2  OXE d   1       0.750  -0.038   0.854  0.00  0.00    -0.078 A 
ATOM      5  C3  OXE d   1       0.029   0.274   2.003  0.00  0.00     0.003 A 
ATOM      6  C4  OXE d   1      -1.333   0.586   1.923  0.00  0.00    -0.002 A 
ATOM      7  C5  OXE d   1      -1.962   0.701   0.679  0.00  0.00    -0.002 A 
ATOM      8  C6  OXE d   1      -1.220   0.507  -0.481  0.00  0.00     0.003 A 
ENDROOT
TORSDOF 0
ENDMDL
