MODEL 1
REMARK minimizedAffinity -2.47442555
REMARK minimizedRMSD -1
REMARK  0 active torsions:
REMARK  status: ('A' for Active; 'I' for Inactive)
ROOT
ATOM      1  C2' OXE d   1       2.718   0.733   1.499  0.00  0.00     0.078 C 
ATOM      2  C1' OXE d   1       0.230   0.158   2.666  0.00  0.00     0.078 C 
ATOM      3  C1  OXE d   1       0.318   0.158   1.160  0.00  0.00    -0.078 A 
ATOM      4  C2  OXE d   1       1.528   0.486   0.598  0.00  0.00    -0.078 A 
ATOM      5  C3  OXE d   1       1.678   0.448  -0.786  0.00  0.00     0.003 A 
ATOM      6  C4  OXE d   1       0.570   0.229  -1.613  0.00  0.00    -0.002 A 
ATOM      7  C5  OXE d   1      -0.681  -0.068  -1.061  0.00  0.00    -0.002 A 
ATOM      8  C6  OXE d   1      -0.814  -0.149   0.321  0.00  0.00     0.003 A 
ENDROOT
TORSDOF 0
ENDMDL
