MODEL 1
REMARK minimizedAffinity -1.46672595
REMARK minimizedRMSD -1
REMARK  0 active torsions:
REMARK  status: ('A' for Active; 'I' for Inactive)
ROOT
ATOM      1  C2' OXE d   1       1.892   0.457   1.373  0.00  0.00     0.078 C 
ATOM      2  C1' OXE d   1      -0.292   0.157   3.111  0.00  0.00     0.078 C 
ATOM      3  C1  OXE d   1      -0.582   0.350   1.643  0.00  0.00    -0.078 A 
ATOM      4  C2  OXE d   1       0.491   0.543   0.807  0.00  0.00    -0.078 A 
ATOM      5  C3  OXE d   1       0.283   0.670  -0.563  0.00  0.00     0.003 A 
ATOM      6  C4  OXE d   1      -1.017   0.758  -1.078  0.00  0.00    -0.002 A 
ATOM      7  C5  OXE d   1      -2.125   0.604  -0.237  0.00  0.00    -0.002 A 
ATOM      8  C6  OXE d   1      -1.924   0.357   1.116  0.00  0.00     0.003 A 
ENDROOT
TORSDOF 0
ENDMDL
