MODEL 1
REMARK minimizedAffinity -2.87685704
REMARK minimizedRMSD -1
REMARK  0 active torsions:
REMARK  status: ('A' for Active; 'I' for Inactive)
ROOT
ATOM      1  C2' OXE d   1       0.025  -0.186  -1.496  0.00  0.00     0.078 C 
ATOM      2  C1' OXE d   1      -2.318   0.377  -0.055  0.00  0.00     0.078 C 
ATOM      3  C1  OXE d   1      -1.022   0.296   0.712  0.00  0.00    -0.078 A 
ATOM      4  C2  OXE d   1       0.112  -0.026   0.006  0.00  0.00    -0.078 A 
ATOM      5  C3  OXE d   1       1.342  -0.060   0.656  0.00  0.00     0.003 A 
ATOM      6  C4  OXE d   1       1.413   0.079   2.048  0.00  0.00    -0.002 A 
ATOM      7  C5  OXE d   1       0.264   0.368   2.792  0.00  0.00    -0.002 A 
ATOM      8  C6  OXE d   1      -0.952   0.522   2.135  0.00  0.00     0.003 A 
ENDROOT
TORSDOF 0
ENDMDL
