MODEL 1
REMARK minimizedAffinity -1.47742522
REMARK minimizedRMSD -1
REMARK  0 active torsions:
REMARK  status: ('A' for Active; 'I' for Inactive)
ROOT
ATOM      1  C2' OXE d   1       0.624   0.008  -1.690  0.00  0.00     0.078 C 
ATOM      2  C1' OXE d   1      -2.021   0.603  -0.963  0.00  0.00     0.078 C 
ATOM      3  C1  OXE d   1      -1.010   0.427   0.143  0.00  0.00    -0.078 A 
ATOM      4  C2  OXE d   1       0.271   0.090  -0.220  0.00  0.00    -0.078 A 
ATOM      5  C3  OXE d   1       1.255  -0.031   0.757  0.00  0.00     0.003 A 
ATOM      6  C4  OXE d   1       0.918   0.037   2.114  0.00  0.00    -0.002 A 
ATOM      7  C5  OXE d   1      -0.390   0.340   2.507  0.00  0.00    -0.002 A 
ATOM      8  C6  OXE d   1      -1.355   0.580   1.535  0.00  0.00     0.003 A 
ENDROOT
TORSDOF 0
ENDMDL
