MODEL 1
REMARK minimizedAffinity 6.12676096
REMARK minimizedRMSD -1
REMARK  2 active torsions:
REMARK  status: ('A' for Active; 'I' for Inactive)
REMARK    1  A    between atoms: C1_2  and  C2_3 
REMARK    2  A    between atoms: C2_3  and  C3_4 
ROOT
ATOM      1  C3  UNL d   1       2.868  -1.362   0.764  0.00  0.00    -0.075 A 
ATOM      2  C4  UNL d   1       3.054   0.028   0.761  0.00  0.00     0.002 A 
ATOM      3  C5  UNL d   1       4.051   0.607  -0.024  0.00  0.00     0.002 A 
ATOM      4  C6  UNL d   1       4.880  -0.194  -0.806  0.00  0.00    -0.004 A 
ATOM      5  C7  UNL d   1       4.715  -1.577  -0.798  0.00  0.00     0.002 A 
ATOM      6  C8  UNL d   1       3.715  -2.160  -0.017  0.00  0.00     0.002 A 
ENDROOT
BRANCH   1   7
ATOM      7  C2  UNL d   1       1.771  -1.993   1.588  0.00  0.00     0.056 C 
BRANCH   7   8
ATOM      8  C1  UNL d   1       0.472  -1.181   1.624  0.00  0.00     0.007 C 
ATOM      9  C   UNL d   1       0.029  -0.820   3.036  0.00  0.00     0.009 C 
ENDBRANCH   7   8
ENDBRANCH   1   7
TORSDOF 2
ENDMDL
