MODEL 1
REMARK minimizedAffinity 12.9949684
REMARK minimizedRMSD -1
REMARK  2 active torsions:
REMARK  status: ('A' for Active; 'I' for Inactive)
REMARK    1  A    between atoms: C1_2  and  C2_3 
REMARK    2  A    between atoms: C2_3  and  C3_4 
ROOT
ATOM      1  C3  UNL d   1       1.415   2.078  -0.092  0.00  0.00    -0.075 A 
ATOM      2  C4  UNL d   1       2.788   2.355  -0.032  0.00  0.00     0.002 A 
ATOM      3  C5  UNL d   1       3.651   1.508   0.664  0.00  0.00     0.002 A 
ATOM      4  C6  UNL d   1       3.153   0.381   1.314  0.00  0.00    -0.004 A 
ATOM      5  C7  UNL d   1       1.788   0.106   1.274  0.00  0.00     0.002 A 
ATOM      6  C8  UNL d   1       0.922   0.949   0.576  0.00  0.00     0.002 A 
ENDROOT
BRANCH   1   7
ATOM      7  C2  UNL d   1       0.479   2.975  -0.867  0.00  0.00     0.056 C 
BRANCH   7   8
ATOM      8  C1  UNL d   1       0.222   2.514  -2.306  0.00  0.00     0.007 C 
ATOM      9  C   UNL d   1      -1.235   2.646  -2.728  0.00  0.00     0.009 C 
ENDBRANCH   7   8
ENDBRANCH   1   7
TORSDOF 2
ENDMDL
