MODEL 1
REMARK minimizedAffinity 12.041379
REMARK minimizedRMSD -1
REMARK  2 active torsions:
REMARK  status: ('A' for Active; 'I' for Inactive)
REMARK    1  A    between atoms: C1_2  and  C2_3 
REMARK    2  A    between atoms: C2_3  and  C3_4 
ROOT
ATOM      1  C3  UNL d   1      -2.528   2.696  -1.732  0.00  0.00    -0.075 A 
ATOM      2  C4  UNL d   1      -1.846   2.666  -0.507  0.00  0.00     0.002 A 
ATOM      3  C5  UNL d   1      -0.452   2.640  -0.472  0.00  0.00     0.002 A 
ATOM      4  C6  UNL d   1       0.277   2.635  -1.659  0.00  0.00    -0.004 A 
ATOM      5  C7  UNL d   1      -0.389   2.649  -2.882  0.00  0.00     0.002 A 
ATOM      6  C8  UNL d   1      -1.785   2.678  -2.920  0.00  0.00     0.002 A 
ENDROOT
BRANCH   1   7
ATOM      7  C2  UNL d   1      -4.036   2.753  -1.776  0.00  0.00     0.056 C 
BRANCH   7   8
ATOM      8  C1  UNL d   1      -4.663   3.566  -0.638  0.00  0.00     0.007 C 
ATOM      9  C   UNL d   1      -5.259   4.888  -1.102  0.00  0.00     0.009 C 
ENDBRANCH   7   8
ENDBRANCH   1   7
TORSDOF 2
ENDMDL
