MODEL 1
REMARK minimizedAffinity 6.67711926
REMARK minimizedRMSD -1
REMARK  2 active torsions:
REMARK  status: ('A' for Active; 'I' for Inactive)
REMARK    1  A    between atoms: C1_2  and  C2_3 
REMARK    2  A    between atoms: C2_3  and  C3_4 
ROOT
ATOM      1  C3  UNL d   1       2.338  -5.645  -4.865  0.00  0.00    -0.075 A 
ATOM      2  C4  UNL d   1       2.819  -5.282  -3.599  0.00  0.00     0.002 A 
ATOM      3  C5  UNL d   1       1.932  -4.993  -2.561  0.00  0.00     0.002 A 
ATOM      4  C6  UNL d   1       0.558  -5.054  -2.778  0.00  0.00    -0.004 A 
ATOM      5  C7  UNL d   1       0.069  -5.398  -4.036  0.00  0.00     0.002 A 
ATOM      6  C8  UNL d   1       0.954  -5.691  -5.076  0.00  0.00     0.002 A 
ENDROOT
BRANCH   1   7
ATOM      7  C2  UNL d   1       3.293  -5.987  -5.985  0.00  0.00     0.056 C 
BRANCH   7   8
ATOM      8  C1  UNL d   1       4.571  -5.142  -5.994  0.00  0.00     0.007 C 
ATOM      9  C   UNL d   1       5.843  -5.979  -5.999  0.00  0.00     0.009 C 
ENDBRANCH   7   8
ENDBRANCH   1   7
TORSDOF 2
ENDMDL
