MODEL 1
REMARK minimizedAffinity 2.62897134
REMARK minimizedRMSD -1
REMARK  2 active torsions:
REMARK  status: ('A' for Active; 'I' for Inactive)
REMARK    1  A    between atoms: C1_2  and  C2_3 
REMARK    2  A    between atoms: C2_3  and  C3_4 
ROOT
ATOM      1  C3  UNL d   1       0.167  -1.833   3.208  0.00  0.00    -0.075 A 
ATOM      2  C4  UNL d   1      -0.855  -2.753   3.483  0.00  0.00     0.002 A 
ATOM      3  C5  UNL d   1      -1.517  -2.730   4.711  0.00  0.00     0.002 A 
ATOM      4  C6  UNL d   1      -1.159  -1.797   5.681  0.00  0.00    -0.004 A 
ATOM      5  C7  UNL d   1      -0.134  -0.889   5.425  0.00  0.00     0.002 A 
ATOM      6  C8  UNL d   1       0.527  -0.906   4.195  0.00  0.00     0.002 A 
ENDROOT
BRANCH   1   7
ATOM      7  C2  UNL d   1       0.868  -1.833   1.870  0.00  0.00     0.056 C 
BRANCH   7   8
ATOM      8  C1  UNL d   1       1.673  -0.561   1.587  0.00  0.00     0.007 C 
ATOM      9  C   UNL d   1       3.031  -0.837   0.957  0.00  0.00     0.009 C 
ENDBRANCH   7   8
ENDBRANCH   1   7
TORSDOF 2
ENDMDL
