MODEL 1
REMARK minimizedAffinity 11.4173927
REMARK minimizedRMSD -1
REMARK  2 active torsions:
REMARK  status: ('A' for Active; 'I' for Inactive)
REMARK    1  A    between atoms: C1_2  and  C2_3 
REMARK    2  A    between atoms: C2_3  and  C3_4 
ROOT
ATOM      1  C3  UNL d   1      -3.493  -3.783   1.732  0.00  0.00    -0.075 A 
ATOM      2  C4  UNL d   1      -4.079  -3.846   0.459  0.00  0.00     0.002 A 
ATOM      3  C5  UNL d   1      -3.863  -4.950  -0.366  0.00  0.00     0.002 A 
ATOM      4  C6  UNL d   1      -3.053  -5.998   0.065  0.00  0.00    -0.004 A 
ATOM      5  C7  UNL d   1      -2.453  -5.939   1.321  0.00  0.00     0.002 A 
ATOM      6  C8  UNL d   1      -2.671  -4.838   2.151  0.00  0.00     0.002 A 
ENDROOT
BRANCH   1   7
ATOM      7  C2  UNL d   1      -3.747  -2.605   2.642  0.00  0.00     0.056 C 
BRANCH   7   8
ATOM      8  C1  UNL d   1      -5.220  -2.195   2.736  0.00  0.00     0.007 C 
ATOM      9  C   UNL d   1      -5.478  -0.769   2.267  0.00  0.00     0.009 C 
ENDBRANCH   7   8
ENDBRANCH   1   7
TORSDOF 2
ENDMDL
