MODEL 1
REMARK minimizedAffinity 11.777379
REMARK minimizedRMSD -1
REMARK  2 active torsions:
REMARK  status: ('A' for Active; 'I' for Inactive)
REMARK    1  A    between atoms: C1_2  and  C2_3 
REMARK    2  A    between atoms: C2_3  and  C3_4 
ROOT
ATOM      1  C3  UNL d   1       3.630  -1.972  -0.028  0.00  0.00    -0.075 A 
ATOM      2  C4  UNL d   1       3.136  -3.239  -0.369  0.00  0.00     0.002 A 
ATOM      3  C5  UNL d   1       2.055  -3.787   0.322  0.00  0.00     0.002 A 
ATOM      4  C6  UNL d   1       1.463  -3.083   1.367  0.00  0.00    -0.004 A 
ATOM      5  C7  UNL d   1       1.956  -1.830   1.726  0.00  0.00     0.002 A 
ATOM      6  C8  UNL d   1       3.035  -1.277   1.033  0.00  0.00     0.002 A 
ENDROOT
BRANCH   1   7
ATOM      7  C2  UNL d   1       4.781  -1.360  -0.791  0.00  0.00     0.056 C 
BRANCH   7   8
ATOM      8  C1  UNL d   1       4.469  -1.071  -2.263  0.00  0.00     0.007 C 
ATOM      9  C   UNL d   1       4.555   0.408  -2.616  0.00  0.00     0.009 C 
ENDBRANCH   7   8
ENDBRANCH   1   7
TORSDOF 2
ENDMDL
