MODEL 1
REMARK minimizedAffinity 11.0166054
REMARK minimizedRMSD -1
REMARK  2 active torsions:
REMARK  status: ('A' for Active; 'I' for Inactive)
REMARK    1  A    between atoms: C1_2  and  C2_3 
REMARK    2  A    between atoms: C2_3  and  C3_4 
ROOT
ATOM      1  C3  UNL d   1       1.946   0.991   0.752  0.00  0.00    -0.075 A 
ATOM      2  C4  UNL d   1       0.816   0.231   1.089  0.00  0.00     0.002 A 
ATOM      3  C5  UNL d   1       0.945  -1.114   1.436  0.00  0.00     0.002 A 
ATOM      4  C6  UNL d   1       2.201  -1.718   1.440  0.00  0.00    -0.004 A 
ATOM      5  C7  UNL d   1       3.327  -0.977   1.091  0.00  0.00     0.002 A 
ATOM      6  C8  UNL d   1       3.202   0.370   0.748  0.00  0.00     0.002 A 
ENDROOT
BRANCH   1   7
ATOM      7  C2  UNL d   1       1.816   2.455   0.404  0.00  0.00     0.056 C 
BRANCH   7   8
ATOM      8  C1  UNL d   1       0.440   2.847  -0.143  0.00  0.00     0.007 C 
ATOM      9  C   UNL d   1       0.345   2.745  -1.659  0.00  0.00     0.009 C 
ENDBRANCH   7   8
ENDBRANCH   1   7
TORSDOF 2
ENDMDL
