MODEL 1
REMARK minimizedAffinity 3.11899137
REMARK minimizedRMSD -1
REMARK  2 active torsions:
REMARK  status: ('A' for Active; 'I' for Inactive)
REMARK    1  A    between atoms: C1_2  and  C2_3 
REMARK    2  A    between atoms: C2_3  and  C3_4 
ROOT
ATOM      1  C3  UNL d   1      -4.769  -4.903   2.592  0.00  0.00    -0.075 A 
ATOM      2  C4  UNL d   1      -4.951  -5.999   1.736  0.00  0.00     0.002 A 
ATOM      3  C5  UNL d   1      -5.035  -5.815   0.356  0.00  0.00     0.002 A 
ATOM      4  C6  UNL d   1      -4.949  -4.534  -0.185  0.00  0.00    -0.004 A 
ATOM      5  C7  UNL d   1      -4.785  -3.436   0.657  0.00  0.00     0.002 A 
ATOM      6  C8  UNL d   1      -4.695  -3.618   2.038  0.00  0.00     0.002 A 
ENDROOT
BRANCH   1   7
ATOM      7  C2  UNL d   1      -4.647  -5.099   4.084  0.00  0.00     0.056 C 
BRANCH   7   8
ATOM      8  C1  UNL d   1      -5.986  -5.068   4.829  0.00  0.00     0.007 C 
ATOM      9  C   UNL d   1      -5.999  -4.094   5.999  0.00  0.00     0.009 C 
ENDBRANCH   7   8
ENDBRANCH   1   7
TORSDOF 2
ENDMDL
