MODEL 1
REMARK minimizedAffinity 8.15212917
REMARK minimizedRMSD -1
REMARK  2 active torsions:
REMARK  status: ('A' for Active; 'I' for Inactive)
REMARK    1  A    between atoms: C1_2  and  C2_3 
REMARK    2  A    between atoms: C2_3  and  C3_4 
ROOT
ATOM      1  C3  UNL d   1       4.820  -2.076  -4.261  0.00  0.00    -0.075 A 
ATOM      2  C4  UNL d   1       4.323  -0.767  -4.188  0.00  0.00     0.002 A 
ATOM      3  C5  UNL d   1       4.470  -0.017  -3.021  0.00  0.00     0.002 A 
ATOM      4  C6  UNL d   1       5.105  -0.569  -1.910  0.00  0.00    -0.004 A 
ATOM      5  C7  UNL d   1       5.588  -1.875  -1.966  0.00  0.00     0.002 A 
ATOM      6  C8  UNL d   1       5.446  -2.625  -3.134  0.00  0.00     0.002 A 
ENDROOT
BRANCH   1   7
ATOM      7  C2  UNL d   1       4.690  -2.882  -5.531  0.00  0.00     0.056 C 
BRANCH   7   8
ATOM      8  C1  UNL d   1       6.000  -3.524  -6.000  0.00  0.00     0.007 C 
ATOM      9  C   UNL d   1       5.957  -5.046  -5.999  0.00  0.00     0.009 C 
ENDBRANCH   7   8
ENDBRANCH   1   7
TORSDOF 2
ENDMDL
