MODEL 1
REMARK minimizedAffinity -2.72751594
REMARK minimizedRMSD -1
REMARK  2 active torsions:
REMARK  status: ('A' for Active; 'I' for Inactive)
REMARK    1  A    between atoms: C1_2  and  C2_3 
REMARK    2  A    between atoms: C2_3  and  C3_4 
ROOT
ATOM      1  C3  UNL d   1       0.853  -1.656   1.942  0.00  0.00    -0.075 A 
ATOM      2  C4  UNL d   1       0.554  -3.025   1.986  0.00  0.00     0.002 A 
ATOM      3  C5  UNL d   1       1.351  -3.946   1.306  0.00  0.00     0.002 A 
ATOM      4  C6  UNL d   1       2.449  -3.510   0.567  0.00  0.00    -0.004 A 
ATOM      5  C7  UNL d   1       2.745  -2.150   0.503  0.00  0.00     0.002 A 
ATOM      6  C8  UNL d   1       1.952  -1.227   1.186  0.00  0.00     0.002 A 
ENDROOT
BRANCH   1   7
ATOM      7  C2  UNL d   1       0.011  -0.657   2.700  0.00  0.00     0.056 C 
BRANCH   7   8
ATOM      8  C1  UNL d   1       0.629  -0.199   4.025  0.00  0.00     0.007 C 
ATOM      9  C   UNL d   1       2.151  -0.161   3.996  0.00  0.00     0.009 C 
ENDBRANCH   7   8
ENDBRANCH   1   7
TORSDOF 2
ENDMDL
