MODEL 1
REMARK minimizedAffinity 15.5102463
REMARK minimizedRMSD -1
REMARK  2 active torsions:
REMARK  status: ('A' for Active; 'I' for Inactive)
REMARK    1  A    between atoms: C1_2  and  C2_3 
REMARK    2  A    between atoms: C2_3  and  C3_4 
ROOT
ATOM      1  C3  UNL d   1      -0.061   3.369  -1.824  0.00  0.00    -0.075 A 
ATOM      2  C4  UNL d   1      -0.533   4.576  -2.361  0.00  0.00     0.002 A 
ATOM      3  C5  UNL d   1      -1.483   4.574  -3.383  0.00  0.00     0.002 A 
ATOM      4  C6  UNL d   1      -1.965   3.368  -3.887  0.00  0.00    -0.004 A 
ATOM      5  C7  UNL d   1      -1.491   2.163  -3.373  0.00  0.00     0.002 A 
ATOM      6  C8  UNL d   1      -0.544   2.162  -2.348  0.00  0.00     0.002 A 
ENDROOT
BRANCH   1   7
ATOM      7  C2  UNL d   1       0.945   3.365  -0.698  0.00  0.00     0.056 C 
BRANCH   7   8
ATOM      8  C1  UNL d   1       1.050   2.026   0.040  0.00  0.00     0.007 C 
ATOM      9  C   UNL d   1       2.474   1.677   0.450  0.00  0.00     0.009 C 
ENDBRANCH   7   8
ENDBRANCH   1   7
TORSDOF 2
ENDMDL
