MODEL 1
REMARK minimizedAffinity 14.3039532
REMARK minimizedRMSD -1
REMARK  2 active torsions:
REMARK  status: ('A' for Active; 'I' for Inactive)
REMARK    1  A    between atoms: C1_2  and  C2_3 
REMARK    2  A    between atoms: C2_3  and  C3_4 
ROOT
ATOM      1  C3  UNL d   1       1.839  -1.531   1.376  0.00  0.00    -0.075 A 
ATOM      2  C4  UNL d   1       1.838  -0.684   2.494  0.00  0.00     0.002 A 
ATOM      3  C5  UNL d   1       2.912   0.173   2.735  0.00  0.00     0.002 A 
ATOM      4  C6  UNL d   1       4.003   0.187   1.869  0.00  0.00    -0.004 A 
ATOM      5  C7  UNL d   1       4.022  -0.662   0.764  0.00  0.00     0.002 A 
ATOM      6  C8  UNL d   1       2.947  -1.517   0.519  0.00  0.00     0.002 A 
ENDROOT
BRANCH   1   7
ATOM      7  C2  UNL d   1       0.666  -2.440   1.095  0.00  0.00     0.056 C 
BRANCH   7   8
ATOM      8  C1  UNL d   1       1.063  -3.865   0.696  0.00  0.00     0.007 C 
ATOM      9  C   UNL d   1       0.956  -4.861   1.842  0.00  0.00     0.009 C 
ENDBRANCH   7   8
ENDBRANCH   1   7
TORSDOF 2
ENDMDL
