MODEL 1
REMARK minimizedAffinity 12.749362
REMARK minimizedRMSD -1
REMARK  2 active torsions:
REMARK  status: ('A' for Active; 'I' for Inactive)
REMARK    1  A    between atoms: C1_2  and  C2_3 
REMARK    2  A    between atoms: C2_3  and  C3_4 
ROOT
ATOM      1  C3  UNL d   1      -1.964   3.487  -3.417  0.00  0.00    -0.075 A 
ATOM      2  C4  UNL d   1      -3.269   3.207  -3.847  0.00  0.00     0.002 A 
ATOM      3  C5  UNL d   1      -3.713   3.646  -5.094  0.00  0.00     0.002 A 
ATOM      4  C6  UNL d   1      -2.864   4.377  -5.922  0.00  0.00    -0.004 A 
ATOM      5  C7  UNL d   1      -1.570   4.675  -5.498  0.00  0.00     0.002 A 
ATOM      6  C8  UNL d   1      -1.122   4.233  -4.252  0.00  0.00     0.002 A 
ENDROOT
BRANCH   1   7
ATOM      7  C2  UNL d   1      -1.468   2.989  -2.080  0.00  0.00     0.056 C 
BRANCH   7   8
ATOM      8  C1  UNL d   1       0.048   3.113  -1.892  0.00  0.00     0.007 C 
ATOM      9  C   UNL d   1       0.455   3.370  -0.447  0.00  0.00     0.009 C 
ENDBRANCH   7   8
ENDBRANCH   1   7
TORSDOF 2
ENDMDL
