MODEL 1
REMARK minimizedAffinity -3.88331747
REMARK minimizedRMSD -1
REMARK  0 active torsions:
REMARK  status: ('A' for Active; 'I' for Inactive)
ROOT
ATOM      1  C   UNL d   1       0.846  -1.119  -0.802  0.00  0.00     0.078 C 
ATOM      2  C1  UNL d   1       0.031  -0.253   0.112  0.00  0.00    -0.077 A 
ATOM      3  C2  UNL d   1      -0.441   0.996  -0.311  0.00  0.00    -0.001 A 
ATOM      4  C3  UNL d   1      -1.190   1.797   0.554  0.00  0.00     0.003 A 
ATOM      5  C4  UNL d   1      -1.473   1.358   1.846  0.00  0.00    -0.005 A 
ATOM      6  C5  UNL d   1      -1.005   0.118   2.275  0.00  0.00     0.003 A 
ATOM      7  C6  UNL d   1      -0.256  -0.684   1.413  0.00  0.00    -0.001 A 
ENDROOT
TORSDOF 0
ENDMDL
