MODEL 1
REMARK minimizedAffinity -4.65859365
REMARK minimizedRMSD -1
REMARK  0 active torsions:
REMARK  status: ('A' for Active; 'I' for Inactive)
ROOT
ATOM      1  C   UNL d   1      -2.668   2.369   1.083  0.00  0.00     0.078 C 
ATOM      2  C1  UNL d   1      -1.546   1.422   0.775  0.00  0.00    -0.077 A 
ATOM      3  C2  UNL d   1      -1.207   0.393   1.661  0.00  0.00    -0.001 A 
ATOM      4  C3  UNL d   1      -0.154  -0.475   1.366  0.00  0.00     0.003 A 
ATOM      5  C4  UNL d   1       0.569  -0.321   0.186  0.00  0.00    -0.005 A 
ATOM      6  C5  UNL d   1       0.241   0.702  -0.702  0.00  0.00     0.003 A 
ATOM      7  C6  UNL d   1      -0.812   1.571  -0.408  0.00  0.00    -0.001 A 
ENDROOT
TORSDOF 0
ENDMDL
