MODEL 1
REMARK minimizedAffinity -4.14702272
REMARK minimizedRMSD -1
REMARK  0 active torsions:
REMARK  status: ('A' for Active; 'I' for Inactive)
ROOT
ATOM      1  C   UNL d   1       0.625   2.155  -1.888  0.00  0.00     0.078 C 
ATOM      2  C1  UNL d   1      -0.053   1.312  -0.850  0.00  0.00    -0.077 A 
ATOM      3  C2  UNL d   1      -1.333   1.633  -0.383  0.00  0.00    -0.001 A 
ATOM      4  C3  UNL d   1      -1.948   0.845   0.591  0.00  0.00     0.003 A 
ATOM      5  C4  UNL d   1      -1.290  -0.270   1.106  0.00  0.00    -0.005 A 
ATOM      6  C5  UNL d   1      -0.015  -0.597   0.649  0.00  0.00     0.003 A 
ATOM      7  C6  UNL d   1       0.602   0.191  -0.324  0.00  0.00    -0.001 A 
ENDROOT
TORSDOF 0
ENDMDL
