MODEL 1
REMARK minimizedAffinity -4.82068348
REMARK minimizedRMSD -1
REMARK  0 active torsions:
REMARK  status: ('A' for Active; 'I' for Inactive)
ROOT
ATOM      1  C   UNL d   1       0.661  -1.446  -1.057  0.00  0.00     0.078 C 
ATOM      2  C1  UNL d   1      -0.079  -0.520  -0.138  0.00  0.00    -0.077 A 
ATOM      3  C2  UNL d   1       0.068  -0.614   1.251  0.00  0.00    -0.001 A 
ATOM      4  C3  UNL d   1      -0.635   0.248   2.095  0.00  0.00     0.003 A 
ATOM      5  C4  UNL d   1      -1.489   1.209   1.558  0.00  0.00    -0.005 A 
ATOM      6  C5  UNL d   1      -1.643   1.309   0.177  0.00  0.00     0.003 A 
ATOM      7  C6  UNL d   1      -0.941   0.447  -0.668  0.00  0.00    -0.001 A 
ENDROOT
TORSDOF 0
ENDMDL
