MODEL 1
REMARK minimizedAffinity -4.478374
REMARK minimizedRMSD -1
REMARK  0 active torsions:
REMARK  status: ('A' for Active; 'I' for Inactive)
ROOT
ATOM      1  C   UNL d   1       0.710  -1.193  -0.626  0.00  0.00     0.078 C 
ATOM      2  C1  UNL d   1      -0.090  -0.237   0.207  0.00  0.00    -0.077 A 
ATOM      3  C2  UNL d   1       0.117  -0.136   1.588  0.00  0.00    -0.001 A 
ATOM      4  C3  UNL d   1      -0.642   0.750   2.353  0.00  0.00     0.003 A 
ATOM      5  C4  UNL d   1      -1.615   1.542   1.746  0.00  0.00    -0.005 A 
ATOM      6  C5  UNL d   1      -1.830   1.447   0.373  0.00  0.00     0.003 A 
ATOM      7  C6  UNL d   1      -1.072   0.561  -0.394  0.00  0.00    -0.001 A 
ENDROOT
TORSDOF 0
ENDMDL
