MODEL 1
REMARK minimizedAffinity -4.96284771
REMARK minimizedRMSD -1
REMARK  0 active torsions:
REMARK  status: ('A' for Active; 'I' for Inactive)
ROOT
ATOM      1  C   UNL d   1       0.787  -0.647  -0.926  0.00  0.00     0.078 C 
ATOM      2  C1  UNL d   1       0.082   0.154   0.127  0.00  0.00    -0.077 A 
ATOM      3  C2  UNL d   1       0.143  -0.216   1.476  0.00  0.00    -0.001 A 
ATOM      4  C3  UNL d   1      -0.527   0.533   2.444  0.00  0.00     0.003 A 
ATOM      5  C4  UNL d   1      -1.264   1.656   2.074  0.00  0.00    -0.005 A 
ATOM      6  C5  UNL d   1      -1.333   2.031   0.734  0.00  0.00     0.003 A 
ATOM      7  C6  UNL d   1      -0.664   1.283  -0.236  0.00  0.00    -0.001 A 
ENDROOT
TORSDOF 0
ENDMDL
