MODEL 1
REMARK minimizedAffinity -2.83208179
REMARK minimizedRMSD -1
REMARK  0 active torsions:
REMARK  status: ('A' for Active; 'I' for Inactive)
ROOT
ATOM      1  C   UNL d   1      -1.371   0.420   2.844  0.00  0.00     0.078 C 
ATOM      2  C1  UNL d   1      -0.576   0.470   1.573  0.00  0.00    -0.077 A 
ATOM      3  C2  UNL d   1      -0.632   1.587   0.731  0.00  0.00    -0.001 A 
ATOM      4  C3  UNL d   1       0.106   1.615  -0.454  0.00  0.00     0.003 A 
ATOM      5  C4  UNL d   1       0.904   0.529  -0.807  0.00  0.00    -0.005 A 
ATOM      6  C5  UNL d   1       0.964  -0.588   0.024  0.00  0.00     0.003 A 
ATOM      7  C6  UNL d   1       0.227  -0.618   1.209  0.00  0.00    -0.001 A 
ENDROOT
TORSDOF 0
ENDMDL
