MODEL 1
REMARK minimizedAffinity -4.45142794
REMARK minimizedRMSD -1
REMARK  0 active torsions:
REMARK  status: ('A' for Active; 'I' for Inactive)
ROOT
ATOM      1  C   UNL d   1      -2.310   2.405   1.525  0.00  0.00     0.078 C 
ATOM      2  C1  UNL d   1      -1.245   1.404   1.188  0.00  0.00    -0.077 A 
ATOM      3  C2  UNL d   1      -0.658   1.376  -0.082  0.00  0.00    -0.001 A 
ATOM      4  C3  UNL d   1       0.325   0.432  -0.385  0.00  0.00     0.003 A 
ATOM      5  C4  UNL d   1       0.728  -0.492   0.577  0.00  0.00    -0.005 A 
ATOM      6  C5  UNL d   1       0.148  -0.473   1.844  0.00  0.00     0.003 A 
ATOM      7  C6  UNL d   1      -0.835   0.470   2.149  0.00  0.00    -0.001 A 
ENDROOT
TORSDOF 0
ENDMDL
