MODEL 1
REMARK minimizedAffinity -3.46860242
REMARK minimizedRMSD -1
REMARK  0 active torsions:
REMARK  status: ('A' for Active; 'I' for Inactive)
ROOT
ATOM      1  C   UNL d   1      -0.721   0.152   1.429  0.00  0.00     0.078 C 
ATOM      2  C1  UNL d   1       0.020  -0.387   0.242  0.00  0.00    -0.077 A 
ATOM      3  C2  UNL d   1       0.258  -1.760   0.103  0.00  0.00    -0.001 A 
ATOM      4  C3  UNL d   1       0.958  -2.247  -1.002  0.00  0.00     0.003 A 
ATOM      5  C4  UNL d   1       1.426  -1.368  -1.977  0.00  0.00    -0.005 A 
ATOM      6  C5  UNL d   1       1.195   0.000  -1.846  0.00  0.00     0.003 A 
ATOM      7  C6  UNL d   1       0.496   0.489  -0.741  0.00  0.00    -0.001 A 
ENDROOT
TORSDOF 0
ENDMDL
