MODEL 1
REMARK minimizedAffinity -3.54534936
REMARK minimizedRMSD -1
REMARK  0 active torsions:
REMARK  status: ('A' for Active; 'I' for Inactive)
ROOT
ATOM      1  C   UNL d   1      -2.121   1.747   2.027  0.00  0.00     0.078 C 
ATOM      2  C1  UNL d   1      -1.200   0.762   1.371  0.00  0.00    -0.077 A 
ATOM      3  C2  UNL d   1      -0.712  -0.347   2.072  0.00  0.00    -0.001 A 
ATOM      4  C3  UNL d   1       0.152  -1.251   1.452  0.00  0.00     0.003 A 
ATOM      5  C4  UNL d   1       0.538  -1.053   0.127  0.00  0.00    -0.005 A 
ATOM      6  C5  UNL d   1       0.060   0.049  -0.578  0.00  0.00     0.003 A 
ATOM      7  C6  UNL d   1      -0.805   0.954   0.041  0.00  0.00    -0.001 A 
ENDROOT
TORSDOF 0
ENDMDL
