MODEL 1
REMARK minimizedAffinity -4.13113165
REMARK minimizedRMSD -1
REMARK  0 active torsions:
REMARK  status: ('A' for Active; 'I' for Inactive)
ROOT
ATOM      1  C   UNL d   1       1.243  -0.587  -0.569  0.00  0.00     0.078 C 
ATOM      2  C1  UNL d   1       0.281  -0.087   0.467  0.00  0.00    -0.077 A 
ATOM      3  C2  UNL d   1       0.540  -0.255   1.833  0.00  0.00    -0.001 A 
ATOM      4  C3  UNL d   1      -0.370   0.207   2.786  0.00  0.00     0.003 A 
ATOM      5  C4  UNL d   1      -1.545   0.837   2.383  0.00  0.00    -0.005 A 
ATOM      6  C5  UNL d   1      -1.813   1.006   1.026  0.00  0.00     0.003 A 
ATOM      7  C6  UNL d   1      -0.904   0.546   0.072  0.00  0.00    -0.001 A 
ENDROOT
TORSDOF 0
ENDMDL
