MODEL 1
REMARK minimizedAffinity -3.68742108
REMARK minimizedRMSD -1
REMARK  0 active torsions:
REMARK  status: ('A' for Active; 'I' for Inactive)
ROOT
ATOM      1  C   UNL d   1      -2.156   1.925   1.229  0.00  0.00     0.078 C 
ATOM      2  C1  UNL d   1      -1.004   1.249   0.548  0.00  0.00    -0.077 A 
ATOM      3  C2  UNL d   1      -0.510   0.024   1.012  0.00  0.00    -0.001 A 
ATOM      4  C3  UNL d   1       0.569  -0.589   0.375  0.00  0.00     0.003 A 
ATOM      5  C4  UNL d   1       1.166   0.017  -0.730  0.00  0.00    -0.005 A 
ATOM      6  C5  UNL d   1       0.683   1.237  -1.197  0.00  0.00     0.003 A 
ATOM      7  C6  UNL d   1      -0.397   1.852  -0.561  0.00  0.00    -0.001 A 
ENDROOT
TORSDOF 0
ENDMDL
