MODEL 1
REMARK minimizedAffinity -4.41163921
REMARK minimizedRMSD -1
REMARK  0 active torsions:
REMARK  status: ('A' for Active; 'I' for Inactive)
ROOT
ATOM      1  C   UNL d   1       0.718   0.385  -0.990  0.00  0.00     0.078 C 
ATOM      2  C1  UNL d   1      -0.295   0.625   0.090  0.00  0.00    -0.077 A 
ATOM      3  C2  UNL d   1      -0.154   0.039   1.354  0.00  0.00    -0.001 A 
ATOM      4  C3  UNL d   1      -1.109   0.263   2.347  0.00  0.00     0.003 A 
ATOM      5  C4  UNL d   1      -2.213   1.073   2.085  0.00  0.00    -0.005 A 
ATOM      6  C5  UNL d   1      -2.362   1.659   0.830  0.00  0.00     0.003 A 
ATOM      7  C6  UNL d   1      -1.408   1.436  -0.164  0.00  0.00    -0.001 A 
ENDROOT
TORSDOF 0
ENDMDL
