MODEL 1
REMARK minimizedAffinity -4.88065243
REMARK minimizedRMSD -1
REMARK  0 active torsions:
REMARK  status: ('A' for Active; 'I' for Inactive)
ROOT
ATOM      1  C   UNL d   1       0.289  -0.917  -0.343  0.00  0.00     0.078 C 
ATOM      2  C1  UNL d   1      -0.530   0.034   0.477  0.00  0.00    -0.077 A 
ATOM      3  C2  UNL d   1      -0.677  -0.146   1.858  0.00  0.00    -0.001 A 
ATOM      4  C3  UNL d   1      -1.451   0.741   2.607  0.00  0.00     0.003 A 
ATOM      5  C4  UNL d   1      -2.086   1.814   1.985  0.00  0.00    -0.005 A 
ATOM      6  C5  UNL d   1      -1.947   2.001   0.611  0.00  0.00     0.003 A 
ATOM      7  C6  UNL d   1      -1.173   1.114  -0.140  0.00  0.00    -0.001 A 
ENDROOT
TORSDOF 0
ENDMDL
