MODEL 1
REMARK minimizedAffinity -3.78374076
REMARK minimizedRMSD -1
REMARK  0 active torsions:
REMARK  status: ('A' for Active; 'I' for Inactive)
ROOT
ATOM      1  C   UNL d   1       0.701  -0.872  -0.763  0.00  0.00     0.078 C 
ATOM      2  C1  UNL d   1      -0.148  -0.093   0.196  0.00  0.00    -0.077 A 
ATOM      3  C2  UNL d   1      -0.191  -0.425   1.556  0.00  0.00    -0.001 A 
ATOM      4  C3  UNL d   1      -0.994   0.303   2.435  0.00  0.00     0.003 A 
ATOM      5  C4  UNL d   1      -1.761   1.367   1.965  0.00  0.00    -0.005 A 
ATOM      6  C5  UNL d   1      -1.727   1.703   0.613  0.00  0.00     0.003 A 
ATOM      7  C6  UNL d   1      -0.925   0.976  -0.268  0.00  0.00    -0.001 A 
ENDROOT
TORSDOF 0
ENDMDL
