MODEL 1
REMARK minimizedAffinity 10.4767618
REMARK minimizedRMSD -1
REMARK  1 active torsions:
REMARK  status: ('A' for Active; 'I' for Inactive)
REMARK    1  A    between atoms: C3_4  and  O_7 
ROOT
ATOM      1  C   UNL d   1      -0.045  -2.575  -0.436  0.00  0.00    -0.033 A 
ATOM      2  C1  UNL d   1       0.642  -2.810  -1.628  0.00  0.00     0.039 A 
ATOM      3  C2  UNL d   1      -0.016  -2.678  -2.853  0.00  0.00    -0.080 A 
ATOM      4  C3  UNL d   1      -1.359  -2.311  -2.871  0.00  0.00     0.150 A 
ATOM      5  C4  UNL d   1      -2.048  -2.071  -1.687  0.00  0.00    -0.007 A 
ATOM      6  C5  UNL d   1      -1.390  -2.204  -0.465  0.00  0.00     0.039 A 
ENDROOT
BRANCH   4   7
ATOM      7  O   UNL d   1      -2.044  -2.174  -4.042  0.00  0.00    -0.526 OA
ATOM      8  H5  UNL d   1      -1.448  -2.399  -4.775  0.00  0.00     0.418 HD
ENDBRANCH   4   7
TORSDOF 1
ENDMDL
