MODEL 1
REMARK minimizedAffinity 8.08610725
REMARK minimizedRMSD -1
REMARK  1 active torsions:
REMARK  status: ('A' for Active; 'I' for Inactive)
REMARK    1  A    between atoms: C3_4  and  O_7 
ROOT
ATOM      1  C   UNL d   1       1.132   5.661  -2.201  0.00  0.00    -0.033 A 
ATOM      2  C1  UNL d   1       2.063   5.929  -3.206  0.00  0.00     0.039 A 
ATOM      3  C2  UNL d   1       3.430   5.880  -2.925  0.00  0.00    -0.080 A 
ATOM      4  C3  UNL d   1       3.851   5.561  -1.637  0.00  0.00     0.150 A 
ATOM      5  C4  UNL d   1       2.929   5.290  -0.632  0.00  0.00    -0.007 A 
ATOM      6  C5  UNL d   1       1.565   5.340  -0.914  0.00  0.00     0.039 A 
ENDROOT
BRANCH   4   7
ATOM      7  O   UNL d   1       5.174   5.506  -1.314  0.00  0.00    -0.526 OA
ATOM      8  H5  UNL d   1       5.694   5.744  -2.100  0.00  0.00     0.418 HD
ENDBRANCH   4   7
TORSDOF 1
ENDMDL
