MODEL 1
REMARK minimizedAffinity 13.7854261
REMARK minimizedRMSD -1
REMARK  1 active torsions:
REMARK  status: ('A' for Active; 'I' for Inactive)
REMARK    1  A    between atoms: C3_4  and  O_7 
ROOT
ATOM      1  C   UNL d   1       1.928  -5.101  -2.962  0.00  0.00    -0.033 A 
ATOM      2  C1  UNL d   1       0.693  -5.231  -2.324  0.00  0.00     0.039 A 
ATOM      3  C2  UNL d   1      -0.149  -4.124  -2.195  0.00  0.00    -0.080 A 
ATOM      4  C3  UNL d   1       0.256  -2.895  -2.708  0.00  0.00     0.150 A 
ATOM      5  C4  UNL d   1       1.483  -2.759  -3.349  0.00  0.00    -0.007 A 
ATOM      6  C5  UNL d   1       2.322  -3.866  -3.476  0.00  0.00     0.039 A 
ENDROOT
BRANCH   4   7
ATOM      7  O   UNL d   1      -0.529  -1.786  -2.602  0.00  0.00    -0.526 OA
ATOM      8  H5  UNL d   1      -1.333  -2.023  -2.111  0.00  0.00     0.418 HD
ENDBRANCH   4   7
TORSDOF 1
ENDMDL
