MODEL 1
REMARK minimizedAffinity 6.97951555
REMARK minimizedRMSD -1
REMARK  1 active torsions:
REMARK  status: ('A' for Active; 'I' for Inactive)
REMARK    1  A    between atoms: C3_4  and  O_7 
ROOT
ATOM      1  C   UNL d   1      -1.499  -2.846  -4.945  0.00  0.00    -0.033 A 
ATOM      2  C1  UNL d   1      -1.504  -3.762  -6.000  0.00  0.00     0.039 A 
ATOM      3  C2  UNL d   1      -2.404  -4.829  -5.995  0.00  0.00    -0.080 A 
ATOM      4  C3  UNL d   1      -3.292  -4.970  -4.933  0.00  0.00     0.150 A 
ATOM      5  C4  UNL d   1      -3.295  -4.059  -3.881  0.00  0.00    -0.007 A 
ATOM      6  C5  UNL d   1      -2.396  -2.994  -3.887  0.00  0.00     0.039 A 
ENDROOT
BRANCH   4   7
ATOM      7  O   UNL d   1      -4.185  -5.998  -4.882  0.00  0.00    -0.526 OA
ATOM      8  H5  UNL d   1      -4.049  -6.563  -5.660  0.00  0.00     0.418 HD
ENDBRANCH   4   7
TORSDOF 1
ENDMDL
