MODEL 1
REMARK minimizedAffinity 4.56874561
REMARK minimizedRMSD -1
REMARK  1 active torsions:
REMARK  status: ('A' for Active; 'I' for Inactive)
REMARK    1  A    between atoms: C3_4  and  O_7 
ROOT
ATOM      1  C   UNL d   1      -2.430  -3.277  -5.999  0.00  0.00    -0.033 A 
ATOM      2  C1  UNL d   1      -3.255  -3.122  -4.884  0.00  0.00     0.039 A 
ATOM      3  C2  UNL d   1      -2.796  -2.425  -3.764  0.00  0.00    -0.080 A 
ATOM      4  C3  UNL d   1      -1.512  -1.888  -3.774  0.00  0.00     0.150 A 
ATOM      5  C4  UNL d   1      -0.686  -2.034  -4.884  0.00  0.00    -0.007 A 
ATOM      6  C5  UNL d   1      -1.146  -2.731  -6.000  0.00  0.00     0.039 A 
ENDROOT
BRANCH   4   7
ATOM      7  O   UNL d   1      -1.017  -1.204  -2.703  0.00  0.00    -0.526 OA
ATOM      8  H5  UNL d   1      -1.688  -1.207  -2.000  0.00  0.00     0.418 HD
ENDBRANCH   4   7
TORSDOF 1
ENDMDL
