MODEL 1
REMARK minimizedAffinity 12.4665661
REMARK minimizedRMSD -1
REMARK  1 active torsions:
REMARK  status: ('A' for Active; 'I' for Inactive)
REMARK    1  A    between atoms: C3_4  and  O_7 
ROOT
ATOM      1  C   UNL d   1       2.822  -2.122   3.284  0.00  0.00    -0.033 A 
ATOM      2  C1  UNL d   1       3.156  -1.612   4.541  0.00  0.00     0.039 A 
ATOM      3  C2  UNL d   1       3.993  -2.339   5.390  0.00  0.00    -0.080 A 
ATOM      4  C3  UNL d   1       4.488  -3.570   4.972  0.00  0.00     0.150 A 
ATOM      5  C4  UNL d   1       4.163  -4.082   3.720  0.00  0.00    -0.007 A 
ATOM      6  C5  UNL d   1       3.326  -3.356   2.873  0.00  0.00     0.039 A 
ENDROOT
BRANCH   4   7
ATOM      7  O   UNL d   1       5.305  -4.318   5.768  0.00  0.00    -0.526 OA
ATOM      8  H5  UNL d   1       5.420  -3.852   6.613  0.00  0.00     0.418 HD
ENDBRANCH   4   7
TORSDOF 1
ENDMDL
