MODEL 1
REMARK minimizedAffinity 10.0727844
REMARK minimizedRMSD -1
REMARK  1 active torsions:
REMARK  status: ('A' for Active; 'I' for Inactive)
REMARK    1  A    between atoms: C3_4  and  O_7 
ROOT
ATOM      1  C   UNL d   1      -0.417  -2.231  -2.400  0.00  0.00    -0.033 A 
ATOM      2  C1  UNL d   1      -0.404  -1.092  -1.592  0.00  0.00     0.039 A 
ATOM      3  C2  UNL d   1      -0.828  -1.171  -0.264  0.00  0.00    -0.080 A 
ATOM      4  C3  UNL d   1      -1.261  -2.392   0.244  0.00  0.00     0.150 A 
ATOM      5  C4  UNL d   1      -1.273  -3.532  -0.554  0.00  0.00    -0.007 A 
ATOM      6  C5  UNL d   1      -0.850  -3.451  -1.880  0.00  0.00     0.039 A 
ENDROOT
BRANCH   4   7
ATOM      7  O   UNL d   1      -1.689  -2.517   1.532  0.00  0.00    -0.526 OA
ATOM      8  H5  UNL d   1      -1.653  -1.643   1.954  0.00  0.00     0.418 HD
ENDBRANCH   4   7
TORSDOF 1
ENDMDL
