MODEL 1
REMARK minimizedAffinity 8.4963131
REMARK minimizedRMSD -1
REMARK  1 active torsions:
REMARK  status: ('A' for Active; 'I' for Inactive)
REMARK    1  A    between atoms: C3_4  and  O_7 
ROOT
ATOM      1  C   UNL d   1      -0.282  -2.961   0.022  0.00  0.00    -0.033 A 
ATOM      2  C1  UNL d   1       0.531  -3.349  -1.045  0.00  0.00     0.039 A 
ATOM      3  C2  UNL d   1       0.108  -3.138  -2.359  0.00  0.00    -0.080 A 
ATOM      4  C3  UNL d   1      -1.127  -2.539  -2.592  0.00  0.00     0.150 A 
ATOM      5  C4  UNL d   1      -1.939  -2.146  -1.534  0.00  0.00    -0.007 A 
ATOM      6  C5  UNL d   1      -1.516  -2.358  -0.223  0.00  0.00     0.039 A 
ENDROOT
BRANCH   4   7
ATOM      7  O   UNL d   1      -1.584  -2.317  -3.857  0.00  0.00    -0.526 OA
ATOM      8  H5  UNL d   1      -0.930  -2.665  -4.486  0.00  0.00     0.418 HD
ENDBRANCH   4   7
TORSDOF 1
ENDMDL
