MODEL 1
REMARK minimizedAffinity 6.74470615
REMARK minimizedRMSD -1
REMARK  1 active torsions:
REMARK  status: ('A' for Active; 'I' for Inactive)
REMARK    1  A    between atoms: C3_4  and  O_7 
ROOT
ATOM      1  C   UNL d   1      -0.315  -2.847   0.006  0.00  0.00    -0.033 A 
ATOM      2  C1  UNL d   1       0.314  -3.574  -1.007  0.00  0.00     0.039 A 
ATOM      3  C2  UNL d   1      -0.140  -3.478  -2.323  0.00  0.00    -0.080 A 
ATOM      4  C3  UNL d   1      -1.222  -2.652  -2.614  0.00  0.00     0.150 A 
ATOM      5  C4  UNL d   1      -1.851  -1.921  -1.611  0.00  0.00    -0.007 A 
ATOM      6  C5  UNL d   1      -1.396  -2.019  -0.297  0.00  0.00     0.039 A 
ENDROOT
BRANCH   4   7
ATOM      7  O   UNL d   1      -1.705  -2.529  -3.883  0.00  0.00    -0.526 OA
ATOM      8  H5  UNL d   1      -1.191  -3.113  -4.465  0.00  0.00     0.418 HD
ENDBRANCH   4   7
TORSDOF 1
ENDMDL
