MODEL 1
REMARK minimizedAffinity -2.48493052
REMARK minimizedRMSD -1
REMARK  1 active torsions:
REMARK  status: ('A' for Active; 'I' for Inactive)
REMARK    1  A    between atoms: C3_4  and  O_7 
ROOT
ATOM      1  C   UNL d   1       6.000   4.661  -5.950  0.00  0.00    -0.033 A 
ATOM      2  C1  UNL d   1       5.995   5.911  -5.328  0.00  0.00     0.039 A 
ATOM      3  C2  UNL d   1       5.958   5.999  -3.935  0.00  0.00    -0.080 A 
ATOM      4  C3  UNL d   1       5.927   4.831  -3.177  0.00  0.00     0.150 A 
ATOM      5  C4  UNL d   1       5.936   3.583  -3.791  0.00  0.00    -0.007 A 
ATOM      6  C5  UNL d   1       5.972   3.497  -5.182  0.00  0.00     0.039 A 
ENDROOT
BRANCH   4   7
ATOM      7  O   UNL d   1       5.886   4.867  -1.815  0.00  0.00    -0.526 OA
ATOM      8  H5  UNL d   1       5.855   5.796  -1.532  0.00  0.00     0.418 HD
ENDBRANCH   4   7
TORSDOF 1
ENDMDL
