MODEL 1
REMARK minimizedAffinity 9.26257038
REMARK minimizedRMSD -1
REMARK  1 active torsions:
REMARK  status: ('A' for Active; 'I' for Inactive)
REMARK    1  A    between atoms: C3_4  and  O_7 
ROOT
ATOM      1  C   UNL d   1       4.230  -5.687   4.613  0.00  0.00    -0.033 A 
ATOM      2  C1  UNL d   1       5.178  -5.660   5.638  0.00  0.00     0.039 A 
ATOM      3  C2  UNL d   1       5.783  -4.455   6.000  0.00  0.00    -0.080 A 
ATOM      4  C3  UNL d   1       5.432  -3.286   5.331  0.00  0.00     0.150 A 
ATOM      5  C4  UNL d   1       4.485  -3.305   4.311  0.00  0.00    -0.007 A 
ATOM      6  C5  UNL d   1       3.883  -4.509   3.951  0.00  0.00     0.039 A 
ENDROOT
BRANCH   4   7
ATOM      7  O   UNL d   1       5.999  -2.086   5.645  0.00  0.00    -0.526 OA
ATOM      8  H5  UNL d   1       6.655  -2.231   6.347  0.00  0.00     0.418 HD
ENDBRANCH   4   7
TORSDOF 1
ENDMDL
