MODEL 1
REMARK minimizedAffinity 7.57877541
REMARK minimizedRMSD -1
REMARK  1 active torsions:
REMARK  status: ('A' for Active; 'I' for Inactive)
REMARK    1  A    between atoms: C3_4  and  O_7 
ROOT
ATOM      1  C   UNL d   1       4.132  -2.417   4.560  0.00  0.00    -0.033 A 
ATOM      2  C1  UNL d   1       3.877  -3.576   3.824  0.00  0.00     0.039 A 
ATOM      3  C2  UNL d   1       4.496  -4.777   4.174  0.00  0.00    -0.080 A 
ATOM      4  C3  UNL d   1       5.367  -4.807   5.260  0.00  0.00     0.150 A 
ATOM      5  C4  UNL d   1       5.623  -3.657   5.999  0.00  0.00    -0.007 A 
ATOM      6  C5  UNL d   1       5.004  -2.457   5.648  0.00  0.00     0.039 A 
ENDROOT
BRANCH   4   7
ATOM      7  O   UNL d   1       5.998  -5.955   5.636  0.00  0.00    -0.526 OA
ATOM      8  H5  UNL d   1       5.748  -6.661   5.017  0.00  0.00     0.418 HD
ENDBRANCH   4   7
TORSDOF 1
ENDMDL
