MODEL 1
REMARK minimizedAffinity 13.7709827
REMARK minimizedRMSD -1
REMARK  1 active torsions:
REMARK  status: ('A' for Active; 'I' for Inactive)
REMARK    1  A    between atoms: C3_4  and  O_7 
ROOT
ATOM      1  C   UNL d   1      -0.876  -1.945  -0.424  0.00  0.00    -0.033 A 
ATOM      2  C1  UNL d   1      -0.834  -0.586  -0.744  0.00  0.00     0.039 A 
ATOM      3  C2  UNL d   1      -1.856   0.264  -0.319  0.00  0.00    -0.080 A 
ATOM      4  C3  UNL d   1      -2.913  -0.255   0.424  0.00  0.00     0.150 A 
ATOM      5  C4  UNL d   1      -2.959  -1.607   0.749  0.00  0.00    -0.007 A 
ATOM      6  C5  UNL d   1      -1.937  -2.455   0.324  0.00  0.00     0.039 A 
ENDROOT
BRANCH   4   7
ATOM      7  O   UNL d   1      -3.936   0.535   0.856  0.00  0.00    -0.526 OA
ATOM      8  H5  UNL d   1      -3.785   1.439   0.533  0.00  0.00     0.418 HD
ENDBRANCH   4   7
TORSDOF 1
ENDMDL
