MODEL 1
REMARK minimizedAffinity 4.77065992
REMARK minimizedRMSD -1
REMARK  1 active torsions:
REMARK  status: ('A' for Active; 'I' for Inactive)
REMARK    1  A    between atoms: C3_4  and  O_7 
ROOT
ATOM      1  C   UNL d   1       5.635  -5.463   6.000  0.00  0.00    -0.033 A 
ATOM      2  C1  UNL d   1       4.561  -5.897   5.220  0.00  0.00     0.039 A 
ATOM      3  C2  UNL d   1       3.847  -4.983   4.442  0.00  0.00    -0.080 A 
ATOM      4  C3  UNL d   1       4.217  -3.641   4.451  0.00  0.00     0.150 A 
ATOM      5  C4  UNL d   1       5.289  -3.203   5.223  0.00  0.00    -0.007 A 
ATOM      6  C5  UNL d   1       6.000  -4.116   6.000  0.00  0.00     0.039 A 
ENDROOT
BRANCH   4   7
ATOM      7  O   UNL d   1       3.548  -2.712   3.712  0.00  0.00    -0.526 OA
ATOM      8  H5  UNL d   1       2.815  -3.155   3.253  0.00  0.00     0.418 HD
ENDBRANCH   4   7
TORSDOF 1
ENDMDL
