MODEL 1
REMARK minimizedAffinity 4.81168222
REMARK minimizedRMSD -1
REMARK  1 active torsions:
REMARK  status: ('A' for Active; 'I' for Inactive)
REMARK    1  A    between atoms: C3_4  and  O_7 
ROOT
ATOM      1  C   UNL d   1       5.993   5.829  -3.024  0.00  0.00    -0.033 A 
ATOM      2  C1  UNL d   1       5.997   4.676  -2.237  0.00  0.00     0.039 A 
ATOM      3  C2  UNL d   1       6.000   3.416  -2.840  0.00  0.00    -0.080 A 
ATOM      4  C3  UNL d   1       6.000   3.324  -4.229  0.00  0.00     0.150 A 
ATOM      5  C4  UNL d   1       6.000   4.469  -5.019  0.00  0.00    -0.007 A 
ATOM      6  C5  UNL d   1       5.996   5.725  -4.415  0.00  0.00     0.039 A 
ENDROOT
BRANCH   4   7
ATOM      7  O   UNL d   1       5.998   2.117  -4.863  0.00  0.00    -0.526 OA
ATOM      8  H5  UNL d   1       5.968   1.416  -4.190  0.00  0.00     0.418 HD
ENDBRANCH   4   7
TORSDOF 1
ENDMDL
