MODEL 1
REMARK minimizedAffinity 2.5111897
REMARK minimizedRMSD -1
REMARK  1 active torsions:
REMARK  status: ('A' for Active; 'I' for Inactive)
REMARK    1  A    between atoms: C3_4  and  O_7 
ROOT
ATOM      1  C   UNL d   1       1.906   4.822  -2.992  0.00  0.00    -0.033 A 
ATOM      2  C1  UNL d   1       2.423   4.194  -1.858  0.00  0.00     0.039 A 
ATOM      3  C2  UNL d   1       3.728   4.466  -1.441  0.00  0.00    -0.080 A 
ATOM      4  C3  UNL d   1       4.503   5.367  -2.165  0.00  0.00     0.150 A 
ATOM      5  C4  UNL d   1       3.993   5.999  -3.294  0.00  0.00    -0.007 A 
ATOM      6  C5  UNL d   1       2.690   5.726  -3.710  0.00  0.00     0.039 A 
ENDROOT
BRANCH   4   7
ATOM      7  O   UNL d   1       5.783   5.660  -1.799  0.00  0.00    -0.526 OA
ATOM      8  H5  UNL d   1       6.010   5.128  -1.019  0.00  0.00     0.418 HD
ENDBRANCH   4   7
TORSDOF 1
ENDMDL
