MODEL 1
REMARK minimizedAffinity 11.9920406
REMARK minimizedRMSD -1
REMARK  1 active torsions:
REMARK  status: ('A' for Active; 'I' for Inactive)
REMARK    1  A    between atoms: C3_4  and  O_7 
ROOT
ATOM      1  C   UNL d   1       3.922   5.996  -2.119  0.00  0.00    -0.033 A 
ATOM      2  C1  UNL d   1       3.216   5.620  -0.975  0.00  0.00     0.039 A 
ATOM      3  C2  UNL d   1       3.899   5.123   0.137  0.00  0.00    -0.080 A 
ATOM      4  C3  UNL d   1       5.286   5.010   0.093  0.00  0.00     0.150 A 
ATOM      5  C4  UNL d   1       5.996   5.387  -1.041  0.00  0.00    -0.007 A 
ATOM      6  C5  UNL d   1       5.313   5.881  -2.151  0.00  0.00     0.039 A 
ENDROOT
BRANCH   4   7
ATOM      7  O   UNL d   1       5.995   4.526   1.152  0.00  0.00    -0.526 OA
ATOM      8  H5  UNL d   1       5.370   4.279   1.854  0.00  0.00     0.418 HD
ENDBRANCH   4   7
TORSDOF 1
ENDMDL
