MODEL 1
REMARK minimizedAffinity 4.53973389
REMARK minimizedRMSD -1
REMARK  1 active torsions:
REMARK  status: ('A' for Active; 'I' for Inactive)
REMARK    1  A    between atoms: C3_4  and  O_7 
ROOT
ATOM      1  C   UNL d   1       6.000   3.934  -4.831  0.00  0.00    -0.033 A 
ATOM      2  C1  UNL d   1       5.995   3.166  -3.664  0.00  0.00     0.039 A 
ATOM      3  C2  UNL d   1       5.993   3.791  -2.416  0.00  0.00    -0.080 A 
ATOM      4  C3  UNL d   1       5.995   5.181  -2.347  0.00  0.00     0.150 A 
ATOM      5  C4  UNL d   1       5.995   5.952  -3.505  0.00  0.00    -0.007 A 
ATOM      6  C5  UNL d   1       5.999   5.327  -4.751  0.00  0.00     0.039 A 
ENDROOT
BRANCH   4   7
ATOM      7  O   UNL d   1       5.997   5.836  -1.151  0.00  0.00    -0.526 OA
ATOM      8  H5  UNL d   1       6.026   5.176  -0.439  0.00  0.00     0.418 HD
ENDBRANCH   4   7
TORSDOF 1
ENDMDL
