MODEL 1
REMARK minimizedAffinity 6.65950632
REMARK minimizedRMSD -1
REMARK  0 active torsions:
REMARK  status: ('A' for Active; 'I' for Inactive)
ROOT
ATOM      1  C4' PXY d   1       1.761   3.026   3.034  0.00  0.00     0.077 C 
ATOM      2  C1' PXY d   1      -3.570   2.455   0.874  0.00  0.00     0.077 C 
ATOM      3  C1  PXY d   1      -2.177   2.613   1.450  0.00  0.00    -0.082 A 
ATOM      4  C2  PXY d   1      -1.123   2.365   0.689  0.00  0.00     0.003 A 
ATOM      5  C3  PXY d   1       0.144   2.472   1.202  0.00  0.00     0.003 A 
ATOM      6  C4  PXY d   1       0.336   2.888   2.493  0.00  0.00    -0.082 A 
ATOM      7  C5  PXY d   1      -0.734   3.153   3.272  0.00  0.00     0.003 A 
ATOM      8  C6  PXY d   1      -2.013   2.999   2.744  0.00  0.00     0.003 A 
ENDROOT
TORSDOF 0
ENDMDL
