MODEL 1
REMARK minimizedAffinity -2.42570329
REMARK minimizedRMSD -1
REMARK  0 active torsions:
REMARK  status: ('A' for Active; 'I' for Inactive)
ROOT
ATOM      1  C4' PXY d   1       3.006   2.999   2.497  0.00  0.00     0.077 C 
ATOM      2  C1' PXY d   1      -1.747   0.754   0.094  0.00  0.00     0.077 C 
ATOM      3  C1  PXY d   1      -0.506   1.355   0.723  0.00  0.00    -0.082 A 
ATOM      4  C2  PXY d   1       0.644   0.704   0.651  0.00  0.00     0.003 A 
ATOM      5  C3  PXY d   1       1.770   1.218   1.242  0.00  0.00     0.003 A 
ATOM      6  C4  PXY d   1       1.729   2.435   1.868  0.00  0.00    -0.082 A 
ATOM      7  C5  PXY d   1       0.562   3.110   1.937  0.00  0.00     0.003 A 
ATOM      8  C6  PXY d   1      -0.578   2.552   1.366  0.00  0.00     0.003 A 
ENDROOT
TORSDOF 0
ENDMDL
