MODEL 1
REMARK minimizedAffinity 0.537984371
REMARK minimizedRMSD -1
REMARK  0 active torsions:
REMARK  status: ('A' for Active; 'I' for Inactive)
ROOT
ATOM      1  C4' PXY d   1       3.975   2.398   2.234  0.00  0.00     0.077 C 
ATOM      2  C1' PXY d   1      -1.467   1.547   0.481  0.00  0.00     0.077 C 
ATOM      3  C1  PXY d   1      -0.043   1.783   0.942  0.00  0.00    -0.082 A 
ATOM      4  C2  PXY d   1       0.909   0.935   0.586  0.00  0.00     0.003 A 
ATOM      5  C3  PXY d   1       2.197   1.116   1.021  0.00  0.00     0.003 A 
ATOM      6  C4  PXY d   1       2.524   2.204   1.784  0.00  0.00    -0.082 A 
ATOM      7  C5  PXY d   1       1.561   3.080   2.142  0.00  0.00     0.003 A 
ATOM      8  C6  PXY d   1       0.252   2.856   1.725  0.00  0.00     0.003 A 
ENDROOT
TORSDOF 0
ENDMDL
