MODEL 1
REMARK minimizedAffinity 1.51087701
REMARK minimizedRMSD -1
REMARK  0 active torsions:
REMARK  status: ('A' for Active; 'I' for Inactive)
ROOT
ATOM      1  C4' PXY d   1       6.000   3.297   3.074  0.00  0.00     0.077 C 
ATOM      2  C1' PXY d   1       0.489   2.784   1.406  0.00  0.00     0.077 C 
ATOM      3  C1  PXY d   1       1.936   2.906   1.842  0.00  0.00    -0.082 A 
ATOM      4  C2  PXY d   1       2.310   3.931   2.590  0.00  0.00     0.003 A 
ATOM      5  C3  PXY d   1       3.621   4.074   2.966  0.00  0.00     0.003 A 
ATOM      6  C4  PXY d   1       4.548   3.128   2.618  0.00  0.00    -0.082 A 
ATOM      7  C5  PXY d   1       4.172   2.073   1.864  0.00  0.00     0.003 A 
ATOM      8  C6  PXY d   1       2.845   1.969   1.458  0.00  0.00     0.003 A 
ENDROOT
TORSDOF 0
ENDMDL
