MODEL 1
REMARK minimizedAffinity 5.19458532
REMARK minimizedRMSD -1
REMARK  0 active torsions:
REMARK  status: ('A' for Active; 'I' for Inactive)
ROOT
ATOM      1  C4' PXY d   1       2.294   2.606   2.123  0.00  0.00     0.077 C 
ATOM      2  C1' PXY d   1       2.842  -0.744  -2.555  0.00  0.00     0.077 C 
ATOM      3  C1  PXY d   1       2.711   0.132  -1.325  0.00  0.00    -0.082 A 
ATOM      4  C2  PXY d   1       1.513   0.363  -0.811  0.00  0.00     0.003 A 
ATOM      5  C3  PXY d   1       1.373   1.179   0.282  0.00  0.00     0.003 A 
ATOM      6  C4  PXY d   1       2.475   1.720   0.888  0.00  0.00    -0.082 A 
ATOM      7  C5  PXY d   1       3.701   1.481   0.376  0.00  0.00     0.003 A 
ATOM      8  C6  PXY d   1       3.818   0.683  -0.759  0.00  0.00     0.003 A 
ENDROOT
TORSDOF 0
ENDMDL
