MODEL 1
REMARK minimizedAffinity 3.43146443
REMARK minimizedRMSD -1
REMARK  0 active torsions:
REMARK  status: ('A' for Active; 'I' for Inactive)
ROOT
ATOM      1  C4' PXY d   1       1.898   1.012   0.502  0.00  0.00     0.077 C 
ATOM      2  C1' PXY d   1       5.992   4.185   3.067  0.00  0.00     0.077 C 
ATOM      3  C1  PXY d   1       4.912   3.353   2.406  0.00  0.00    -0.082 A 
ATOM      4  C2  PXY d   1       5.207   2.624   1.342  0.00  0.00     0.003 A 
ATOM      5  C3  PXY d   1       4.235   1.890   0.712  0.00  0.00     0.003 A 
ATOM      6  C4  PXY d   1       2.959   1.860   1.208  0.00  0.00    -0.082 A 
ATOM      7  C5  PXY d   1       2.652   2.593   2.300  0.00  0.00     0.003 A 
ATOM      8  C6  PXY d   1       3.644   3.364   2.900  0.00  0.00     0.003 A 
ENDROOT
TORSDOF 0
ENDMDL
