MODEL 1
REMARK minimizedAffinity 4.99887037
REMARK minimizedRMSD -1
REMARK  0 active torsions:
REMARK  status: ('A' for Active; 'I' for Inactive)
ROOT
ATOM      1  C4' PXY d   1       1.794   0.710  -0.411  0.00  0.00     0.077 C 
ATOM      2  C1' PXY d   1      -3.569   0.630   1.746  0.00  0.00     0.077 C 
ATOM      3  C1  PXY d   1      -2.165   0.663   1.175  0.00  0.00    -0.082 A 
ATOM      4  C2  PXY d   1      -1.533  -0.473   0.927  0.00  0.00     0.003 A 
ATOM      5  C3  PXY d   1      -0.251  -0.461   0.441  0.00  0.00     0.003 A 
ATOM      6  C4  PXY d   1       0.372   0.725   0.156  0.00  0.00    -0.082 A 
ATOM      7  C5  PXY d   1      -0.270   1.887   0.397  0.00  0.00     0.003 A 
ATOM      8  C6  PXY d   1      -1.556   1.855   0.929  0.00  0.00     0.003 A 
ENDROOT
TORSDOF 0
ENDMDL
