MODEL 1
REMARK minimizedAffinity 8.55953407
REMARK minimizedRMSD -1
REMARK  0 active torsions:
REMARK  status: ('A' for Active; 'I' for Inactive)
ROOT
ATOM      1  C4' PXY d   1      -0.606  -3.340  -2.304  0.00  0.00     0.077 C 
ATOM      2  C1' PXY d   1      -4.658  -6.000   0.846  0.00  0.00     0.077 C 
ATOM      3  C1  PXY d   1      -3.593  -5.294   0.029  0.00  0.00    -0.082 A 
ATOM      4  C2  PXY d   1      -3.603  -5.400  -1.289  0.00  0.00     0.003 A 
ATOM      5  C3  PXY d   1      -2.629  -4.795  -2.041  0.00  0.00     0.003 A 
ATOM      6  C4  PXY d   1      -1.667  -4.028  -1.440  0.00  0.00    -0.082 A 
ATOM      7  C5  PXY d   1      -1.656  -3.906  -0.096  0.00  0.00     0.003 A 
ATOM      8  C6  PXY d   1      -2.629  -4.563   0.652  0.00  0.00     0.003 A 
ENDROOT
TORSDOF 0
ENDMDL
