MODEL 1
REMARK minimizedAffinity 6.07527971
REMARK minimizedRMSD -1
REMARK  0 active torsions:
REMARK  status: ('A' for Active; 'I' for Inactive)
ROOT
ATOM      1  C4' PXY d   1      -2.345   3.433   3.752  0.00  0.00     0.077 C 
ATOM      2  C1' PXY d   1       3.233   3.251   2.248  0.00  0.00     0.077 C 
ATOM      3  C1  PXY d   1       1.767   3.302   2.630  0.00  0.00    -0.082 A 
ATOM      4  C2  PXY d   1       1.427   3.487   3.895  0.00  0.00     0.003 A 
ATOM      5  C3  PXY d   1       0.106   3.504   4.263  0.00  0.00     0.003 A 
ATOM      6  C4  PXY d   1      -0.878   3.384   3.319  0.00  0.00    -0.082 A 
ATOM      7  C5  PXY d   1      -0.539   3.205   2.024  0.00  0.00     0.003 A 
ATOM      8  C6  PXY d   1       0.808   3.150   1.677  0.00  0.00     0.003 A 
ENDROOT
TORSDOF 0
ENDMDL
