MODEL 1
REMARK minimizedAffinity 4.81400061
REMARK minimizedRMSD -1
REMARK  0 active torsions:
REMARK  status: ('A' for Active; 'I' for Inactive)
ROOT
ATOM      1  C4' PXY d   1      -0.132  -1.506  -1.955  0.00  0.00     0.077 C 
ATOM      2  C1' PXY d   1      -4.119  -5.210  -0.005  0.00  0.00     0.077 C 
ATOM      3  C1  PXY d   1      -3.064  -4.247  -0.513  0.00  0.00    -0.082 A 
ATOM      4  C2  PXY d   1      -3.353  -2.961  -0.626  0.00  0.00     0.003 A 
ATOM      5  C3  PXY d   1      -2.421  -2.081  -1.113  0.00  0.00     0.003 A 
ATOM      6  C4  PXY d   1      -1.163  -2.513  -1.438  0.00  0.00    -0.082 A 
ATOM      7  C5  PXY d   1      -0.857  -3.822  -1.315  0.00  0.00     0.003 A 
ATOM      8  C6  PXY d   1      -1.831  -4.706  -0.857  0.00  0.00     0.003 A 
ENDROOT
TORSDOF 0
ENDMDL
