MODEL 1
REMARK minimizedAffinity 6.266397
REMARK minimizedRMSD -1
REMARK  0 active torsions:
REMARK  status: ('A' for Active; 'I' for Inactive)
ROOT
ATOM      1  C4' PXY d   1       0.978   1.163  -0.681  0.00  0.00     0.077 C 
ATOM      2  C1' PXY d   1      -1.925   3.955   3.466  0.00  0.00     0.077 C 
ATOM      3  C1  PXY d   1      -1.174   3.215   2.377  0.00  0.00    -0.082 A 
ATOM      4  C2  PXY d   1       0.146   3.294   2.323  0.00  0.00     0.003 A 
ATOM      5  C3  PXY d   1       0.839   2.656   1.326  0.00  0.00     0.003 A 
ATOM      6  C4  PXY d   1       0.179   1.886   0.407  0.00  0.00    -0.082 A 
ATOM      7  C5  PXY d   1      -1.167   1.792   0.461  0.00  0.00     0.003 A 
ATOM      8  C6  PXY d   1      -1.855   2.480   1.456  0.00  0.00     0.003 A 
ENDROOT
TORSDOF 0
ENDMDL
