MODEL 1
REMARK minimizedAffinity 6.56764746
REMARK minimizedRMSD -1
REMARK  0 active torsions:
REMARK  status: ('A' for Active; 'I' for Inactive)
ROOT
ATOM      1  C4' PXY d   1      -1.294  -2.304  -0.351  0.00  0.00     0.077 C 
ATOM      2  C1' PXY d   1      -1.161   3.246   1.258  0.00  0.00     0.077 C 
ATOM      3  C1  PXY d   1      -1.186   1.793   0.828  0.00  0.00    -0.082 A 
ATOM      4  C2  PXY d   1      -2.306   1.098   0.935  0.00  0.00     0.003 A 
ATOM      5  C3  PXY d   1      -2.338  -0.226   0.581  0.00  0.00     0.003 A 
ATOM      6  C4  PXY d   1      -1.225  -0.831   0.062  0.00  0.00    -0.082 A 
ATOM      7  C5  PXY d   1      -0.080  -0.126  -0.061  0.00  0.00     0.003 A 
ATOM      8  C6  PXY d   1      -0.058   1.206   0.343  0.00  0.00     0.003 A 
ENDROOT
TORSDOF 0
ENDMDL
