MODEL 1
REMARK minimizedAffinity 6.90427351
REMARK minimizedRMSD -1
REMARK  0 active torsions:
REMARK  status: ('A' for Active; 'I' for Inactive)
ROOT
ATOM      1  C4' PXY d   1      -1.464  -2.362  -0.135  0.00  0.00     0.077 C 
ATOM      2  C1' PXY d   1      -1.403   3.221   1.362  0.00  0.00     0.077 C 
ATOM      3  C1  PXY d   1      -1.408   1.759   0.963  0.00  0.00    -0.082 A 
ATOM      4  C2  PXY d   1      -2.546   1.085   0.963  0.00  0.00     0.003 A 
ATOM      5  C3  PXY d   1      -2.564  -0.246   0.635  0.00  0.00     0.003 A 
ATOM      6  C4  PXY d   1      -1.413  -0.881   0.252  0.00  0.00    -0.082 A 
ATOM      7  C5  PXY d   1      -0.249  -0.197   0.240  0.00  0.00     0.003 A 
ATOM      8  C6  PXY d   1      -0.246   1.143   0.616  0.00  0.00     0.003 A 
ENDROOT
TORSDOF 0
ENDMDL
