MODEL 1
REMARK minimizedAffinity 4.54486847
REMARK minimizedRMSD -1
REMARK  0 active torsions:
REMARK  status: ('A' for Active; 'I' for Inactive)
ROOT
ATOM      1  C4' PXY d   1      -0.809   1.270   0.099  0.00  0.00     0.077 C 
ATOM      2  C1' PXY d   1       4.205  -0.749  -1.951  0.00  0.00     0.077 C 
ATOM      3  C1  PXY d   1       2.890  -0.229  -1.404  0.00  0.00    -0.082 A 
ATOM      4  C2  PXY d   1       2.074   0.446  -2.197  0.00  0.00     0.003 A 
ATOM      5  C3  PXY d   1       0.895   0.952  -1.710  0.00  0.00     0.003 A 
ATOM      6  C4  PXY d   1       0.525   0.718  -0.413  0.00  0.00    -0.082 A 
ATOM      7  C5  PXY d   1       1.347   0.021   0.399  0.00  0.00     0.003 A 
ATOM      8  C6  PXY d   1       2.558  -0.448  -0.103  0.00  0.00     0.003 A 
ENDROOT
TORSDOF 0
ENDMDL
