MODEL 1
REMARK minimizedAffinity 3.03329945
REMARK minimizedRMSD -1
REMARK  0 active torsions:
REMARK  status: ('A' for Active; 'I' for Inactive)
ROOT
ATOM      1  C4' PXY d   1      -5.212  -5.999   1.091  0.00  0.00     0.077 C 
ATOM      2  C1' PXY d   1      -1.288  -3.452  -2.304  0.00  0.00     0.077 C 
ATOM      3  C1  PXY d   1      -2.307  -4.127  -1.408  0.00  0.00    -0.082 A 
ATOM      4  C2  PXY d   1      -3.577  -4.169  -1.778  0.00  0.00     0.003 A 
ATOM      5  C3  PXY d   1      -4.518  -4.747  -0.965  0.00  0.00     0.003 A 
ATOM      6  C4  PXY d   1      -4.146  -5.336   0.214  0.00  0.00    -0.082 A 
ATOM      7  C5  PXY d   1      -2.851  -5.307   0.593  0.00  0.00     0.003 A 
ATOM      8  C6  PXY d   1      -1.918  -4.679  -0.227  0.00  0.00     0.003 A 
ENDROOT
TORSDOF 0
ENDMDL
