MODEL 1
REMARK minimizedAffinity 0.427437127
REMARK minimizedRMSD -1
REMARK  0 active torsions:
REMARK  status: ('A' for Active; 'I' for Inactive)
ROOT
ATOM      1  C4' PXY d   1      -4.497   0.788   0.634  0.00  0.00     0.077 C 
ATOM      2  C1' PXY d   1       1.277   0.956   0.868  0.00  0.00     0.077 C 
ATOM      3  C1  PXY d   1      -0.237   0.899   0.804  0.00  0.00    -0.082 A 
ATOM      4  C2  PXY d   1      -0.921   1.996   0.524  0.00  0.00     0.003 A 
ATOM      5  C3  PXY d   1      -2.292   1.970   0.494  0.00  0.00     0.003 A 
ATOM      6  C4  PXY d   1      -2.967   0.796   0.699  0.00  0.00    -0.082 A 
ATOM      7  C5  PXY d   1      -2.275  -0.330   0.974  0.00  0.00     0.003 A 
ATOM      8  C6  PXY d   1      -0.886  -0.273   1.041  0.00  0.00     0.003 A 
ENDROOT
TORSDOF 0
ENDMDL
