MODEL 1
REMARK minimizedAffinity 3.71239233
REMARK minimizedRMSD -1
REMARK  0 active torsions:
REMARK  status: ('A' for Active; 'I' for Inactive)
ROOT
ATOM      1  C4' PXY d   1       2.095   0.420   0.523  0.00  0.00     0.077 C 
ATOM      2  C1' PXY d   1      -3.593   0.743   1.502  0.00  0.00     0.077 C 
ATOM      3  C1  PXY d   1      -2.102   0.671   1.241  0.00  0.00    -0.082 A 
ATOM      4  C2  PXY d   1      -1.526  -0.506   1.058  0.00  0.00     0.003 A 
ATOM      5  C3  PXY d   1      -0.173  -0.592   0.852  0.00  0.00     0.003 A 
ATOM      6  C4  PXY d   1       0.590   0.542   0.780  0.00  0.00    -0.082 A 
ATOM      7  C5  PXY d   1       0.009   1.747   0.956  0.00  0.00     0.003 A 
ATOM      8  C6  PXY d   1      -1.359   1.811   1.204  0.00  0.00     0.003 A 
ENDROOT
TORSDOF 0
ENDMDL
