MODEL 1
REMARK minimizedAffinity 12.0907631
REMARK minimizedRMSD -1
REMARK  0 active torsions:
REMARK  status: ('A' for Active; 'I' for Inactive)
ROOT
ATOM      1  C4' PXY d   1       2.968  -0.179  -3.441  0.00  0.00     0.077 C 
ATOM      2  C1' PXY d   1       1.016   0.725   1.924  0.00  0.00     0.077 C 
ATOM      3  C1  PXY d   1       1.530   0.475   0.520  0.00  0.00    -0.082 A 
ATOM      4  C2  PXY d   1       2.060   1.472  -0.170  0.00  0.00     0.003 A 
ATOM      5  C3  PXY d   1       2.500   1.271  -1.453  0.00  0.00     0.003 A 
ATOM      6  C4  PXY d   1       2.446   0.025  -2.017  0.00  0.00    -0.082 A 
ATOM      7  C5  PXY d   1       1.916  -1.000  -1.316  0.00  0.00     0.003 A 
ATOM      8  C6  PXY d   1       1.437  -0.766  -0.030  0.00  0.00     0.003 A 
ENDROOT
TORSDOF 0
ENDMDL
