MODEL 1
REMARK minimizedAffinity -4.63225698
REMARK minimizedRMSD -1
REMARK  0 active torsions:
REMARK  status: ('A' for Active; 'I' for Inactive)
ROOT
ATOM      1  C   UNL d   1      -1.700  -2.055   1.812  0.00  0.00     0.023 A 
ATOM      2  C1  UNL d   1      -0.523  -2.344   1.121  0.00  0.00     0.003 A 
ATOM      3  C2  UNL d   1       0.107  -1.352   0.368  0.00  0.00     0.048 A 
ATOM      4  C3  UNL d   1      -0.444  -0.072   0.310  0.00  0.00     0.023 A 
ATOM      5  C4  UNL d   1      -1.621   0.222   1.000  0.00  0.00     0.048 A 
ATOM      6  C5  UNL d   1      -2.249  -0.774   1.752  0.00  0.00     0.003 A 
ATOM      7  I   UNL d   1       0.492   1.406  -0.811  0.00  0.00    -0.146 I 
ENDROOT
TORSDOF 0
ENDMDL
