MODEL 1
REMARK minimizedAffinity -2.95981836
REMARK minimizedRMSD -1
REMARK  0 active torsions:
REMARK  status: ('A' for Active; 'I' for Inactive)
ROOT
ATOM      1  C   UNL d   1       1.479   2.478  -3.445  0.00  0.00     0.023 A 
ATOM      2  C1  UNL d   1       0.121   2.198  -3.291  0.00  0.00     0.003 A 
ATOM      3  C2  UNL d   1      -0.315   1.415  -2.220  0.00  0.00     0.048 A 
ATOM      4  C3  UNL d   1       0.613   0.915  -1.307  0.00  0.00     0.023 A 
ATOM      5  C4  UNL d   1       1.973   1.193  -1.457  0.00  0.00     0.048 A 
ATOM      6  C5  UNL d   1       2.403   1.975  -2.530  0.00  0.00     0.003 A 
ATOM      7  I   UNL d   1      -0.033  -0.251   0.288  0.00  0.00    -0.146 I 
ENDROOT
TORSDOF 0
ENDMDL
