MODEL 1
REMARK minimizedAffinity -1.15033352
REMARK minimizedRMSD -1
REMARK  0 active torsions:
REMARK  status: ('A' for Active; 'I' for Inactive)
ROOT
ATOM      1  C   UNL d   1      -0.452  -1.993   1.359  0.00  0.00     0.023 A 
ATOM      2  C1  UNL d   1      -1.271  -0.913   1.029  0.00  0.00     0.003 A 
ATOM      3  C2  UNL d   1      -0.799   0.088   0.177  0.00  0.00     0.048 A 
ATOM      4  C3  UNL d   1       0.492   0.002  -0.343  0.00  0.00     0.023 A 
ATOM      5  C4  UNL d   1       1.314  -1.078  -0.016  0.00  0.00     0.048 A 
ATOM      6  C5  UNL d   1       0.839  -2.076   0.837  0.00  0.00     0.003 A 
ATOM      7  I   UNL d   1       1.196   1.489  -1.611  0.00  0.00    -0.146 I 
ENDROOT
TORSDOF 0
ENDMDL
