MODEL 1
REMARK minimizedAffinity -3.70200253
REMARK minimizedRMSD -1
REMARK  0 active torsions:
REMARK  status: ('A' for Active; 'I' for Inactive)
ROOT
ATOM      1  C   UNL d   1      -1.450  -2.285   1.394  0.00  0.00     0.023 A 
ATOM      2  C1  UNL d   1      -0.186  -2.407   0.816  0.00  0.00     0.003 A 
ATOM      3  C2  UNL d   1       0.365  -1.337   0.108  0.00  0.00     0.048 A 
ATOM      4  C3  UNL d   1      -0.352  -0.147  -0.017  0.00  0.00     0.023 A 
ATOM      5  C4  UNL d   1      -1.617  -0.021   0.561  0.00  0.00     0.048 A 
ATOM      6  C5  UNL d   1      -2.164  -1.094   1.267  0.00  0.00     0.003 A 
ATOM      7  I   UNL d   1       0.466   1.447  -1.070  0.00  0.00    -0.146 I 
ENDROOT
TORSDOF 0
ENDMDL
