MODEL 1
REMARK minimizedAffinity 0.0943330228
REMARK minimizedRMSD -1
REMARK  0 active torsions:
REMARK  status: ('A' for Active; 'I' for Inactive)
ROOT
ATOM      1  C   UNL d   1       0.545   1.866  -3.321  0.00  0.00     0.023 A 
ATOM      2  C1  UNL d   1       0.278   0.498  -3.364  0.00  0.00     0.003 A 
ATOM      3  C2  UNL d   1       0.298  -0.256  -2.189  0.00  0.00     0.048 A 
ATOM      4  C3  UNL d   1       0.587   0.365  -0.974  0.00  0.00     0.023 A 
ATOM      5  C4  UNL d   1       0.855   1.734  -0.927  0.00  0.00     0.048 A 
ATOM      6  C5  UNL d   1       0.834   2.483  -2.104  0.00  0.00     0.003 A 
ATOM      7  I   UNL d   1       0.618  -0.755   0.776  0.00  0.00    -0.146 I 
ENDROOT
TORSDOF 0
ENDMDL
