MODEL 1
REMARK minimizedAffinity -0.30104214
REMARK minimizedRMSD -1
REMARK  0 active torsions:
REMARK  status: ('A' for Active; 'I' for Inactive)
ROOT
ATOM      1  C   UNL d   1       1.433  -1.736  -0.079  0.00  0.00     0.023 A 
ATOM      2  C1  UNL d   1       1.128  -0.375  -0.077  0.00  0.00     0.003 A 
ATOM      3  C2  UNL d   1       0.022   0.093   0.637  0.00  0.00     0.048 A 
ATOM      4  C3  UNL d   1      -0.773  -0.805   1.346  0.00  0.00     0.023 A 
ATOM      5  C4  UNL d   1      -0.471  -2.168   1.348  0.00  0.00     0.048 A 
ATOM      6  C5  UNL d   1       0.634  -2.632   0.632  0.00  0.00     0.003 A 
ATOM      7  I   UNL d   1      -2.419  -0.111   2.410  0.00  0.00    -0.146 I 
ENDROOT
TORSDOF 0
ENDMDL
