MODEL 1
REMARK minimizedAffinity -4.8658309
REMARK minimizedRMSD -1
REMARK  0 active torsions:
REMARK  status: ('A' for Active; 'I' for Inactive)
ROOT
ATOM      1  C   UNL d   1      -2.645  -1.256   2.570  0.00  0.00     0.023 A 
ATOM      2  C1  UNL d   1      -2.621   0.088   2.198  0.00  0.00     0.003 A 
ATOM      3  C2  UNL d   1      -1.632   0.556   1.330  0.00  0.00     0.048 A 
ATOM      4  C3  UNL d   1      -0.671  -0.326   0.837  0.00  0.00     0.023 A 
ATOM      5  C4  UNL d   1      -0.692  -1.672   1.206  0.00  0.00     0.048 A 
ATOM      6  C5  UNL d   1      -1.682  -2.135   2.074  0.00  0.00     0.003 A 
ATOM      7  I   UNL d   1       0.801   0.368  -0.455  0.00  0.00    -0.146 I 
ENDROOT
TORSDOF 0
ENDMDL
