MODEL 1
REMARK minimizedAffinity -0.769581437
REMARK minimizedRMSD -1
REMARK  0 active torsions:
REMARK  status: ('A' for Active; 'I' for Inactive)
ROOT
ATOM      1  C   UNL d   1      -0.158  -1.119   1.153  0.00  0.00     0.023 A 
ATOM      2  C1  UNL d   1       0.993  -1.377   0.409  0.00  0.00     0.003 A 
ATOM      3  C2  UNL d   1       1.476  -0.421  -0.487  0.00  0.00     0.048 A 
ATOM      4  C3  UNL d   1       0.803   0.791  -0.634  0.00  0.00     0.023 A 
ATOM      5  C4  UNL d   1      -0.349   1.054   0.108  0.00  0.00     0.048 A 
ATOM      6  C5  UNL d   1      -0.829   0.095   1.002  0.00  0.00     0.003 A 
ATOM      7  I   UNL d   1       1.520   2.215  -1.968  0.00  0.00    -0.146 I 
ENDROOT
TORSDOF 0
ENDMDL
