MODEL 1
REMARK minimizedAffinity 6.59359741
REMARK minimizedRMSD -1
REMARK  0 active torsions:
REMARK  status: ('A' for Active; 'I' for Inactive)
ROOT
ATOM      1  C   UNL d   1      -4.230  -4.049  -5.999  0.00  0.00     0.023 A 
ATOM      2  C1  UNL d   1      -3.150  -3.223  -5.688  0.00  0.00     0.003 A 
ATOM      3  C2  UNL d   1      -1.952  -3.779  -5.236  0.00  0.00     0.048 A 
ATOM      4  C3  UNL d   1      -1.840  -5.162  -5.097  0.00  0.00     0.023 A 
ATOM      5  C4  UNL d   1      -2.918  -5.992  -5.407  0.00  0.00     0.048 A 
ATOM      6  C5  UNL d   1      -4.114  -5.432  -5.858  0.00  0.00     0.003 A 
ATOM      7  I   UNL d   1      -0.057  -5.992  -4.424  0.00  0.00    -0.146 I 
ENDROOT
TORSDOF 0
ENDMDL
