MODEL 1
REMARK minimizedAffinity -1.22112882
REMARK minimizedRMSD -1
REMARK  0 active torsions:
REMARK  status: ('A' for Active; 'I' for Inactive)
ROOT
ATOM      1  C   UNL d   1       1.627   2.823  -3.146  0.00  0.00     0.023 A 
ATOM      2  C1  UNL d   1       0.312   2.386  -2.985  0.00  0.00     0.003 A 
ATOM      3  C2  UNL d   1      -0.026   1.566  -1.907  0.00  0.00     0.048 A 
ATOM      4  C3  UNL d   1       0.956   1.186  -0.993  0.00  0.00     0.023 A 
ATOM      5  C4  UNL d   1       2.273   1.621  -1.149  0.00  0.00     0.048 A 
ATOM      6  C5  UNL d   1       2.606   2.441  -2.229  0.00  0.00     0.003 A 
ATOM      7  I   UNL d   1       0.456  -0.035   0.613  0.00  0.00    -0.146 I 
ENDROOT
TORSDOF 0
ENDMDL
