MODEL 1
REMARK minimizedAffinity -3.17015696
REMARK minimizedRMSD -1
REMARK  0 active torsions:
REMARK  status: ('A' for Active; 'I' for Inactive)
ROOT
ATOM      1  C   UNL d   1      -2.163  -1.953   2.292  0.00  0.00     0.023 A 
ATOM      2  C1  UNL d   1      -1.131  -2.556   1.574  0.00  0.00     0.003 A 
ATOM      3  C2  UNL d   1      -0.312  -1.786   0.746  0.00  0.00     0.048 A 
ATOM      4  C3  UNL d   1      -0.530  -0.413   0.641  0.00  0.00     0.023 A 
ATOM      5  C4  UNL d   1      -1.561   0.195   1.358  0.00  0.00     0.048 A 
ATOM      6  C5  UNL d   1      -2.378  -0.579   2.184  0.00  0.00     0.003 A 
ATOM      7  I   UNL d   1       0.688   0.735  -0.592  0.00  0.00    -0.146 I 
ENDROOT
TORSDOF 0
ENDMDL
