MODEL 1
REMARK minimizedAffinity -3.55226231
REMARK minimizedRMSD -1
REMARK  0 active torsions:
REMARK  status: ('A' for Active; 'I' for Inactive)
ROOT
ATOM      1  C   UNL d   1       1.161   1.966  -2.184  0.00  0.00     0.023 A 
ATOM      2  C1  UNL d   1       0.579   0.876  -2.831  0.00  0.00     0.003 A 
ATOM      3  C2  UNL d   1       0.178  -0.242  -2.096  0.00  0.00     0.048 A 
ATOM      4  C3  UNL d   1       0.360  -0.262  -0.713  0.00  0.00     0.023 A 
ATOM      5  C4  UNL d   1       0.941   0.827  -0.061  0.00  0.00     0.048 A 
ATOM      6  C5  UNL d   1       1.341   1.942  -0.801  0.00  0.00     0.003 A 
ATOM      7  I   UNL d   1      -0.237  -1.923   0.383  0.00  0.00    -0.146 I 
ENDROOT
TORSDOF 0
ENDMDL
