MODEL 1
REMARK minimizedAffinity -3.58856392
REMARK minimizedRMSD -1
REMARK  0 active torsions:
REMARK  status: ('A' for Active; 'I' for Inactive)
ROOT
ATOM      1  C   UNL d   1       0.524   2.948  -2.100  0.00  0.00     0.023 A 
ATOM      2  C1  UNL d   1       0.397   1.753  -2.808  0.00  0.00     0.003 A 
ATOM      3  C2  UNL d   1       0.398   0.534  -2.127  0.00  0.00     0.048 A 
ATOM      4  C3  UNL d   1       0.524   0.517  -0.739  0.00  0.00     0.023 A 
ATOM      5  C4  UNL d   1       0.650   1.710  -0.026  0.00  0.00     0.048 A 
ATOM      6  C5  UNL d   1       0.650   2.927  -0.711  0.00  0.00     0.003 A 
ATOM      7  I   UNL d   1       0.525  -1.297   0.277  0.00  0.00    -0.146 I 
ENDROOT
TORSDOF 0
ENDMDL
