MODEL 1
REMARK minimizedAffinity -0.478364199
REMARK minimizedRMSD -1
REMARK  0 active torsions:
REMARK  status: ('A' for Active; 'I' for Inactive)
ROOT
ATOM      1  C   UNL d   1       1.325   2.251  -3.864  0.00  0.00     0.023 A 
ATOM      2  C1  UNL d   1       0.011   2.055  -3.439  0.00  0.00     0.003 A 
ATOM      3  C2  UNL d   1      -0.242   1.473  -2.195  0.00  0.00     0.048 A 
ATOM      4  C3  UNL d   1       0.823   1.091  -1.381  0.00  0.00     0.023 A 
ATOM      5  C4  UNL d   1       2.140   1.286  -1.802  0.00  0.00     0.048 A 
ATOM      6  C5  UNL d   1       2.388   1.867  -3.047  0.00  0.00     0.003 A 
ATOM      7  I   UNL d   1       0.449   0.225   0.471  0.00  0.00    -0.146 I 
ENDROOT
TORSDOF 0
ENDMDL
