MODEL 1
REMARK minimizedAffinity -2.59566736
REMARK minimizedRMSD -1
REMARK  3 active torsions:
REMARK  status: ('A' for Active; 'I' for Inactive)
REMARK    1  A    between atoms: C3'_2  and  C2'_3 
REMARK    2  A    between atoms: C2'_3  and  C1'_4 
REMARK    3  A    between atoms: C1'_4  and  C1_5 
ROOT
ATOM      1  C1  N4B d   1       0.432   0.864  -0.538  0.00  0.00    -0.075 A 
ATOM      2  C2  N4B d   1       0.509   0.322   0.763  0.00  0.00     0.002 A 
ATOM      3  C3  N4B d   1       0.787  -1.012   0.936  0.00  0.00     0.002 A 
ATOM      4  C4  N4B d   1       0.972  -1.823  -0.173  0.00  0.00    -0.004 A 
ATOM      5  C5  N4B d   1       0.921  -1.287  -1.426  0.00  0.00     0.002 A 
ATOM      6  C6  N4B d   1       0.647   0.053  -1.615  0.00  0.00     0.002 A 
ENDROOT
BRANCH   1   7
ATOM      7  C1' N4B d   1       0.046   2.298  -0.780  0.00  0.00     0.057 C 
BRANCH   7   8
ATOM      8  C2' N4B d   1       0.885   3.200   0.120  0.00  0.00     0.009 C 
BRANCH   8   9
ATOM      9  C3' N4B d   1       2.302   3.364  -0.402  0.00  0.00     0.004 C 
ATOM     10  C4' N4B d   1       3.006   4.548   0.191  0.00  0.00     0.003 C 
ENDBRANCH   8   9
ENDBRANCH   7   8
ENDBRANCH   1   7
TORSDOF 3
ENDMDL
