MODEL 1
REMARK minimizedAffinity -3.10101819
REMARK minimizedRMSD -1
REMARK  3 active torsions:
REMARK  status: ('A' for Active; 'I' for Inactive)
REMARK    1  A    between atoms: C3'_2  and  C2'_3 
REMARK    2  A    between atoms: C2'_3  and  C1'_4 
REMARK    3  A    between atoms: C1'_4  and  C1_5 
ROOT
ATOM      1  C1  N4B d   1      -0.131   0.045   0.170  0.00  0.00    -0.075 A 
ATOM      2  C2  N4B d   1       0.361  -0.040   1.491  0.00  0.00     0.002 A 
ATOM      3  C3  N4B d   1       0.412  -1.255   2.128  0.00  0.00     0.002 A 
ATOM      4  C4  N4B d   1      -0.039  -2.392   1.474  0.00  0.00    -0.004 A 
ATOM      5  C5  N4B d   1      -0.489  -2.305   0.189  0.00  0.00     0.002 A 
ATOM      6  C6  N4B d   1      -0.542  -1.091  -0.465  0.00  0.00     0.002 A 
ENDROOT
BRANCH   1   7
ATOM      7  C1' N4B d   1      -0.285   1.364  -0.537  0.00  0.00     0.057 C 
BRANCH   7   8
ATOM      8  C2' N4B d   1      -0.076   2.496   0.464  0.00  0.00     0.009 C 
BRANCH   8   9
ATOM      9  C3' N4B d   1       1.131   3.348   0.114  0.00  0.00     0.004 C 
ATOM     10  C4' N4B d   1       2.343   3.001   0.927  0.00  0.00     0.003 C 
ENDBRANCH   8   9
ENDBRANCH   7   8
ENDBRANCH   1   7
TORSDOF 3
ENDMDL
