MODEL 1
REMARK minimizedAffinity -0.641519368
REMARK minimizedRMSD -1
REMARK  3 active torsions:
REMARK  status: ('A' for Active; 'I' for Inactive)
REMARK    1  A    between atoms: C3'_2  and  C2'_3 
REMARK    2  A    between atoms: C2'_3  and  C1'_4 
REMARK    3  A    between atoms: C1'_4  and  C1_5 
ROOT
ATOM      1  C1  N4B d   1      -0.176  -0.018   0.046  0.00  0.00    -0.075 A 
ATOM      2  C2  N4B d   1      -0.348  -0.340   1.411  0.00  0.00     0.002 A 
ATOM      3  C3  N4B d   1      -0.705  -1.614   1.776  0.00  0.00     0.002 A 
ATOM      4  C4  N4B d   1      -0.914  -2.575   0.798  0.00  0.00    -0.004 A 
ATOM      5  C5  N4B d   1      -0.721  -2.263  -0.516  0.00  0.00     0.002 A 
ATOM      6  C6  N4B d   1      -0.358  -0.987  -0.897  0.00  0.00     0.002 A 
ENDROOT
BRANCH   1   7
ATOM      7  C1' N4B d   1       0.131   1.383  -0.407  0.00  0.00     0.057 C 
BRANCH   7   8
ATOM      8  C2' N4B d   1       0.055   2.325   0.791  0.00  0.00     0.009 C 
BRANCH   8   9
ATOM      9  C3' N4B d   1       0.852   3.597   0.565  0.00  0.00     0.004 C 
ATOM     10  C4' N4B d   1       1.996   3.744   1.524  0.00  0.00     0.003 C 
ENDBRANCH   8   9
ENDBRANCH   7   8
ENDBRANCH   1   7
TORSDOF 3
ENDMDL
