MODEL 1
REMARK minimizedAffinity -5.135602
REMARK minimizedRMSD -1
REMARK  3 active torsions:
REMARK  status: ('A' for Active; 'I' for Inactive)
REMARK    1  A    between atoms: C3'_2  and  C2'_3 
REMARK    2  A    between atoms: C2'_3  and  C1'_4 
REMARK    3  A    between atoms: C1'_4  and  C1_5 
ROOT
ATOM      1  C1  N4B d   1       0.320  -0.416   0.600  0.00  0.00    -0.075 A 
ATOM      2  C2  N4B d   1      -1.033  -0.100   0.854  0.00  0.00     0.002 A 
ATOM      3  C3  N4B d   1      -1.974  -1.099   0.901  0.00  0.00     0.002 A 
ATOM      4  C4  N4B d   1      -1.590  -2.414   0.680  0.00  0.00    -0.004 A 
ATOM      5  C5  N4B d   1      -0.277  -2.713   0.461  0.00  0.00     0.002 A 
ATOM      6  C6  N4B d   1       0.679  -1.719   0.415  0.00  0.00     0.002 A 
ENDROOT
BRANCH   1   7
ATOM      7  C1' N4B d   1       1.370   0.651   0.454  0.00  0.00     0.057 C 
BRANCH   7   8
ATOM      8  C2' N4B d   1       0.688   2.010   0.318  0.00  0.00     0.009 C 
BRANCH   8   9
ATOM      9  C3' N4B d   1       1.513   3.124   0.939  0.00  0.00     0.004 C 
ATOM     10  C4' N4B d   1       2.855   3.285   0.289  0.00  0.00     0.003 C 
ENDBRANCH   8   9
ENDBRANCH   7   8
ENDBRANCH   1   7
TORSDOF 3
ENDMDL
