MODEL 1
REMARK minimizedAffinity -4.53639174
REMARK minimizedRMSD -1
REMARK  3 active torsions:
REMARK  status: ('A' for Active; 'I' for Inactive)
REMARK    1  A    between atoms: C3'_2  and  C2'_3 
REMARK    2  A    between atoms: C2'_3  and  C1'_4 
REMARK    3  A    between atoms: C1'_4  and  C1_5 
ROOT
ATOM      1  C1  N4B d   1      -0.006   0.904  -0.079  0.00  0.00    -0.075 A 
ATOM      2  C2  N4B d   1      -0.600   2.076  -0.597  0.00  0.00     0.002 A 
ATOM      3  C3  N4B d   1       0.046   3.282  -0.481  0.00  0.00     0.002 A 
ATOM      4  C4  N4B d   1       1.273   3.343   0.163  0.00  0.00    -0.004 A 
ATOM      5  C5  N4B d   1       1.851   2.203   0.638  0.00  0.00     0.002 A 
ATOM      6  C6  N4B d   1       1.215   0.983   0.525  0.00  0.00     0.002 A 
ENDROOT
BRANCH   1   7
ATOM      7  C1' N4B d   1      -0.714  -0.423  -0.105  0.00  0.00     0.057 C 
BRANCH   7   8
ATOM      8  C2' N4B d   1      -0.637  -1.060   1.279  0.00  0.00     0.009 C 
BRANCH   8   9
ATOM      9  C3' N4B d   1      -1.038  -2.525   1.254  0.00  0.00     0.004 C 
ATOM     10  C4' N4B d   1      -0.844  -3.157  -0.092  0.00  0.00     0.003 C 
ENDBRANCH   8   9
ENDBRANCH   7   8
ENDBRANCH   1   7
TORSDOF 3
ENDMDL
