MODEL 1
REMARK minimizedAffinity -2.92144728
REMARK minimizedRMSD -1
REMARK  3 active torsions:
REMARK  status: ('A' for Active; 'I' for Inactive)
REMARK    1  A    between atoms: C3'_2  and  C2'_3 
REMARK    2  A    between atoms: C2'_3  and  C1'_4 
REMARK    3  A    between atoms: C1'_4  and  C1_5 
ROOT
ATOM      1  C1  N4B d   1      -0.400  -1.082  -0.336  0.00  0.00    -0.075 A 
ATOM      2  C2  N4B d   1      -0.842  -2.412  -0.163  0.00  0.00     0.002 A 
ATOM      3  C3  N4B d   1      -0.778  -3.298  -1.211  0.00  0.00     0.002 A 
ATOM      4  C4  N4B d   1      -0.296  -2.873  -2.440  0.00  0.00    -0.004 A 
ATOM      5  C5  N4B d   1       0.152  -1.593  -2.592  0.00  0.00     0.002 A 
ATOM      6  C6  N4B d   1       0.097  -0.693  -1.546  0.00  0.00     0.002 A 
ENDROOT
BRANCH   1   7
ATOM      7  C1' N4B d   1      -0.530  -0.054   0.755  0.00  0.00     0.057 C 
BRANCH   7   8
ATOM      8  C2' N4B d   1       0.612   0.950   0.636  0.00  0.00     0.009 C 
BRANCH   8   9
ATOM      9  C3' N4B d   1       0.111   2.345   0.306  0.00  0.00     0.004 C 
ATOM     10  C4' N4B d   1       1.170   3.395   0.463  0.00  0.00     0.003 C 
ENDBRANCH   8   9
ENDBRANCH   7   8
ENDBRANCH   1   7
TORSDOF 3
ENDMDL
