MODEL 1
REMARK minimizedAffinity -5.68515682
REMARK minimizedRMSD -1
REMARK  3 active torsions:
REMARK  status: ('A' for Active; 'I' for Inactive)
REMARK    1  A    between atoms: C3'_2  and  C2'_3 
REMARK    2  A    between atoms: C2'_3  and  C1'_4 
REMARK    3  A    between atoms: C1'_4  and  C1_5 
ROOT
ATOM      1  C1  N4B d   1       0.055  -0.397  -0.011  0.00  0.00    -0.075 A 
ATOM      2  C2  N4B d   1       0.365  -1.269  -1.077  0.00  0.00     0.002 A 
ATOM      3  C3  N4B d   1       0.223  -2.626  -0.918  0.00  0.00     0.002 A 
ATOM      4  C4  N4B d   1      -0.207  -3.132   0.299  0.00  0.00    -0.004 A 
ATOM      5  C5  N4B d   1      -0.529  -2.281   1.316  0.00  0.00     0.002 A 
ATOM      6  C6  N4B d   1      -0.395  -0.915   1.169  0.00  0.00     0.002 A 
ENDROOT
BRANCH   1   7
ATOM      7  C1' N4B d   1       0.275   1.088  -0.109  0.00  0.00     0.057 C 
BRANCH   7   8
ATOM      8  C2' N4B d   1       1.688   1.417   0.366  0.00  0.00     0.009 C 
BRANCH   8   9
ATOM      9  C3' N4B d   1       1.855   2.896   0.670  0.00  0.00     0.004 C 
ATOM     10  C4' N4B d   1       0.569   3.660   0.564  0.00  0.00     0.003 C 
ENDBRANCH   8   9
ENDBRANCH   7   8
ENDBRANCH   1   7
TORSDOF 3
ENDMDL
