MODEL 1
REMARK minimizedAffinity -5.82834864
REMARK minimizedRMSD -1
REMARK  3 active torsions:
REMARK  status: ('A' for Active; 'I' for Inactive)
REMARK    1  A    between atoms: C3'_2  and  C2'_3 
REMARK    2  A    between atoms: C2'_3  and  C1'_4 
REMARK    3  A    between atoms: C1'_4  and  C1_5 
ROOT
ATOM      1  C1  N4B d   1      -0.906   2.847  -2.937  0.00  0.00    -0.075 A 
ATOM      2  C2  N4B d   1      -1.615   2.530  -1.757  0.00  0.00     0.002 A 
ATOM      3  C3  N4B d   1      -2.519   1.496  -1.757  0.00  0.00     0.002 A 
ATOM      4  C4  N4B d   1      -2.744   0.780  -2.923  0.00  0.00    -0.004 A 
ATOM      5  C5  N4B d   1      -2.037   1.077  -4.052  0.00  0.00     0.002 A 
ATOM      6  C6  N4B d   1      -1.122   2.111  -4.066  0.00  0.00     0.002 A 
ENDROOT
BRANCH   1   7
ATOM      7  C1' N4B d   1       0.029   4.023  -3.010  0.00  0.00     0.057 C 
BRANCH   7   8
ATOM      8  C2' N4B d   1       0.014   4.588  -4.427  0.00  0.00     0.009 C 
BRANCH   8   9
ATOM      9  C3' N4B d   1       0.614   5.982  -4.490  0.00  0.00     0.004 C 
ATOM     10  C4' N4B d   1       2.086   5.994  -4.202  0.00  0.00     0.003 C 
ENDBRANCH   8   9
ENDBRANCH   7   8
ENDBRANCH   1   7
TORSDOF 3
ENDMDL
