MODEL 1
REMARK minimizedAffinity -5.82594919
REMARK minimizedRMSD -1
REMARK  3 active torsions:
REMARK  status: ('A' for Active; 'I' for Inactive)
REMARK    1  A    between atoms: C3'_2  and  C2'_3 
REMARK    2  A    between atoms: C2'_3  and  C1'_4 
REMARK    3  A    between atoms: C1'_4  and  C1_5 
ROOT
ATOM      1  C1  N4B d   1      -0.659   1.832  -1.798  0.00  0.00    -0.075 A 
ATOM      2  C2  N4B d   1       0.298   2.478  -2.611  0.00  0.00     0.002 A 
ATOM      3  C3  N4B d   1      -0.043   2.890  -3.877  0.00  0.00     0.002 A 
ATOM      4  C4  N4B d   1      -1.323   2.651  -4.354  0.00  0.00    -0.004 A 
ATOM      5  C5  N4B d   1      -2.248   2.049  -3.553  0.00  0.00     0.002 A 
ATOM      6  C6  N4B d   1      -1.921   1.634  -2.278  0.00  0.00     0.002 A 
ENDROOT
BRANCH   1   7
ATOM      7  C1' N4B d   1      -0.308   1.288  -0.440  0.00  0.00     0.057 C 
BRANCH   7   8
ATOM      8  C2' N4B d   1       0.650   0.112  -0.604  0.00  0.00     0.009 C 
BRANCH   8   9
ATOM      9  C3' N4B d   1       1.869   0.243   0.294  0.00  0.00     0.004 C 
ATOM     10  C4' N4B d   1       2.238  -1.047   0.963  0.00  0.00     0.003 C 
ENDBRANCH   8   9
ENDBRANCH   7   8
ENDBRANCH   1   7
TORSDOF 3
ENDMDL
