MODEL 1
REMARK minimizedAffinity -6.23964596
REMARK minimizedRMSD -1
REMARK  3 active torsions:
REMARK  status: ('A' for Active; 'I' for Inactive)
REMARK    1  A    between atoms: C3'_2  and  C2'_3 
REMARK    2  A    between atoms: C2'_3  and  C1'_4 
REMARK    3  A    between atoms: C1'_4  and  C1_5 
ROOT
ATOM      1  C1  N4B d   1      -1.094   2.485  -2.767  0.00  0.00    -0.075 A 
ATOM      2  C2  N4B d   1      -1.091   2.263  -4.162  0.00  0.00     0.002 A 
ATOM      3  C3  N4B d   1      -0.501   3.177  -5.000  0.00  0.00     0.002 A 
ATOM      4  C4  N4B d   1       0.072   4.323  -4.471  0.00  0.00    -0.004 A 
ATOM      5  C5  N4B d   1       0.087   4.517  -3.121  0.00  0.00     0.002 A 
ATOM      6  C6  N4B d   1      -0.499   3.606  -2.266  0.00  0.00     0.002 A 
ENDROOT
BRANCH   1   7
ATOM      7  C1' N4B d   1      -1.802   1.557  -1.818  0.00  0.00     0.057 C 
BRANCH   7   8
ATOM      8  C2' N4B d   1      -1.042   1.519  -0.495  0.00  0.00     0.009 C 
BRANCH   8   9
ATOM      9  C3' N4B d   1       0.058   0.471  -0.502  0.00  0.00     0.004 C 
ATOM     10  C4' N4B d   1       1.270   0.897   0.273  0.00  0.00     0.003 C 
ENDBRANCH   8   9
ENDBRANCH   7   8
ENDBRANCH   1   7
TORSDOF 3
ENDMDL
