MODEL 1
REMARK minimizedAffinity -4.70722675
REMARK minimizedRMSD -1
REMARK  3 active torsions:
REMARK  status: ('A' for Active; 'I' for Inactive)
REMARK    1  A    between atoms: C3'_2  and  C2'_3 
REMARK    2  A    between atoms: C2'_3  and  C1'_4 
REMARK    3  A    between atoms: C1'_4  and  C1_5 
ROOT
ATOM      1  C1  N4B d   1      -0.749   2.664  -2.936  0.00  0.00    -0.075 A 
ATOM      2  C2  N4B d   1      -0.991   2.560  -4.323  0.00  0.00     0.002 A 
ATOM      3  C3  N4B d   1      -0.323   3.379  -5.200  0.00  0.00     0.002 A 
ATOM      4  C4  N4B d   1       0.573   4.319  -4.714  0.00  0.00    -0.004 A 
ATOM      5  C5  N4B d   1       0.820   4.396  -3.374  0.00  0.00     0.002 A 
ATOM      6  C6  N4B d   1       0.159   3.576  -2.482  0.00  0.00     0.002 A 
ENDROOT
BRANCH   1   7
ATOM      7  C1' N4B d   1      -1.518   1.849  -1.932  0.00  0.00     0.057 C 
BRANCH   7   8
ATOM      8  C2' N4B d   1      -0.876   2.011  -0.558  0.00  0.00     0.009 C 
BRANCH   8   9
ATOM      9  C3' N4B d   1      -0.564   0.671   0.085  0.00  0.00     0.004 C 
ATOM     10  C4' N4B d   1       0.900   0.347   0.071  0.00  0.00     0.003 C 
ENDBRANCH   8   9
ENDBRANCH   7   8
ENDBRANCH   1   7
TORSDOF 3
ENDMDL
