MODEL 1
REMARK minimizedAffinity -2.06810498
REMARK minimizedRMSD -1
REMARK  3 active torsions:
REMARK  status: ('A' for Active; 'I' for Inactive)
REMARK    1  A    between atoms: C3'_2  and  C2'_3 
REMARK    2  A    between atoms: C2'_3  and  C1'_4 
REMARK    3  A    between atoms: C1'_4  and  C1_5 
ROOT
ATOM      1  C1  N4B d   1      -0.250   1.177  -0.870  0.00  0.00    -0.075 A 
ATOM      2  C2  N4B d   1       1.062   0.746  -1.162  0.00  0.00     0.002 A 
ATOM      3  C3  N4B d   1       1.714  -0.104  -0.303  0.00  0.00     0.002 A 
ATOM      4  C4  N4B d   1       1.082  -0.520   0.860  0.00  0.00    -0.004 A 
ATOM      5  C5  N4B d   1      -0.195  -0.120   1.122  0.00  0.00     0.002 A 
ATOM      6  C6  N4B d   1      -0.863   0.731   0.265  0.00  0.00     0.002 A 
ENDROOT
BRANCH   1   7
ATOM      7  C1' N4B d   1      -0.970   2.174  -1.736  0.00  0.00     0.057 C 
BRANCH   7   8
ATOM      8  C2' N4B d   1       0.052   2.953  -2.558  0.00  0.00     0.009 C 
BRANCH   8   9
ATOM      9  C3' N4B d   1      -0.296   2.962  -4.037  0.00  0.00     0.004 C 
ATOM     10  C4' N4B d   1       0.468   3.996  -4.807  0.00  0.00     0.003 C 
ENDBRANCH   8   9
ENDBRANCH   7   8
ENDBRANCH   1   7
TORSDOF 3
ENDMDL
