MODEL 1
REMARK minimizedAffinity -3.93819594
REMARK minimizedRMSD -1
REMARK  3 active torsions:
REMARK  status: ('A' for Active; 'I' for Inactive)
REMARK    1  A    between atoms: C3'_2  and  C2'_3 
REMARK    2  A    between atoms: C2'_3  and  C1'_4 
REMARK    3  A    between atoms: C1'_4  and  C1_5 
ROOT
ATOM      1  C1  N4B d   1       0.287   0.131   0.599  0.00  0.00    -0.075 A 
ATOM      2  C2  N4B d   1       1.461  -0.440   0.062  0.00  0.00     0.002 A 
ATOM      3  C3  N4B d   1       2.097  -1.458   0.729  0.00  0.00     0.002 A 
ATOM      4  C4  N4B d   1       1.589  -1.907   1.939  0.00  0.00    -0.004 A 
ATOM      5  C5  N4B d   1       0.440  -1.368   2.438  0.00  0.00     0.002 A 
ATOM      6  C6  N4B d   1      -0.211  -0.347   1.777  0.00  0.00     0.002 A 
ENDROOT
BRANCH   1   7
ATOM      7  C1' N4B d   1      -0.395   1.304  -0.051  0.00  0.00     0.057 C 
BRANCH   7   8
ATOM      8  C2' N4B d   1      -0.815   0.918  -1.466  0.00  0.00     0.009 C 
BRANCH   8   9
ATOM      9  C3' N4B d   1      -1.716   1.965  -2.097  0.00  0.00     0.004 C 
ATOM     10  C4' N4B d   1      -3.118   1.476  -2.307  0.00  0.00     0.003 C 
ENDBRANCH   8   9
ENDBRANCH   7   8
ENDBRANCH   1   7
TORSDOF 3
ENDMDL
