MODEL 1
REMARK minimizedAffinity 6.25016737
REMARK minimizedRMSD -1
REMARK  1 active torsions:
REMARK  status: ('A' for Active; 'I' for Inactive)
REMARK    1  A    between atoms: C3_4  and  O_7 
ROOT
ATOM      1  C   UNL d   1      -3.933  -5.706  -1.434  0.00  0.00    -0.033 A 
ATOM      2  C1  UNL d   1      -5.272  -6.000  -1.696  0.00  0.00     0.039 A 
ATOM      3  C2  UNL d   1      -5.984  -5.246  -2.631  0.00  0.00    -0.080 A 
ATOM      4  C3  UNL d   1      -5.345  -4.204  -3.297  0.00  0.00     0.150 A 
ATOM      5  C4  UNL d   1      -4.010  -3.908  -3.044  0.00  0.00    -0.007 A 
ATOM      6  C5  UNL d   1      -3.301  -4.661  -2.109  0.00  0.00     0.039 A 
ENDROOT
BRANCH   4   7
ATOM      7  O   UNL d   1      -6.000  -3.437  -4.215  0.00  0.00    -0.526 OA
ATOM      8  H5  UNL d   1      -6.922  -3.738  -4.265  0.00  0.00     0.418 HD
ENDBRANCH   4   7
TORSDOF 1
ENDMDL
