MODEL 1
REMARK minimizedAffinity 0.0414085686
REMARK minimizedRMSD -1
REMARK  1 active torsions:
REMARK  status: ('A' for Active; 'I' for Inactive)
REMARK    1  A    between atoms: C3_4  and  O_7 
ROOT
ATOM      1  C   UNL d   1       4.128   1.835  -0.177  0.00  0.00    -0.033 A 
ATOM      2  C1  UNL d   1       3.487   0.608   0.000  0.00  0.00     0.039 A 
ATOM      3  C2  UNL d   1       4.103  -0.403   0.741  0.00  0.00    -0.080 A 
ATOM      4  C3  UNL d   1       5.357  -0.173   1.300  0.00  0.00     0.150 A 
ATOM      5  C4  UNL d   1       6.000   1.048   1.130  0.00  0.00    -0.007 A 
ATOM      6  C5  UNL d   1       5.384   2.056   0.389  0.00  0.00     0.039 A 
ENDROOT
BRANCH   4   7
ATOM      7  O   UNL d   1       5.999  -1.131   2.027  0.00  0.00    -0.526 OA
ATOM      8  H5  UNL d   1       5.449  -1.932   2.036  0.00  0.00     0.418 HD
ENDBRANCH   4   7
TORSDOF 1
ENDMDL
