MODEL 1
REMARK minimizedAffinity 0.515724421
REMARK minimizedRMSD -1
REMARK  1 active torsions:
REMARK  status: ('A' for Active; 'I' for Inactive)
REMARK    1  A    between atoms: C3_4  and  O_7 
ROOT
ATOM      1  C   UNL d   1      -1.231  -3.268   1.194  0.00  0.00    -0.033 A 
ATOM      2  C1  UNL d   1      -0.300  -2.414   0.599  0.00  0.00     0.039 A 
ATOM      3  C2  UNL d   1      -0.564  -1.854  -0.652  0.00  0.00    -0.080 A 
ATOM      4  C3  UNL d   1      -1.761  -2.154  -1.297  0.00  0.00     0.150 A 
ATOM      5  C4  UNL d   1      -2.695  -3.001  -0.708  0.00  0.00    -0.007 A 
ATOM      6  C5  UNL d   1      -2.429  -3.560   0.541  0.00  0.00     0.039 A 
ENDROOT
BRANCH   4   7
ATOM      7  O   UNL d   1      -2.061  -1.635  -2.521  0.00  0.00    -0.526 OA
ATOM      8  H5  UNL d   1      -1.311  -1.092  -2.817  0.00  0.00     0.418 HD
ENDBRANCH   4   7
TORSDOF 1
ENDMDL
