MODEL 1
REMARK minimizedAffinity -2.90541887
REMARK minimizedRMSD -1
REMARK  1 active torsions:
REMARK  status: ('A' for Active; 'I' for Inactive)
REMARK    1  A    between atoms: C3_4  and  O_7 
ROOT
ATOM      1  C   UNL d   1      -4.946  -5.625  -2.000  0.00  0.00    -0.033 A 
ATOM      2  C1  UNL d   1      -6.000  -4.869  -2.517  0.00  0.00     0.039 A 
ATOM      3  C2  UNL d   1      -5.989  -4.478  -3.858  0.00  0.00    -0.080 A 
ATOM      4  C3  UNL d   1      -4.922  -4.851  -4.670  0.00  0.00     0.150 A 
ATOM      5  C4  UNL d   1      -3.871  -5.608  -4.162  0.00  0.00    -0.007 A 
ATOM      6  C5  UNL d   1      -3.882  -5.996  -2.823  0.00  0.00     0.039 A 
ENDROOT
BRANCH   4   7
ATOM      7  O   UNL d   1      -4.865  -4.490  -5.983  0.00  0.00    -0.526 OA
ATOM      8  H5  UNL d   1      -5.644  -3.946  -6.186  0.00  0.00     0.418 HD
ENDBRANCH   4   7
TORSDOF 1
ENDMDL
