MODEL 1
REMARK minimizedAffinity 3.20701981
REMARK minimizedRMSD -1
REMARK  1 active torsions:
REMARK  status: ('A' for Active; 'I' for Inactive)
REMARK    1  A    between atoms: C3_4  and  O_7 
ROOT
ATOM      1  C   UNL d   1      -5.243  -5.146  -1.953  0.00  0.00    -0.033 A 
ATOM      2  C1  UNL d   1      -4.357  -5.999  -2.613  0.00  0.00     0.039 A 
ATOM      3  C2  UNL d   1      -4.109  -5.831  -3.977  0.00  0.00    -0.080 A 
ATOM      4  C3  UNL d   1      -4.751  -4.807  -4.667  0.00  0.00     0.150 A 
ATOM      5  C4  UNL d   1      -5.631  -3.951  -4.015  0.00  0.00    -0.007 A 
ATOM      6  C5  UNL d   1      -5.879  -4.121  -2.654  0.00  0.00     0.039 A 
ENDROOT
BRANCH   4   7
ATOM      7  O   UNL d   1      -4.543  -4.607  -6.000  0.00  0.00    -0.526 OA
ATOM      8  H5  UNL d   1      -3.933  -5.291  -6.323  0.00  0.00     0.418 HD
ENDBRANCH   4   7
TORSDOF 1
ENDMDL
