MODEL 1
REMARK minimizedAffinity -2.72426915
REMARK minimizedRMSD -1
REMARK  1 active torsions:
REMARK  status: ('A' for Active; 'I' for Inactive)
REMARK    1  A    between atoms: C3_4  and  O_7 
ROOT
ATOM      1  C   UNL d   1      -5.243  -5.608  -2.805  0.00  0.00    -0.033 A 
ATOM      2  C1  UNL d   1      -5.864  -4.678  -3.641  0.00  0.00     0.039 A 
ATOM      3  C2  UNL d   1      -5.168  -4.135  -4.722  0.00  0.00    -0.080 A 
ATOM      4  C3  UNL d   1      -3.854  -4.530  -4.957  0.00  0.00     0.150 A 
ATOM      5  C4  UNL d   1      -3.230  -5.459  -4.131  0.00  0.00    -0.007 A 
ATOM      6  C5  UNL d   1      -3.926  -6.000  -3.051  0.00  0.00     0.039 A 
ENDROOT
BRANCH   4   7
ATOM      7  O   UNL d   1      -3.133  -4.023  -5.997  0.00  0.00    -0.526 OA
ATOM      8  H5  UNL d   1      -3.683  -3.372  -6.465  0.00  0.00     0.418 HD
ENDBRANCH   4   7
TORSDOF 1
ENDMDL
