MODEL 1
REMARK minimizedAffinity 0.280806273
REMARK minimizedRMSD -1
REMARK  1 active torsions:
REMARK  status: ('A' for Active; 'I' for Inactive)
REMARK    1  A    between atoms: C3_4  and  O_7 
ROOT
ATOM      1  C   UNL d   1      -5.404  -5.488  -2.059  0.00  0.00    -0.033 A 
ATOM      2  C1  UNL d   1      -5.965  -4.639  -3.016  0.00  0.00     0.039 A 
ATOM      3  C2  UNL d   1      -5.240  -4.298  -4.159  0.00  0.00    -0.080 A 
ATOM      4  C3  UNL d   1      -3.958  -4.812  -4.334  0.00  0.00     0.150 A 
ATOM      5  C4  UNL d   1      -3.395  -5.661  -3.387  0.00  0.00    -0.007 A 
ATOM      6  C5  UNL d   1      -4.120  -6.000  -2.245  0.00  0.00     0.039 A 
ENDROOT
BRANCH   4   7
ATOM      7  O   UNL d   1      -3.210  -4.503  -5.431  0.00  0.00    -0.526 OA
ATOM      8  H5  UNL d   1      -3.716  -3.885  -5.984  0.00  0.00     0.418 HD
ENDBRANCH   4   7
TORSDOF 1
ENDMDL
