MODEL 1
REMARK minimizedAffinity 5.0248189
REMARK minimizedRMSD -1
REMARK  1 active torsions:
REMARK  status: ('A' for Active; 'I' for Inactive)
REMARK    1  A    between atoms: C3_4  and  O_7 
ROOT
ATOM      1  C   UNL d   1       5.973  -0.696   0.488  0.00  0.00    -0.033 A 
ATOM      2  C1  UNL d   1       5.966  -0.033   1.717  0.00  0.00     0.039 A 
ATOM      3  C2  UNL d   1       5.971   1.362   1.759  0.00  0.00    -0.080 A 
ATOM      4  C3  UNL d   1       5.981   2.082   0.568  0.00  0.00     0.150 A 
ATOM      5  C4  UNL d   1       5.983   1.428  -0.660  0.00  0.00    -0.007 A 
ATOM      6  C5  UNL d   1       5.980   0.034  -0.700  0.00  0.00     0.039 A 
ENDROOT
BRANCH   4   7
ATOM      7  O   UNL d   1       5.990   3.445   0.559  0.00  0.00    -0.526 OA
ATOM      8  H5  UNL d   1       6.016   3.759   1.478  0.00  0.00     0.418 HD
ENDBRANCH   4   7
TORSDOF 1
ENDMDL
