MODEL 1
REMARK minimizedAffinity -3.74214816
REMARK minimizedRMSD -1
REMARK  1 active torsions:
REMARK  status: ('A' for Active; 'I' for Inactive)
REMARK    1  A    between atoms: C3_4  and  O_7 
ROOT
ATOM      1  C   UNL d   1      -2.004  -3.913  -2.187  0.00  0.00    -0.033 A 
ATOM      2  C1  UNL d   1      -1.172  -4.445  -1.199  0.00  0.00     0.039 A 
ATOM      3  C2  UNL d   1      -0.735  -3.640  -0.145  0.00  0.00    -0.080 A 
ATOM      4  C3  UNL d   1      -1.137  -2.309  -0.089  0.00  0.00     0.150 A 
ATOM      5  C4  UNL d   1      -1.969  -1.774  -1.067  0.00  0.00    -0.007 A 
ATOM      6  C5  UNL d   1      -2.403  -2.578  -2.120  0.00  0.00     0.039 A 
ENDROOT
BRANCH   4   7
ATOM      7  O   UNL d   1      -0.733  -1.484   0.918  0.00  0.00    -0.526 OA
ATOM      8  H5  UNL d   1      -0.139  -1.982   1.504  0.00  0.00     0.418 HD
ENDBRANCH   4   7
TORSDOF 1
ENDMDL
