MODEL 1
REMARK minimizedAffinity 6.26385593
REMARK minimizedRMSD -1
REMARK  1 active torsions:
REMARK  status: ('A' for Active; 'I' for Inactive)
REMARK    1  A    between atoms: C3_4  and  O_7 
ROOT
ATOM      1  C   UNL d   1       1.743   1.047   1.957  0.00  0.00    -0.033 A 
ATOM      2  C1  UNL d   1       2.218  -0.146   2.505  0.00  0.00     0.039 A 
ATOM      3  C2  UNL d   1       3.555  -0.511   2.335  0.00  0.00    -0.080 A 
ATOM      4  C3  UNL d   1       4.406   0.325   1.618  0.00  0.00     0.150 A 
ATOM      5  C4  UNL d   1       3.941   1.517   1.072  0.00  0.00    -0.007 A 
ATOM      6  C5  UNL d   1       2.605   1.879   1.242  0.00  0.00     0.039 A 
ENDROOT
BRANCH   4   7
ATOM      7  O   UNL d   1       5.717   0.009   1.422  0.00  0.00    -0.526 OA
ATOM      8  H5  UNL d   1       5.890  -0.856   1.830  0.00  0.00     0.418 HD
ENDBRANCH   4   7
TORSDOF 1
ENDMDL
