MODEL 1
REMARK minimizedAffinity 5.1388154
REMARK minimizedRMSD -1
REMARK  1 active torsions:
REMARK  status: ('A' for Active; 'I' for Inactive)
REMARK    1  A    between atoms: C3_4  and  O_7 
ROOT
ATOM      1  C   UNL d   1      -6.000   5.963   3.125  0.00  0.00    -0.033 A 
ATOM      2  C1  UNL d   1      -5.358   5.462   4.259  0.00  0.00     0.039 A 
ATOM      3  C2  UNL d   1      -4.718   4.222   4.211  0.00  0.00    -0.080 A 
ATOM      4  C3  UNL d   1      -4.726   3.494   3.024  0.00  0.00     0.150 A 
ATOM      5  C4  UNL d   1      -5.360   3.989   1.889  0.00  0.00    -0.007 A 
ATOM      6  C5  UNL d   1      -6.000   5.227   1.939  0.00  0.00     0.039 A 
ENDROOT
BRANCH   4   7
ATOM      7  O   UNL d   1      -4.120   2.277   2.930  0.00  0.00    -0.526 OA
ATOM      8  H5  UNL d   1      -3.748   2.051   3.799  0.00  0.00     0.418 HD
ENDBRANCH   4   7
TORSDOF 1
ENDMDL
