MODEL 1
REMARK minimizedAffinity -3.63509488
REMARK minimizedRMSD -1
REMARK  1 active torsions:
REMARK  status: ('A' for Active; 'I' for Inactive)
REMARK    1  A    between atoms: C3_4  and  O_7 
ROOT
ATOM      1  C   UNL d   1      -5.277  -5.750  -2.606  0.00  0.00    -0.033 A 
ATOM      2  C1  UNL d   1      -5.984  -5.389  -3.755  0.00  0.00     0.039 A 
ATOM      3  C2  UNL d   1      -5.297  -4.984  -4.901  0.00  0.00    -0.080 A 
ATOM      4  C3  UNL d   1      -3.906  -4.945  -4.886  0.00  0.00     0.150 A 
ATOM      5  C4  UNL d   1      -3.195  -5.307  -3.746  0.00  0.00    -0.007 A 
ATOM      6  C5  UNL d   1      -3.883  -5.711  -2.603  0.00  0.00     0.039 A 
ENDROOT
BRANCH   4   7
ATOM      7  O   UNL d   1      -3.192  -4.552  -5.979  0.00  0.00    -0.526 OA
ATOM      8  H5  UNL d   1      -3.816  -4.304  -6.681  0.00  0.00     0.418 HD
ENDBRANCH   4   7
TORSDOF 1
ENDMDL
