MODEL 1
REMARK minimizedAffinity 7.07527065
REMARK minimizedRMSD -1
REMARK  1 active torsions:
REMARK  status: ('A' for Active; 'I' for Inactive)
REMARK    1  A    between atoms: C3_4  and  O_7 
ROOT
ATOM      1  C   UNL d   1      -0.631  -3.761  -0.747  0.00  0.00    -0.033 A 
ATOM      2  C1  UNL d   1      -0.902  -4.165  -2.055  0.00  0.00     0.039 A 
ATOM      3  C2  UNL d   1      -2.180  -3.993  -2.591  0.00  0.00    -0.080 A 
ATOM      4  C3  UNL d   1      -3.177  -3.416  -1.808  0.00  0.00     0.150 A 
ATOM      5  C4  UNL d   1      -2.913  -3.007  -0.505  0.00  0.00    -0.007 A 
ATOM      6  C5  UNL d   1      -1.636  -3.181   0.028  0.00  0.00     0.039 A 
ENDROOT
BRANCH   4   7
ATOM      7  O   UNL d   1      -4.440  -3.232  -2.285  0.00  0.00    -0.526 OA
ATOM      8  H5  UNL d   1      -4.483  -3.587  -3.189  0.00  0.00     0.418 HD
ENDBRANCH   4   7
TORSDOF 1
ENDMDL
