MODEL 1
REMARK minimizedAffinity 1.25799882
REMARK minimizedRMSD -1
REMARK  1 active torsions:
REMARK  status: ('A' for Active; 'I' for Inactive)
REMARK    1  A    between atoms: C3_4  and  O_7 
ROOT
ATOM      1  C   UNL d   1      -0.868  -2.358  -6.000  0.00  0.00    -0.033 A 
ATOM      2  C1  UNL d   1      -0.738  -3.746  -5.928  0.00  0.00     0.039 A 
ATOM      3  C2  UNL d   1       0.529  -4.328  -5.859  0.00  0.00    -0.080 A 
ATOM      4  C3  UNL d   1       1.657  -3.512  -5.862  0.00  0.00     0.150 A 
ATOM      5  C4  UNL d   1       1.535  -2.128  -5.930  0.00  0.00    -0.007 A 
ATOM      6  C5  UNL d   1       0.269  -1.549  -5.999  0.00  0.00     0.039 A 
ENDROOT
BRANCH   4   7
ATOM      7  O   UNL d   1       2.915  -4.034  -5.802  0.00  0.00    -0.526 OA
ATOM      8  H5  UNL d   1       2.845  -5.003  -5.788  0.00  0.00     0.418 HD
ENDBRANCH   4   7
TORSDOF 1
ENDMDL
