MODEL 1
REMARK minimizedAffinity 3.39086127
REMARK minimizedRMSD -1
REMARK  1 active torsions:
REMARK  status: ('A' for Active; 'I' for Inactive)
REMARK    1  A    between atoms: C3_4  and  O_7 
ROOT
ATOM      1  C   UNL d   1      -5.740  -5.639  -1.874  0.00  0.00    -0.033 A 
ATOM      2  C1  UNL d   1      -5.998  -5.611  -3.246  0.00  0.00     0.039 A 
ATOM      3  C2  UNL d   1      -5.093  -4.999  -4.115  0.00  0.00    -0.080 A 
ATOM      4  C3  UNL d   1      -3.936  -4.421  -3.601  0.00  0.00     0.150 A 
ATOM      5  C4  UNL d   1      -3.671  -4.449  -2.236  0.00  0.00    -0.007 A 
ATOM      6  C5  UNL d   1      -4.576  -5.060  -1.369  0.00  0.00     0.039 A 
ENDROOT
BRANCH   4   7
ATOM      7  O   UNL d   1      -3.025  -3.808  -4.410  0.00  0.00    -0.526 OA
ATOM      8  H5  UNL d   1      -3.355  -3.841  -5.324  0.00  0.00     0.418 HD
ENDBRANCH   4   7
TORSDOF 1
ENDMDL
