MODEL 1
REMARK minimizedAffinity -3.55998755
REMARK minimizedRMSD -1
REMARK  1 active torsions:
REMARK  status: ('A' for Active; 'I' for Inactive)
REMARK    1  A    between atoms: C3_4  and  O_7 
ROOT
ATOM      1  C   UNL d   1       4.862   4.069   1.648  0.00  0.00    -0.033 A 
ATOM      2  C1  UNL d   1       5.653   3.406   2.588  0.00  0.00     0.039 A 
ATOM      3  C2  UNL d   1       5.999   4.039   3.783  0.00  0.00    -0.080 A 
ATOM      4  C3  UNL d   1       5.549   5.334   4.026  0.00  0.00     0.150 A 
ATOM      5  C4  UNL d   1       4.757   6.000   3.095  0.00  0.00    -0.007 A 
ATOM      6  C5  UNL d   1       4.413   5.366   1.902  0.00  0.00     0.039 A 
ENDROOT
BRANCH   4   7
ATOM      7  O   UNL d   1       5.865   5.995   5.176  0.00  0.00    -0.526 OA
ATOM      8  H5  UNL d   1       6.440   5.423   5.711  0.00  0.00     0.418 HD
ENDBRANCH   4   7
TORSDOF 1
ENDMDL
