MODEL 1
REMARK minimizedAffinity 10.4673891
REMARK minimizedRMSD -1
REMARK  1 active torsions:
REMARK  status: ('A' for Active; 'I' for Inactive)
REMARK    1  A    between atoms: C3_4  and  O_7 
ROOT
ATOM      1  C   UNL d   1      -2.586  -3.945   0.480  0.00  0.00    -0.033 A 
ATOM      2  C1  UNL d   1      -1.516  -3.488   1.251  0.00  0.00     0.039 A 
ATOM      3  C2  UNL d   1      -1.151  -4.168   2.415  0.00  0.00    -0.080 A 
ATOM      4  C3  UNL d   1      -1.863  -5.303   2.794  0.00  0.00     0.150 A 
ATOM      5  C4  UNL d   1      -2.928  -5.766   2.028  0.00  0.00    -0.007 A 
ATOM      6  C5  UNL d   1      -3.291  -5.085   0.867  0.00  0.00     0.039 A 
ENDROOT
BRANCH   4   7
ATOM      7  O   UNL d   1      -1.547  -5.998   3.924  0.00  0.00    -0.526 OA
ATOM      8  H5  UNL d   1      -0.810  -5.546   4.367  0.00  0.00     0.418 HD
ENDBRANCH   4   7
TORSDOF 1
ENDMDL
