MODEL 1
REMARK minimizedAffinity 1.91555679
REMARK minimizedRMSD -1
REMARK  1 active torsions:
REMARK  status: ('A' for Active; 'I' for Inactive)
REMARK    1  A    between atoms: C3_4  and  O_7 
ROOT
ATOM      1  C   UNL d   1      -4.846  -4.648  -1.839  0.00  0.00    -0.033 A 
ATOM      2  C1  UNL d   1      -3.598  -4.062  -1.619  0.00  0.00     0.039 A 
ATOM      3  C2  UNL d   1      -2.808  -3.671  -2.701  0.00  0.00    -0.080 A 
ATOM      4  C3  UNL d   1      -3.277  -3.871  -3.997  0.00  0.00     0.150 A 
ATOM      5  C4  UNL d   1      -4.521  -4.450  -4.223  0.00  0.00    -0.007 A 
ATOM      6  C5  UNL d   1      -5.308  -4.841  -3.141  0.00  0.00     0.039 A 
ENDROOT
BRANCH   4   7
ATOM      7  O   UNL d   1      -2.540  -3.510  -5.085  0.00  0.00    -0.526 OA
ATOM      8  H5  UNL d   1      -1.692  -3.149  -4.776  0.00  0.00     0.418 HD
ENDBRANCH   4   7
TORSDOF 1
ENDMDL
