MODEL 1
REMARK minimizedAffinity 5.17917204
REMARK minimizedRMSD -1
REMARK  1 active torsions:
REMARK  status: ('A' for Active; 'I' for Inactive)
REMARK    1  A    between atoms: C1_2  and  C2_3 
ROOT
ATOM      1  C2  UNL d   1      -0.146  -1.840  -2.329  0.00  0.00    -0.081 A 
ATOM      2  C3  UNL d   1       0.069  -1.390  -1.021  0.00  0.00     0.006 A 
ATOM      3  C4  UNL d   1      -0.905  -1.578  -0.038  0.00  0.00     0.002 A 
ATOM      4  C5  UNL d   1      -2.106  -2.226  -0.344  0.00  0.00    -0.080 A 
ATOM      5  C6  UNL d   1      -3.148  -2.462   0.709  0.00  0.00     0.076 C 
ATOM      6  C7  UNL d   1      -2.329  -2.661  -1.655  0.00  0.00     0.002 A 
ATOM      7  C8  UNL d   1      -1.355  -2.473  -2.639  0.00  0.00     0.006 A 
ENDROOT
BRANCH   1   8
ATOM      8  C1  UNL d   1       0.929  -1.697  -3.376  0.00  0.00     0.054 C 
ATOM      9  C   UNL d   1       2.296  -2.071  -2.821  0.00  0.00     0.018 C 
ENDBRANCH   1   8
TORSDOF 1
ENDMDL
