MODEL 1
REMARK minimizedAffinity 3.53153324
REMARK minimizedRMSD -1
REMARK  1 active torsions:
REMARK  status: ('A' for Active; 'I' for Inactive)
REMARK    1  A    between atoms: C1_2  and  C2_3 
ROOT
ATOM      1  C2  UNL d   1       5.033   4.041  -4.464  0.00  0.00    -0.081 A 
ATOM      2  C3  UNL d   1       4.484   5.304  -4.212  0.00  0.00     0.006 A 
ATOM      3  C4  UNL d   1       4.695   5.936  -2.984  0.00  0.00     0.002 A 
ATOM      4  C5  UNL d   1       5.466   5.319  -1.992  0.00  0.00    -0.080 A 
ATOM      5  C6  UNL d   1       5.726   5.999  -0.681  0.00  0.00     0.076 C 
ATOM      6  C7  UNL d   1       6.000   4.050  -2.238  0.00  0.00     0.002 A 
ATOM      7  C8  UNL d   1       5.788   3.417  -3.465  0.00  0.00     0.006 A 
ENDROOT
BRANCH   1   8
ATOM      8  C1  UNL d   1       4.860   3.386  -5.811  0.00  0.00     0.054 C 
ATOM      9  C   UNL d   1       5.303   1.930  -5.779  0.00  0.00     0.018 C 
ENDBRANCH   1   8
TORSDOF 1
ENDMDL
