MODEL 1
REMARK minimizedAffinity 10.5603657
REMARK minimizedRMSD -1
REMARK  1 active torsions:
REMARK  status: ('A' for Active; 'I' for Inactive)
REMARK    1  A    between atoms: C1_2  and  C2_3 
ROOT
ATOM      1  C2  UNL d   1       0.641  -2.444  -3.104  0.00  0.00    -0.081 A 
ATOM      2  C3  UNL d   1      -0.636  -2.272  -3.654  0.00  0.00     0.006 A 
ATOM      3  C4  UNL d   1      -1.739  -2.052  -2.827  0.00  0.00     0.002 A 
ATOM      4  C5  UNL d   1      -1.585  -1.993  -1.438  0.00  0.00    -0.080 A 
ATOM      5  C6  UNL d   1      -2.757  -1.728  -0.540  0.00  0.00     0.076 C 
ATOM      6  C7  UNL d   1      -0.313  -2.183  -0.887  0.00  0.00     0.002 A 
ATOM      7  C8  UNL d   1       0.791  -2.403  -1.714  0.00  0.00     0.006 A 
ENDROOT
BRANCH   1   8
ATOM      8  C1  UNL d   1       1.843  -2.617  -3.997  0.00  0.00     0.054 C 
ATOM      9  C   UNL d   1       3.021  -1.789  -3.504  0.00  0.00     0.018 C 
ENDBRANCH   1   8
TORSDOF 1
ENDMDL
