MODEL 1
REMARK minimizedAffinity -3.41525149
REMARK minimizedRMSD -1
REMARK  1 active torsions:
REMARK  status: ('A' for Active; 'I' for Inactive)
REMARK    1  A    between atoms: C1_2  and  C2_3 
ROOT
ATOM      1  C2  UNL d   1      -1.410  -2.666  -0.604  0.00  0.00    -0.081 A 
ATOM      2  C3  UNL d   1      -0.323  -1.802  -0.782  0.00  0.00     0.006 A 
ATOM      3  C4  UNL d   1       0.309  -1.705  -2.025  0.00  0.00     0.002 A 
ATOM      4  C5  UNL d   1      -0.141  -2.464  -3.111  0.00  0.00    -0.080 A 
ATOM      5  C6  UNL d   1       0.508  -2.346  -4.458  0.00  0.00     0.076 C 
ATOM      6  C7  UNL d   1      -1.217  -3.340  -2.928  0.00  0.00     0.002 A 
ATOM      7  C8  UNL d   1      -1.848  -3.438  -1.686  0.00  0.00     0.006 A 
ENDROOT
BRANCH   1   8
ATOM      8  C1  UNL d   1      -2.134  -2.725   0.717  0.00  0.00     0.054 C 
ATOM      9  C   UNL d   1      -1.203  -3.163   1.839  0.00  0.00     0.018 C 
ENDBRANCH   1   8
TORSDOF 1
ENDMDL
