MODEL 1
REMARK minimizedAffinity 7.78855944
REMARK minimizedRMSD -1
REMARK  1 active torsions:
REMARK  status: ('A' for Active; 'I' for Inactive)
REMARK    1  A    between atoms: C1_2  and  C2_3 
ROOT
ATOM      1  C2  UNL d   1       2.533  -1.619  -2.393  0.00  0.00    -0.081 A 
ATOM      2  C3  UNL d   1       1.418  -1.479  -1.558  0.00  0.00     0.006 A 
ATOM      3  C4  UNL d   1       0.142  -1.812  -2.019  0.00  0.00     0.002 A 
ATOM      4  C5  UNL d   1      -0.039  -2.299  -3.318  0.00  0.00    -0.080 A 
ATOM      5  C6  UNL d   1      -1.399  -2.689  -3.815  0.00  0.00     0.076 C 
ATOM      6  C7  UNL d   1       1.073  -2.422  -4.158  0.00  0.00     0.002 A 
ATOM      7  C8  UNL d   1       2.349  -2.088  -3.699  0.00  0.00     0.006 A 
ENDROOT
BRANCH   1   8
ATOM      8  C1  UNL d   1       3.918  -1.321  -1.878  0.00  0.00     0.054 C 
ATOM      9  C   UNL d   1       4.022  -1.585  -0.383  0.00  0.00     0.018 C 
ENDBRANCH   1   8
TORSDOF 1
ENDMDL
