MODEL 1
REMARK minimizedAffinity 2.16214466
REMARK minimizedRMSD -1
REMARK  1 active torsions:
REMARK  status: ('A' for Active; 'I' for Inactive)
REMARK    1  A    between atoms: C1_2  and  C2_3 
ROOT
ATOM      1  C2  UNL d   1      -1.443  -2.556   1.032  0.00  0.00    -0.081 A 
ATOM      2  C3  UNL d   1      -0.553  -1.523   0.713  0.00  0.00     0.006 A 
ATOM      3  C4  UNL d   1      -0.084  -1.372  -0.594  0.00  0.00     0.002 A 
ATOM      4  C5  UNL d   1      -0.502  -2.245  -1.604  0.00  0.00    -0.080 A 
ATOM      5  C6  UNL d   1      -0.029  -2.076  -3.017  0.00  0.00     0.076 C 
ATOM      6  C7  UNL d   1      -1.377  -3.288  -1.281  0.00  0.00     0.002 A 
ATOM      7  C8  UNL d   1      -1.846  -3.440   0.025  0.00  0.00     0.006 A 
ENDROOT
BRANCH   1   8
ATOM      8  C1  UNL d   1      -2.002  -2.683   2.427  0.00  0.00     0.054 C 
ATOM      9  C   UNL d   1      -2.033  -1.336   3.134  0.00  0.00     0.018 C 
ENDBRANCH   1   8
TORSDOF 1
ENDMDL
