MODEL 1
REMARK minimizedAffinity 5.06269979
REMARK minimizedRMSD -1
REMARK  1 active torsions:
REMARK  status: ('A' for Active; 'I' for Inactive)
REMARK    1  A    between atoms: C1_2  and  C2_3 
ROOT
ATOM      1  C2  UNL d   1       5.638   4.766  -4.056  0.00  0.00    -0.081 A 
ATOM      2  C3  UNL d   1       5.652   3.571  -3.327  0.00  0.00     0.006 A 
ATOM      3  C4  UNL d   1       5.781   3.591  -1.936  0.00  0.00     0.002 A 
ATOM      4  C5  UNL d   1       5.890   4.805  -1.251  0.00  0.00    -0.080 A 
ATOM      5  C6  UNL d   1       5.999   4.842   0.245  0.00  0.00     0.076 C 
ATOM      6  C7  UNL d   1       5.893   5.999  -1.980  0.00  0.00     0.002 A 
ATOM      7  C8  UNL d   1       5.765   5.980  -3.371  0.00  0.00     0.006 A 
ENDROOT
BRANCH   1   8
ATOM      8  C1  UNL d   1       5.434   4.752  -5.549  0.00  0.00     0.054 C 
ATOM      9  C   UNL d   1       3.957   4.845  -5.907  0.00  0.00     0.018 C 
ENDBRANCH   1   8
TORSDOF 1
ENDMDL
