MODEL 1
REMARK minimizedAffinity 7.0829916
REMARK minimizedRMSD -1
REMARK  1 active torsions:
REMARK  status: ('A' for Active; 'I' for Inactive)
REMARK    1  A    between atoms: C1_2  and  C2_3 
ROOT
ATOM      1  C2  UNL d   1       0.476  -2.715   1.328  0.00  0.00    -0.081 A 
ATOM      2  C3  UNL d   1      -0.524  -3.497   1.919  0.00  0.00     0.006 A 
ATOM      3  C4  UNL d   1      -1.791  -3.584   1.337  0.00  0.00     0.002 A 
ATOM      4  C5  UNL d   1      -2.078  -2.898   0.153  0.00  0.00    -0.080 A 
ATOM      5  C6  UNL d   1      -3.425  -3.007  -0.498  0.00  0.00     0.076 C 
ATOM      6  C7  UNL d   1      -1.084  -2.102  -0.428  0.00  0.00     0.002 A 
ATOM      7  C8  UNL d   1       0.183  -2.014   0.153  0.00  0.00     0.006 A 
ENDROOT
BRANCH   1   8
ATOM      8  C1  UNL d   1       1.862  -2.671   1.917  0.00  0.00     0.054 C 
ATOM      9  C   UNL d   1       2.882  -2.189   0.895  0.00  0.00     0.018 C 
ENDBRANCH   1   8
TORSDOF 1
ENDMDL
