MODEL 1
REMARK minimizedAffinity 0.178864837
REMARK minimizedRMSD -1
REMARK  1 active torsions:
REMARK  status: ('A' for Active; 'I' for Inactive)
REMARK    1  A    between atoms: C1_2  and  C2_3 
ROOT
ATOM      1  C2  UNL d   1      -1.890  -0.679   2.973  0.00  0.00    -0.081 A 
ATOM      2  C3  UNL d   1      -1.824  -2.025   2.593  0.00  0.00     0.006 A 
ATOM      3  C4  UNL d   1      -1.456  -2.377   1.292  0.00  0.00     0.002 A 
ATOM      4  C5  UNL d   1      -1.139  -1.390   0.353  0.00  0.00    -0.080 A 
ATOM      5  C6  UNL d   1      -0.712  -1.755  -1.038  0.00  0.00     0.076 C 
ATOM      6  C7  UNL d   1      -1.222  -0.044   0.727  0.00  0.00     0.002 A 
ATOM      7  C8  UNL d   1      -1.591   0.308   2.027  0.00  0.00     0.006 A 
ENDROOT
BRANCH   1   8
ATOM      8  C1  UNL d   1      -2.224  -0.299   4.392  0.00  0.00     0.054 C 
ATOM      9  C   UNL d   1      -1.377   0.873   4.866  0.00  0.00     0.018 C 
ENDBRANCH   1   8
TORSDOF 1
ENDMDL
