MODEL 1
REMARK minimizedAffinity 0.974456787
REMARK minimizedRMSD -1
REMARK  1 active torsions:
REMARK  status: ('A' for Active; 'I' for Inactive)
REMARK    1  A    between atoms: C1_2  and  C2_3 
ROOT
ATOM      1  C2  UNL d   1       5.028   4.642  -3.712  0.00  0.00    -0.076 A 
ATOM      2  C3  UNL d   1       5.997   4.166  -2.812  0.00  0.00     0.004 A 
ATOM      3  C4  UNL d   1       5.957   4.517  -1.464  0.00  0.00    -0.003 A 
ATOM      4  C5  UNL d   1       4.946   5.349  -0.994  0.00  0.00     0.000 A 
ATOM      5  C6  UNL d   1       3.966   5.815  -1.869  0.00  0.00     0.000 A 
ATOM      6  C7  UNL d   1       3.983   5.458  -3.228  0.00  0.00    -0.073 A 
ATOM      7  C8  UNL d   1       2.905   5.995  -4.129  0.00  0.00     0.078 C 
ENDROOT
BRANCH   1   8
ATOM      8  C1  UNL d   1       5.138   4.250  -5.169  0.00  0.00     0.053 C 
ATOM      9  C   UNL d   1       5.898   5.278  -5.993  0.00  0.00     0.018 C 
ENDBRANCH   1   8
TORSDOF 1
ENDMDL
