MODEL 1
REMARK minimizedAffinity 9.74810982
REMARK minimizedRMSD -1
REMARK  1 active torsions:
REMARK  status: ('A' for Active; 'I' for Inactive)
REMARK    1  A    between atoms: C1_2  and  C2_3 
ROOT
ATOM      1  C2  UNL d   1       1.162  -2.512  -2.646  0.00  0.00    -0.076 A 
ATOM      2  C3  UNL d   1       1.209  -2.835  -1.278  0.00  0.00     0.004 A 
ATOM      3  C4  UNL d   1       0.157  -2.501  -0.426  0.00  0.00    -0.003 A 
ATOM      4  C5  UNL d   1      -0.959  -1.841  -0.929  0.00  0.00     0.000 A 
ATOM      5  C6  UNL d   1      -1.030  -1.529  -2.286  0.00  0.00     0.000 A 
ATOM      6  C7  UNL d   1       0.015  -1.872  -3.161  0.00  0.00    -0.073 A 
ATOM      7  C8  UNL d   1      -0.111  -1.506  -4.615  0.00  0.00     0.078 C 
ENDROOT
BRANCH   1   8
ATOM      8  C1  UNL d   1       2.345  -2.875  -3.516  0.00  0.00     0.053 C 
ATOM      9  C   UNL d   1       3.387  -1.769  -3.572  0.00  0.00     0.018 C 
ENDBRANCH   1   8
TORSDOF 1
ENDMDL
