MODEL 1
REMARK minimizedAffinity 8.5605526
REMARK minimizedRMSD -1
REMARK  1 active torsions:
REMARK  status: ('A' for Active; 'I' for Inactive)
REMARK    1  A    between atoms: C1_2  and  C2_3 
ROOT
ATOM      1  C2  UNL d   1       3.779   5.197  -3.444  0.00  0.00    -0.076 A 
ATOM      2  C3  UNL d   1       4.094   5.801  -2.214  0.00  0.00     0.004 A 
ATOM      3  C4  UNL d   1       5.181   5.365  -1.459  0.00  0.00    -0.003 A 
ATOM      4  C5  UNL d   1       5.972   4.319  -1.922  0.00  0.00     0.000 A 
ATOM      5  C6  UNL d   1       5.685   3.720  -3.148  0.00  0.00     0.000 A 
ATOM      6  C7  UNL d   1       4.602   4.159  -3.930  0.00  0.00    -0.073 A 
ATOM      7  C8  UNL d   1       4.335   3.473  -5.242  0.00  0.00     0.078 C 
ENDROOT
BRANCH   1   8
ATOM      8  C1  UNL d   1       2.572   5.694  -4.207  0.00  0.00     0.053 C 
ATOM      9  C   UNL d   1       1.381   5.964  -3.300  0.00  0.00     0.018 C 
ENDBRANCH   1   8
TORSDOF 1
ENDMDL
