MODEL 1
REMARK minimizedAffinity 7.12589836
REMARK minimizedRMSD -1
REMARK  1 active torsions:
REMARK  status: ('A' for Active; 'I' for Inactive)
REMARK    1  A    between atoms: C1_2  and  C2_3 
ROOT
ATOM      1  C2  UNL d   1       4.842   4.970  -4.178  0.00  0.00    -0.076 A 
ATOM      2  C3  UNL d   1       3.737   5.499  -4.866  0.00  0.00     0.004 A 
ATOM      3  C4  UNL d   1       2.633   5.997  -4.176  0.00  0.00    -0.003 A 
ATOM      4  C5  UNL d   1       2.616   5.974  -2.786  0.00  0.00     0.000 A 
ATOM      5  C6  UNL d   1       3.712   5.468  -2.086  0.00  0.00     0.000 A 
ATOM      6  C7  UNL d   1       4.839   4.978  -2.766  0.00  0.00    -0.073 A 
ATOM      7  C8  UNL d   1       5.990   4.439  -1.962  0.00  0.00     0.078 C 
ENDROOT
BRANCH   1   8
ATOM      8  C1  UNL d   1       5.999   4.420  -4.980  0.00  0.00     0.053 C 
ATOM      9  C   UNL d   1       5.760   2.991  -5.445  0.00  0.00     0.018 C 
ENDBRANCH   1   8
TORSDOF 1
ENDMDL
