MODEL 1
REMARK minimizedAffinity 5.50789785
REMARK minimizedRMSD -1
REMARK  1 active torsions:
REMARK  status: ('A' for Active; 'I' for Inactive)
REMARK    1  A    between atoms: C1_2  and  C2_3 
ROOT
ATOM      1  C2  UNL d   1       3.692   5.168  -3.827  0.00  0.00    -0.076 A 
ATOM      2  C3  UNL d   1       3.653   5.122  -5.232  0.00  0.00     0.004 A 
ATOM      3  C4  UNL d   1       4.767   5.475  -5.992  0.00  0.00    -0.003 A 
ATOM      4  C5  UNL d   1       5.938   5.879  -5.360  0.00  0.00     0.000 A 
ATOM      5  C6  UNL d   1       6.000   5.913  -3.967  0.00  0.00     0.000 A 
ATOM      6  C7  UNL d   1       4.891   5.546  -3.186  0.00  0.00    -0.073 A 
ATOM      7  C8  UNL d   1       5.011   5.608  -1.688  0.00  0.00     0.078 C 
ENDROOT
BRANCH   1   8
ATOM      8  C1  UNL d   1       2.444   4.801  -3.056  0.00  0.00     0.053 C 
ATOM      9  C   UNL d   1       1.515   5.987  -2.852  0.00  0.00     0.018 C 
ENDBRANCH   1   8
TORSDOF 1
ENDMDL
