MODEL 1
REMARK minimizedAffinity 0.809298515
REMARK minimizedRMSD -1
REMARK  1 active torsions:
REMARK  status: ('A' for Active; 'I' for Inactive)
REMARK    1  A    between atoms: C1_2  and  C2_3 
ROOT
ATOM      1  C2  UNL d   1       4.799   4.056  -3.660  0.00  0.00    -0.076 A 
ATOM      2  C3  UNL d   1       6.000   4.363  -2.998  0.00  0.00     0.004 A 
ATOM      3  C4  UNL d   1       5.994   5.030  -1.774  0.00  0.00    -0.003 A 
ATOM      4  C5  UNL d   1       4.787   5.400  -1.192  0.00  0.00     0.000 A 
ATOM      5  C6  UNL d   1       3.585   5.088  -1.826  0.00  0.00     0.000 A 
ATOM      6  C7  UNL d   1       3.572   4.402  -3.053  0.00  0.00    -0.073 A 
ATOM      7  C8  UNL d   1       2.247   4.096  -3.696  0.00  0.00     0.078 C 
ENDROOT
BRANCH   1   8
ATOM      8  C1  UNL d   1       4.868   3.356  -4.998  0.00  0.00     0.053 C 
ATOM      9  C   UNL d   1       5.258   1.891  -4.870  0.00  0.00     0.018 C 
ENDBRANCH   1   8
TORSDOF 1
ENDMDL
