MODEL 1
REMARK minimizedAffinity -1.83475554
REMARK minimizedRMSD -1
REMARK  1 active torsions:
REMARK  status: ('A' for Active; 'I' for Inactive)
REMARK    1  A    between atoms: C1_2  and  C2_3 
ROOT
ATOM      1  C2  UNL d   1       4.484   4.207  -4.992  0.00  0.00    -0.076 A 
ATOM      2  C3  UNL d   1       4.029   3.279  -5.945  0.00  0.00     0.004 A 
ATOM      3  C4  UNL d   1       4.558   1.990  -6.000  0.00  0.00    -0.003 A 
ATOM      4  C5  UNL d   1       5.549   1.608  -5.103  0.00  0.00     0.000 A 
ATOM      5  C6  UNL d   1       6.000   2.511  -4.140  0.00  0.00     0.000 A 
ATOM      6  C7  UNL d   1       5.466   3.808  -4.060  0.00  0.00    -0.073 A 
ATOM      7  C8  UNL d   1       5.993   4.742  -3.005  0.00  0.00     0.078 C 
ENDROOT
BRANCH   1   8
ATOM      8  C1  UNL d   1       3.893   5.599  -4.997  0.00  0.00     0.053 C 
ATOM      9  C   UNL d   1       2.650   5.707  -4.128  0.00  0.00     0.018 C 
ENDBRANCH   1   8
TORSDOF 1
ENDMDL
