MODEL 1
REMARK minimizedAffinity 13.8489847
REMARK minimizedRMSD -1
REMARK  1 active torsions:
REMARK  status: ('A' for Active; 'I' for Inactive)
REMARK    1  A    between atoms: C1_2  and  C2_3 
ROOT
ATOM      1  C2  UNL d   1       0.411  -3.256  -1.010  0.00  0.00    -0.076 A 
ATOM      2  C3  UNL d   1       1.341  -3.115  -2.055  0.00  0.00     0.004 A 
ATOM      3  C4  UNL d   1       1.144  -2.181  -3.070  0.00  0.00    -0.003 A 
ATOM      4  C5  UNL d   1       0.013  -1.371  -3.056  0.00  0.00     0.000 A 
ATOM      5  C6  UNL d   1      -0.911  -1.485  -2.018  0.00  0.00     0.000 A 
ATOM      6  C7  UNL d   1      -0.719  -2.411  -0.978  0.00  0.00    -0.073 A 
ATOM      7  C8  UNL d   1      -1.750  -2.495   0.113  0.00  0.00     0.078 C 
ENDROOT
BRANCH   1   8
ATOM      8  C1  UNL d   1       0.664  -4.305   0.049  0.00  0.00     0.053 C 
ATOM      9  C   UNL d   1       1.058  -5.649  -0.545  0.00  0.00     0.018 C 
ENDBRANCH   1   8
TORSDOF 1
ENDMDL
