MODEL 1
REMARK minimizedAffinity -2.90299511
REMARK minimizedRMSD -1
REMARK  1 active torsions:
REMARK  status: ('A' for Active; 'I' for Inactive)
REMARK    1  A    between atoms: C1_2  and  C2_3 
ROOT
ATOM      1  C2  UNL d   1       4.753   4.988  -3.534  0.00  0.00    -0.076 A 
ATOM      2  C3  UNL d   1       5.864   4.150  -3.731  0.00  0.00     0.004 A 
ATOM      3  C4  UNL d   1       5.997   3.398  -4.897  0.00  0.00    -0.003 A 
ATOM      4  C5  UNL d   1       5.022   3.474  -5.886  0.00  0.00     0.000 A 
ATOM      5  C6  UNL d   1       3.923   4.314  -5.715  0.00  0.00     0.000 A 
ATOM      6  C7  UNL d   1       3.781   5.091  -4.552  0.00  0.00    -0.073 A 
ATOM      7  C8  UNL d   1       2.572   5.975  -4.417  0.00  0.00     0.078 C 
ENDROOT
BRANCH   1   8
ATOM      8  C1  UNL d   1       4.648   5.758  -2.237  0.00  0.00     0.053 C 
ATOM      9  C   UNL d   1       5.999   5.961  -1.568  0.00  0.00     0.018 C 
ENDBRANCH   1   8
TORSDOF 1
ENDMDL
