MODEL 1
REMARK minimizedAffinity -1.39059806
REMARK minimizedRMSD -1
REMARK  1 active torsions:
REMARK  status: ('A' for Active; 'I' for Inactive)
REMARK    1  A    between atoms: C1_2  and  C2_3 
ROOT
ATOM      1  C2  UNL d   1       4.069  -2.351   3.591  0.00  0.00    -0.076 A 
ATOM      2  C3  UNL d   1       5.163  -3.227   3.482  0.00  0.00     0.004 A 
ATOM      3  C4  UNL d   1       5.862  -3.645   4.612  0.00  0.00    -0.003 A 
ATOM      4  C5  UNL d   1       5.478  -3.196   5.871  0.00  0.00     0.000 A 
ATOM      5  C6  UNL d   1       4.384  -2.341   6.000  0.00  0.00     0.000 A 
ATOM      6  C7  UNL d   1       3.658  -1.922   4.872  0.00  0.00    -0.073 A 
ATOM      7  C8  UNL d   1       2.490  -0.995   5.068  0.00  0.00     0.078 C 
ENDROOT
BRANCH   1   8
ATOM      8  C1  UNL d   1       3.365  -1.909   2.328  0.00  0.00     0.053 C 
ATOM      9  C   UNL d   1       4.253  -2.020   1.098  0.00  0.00     0.018 C 
ENDBRANCH   1   8
TORSDOF 1
ENDMDL
