MODEL 1
REMARK minimizedAffinity -1.63399982
REMARK minimizedRMSD -1
REMARK  1 active torsions:
REMARK  status: ('A' for Active; 'I' for Inactive)
REMARK    1  A    between atoms: C1_2  and  C2_3 
ROOT
ATOM      1  C2  UNL d   1       5.005   4.344  -3.659  0.00  0.00    -0.076 A 
ATOM      2  C3  UNL d   1       5.983   4.093  -2.681  0.00  0.00     0.004 A 
ATOM      3  C4  UNL d   1       5.986   4.790  -1.474  0.00  0.00    -0.003 A 
ATOM      4  C5  UNL d   1       5.011   5.749  -1.225  0.00  0.00     0.000 A 
ATOM      5  C6  UNL d   1       4.023   5.999  -2.177  0.00  0.00     0.000 A 
ATOM      6  C7  UNL d   1       3.996   5.294  -3.393  0.00  0.00    -0.073 A 
ATOM      7  C8  UNL d   1       2.911   5.609  -4.386  0.00  0.00     0.078 C 
ENDROOT
BRANCH   1   8
ATOM      8  C1  UNL d   1       5.068   3.577  -4.961  0.00  0.00     0.053 C 
ATOM      9  C   UNL d   1       5.993   2.372  -4.882  0.00  0.00     0.018 C 
ENDBRANCH   1   8
TORSDOF 1
ENDMDL
