MODEL 1
REMARK minimizedAffinity 1.49484313
REMARK minimizedRMSD -1
REMARK  1 active torsions:
REMARK  status: ('A' for Active; 'I' for Inactive)
REMARK    1  A    between atoms: C1_2  and  C2_3 
ROOT
ATOM      1  C2  UNL d   1       5.061   4.404  -4.419  0.00  0.00    -0.076 A 
ATOM      2  C3  UNL d   1       5.960   3.922  -3.453  0.00  0.00     0.004 A 
ATOM      3  C4  UNL d   1       5.999   4.470  -2.172  0.00  0.00    -0.003 A 
ATOM      4  C5  UNL d   1       5.138   5.509  -1.836  0.00  0.00     0.000 A 
ATOM      5  C6  UNL d   1       4.227   5.988  -2.777  0.00  0.00     0.000 A 
ATOM      6  C7  UNL d   1       4.164   5.436  -4.068  0.00  0.00    -0.073 A 
ATOM      7  C8  UNL d   1       3.166   5.995  -5.044  0.00  0.00     0.078 C 
ENDROOT
BRANCH   1   8
ATOM      8  C1  UNL d   1       5.083   3.789  -5.800  0.00  0.00     0.053 C 
ATOM      9  C   UNL d   1       5.833   2.467  -5.837  0.00  0.00     0.018 C 
ENDBRANCH   1   8
TORSDOF 1
ENDMDL
