MODEL 1
REMARK minimizedAffinity 4.37526226
REMARK minimizedRMSD -1
REMARK  1 active torsions:
REMARK  status: ('A' for Active; 'I' for Inactive)
REMARK    1  A    between atoms: C1_2  and  C2_3 
ROOT
ATOM      1  C2  UNL d   1       4.054   4.861  -3.627  0.00  0.00    -0.076 A 
ATOM      2  C3  UNL d   1       3.498   4.848  -4.918  0.00  0.00     0.004 A 
ATOM      3  C4  UNL d   1       4.178   5.410  -5.997  0.00  0.00    -0.003 A 
ATOM      4  C5  UNL d   1       5.425   5.993  -5.803  0.00  0.00     0.000 A 
ATOM      5  C6  UNL d   1       6.000   5.999  -4.533  0.00  0.00     0.000 A 
ATOM      6  C7  UNL d   1       5.335   5.422  -3.437  0.00  0.00    -0.073 A 
ATOM      7  C8  UNL d   1       5.998   5.462  -2.087  0.00  0.00     0.078 C 
ENDROOT
BRANCH   1   8
ATOM      8  C1  UNL d   1       3.258   4.260  -2.490  0.00  0.00     0.053 C 
ATOM      9  C   UNL d   1       1.889   3.768  -2.933  0.00  0.00     0.018 C 
ENDBRANCH   1   8
TORSDOF 1
ENDMDL
