MODEL 1
REMARK minimizedAffinity -2.66033864
REMARK minimizedRMSD -1
REMARK  1 active torsions:
REMARK  status: ('A' for Active; 'I' for Inactive)
REMARK    1  A    between atoms: C1_2  and  C2_3 
ROOT
ATOM      1  C2  UNL d   1       5.443   4.424  -4.689  0.00  0.00    -0.076 A 
ATOM      2  C3  UNL d   1       5.990   4.031  -3.455  0.00  0.00     0.004 A 
ATOM      3  C4  UNL d   1       5.569   4.619  -2.263  0.00  0.00    -0.003 A 
ATOM      4  C5  UNL d   1       4.592   5.609  -2.286  0.00  0.00     0.000 A 
ATOM      5  C6  UNL d   1       4.026   5.998  -3.499  0.00  0.00     0.000 A 
ATOM      6  C7  UNL d   1       4.428   5.404  -4.708  0.00  0.00    -0.073 A 
ATOM      7  C8  UNL d   1       3.788   5.867  -5.988  0.00  0.00     0.078 C 
ENDROOT
BRANCH   1   8
ATOM      8  C1  UNL d   1       5.958   3.770  -5.951  0.00  0.00     0.053 C 
ATOM      9  C   UNL d   1       5.668   2.277  -5.994  0.00  0.00     0.018 C 
ENDBRANCH   1   8
TORSDOF 1
ENDMDL
