MODEL 1
REMARK minimizedAffinity 12.3183489
REMARK minimizedRMSD -1
REMARK  0 active torsions:
REMARK  status: ('A' for Active; 'I' for Inactive)
ROOT
ATOM      1  C   UNL d   1       3.002  -2.546   1.041  0.00  0.00     0.020 A 
ATOM      2  C1  UNL d   1       2.038  -3.212   0.284  0.00  0.00     0.020 A 
ATOM      3  C2  UNL d   1       0.687  -2.897   0.442  0.00  0.00     0.034 A 
ATOM      4  C3  UNL d   1       0.295  -1.913   1.357  0.00  0.00     0.017 A 
ATOM      5  C4  UNL d   1       1.263  -1.245   2.116  0.00  0.00     0.017 A 
ATOM      6  C5  UNL d   1       2.615  -1.565   1.954  0.00  0.00     0.034 A 
ATOM      7 Cl   UNL d   1       0.858  -0.020   3.265  0.00  0.00    -0.070 Cl
ATOM      8 Cl1  UNL d   1      -1.393  -1.574   1.500  0.00  0.00    -0.070 Cl
ENDROOT
TORSDOF 0
ENDMDL
