MODEL 1
REMARK minimizedAffinity 12.1689949
REMARK minimizedRMSD -1
REMARK  0 active torsions:
REMARK  status: ('A' for Active; 'I' for Inactive)
ROOT
ATOM      1  C   UNL d   1       2.852  -2.901   1.159  0.00  0.00     0.020 A 
ATOM      2  C1  UNL d   1       1.990  -3.989   1.023  0.00  0.00     0.020 A 
ATOM      3  C2  UNL d   1       0.713  -3.943   1.585  0.00  0.00     0.034 A 
ATOM      4  C3  UNL d   1       0.293  -2.807   2.287  0.00  0.00     0.017 A 
ATOM      5  C4  UNL d   1       1.159  -1.715   2.423  0.00  0.00     0.017 A 
ATOM      6  C5  UNL d   1       2.437  -1.767   1.858  0.00  0.00     0.034 A 
ATOM      7 Cl   UNL d   1       0.713  -0.279   3.274  0.00  0.00    -0.070 Cl
ATOM      8 Cl1  UNL d   1      -1.300  -2.818   2.956  0.00  0.00    -0.070 Cl
ENDROOT
TORSDOF 0
ENDMDL
