MODEL 1
REMARK minimizedAffinity 10.521574
REMARK minimizedRMSD -1
REMARK  0 active torsions:
REMARK  status: ('A' for Active; 'I' for Inactive)
ROOT
ATOM      1  C   UNL d   1      -5.015   0.573   6.000  0.00  0.00     0.020 A 
ATOM      2  C1  UNL d   1      -5.978   0.284   5.034  0.00  0.00     0.020 A 
ATOM      3  C2  UNL d   1      -5.985   0.980   3.824  0.00  0.00     0.034 A 
ATOM      4  C3  UNL d   1      -5.026   1.969   3.576  0.00  0.00     0.017 A 
ATOM      5  C4  UNL d   1      -4.060   2.259   4.545  0.00  0.00     0.017 A 
ATOM      6  C5  UNL d   1      -4.058   1.559   5.756  0.00  0.00     0.034 A 
ATOM      7 Cl   UNL d   1      -2.845   3.466   4.311  0.00  0.00    -0.070 Cl
ATOM      8 Cl1  UNL d   1      -5.094   2.790   2.057  0.00  0.00    -0.070 Cl
ENDROOT
TORSDOF 0
ENDMDL
