MODEL 1
REMARK minimizedAffinity 14.4554291
REMARK minimizedRMSD -1
REMARK  0 active torsions:
REMARK  status: ('A' for Active; 'I' for Inactive)
ROOT
ATOM      1  C   UNL d   1       4.269  -5.659   5.352  0.00  0.00     0.020 A 
ATOM      2  C1  UNL d   1       5.484  -5.391   5.982  0.00  0.00     0.020 A 
ATOM      3  C2  UNL d   1       5.999  -4.094   5.980  0.00  0.00     0.034 A 
ATOM      4  C3  UNL d   1       5.300  -3.059   5.348  0.00  0.00     0.017 A 
ATOM      5  C4  UNL d   1       4.081  -3.329   4.716  0.00  0.00     0.017 A 
ATOM      6  C5  UNL d   1       3.570  -4.630   4.720  0.00  0.00     0.034 A 
ATOM      7 Cl   UNL d   1       3.161  -2.105   3.915  0.00  0.00    -0.070 Cl
ATOM      8 Cl1  UNL d   1       5.997  -1.478   5.386  0.00  0.00    -0.070 Cl
ENDROOT
TORSDOF 0
ENDMDL
