MODEL 1
REMARK minimizedAffinity 4.26631212
REMARK minimizedRMSD -1
REMARK  0 active torsions:
REMARK  status: ('A' for Active; 'I' for Inactive)
ROOT
ATOM      1  C   UNL d   1       0.717  -2.624   0.725  0.00  0.00     0.020 A 
ATOM      2  C1  UNL d   1       1.494  -1.502   1.011  0.00  0.00     0.020 A 
ATOM      3  C2  UNL d   1       2.887  -1.590   0.973  0.00  0.00     0.034 A 
ATOM      4  C3  UNL d   1       3.508  -2.802   0.649  0.00  0.00     0.017 A 
ATOM      5  C4  UNL d   1       2.727  -3.927   0.361  0.00  0.00     0.017 A 
ATOM      6  C5  UNL d   1       1.332  -3.834   0.401  0.00  0.00     0.034 A 
ATOM      7 Cl   UNL d   1       3.421  -5.457  -0.047  0.00  0.00    -0.070 Cl
ATOM      8 Cl1  UNL d   1       5.235  -2.838   0.621  0.00  0.00    -0.070 Cl
ENDROOT
TORSDOF 0
ENDMDL
