MODEL 1
REMARK minimizedAffinity 13.6646738
REMARK minimizedRMSD -1
REMARK  0 active torsions:
REMARK  status: ('A' for Active; 'I' for Inactive)
ROOT
ATOM      1  C   UNL d   1       1.945  -3.698   0.433  0.00  0.00     0.020 A 
ATOM      2  C1  UNL d   1       3.008  -2.840   0.707  0.00  0.00     0.020 A 
ATOM      3  C2  UNL d   1       2.803  -1.704   1.494  0.00  0.00     0.034 A 
ATOM      4  C3  UNL d   1       1.532  -1.424   2.008  0.00  0.00     0.017 A 
ATOM      5  C4  UNL d   1       0.465  -2.287   1.732  0.00  0.00     0.017 A 
ATOM      6  C5  UNL d   1       0.676  -3.423   0.944  0.00  0.00     0.034 A 
ATOM      7 Cl   UNL d   1      -1.132  -2.008   2.331  0.00  0.00    -0.070 Cl
ATOM      8 Cl1  UNL d   1       1.351  -0.003   2.974  0.00  0.00    -0.070 Cl
ENDROOT
TORSDOF 0
ENDMDL
