MODEL 1
REMARK minimizedAffinity 8.33915329
REMARK minimizedRMSD -1
REMARK  0 active torsions:
REMARK  status: ('A' for Active; 'I' for Inactive)
ROOT
ATOM      1  C   UNL d   1       2.727  -2.369   0.672  0.00  0.00     0.020 A 
ATOM      2  C1  UNL d   1       1.460  -2.788   0.266  0.00  0.00     0.020 A 
ATOM      3  C2  UNL d   1       0.335  -2.436   1.015  0.00  0.00     0.034 A 
ATOM      4  C3  UNL d   1       0.474  -1.661   2.172  0.00  0.00     0.017 A 
ATOM      5  C4  UNL d   1       1.746  -1.241   2.578  0.00  0.00     0.017 A 
ATOM      6  C5  UNL d   1       2.869  -1.596   1.825  0.00  0.00     0.034 A 
ATOM      7 Cl   UNL d   1       1.997  -0.283   3.995  0.00  0.00    -0.070 Cl
ATOM      8 Cl1  UNL d   1      -0.960  -1.262   3.049  0.00  0.00    -0.070 Cl
ENDROOT
TORSDOF 0
ENDMDL
