MODEL 1
REMARK minimizedAffinity 13.4400902
REMARK minimizedRMSD -1
REMARK  0 active torsions:
REMARK  status: ('A' for Active; 'I' for Inactive)
ROOT
ATOM      1  C   UNL d   1       3.136  -0.654   1.371  0.00  0.00     0.020 A 
ATOM      2  C1  UNL d   1       4.009  -1.737   1.275  0.00  0.00     0.020 A 
ATOM      3  C2  UNL d   1       3.564  -2.947   0.737  0.00  0.00     0.034 A 
ATOM      4  C3  UNL d   1       2.242  -3.076   0.293  0.00  0.00     0.017 A 
ATOM      5  C4  UNL d   1       1.367  -1.988   0.390  0.00  0.00     0.017 A 
ATOM      6  C5  UNL d   1       1.818  -0.779   0.929  0.00  0.00     0.034 A 
ATOM      7 Cl   UNL d   1      -0.277  -2.071  -0.136  0.00  0.00    -0.070 Cl
ATOM      8 Cl1  UNL d   1       1.760  -4.600  -0.361  0.00  0.00    -0.070 Cl
ENDROOT
TORSDOF 0
ENDMDL
