MODEL 1
REMARK minimizedAffinity 14.8932257
REMARK minimizedRMSD -1
REMARK  0 active torsions:
REMARK  status: ('A' for Active; 'I' for Inactive)
ROOT
ATOM      1  C   UNL d   1       1.501  -1.277   1.578  0.00  0.00     0.020 A 
ATOM      2  C1  UNL d   1       0.849  -2.415   1.106  0.00  0.00     0.020 A 
ATOM      3  C2  UNL d   1       1.592  -3.505   0.647  0.00  0.00     0.034 A 
ATOM      4  C3  UNL d   1       2.991  -3.459   0.659  0.00  0.00     0.017 A 
ATOM      5  C4  UNL d   1       3.644  -2.316   1.133  0.00  0.00     0.017 A 
ATOM      6  C5  UNL d   1       2.896  -1.227   1.592  0.00  0.00     0.034 A 
ATOM      7 Cl   UNL d   1       5.367  -2.184   1.180  0.00  0.00    -0.070 Cl
ATOM      8 Cl1  UNL d   1       3.846  -4.843   0.077  0.00  0.00    -0.070 Cl
ENDROOT
TORSDOF 0
ENDMDL
