MODEL 1
REMARK minimizedAffinity 9.66779137
REMARK minimizedRMSD -1
REMARK  0 active torsions:
REMARK  status: ('A' for Active; 'I' for Inactive)
ROOT
ATOM      1  C4' PXY d   1       5.626   5.678   4.130  0.00  0.00     0.077 C 
ATOM      2  C1' PXY d   1       4.633  -0.017   4.152  0.00  0.00     0.077 C 
ATOM      3  C1  PXY d   1       4.889   1.477   4.134  0.00  0.00    -0.082 A 
ATOM      4  C2  PXY d   1       5.779   1.998   4.963  0.00  0.00     0.003 A 
ATOM      5  C3  PXY d   1       6.000   3.352   4.982  0.00  0.00     0.003 A 
ATOM      6  C4  PXY d   1       5.342   4.173   4.107  0.00  0.00    -0.082 A 
ATOM      7  C5  PXY d   1       4.440   3.648   3.251  0.00  0.00     0.003 A 
ATOM      8  C6  PXY d   1       4.200   2.277   3.275  0.00  0.00     0.003 A 
ENDROOT
TORSDOF 0
ENDMDL
