MODEL 1
REMARK minimizedAffinity 4.50267124
REMARK minimizedRMSD -1
REMARK  0 active torsions:
REMARK  status: ('A' for Active; 'I' for Inactive)
ROOT
ATOM      1  C4' PXY d   1       5.997   0.357   5.577  0.00  0.00     0.077 C 
ATOM      2  C1' PXY d   1       3.173   2.604   1.062  0.00  0.00     0.077 C 
ATOM      3  C1  PXY d   1       3.906   2.004   2.245  0.00  0.00    -0.082 A 
ATOM      4  C2  PXY d   1       4.493   2.801   3.124  0.00  0.00     0.003 A 
ATOM      5  C3  PXY d   1       5.187   2.274   4.182  0.00  0.00     0.003 A 
ATOM      6  C4  PXY d   1       5.238   0.919   4.372  0.00  0.00    -0.082 A 
ATOM      7  C5  PXY d   1       4.633   0.100   3.486  0.00  0.00     0.003 A 
ATOM      8  C6  PXY d   1       3.968   0.653   2.396  0.00  0.00     0.003 A 
ENDROOT
TORSDOF 0
ENDMDL
