MODEL 1
REMARK minimizedAffinity -3.2193172
REMARK minimizedRMSD -1
REMARK  0 active torsions:
REMARK  status: ('A' for Active; 'I' for Inactive)
ROOT
ATOM      1  C4' PXY d   1      -2.605  -1.471   0.859  0.00  0.00     0.077 C 
ATOM      2  C1' PXY d   1      -3.363   4.197   0.014  0.00  0.00     0.077 C 
ATOM      3  C1  PXY d   1      -3.152   2.713   0.241  0.00  0.00    -0.082 A 
ATOM      4  C2  PXY d   1      -3.818   1.838  -0.495  0.00  0.00     0.003 A 
ATOM      5  C3  PXY d   1      -3.664   0.492  -0.282  0.00  0.00     0.003 A 
ATOM      6  C4  PXY d   1      -2.779   0.037   0.659  0.00  0.00    -0.082 A 
ATOM      7  C5  PXY d   1      -2.088   0.923   1.406  0.00  0.00     0.003 A 
ATOM      8  C6  PXY d   1      -2.289   2.285   1.202  0.00  0.00     0.003 A 
ENDROOT
TORSDOF 0
ENDMDL
