MODEL 1
REMARK minimizedAffinity 4.19447708
REMARK minimizedRMSD -1
REMARK  0 active torsions:
REMARK  status: ('A' for Active; 'I' for Inactive)
ROOT
ATOM      1  C4' PXY d   1      -3.448   3.099  -0.742  0.00  0.00     0.077 C 
ATOM      2  C1' PXY d   1      -0.709  -1.971  -0.286  0.00  0.00     0.077 C 
ATOM      3  C1  PXY d   1      -1.417  -0.635  -0.401  0.00  0.00    -0.082 A 
ATOM      4  C2  PXY d   1      -2.739  -0.594  -0.405  0.00  0.00     0.003 A 
ATOM      5  C3  PXY d   1      -3.395   0.602  -0.541  0.00  0.00     0.003 A 
ATOM      6  C4  PXY d   1      -2.691   1.774  -0.618  0.00  0.00    -0.082 A 
ATOM      7  C5  PXY d   1      -1.342   1.741  -0.604  0.00  0.00     0.003 A 
ATOM      8  C6  PXY d   1      -0.694   0.513  -0.507  0.00  0.00     0.003 A 
ENDROOT
TORSDOF 0
ENDMDL
