MODEL 1
REMARK minimizedAffinity -3.69981122
REMARK minimizedRMSD -1
REMARK  0 active torsions:
REMARK  status: ('A' for Active; 'I' for Inactive)
ROOT
ATOM      1  C4' PXY d   1      -1.909  -2.248   0.472  0.00  0.00     0.077 C 
ATOM      2  C1' PXY d   1      -2.725   3.406   1.359  0.00  0.00     0.077 C 
ATOM      3  C1  PXY d   1      -2.509   1.921   1.139  0.00  0.00    -0.082 A 
ATOM      4  C2  PXY d   1      -2.115   1.486  -0.047  0.00  0.00     0.003 A 
ATOM      5  C3  PXY d   1      -1.946   0.144  -0.272  0.00  0.00     0.003 A 
ATOM      6  C4  PXY d   1      -2.131  -0.757   0.742  0.00  0.00    -0.082 A 
ATOM      7  C5  PXY d   1      -2.522  -0.320   1.957  0.00  0.00     0.003 A 
ATOM      8  C6  PXY d   1      -2.728   1.042   2.154  0.00  0.00     0.003 A 
ENDROOT
TORSDOF 0
ENDMDL
