MODEL 1
REMARK minimizedAffinity 0.95996505
REMARK minimizedRMSD -1
REMARK  0 active torsions:
REMARK  status: ('A' for Active; 'I' for Inactive)
ROOT
ATOM      1  C4' PXY d   1      -0.127   2.229  -1.160  0.00  0.00     0.077 C 
ATOM      2  C1' PXY d   1      -5.243   4.006   0.861  0.00  0.00     0.077 C 
ATOM      3  C1  PXY d   1      -3.902   3.530   0.339  0.00  0.00    -0.082 A 
ATOM      4  C2  PXY d   1      -3.035   4.409  -0.137  0.00  0.00     0.003 A 
ATOM      5  C3  PXY d   1      -1.831   3.992  -0.643  0.00  0.00     0.003 A 
ATOM      6  C4  PXY d   1      -1.489   2.666  -0.613  0.00  0.00    -0.082 A 
ATOM      7  C5  PXY d   1      -2.363   1.764  -0.120  0.00  0.00     0.003 A 
ATOM      8  C6  PXY d   1      -3.597   2.204   0.351  0.00  0.00     0.003 A 
ENDROOT
TORSDOF 0
ENDMDL
