MODEL 1
REMARK minimizedAffinity -0.459749699
REMARK minimizedRMSD -1
REMARK  0 active torsions:
REMARK  status: ('A' for Active; 'I' for Inactive)
ROOT
ATOM      1  C4' PXY d   1      -2.679   2.361  -0.348  0.00  0.00     0.077 C 
ATOM      2  C1' PXY d   1      -2.356  -1.503   3.939  0.00  0.00     0.077 C 
ATOM      3  C1  PXY d   1      -2.431  -0.496   2.809  0.00  0.00    -0.082 A 
ATOM      4  C2  PXY d   1      -2.978   0.690   3.024  0.00  0.00     0.003 A 
ATOM      5  C3  PXY d   1      -3.083   1.601   2.005  0.00  0.00     0.003 A 
ATOM      6  C4  PXY d   1      -2.574   1.316   0.766  0.00  0.00    -0.082 A 
ATOM      7  C5  PXY d   1      -2.004   0.113   0.541  0.00  0.00     0.003 A 
ATOM      8  C6  PXY d   1      -1.945  -0.813   1.578  0.00  0.00     0.003 A 
ENDROOT
TORSDOF 0
ENDMDL
