MODEL 1
REMARK minimizedAffinity -0.507768989
REMARK minimizedRMSD -1
REMARK  0 active torsions:
REMARK  status: ('A' for Active; 'I' for Inactive)
ROOT
ATOM      1  C4' PXY d   1      -2.330  -0.619   2.903  0.00  0.00     0.077 C 
ATOM      2  C1' PXY d   1      -3.903   4.059  -0.107  0.00  0.00     0.077 C 
ATOM      3  C1  PXY d   1      -3.497   2.825   0.674  0.00  0.00    -0.082 A 
ATOM      4  C2  PXY d   1      -3.199   2.932   1.959  0.00  0.00     0.003 A 
ATOM      5  C3  PXY d   1      -2.799   1.832   2.672  0.00  0.00     0.003 A 
ATOM      6  C4  PXY d   1      -2.754   0.599   2.078  0.00  0.00    -0.082 A 
ATOM      7  C5  PXY d   1      -3.067   0.480   0.770  0.00  0.00     0.003 A 
ATOM      8  C6  PXY d   1      -3.430   1.616   0.053  0.00  0.00     0.003 A 
ENDROOT
TORSDOF 0
ENDMDL
