MODEL 1
REMARK minimizedAffinity -2.3390913
REMARK minimizedRMSD -1
REMARK  0 active torsions:
REMARK  status: ('A' for Active; 'I' for Inactive)
ROOT
ATOM      1  C4' PXY d   1      -2.798  -0.591   3.387  0.00  0.00     0.077 C 
ATOM      2  C1' PXY d   1      -3.207   3.272  -0.894  0.00  0.00     0.077 C 
ATOM      3  C1  PXY d   1      -3.102   2.249   0.220  0.00  0.00    -0.082 A 
ATOM      4  C2  PXY d   1      -3.333   2.617   1.470  0.00  0.00     0.003 A 
ATOM      5  C3  PXY d   1      -3.211   1.713   2.493  0.00  0.00     0.003 A 
ATOM      6  C4  PXY d   1      -2.901   0.406   2.229  0.00  0.00    -0.082 A 
ATOM      7  C5  PXY d   1      -2.674   0.020   0.956  0.00  0.00     0.003 A 
ATOM      8  C6  PXY d   1      -2.763   0.963  -0.064  0.00  0.00     0.003 A 
ENDROOT
TORSDOF 0
ENDMDL
