MODEL 1
REMARK minimizedAffinity 0.373973817
REMARK minimizedRMSD -1
REMARK  0 active torsions:
REMARK  status: ('A' for Active; 'I' for Inactive)
ROOT
ATOM      1  C4' PXY d   1       1.523  -3.790   1.221  0.00  0.00     0.077 C 
ATOM      2  C1' PXY d   1       4.417   0.847   3.102  0.00  0.00     0.077 C 
ATOM      3  C1  PXY d   1       3.656  -0.363   2.597  0.00  0.00    -0.082 A 
ATOM      4  C2  PXY d   1       3.090  -1.188   3.463  0.00  0.00     0.003 A 
ATOM      5  C3  PXY d   1       2.426  -2.304   3.026  0.00  0.00     0.003 A 
ATOM      6  C4  PXY d   1       2.293  -2.550   1.685  0.00  0.00    -0.082 A 
ATOM      7  C5  PXY d   1       2.858  -1.708   0.795  0.00  0.00     0.003 A 
ATOM      8  C6  PXY d   1       3.564  -0.603   1.261  0.00  0.00     0.003 A 
ENDROOT
TORSDOF 0
ENDMDL
