MODEL 1
REMARK minimizedAffinity 9.59795094
REMARK minimizedRMSD -1
REMARK  0 active torsions:
REMARK  status: ('A' for Active; 'I' for Inactive)
ROOT
ATOM      1  C4' PXY d   1      -5.281   5.715   5.978  0.00  0.00     0.077 C 
ATOM      2  C1' PXY d   1      -4.180   5.620   0.305  0.00  0.00     0.077 C 
ATOM      3  C1  PXY d   1      -4.481   5.646   1.790  0.00  0.00    -0.082 A 
ATOM      4  C2  PXY d   1      -3.533   5.998   2.644  0.00  0.00     0.003 A 
ATOM      5  C3  PXY d   1      -3.780   5.997   3.993  0.00  0.00     0.003 A 
ATOM      6  C4  PXY d   1      -5.024   5.683   4.469  0.00  0.00    -0.082 A 
ATOM      7  C5  PXY d   1      -5.999   5.333   3.604  0.00  0.00     0.003 A 
ATOM      8  C6  PXY d   1      -5.717   5.301   2.241  0.00  0.00     0.003 A 
ENDROOT
TORSDOF 0
ENDMDL
