MODEL 1
REMARK minimizedAffinity 1.70655751
REMARK minimizedRMSD -1
REMARK  0 active torsions:
REMARK  status: ('A' for Active; 'I' for Inactive)
ROOT
ATOM      1  C4' PXY d   1      -5.201   0.153  -1.139  0.00  0.00     0.077 C 
ATOM      2  C1' PXY d   1      -2.578  -1.025   3.876  0.00  0.00     0.077 C 
ATOM      3  C1  PXY d   1      -3.254  -0.714   2.556  0.00  0.00    -0.082 A 
ATOM      4  C2  PXY d   1      -4.528  -0.355   2.542  0.00  0.00     0.003 A 
ATOM      5  C3  PXY d   1      -5.163  -0.100   1.354  0.00  0.00     0.003 A 
ATOM      6  C4  PXY d   1      -4.474  -0.162   0.172  0.00  0.00    -0.082 A 
ATOM      7  C5  PXY d   1      -3.172  -0.517   0.179  0.00  0.00     0.003 A 
ATOM      8  C6  PXY d   1      -2.556  -0.812   1.392  0.00  0.00     0.003 A 
ENDROOT
TORSDOF 0
ENDMDL
