MODEL 1
REMARK minimizedAffinity 3.25829124
REMARK minimizedRMSD -1
REMARK  0 active torsions:
REMARK  status: ('A' for Active; 'I' for Inactive)
ROOT
ATOM      1  C4' PXY d   1       3.609   2.634   0.927  0.00  0.00     0.077 C 
ATOM      2  C1' PXY d   1       6.000   1.231   6.000  0.00  0.00     0.077 C 
ATOM      3  C1  PXY d   1       5.370   1.586   4.668  0.00  0.00    -0.082 A 
ATOM      4  C2  PXY d   1       5.760   2.678   4.030  0.00  0.00     0.003 A 
ATOM      5  C3  PXY d   1       5.178   3.032   2.840  0.00  0.00     0.003 A 
ATOM      6  C4  PXY d   1       4.224   2.231   2.270  0.00  0.00    -0.082 A 
ATOM      7  C5  PXY d   1       3.829   1.110   2.910  0.00  0.00     0.003 A 
ATOM      8  C6  PXY d   1       4.402   0.790   4.137  0.00  0.00     0.003 A 
ENDROOT
TORSDOF 0
ENDMDL
