MODEL 1
REMARK minimizedAffinity -1.86295712
REMARK minimizedRMSD -1
REMARK  0 active torsions:
REMARK  status: ('A' for Active; 'I' for Inactive)
ROOT
ATOM      1  C4' PXY d   1       2.022  -1.273   0.869  0.00  0.00     0.077 C 
ATOM      2  C1' PXY d   1       5.995   1.273   4.207  0.00  0.00     0.077 C 
ATOM      3  C1  PXY d   1       4.961   0.595   3.331  0.00  0.00    -0.082 A 
ATOM      4  C2  PXY d   1       4.104   1.330   2.641  0.00  0.00     0.003 A 
ATOM      5  C3  PXY d   1       3.142   0.733   1.869  0.00  0.00     0.003 A 
ATOM      6  C4  PXY d   1       3.089  -0.631   1.760  0.00  0.00    -0.082 A 
ATOM      7  C5  PXY d   1       3.967  -1.388   2.452  0.00  0.00     0.003 A 
ATOM      8  C6  PXY d   1       4.910  -0.763   3.262  0.00  0.00     0.003 A 
ENDROOT
TORSDOF 0
ENDMDL
