MODEL 1
REMARK minimizedAffinity 3.71566153
REMARK minimizedRMSD -1
REMARK  0 active torsions:
REMARK  status: ('A' for Active; 'I' for Inactive)
ROOT
ATOM      1  C4' PXY d   1       5.999   0.754   5.451  0.00  0.00     0.077 C 
ATOM      2  C1' PXY d   1       2.666  -1.859   1.518  0.00  0.00     0.077 C 
ATOM      3  C1  PXY d   1       3.546  -1.167   2.540  0.00  0.00    -0.082 A 
ATOM      4  C2  PXY d   1       3.718  -1.714   3.732  0.00  0.00     0.003 A 
ATOM      5  C3  PXY d   1       4.485  -1.087   4.679  0.00  0.00     0.003 A 
ATOM      6  C4  PXY d   1       5.127   0.087   4.385  0.00  0.00    -0.082 A 
ATOM      7  C5  PXY d   1       4.965   0.646   3.167  0.00  0.00     0.003 A 
ATOM      8  C6  PXY d   1       4.149   0.014   2.233  0.00  0.00     0.003 A 
ENDROOT
TORSDOF 0
ENDMDL
