MODEL 1
REMARK minimizedAffinity -0.638660014
REMARK minimizedRMSD -1
REMARK  0 active torsions:
REMARK  status: ('A' for Active; 'I' for Inactive)
ROOT
ATOM      1  C4' PXY d   1       5.665   5.752   4.534  0.00  0.00     0.077 C 
ATOM      2  C1' PXY d   1       5.559   0.012   3.858  0.00  0.00     0.077 C 
ATOM      3  C1  PXY d   1       5.587   1.519   4.022  0.00  0.00    -0.082 A 
ATOM      4  C2  PXY d   1       5.996   2.045   5.166  0.00  0.00     0.003 A 
ATOM      5  C3  PXY d   1       5.998   3.404   5.343  0.00  0.00     0.003 A 
ATOM      6  C4  PXY d   1       5.628   4.236   4.320  0.00  0.00    -0.082 A 
ATOM      7  C5  PXY d   1       5.220   3.708   3.147  0.00  0.00     0.003 A 
ATOM      8  C6  PXY d   1       5.186   2.324   3.002  0.00  0.00     0.003 A 
ENDROOT
TORSDOF 0
ENDMDL
