MODEL 1
REMARK minimizedAffinity 1.97211885
REMARK minimizedRMSD -1
REMARK  0 active torsions:
REMARK  status: ('A' for Active; 'I' for Inactive)
ROOT
ATOM      1  C4' PXY d   1       5.307   5.476   4.124  0.00  0.00     0.077 C 
ATOM      2  C1' PXY d   1       5.235  -0.266   3.457  0.00  0.00     0.077 C 
ATOM      3  C1  PXY d   1       5.250   1.242   3.619  0.00  0.00    -0.082 A 
ATOM      4  C2  PXY d   1       5.999   1.790   4.562  0.00  0.00     0.003 A 
ATOM      5  C3  PXY d   1       6.000   3.150   4.744  0.00  0.00     0.003 A 
ATOM      6  C4  PXY d   1       5.268   3.959   3.917  0.00  0.00    -0.082 A 
ATOM      7  C5  PXY d   1       4.510   3.408   2.946  0.00  0.00     0.003 A 
ATOM      8  C6  PXY d   1       4.491   2.023   2.805  0.00  0.00     0.003 A 
ENDROOT
TORSDOF 0
ENDMDL
