MODEL 1
REMARK minimizedAffinity 13.6591654
REMARK minimizedRMSD -1
REMARK  0 active torsions:
REMARK  status: ('A' for Active; 'I' for Inactive)
ROOT
ATOM      1  C4' PXY d   1       5.996   0.737  -6.000  0.00  0.00     0.077 C 
ATOM      2  C1' PXY d   1       3.371   5.700  -4.627  0.00  0.00     0.077 C 
ATOM      3  C1  PXY d   1       4.071   4.405  -4.986  0.00  0.00    -0.082 A 
ATOM      4  C2  PXY d   1       3.428   3.486  -5.689  0.00  0.00     0.003 A 
ATOM      5  C3  PXY d   1       4.035   2.296  -5.994  0.00  0.00     0.003 A 
ATOM      6  C4  PXY d   1       5.332   2.064  -5.623  0.00  0.00    -0.082 A 
ATOM      7  C5  PXY d   1       5.999   3.000  -4.915  0.00  0.00     0.003 A 
ATOM      8  C6  PXY d   1       5.351   4.185  -4.579  0.00  0.00     0.003 A 
ENDROOT
TORSDOF 0
ENDMDL
