MODEL 1
REMARK minimizedAffinity 5.29974651
REMARK minimizedRMSD -1
REMARK  0 active torsions:
REMARK  status: ('A' for Active; 'I' for Inactive)
ROOT
ATOM      1  C4' PXY d   1       5.140  -0.402   3.000  0.00  0.00     0.077 C 
ATOM      2  C1' PXY d   1       5.613   5.286   3.912  0.00  0.00     0.077 C 
ATOM      3  C1  PXY d   1       5.478   3.797   3.666  0.00  0.00    -0.082 A 
ATOM      4  C2  PXY d   1       5.998   2.941   4.531  0.00  0.00     0.003 A 
ATOM      5  C3  PXY d   1       5.914   1.591   4.307  0.00  0.00     0.003 A 
ATOM      6  C4  PXY d   1       5.243   1.111   3.214  0.00  0.00    -0.082 A 
ATOM      7  C5  PXY d   1       4.701   1.977   2.332  0.00  0.00     0.003 A 
ATOM      8  C6  PXY d   1       4.834   3.344   2.556  0.00  0.00     0.003 A 
ENDROOT
TORSDOF 0
ENDMDL
