MODEL 1
REMARK minimizedAffinity 0.245221272
REMARK minimizedRMSD -1
REMARK  0 active torsions:
REMARK  status: ('A' for Active; 'I' for Inactive)
ROOT
ATOM      1  C4' PXY d   1      -5.587  -0.486   2.186  0.00  0.00     0.077 C 
ATOM      2  C1' PXY d   1      -0.547  -2.472   0.166  0.00  0.00     0.077 C 
ATOM      3  C1  PXY d   1      -1.867  -1.957   0.707  0.00  0.00    -0.082 A 
ATOM      4  C2  PXY d   1      -2.836  -1.633  -0.133  0.00  0.00     0.003 A 
ATOM      5  C3  PXY d   1      -4.024  -1.136   0.338  0.00  0.00     0.003 A 
ATOM      6  C4  PXY d   1      -4.241  -1.019   1.685  0.00  0.00    -0.082 A 
ATOM      7  C5  PXY d   1      -3.261  -1.358   2.548  0.00  0.00     0.003 A 
ATOM      8  C6  PXY d   1      -2.047  -1.822   2.049  0.00  0.00     0.003 A 
ENDROOT
TORSDOF 0
ENDMDL
