MODEL 1
REMARK minimizedAffinity -5.64076567
REMARK minimizedRMSD -1
REMARK  1 active torsions:
REMARK  status: ('A' for Active; 'I' for Inactive)
REMARK    1  A    between atoms: C1_2  and  C2_3 
ROOT
ATOM      1  C2  UNL d   1      -1.344   0.914   1.267  0.00  0.00    -0.073 A 
ATOM      2  C3  UNL d   1      -2.294   1.610   2.023  0.00  0.00    -0.002 A 
ATOM      3  C4  UNL d   1      -2.527   2.966   1.786  0.00  0.00     0.004 A 
ATOM      4  C5  UNL d   1      -1.819   3.636   0.788  0.00  0.00    -0.004 A 
ATOM      5  C6  UNL d   1      -0.875   2.954   0.014  0.00  0.00    -0.075 A 
ATOM      6  C7  UNL d   1      -0.103   3.660  -1.062  0.00  0.00     0.076 C 
ATOM      7  C8  UNL d   1      -0.644   1.593   0.260  0.00  0.00     0.001 A 
ENDROOT
BRANCH   1   8
ATOM      8  C1  UNL d   1      -1.094  -0.551   1.515  0.00  0.00     0.053 C 
ATOM      9  C   UNL d   1       0.390  -0.884   1.515  0.00  0.00     0.018 C 
ENDBRANCH   1   8
TORSDOF 1
ENDMDL
