MODEL 1
REMARK minimizedAffinity -4.47404385
REMARK minimizedRMSD -1
REMARK  1 active torsions:
REMARK  status: ('A' for Active; 'I' for Inactive)
REMARK    1  A    between atoms: C1_2  and  C2_3 
ROOT
ATOM      1  C2  UNL d   1       0.410  -0.034   0.010  0.00  0.00    -0.073 A 
ATOM      2  C3  UNL d   1      -0.188  -0.061   1.275  0.00  0.00    -0.002 A 
ATOM      3  C4  UNL d   1      -0.854   1.064   1.764  0.00  0.00     0.004 A 
ATOM      4  C5  UNL d   1      -0.935   2.223   0.991  0.00  0.00    -0.004 A 
ATOM      5  C6  UNL d   1      -0.353   2.265  -0.280  0.00  0.00    -0.075 A 
ATOM      6  C7  UNL d   1      -0.429   3.504  -1.122  0.00  0.00     0.076 C 
ATOM      7  C8  UNL d   1       0.316   1.132  -0.762  0.00  0.00     0.001 A 
ENDROOT
BRANCH   1   8
ATOM      8  C1  UNL d   1       1.125  -1.248  -0.524  0.00  0.00     0.053 C 
ATOM      9  C   UNL d   1       0.290  -1.995  -1.552  0.00  0.00     0.018 C 
ENDBRANCH   1   8
TORSDOF 1
ENDMDL
