MODEL 1
REMARK minimizedAffinity -6.21762466
REMARK minimizedRMSD -1
REMARK  1 active torsions:
REMARK  status: ('A' for Active; 'I' for Inactive)
REMARK    1  A    between atoms: C1_2  and  C2_3 
ROOT
ATOM      1  C2  UNL d   1      -0.754   0.798   0.875  0.00  0.00    -0.073 A 
ATOM      2  C3  UNL d   1      -1.776   1.177   1.752  0.00  0.00    -0.002 A 
ATOM      3  C4  UNL d   1      -2.316   2.462   1.694  0.00  0.00     0.004 A 
ATOM      4  C5  UNL d   1      -1.845   3.379   0.754  0.00  0.00    -0.004 A 
ATOM      5  C6  UNL d   1      -0.833   3.016  -0.140  0.00  0.00    -0.075 A 
ATOM      6  C7  UNL d   1      -0.314   3.991  -1.156  0.00  0.00     0.076 C 
ATOM      7  C8  UNL d   1      -0.294   1.724  -0.073  0.00  0.00     0.001 A 
ENDROOT
BRANCH   1   8
ATOM      8  C1  UNL d   1      -0.172  -0.590   0.930  0.00  0.00     0.053 C 
ATOM      9  C   UNL d   1       0.824  -0.837  -0.192  0.00  0.00     0.018 C 
ENDBRANCH   1   8
TORSDOF 1
ENDMDL
