MODEL 1
REMARK minimizedAffinity -6.00584269
REMARK minimizedRMSD -1
REMARK  1 active torsions:
REMARK  status: ('A' for Active; 'I' for Inactive)
REMARK    1  A    between atoms: C1_2  and  C2_3 
ROOT
ATOM      1  C2  UNL d   1      -0.807   2.120   0.597  0.00  0.00    -0.073 A 
ATOM      2  C3  UNL d   1      -1.516   1.825   1.767  0.00  0.00    -0.002 A 
ATOM      3  C4  UNL d   1      -1.517   0.529   2.283  0.00  0.00     0.004 A 
ATOM      4  C5  UNL d   1      -0.803  -0.483   1.641  0.00  0.00    -0.004 A 
ATOM      5  C6  UNL d   1      -0.078  -0.206   0.478  0.00  0.00    -0.075 A 
ATOM      6  C7  UNL d   1       0.692  -1.284  -0.226  0.00  0.00     0.076 C 
ATOM      7  C8  UNL d   1      -0.085   1.098  -0.036  0.00  0.00     0.001 A 
ENDROOT
BRANCH   1   8
ATOM      8  C1  UNL d   1      -0.798   3.519   0.039  0.00  0.00     0.053 C 
ATOM      9  C   UNL d   1       0.183   3.668  -1.113  0.00  0.00     0.018 C 
ENDBRANCH   1   8
TORSDOF 1
ENDMDL
