MODEL 1
REMARK minimizedAffinity -2.68601632
REMARK minimizedRMSD -1
REMARK  1 active torsions:
REMARK  status: ('A' for Active; 'I' for Inactive)
REMARK    1  A    between atoms: C1_2  and  C2_3 
ROOT
ATOM      1  C2  UNL d   1       0.845  -1.446  -0.618  0.00  0.00    -0.073 A 
ATOM      2  C3  UNL d   1       0.774  -1.826   0.727  0.00  0.00    -0.002 A 
ATOM      3  C4  UNL d   1       0.671  -0.860   1.729  0.00  0.00     0.004 A 
ATOM      4  C5  UNL d   1       0.630   0.494   1.396  0.00  0.00    -0.004 A 
ATOM      5  C6  UNL d   1       0.687   0.894   0.057  0.00  0.00    -0.075 A 
ATOM      6  C7  UNL d   1       0.647   2.346  -0.317  0.00  0.00     0.076 C 
ATOM      7  C8  UNL d   1       0.794  -0.082  -0.943  0.00  0.00     0.001 A 
ENDROOT
BRANCH   1   8
ATOM      8  C1  UNL d   1       0.950  -2.486  -1.703  0.00  0.00     0.053 C 
ATOM      9  C   UNL d   1       0.396  -3.830  -1.260  0.00  0.00     0.018 C 
ENDBRANCH   1   8
TORSDOF 1
ENDMDL
