MODEL 1
REMARK minimizedAffinity -6.26857233
REMARK minimizedRMSD -1
REMARK  1 active torsions:
REMARK  status: ('A' for Active; 'I' for Inactive)
REMARK    1  A    between atoms: C1_2  and  C2_3 
ROOT
ATOM      1  C2  UNL d   1      -0.744   3.096  -0.215  0.00  0.00    -0.073 A 
ATOM      2  C3  UNL d   1      -1.981   3.634   0.159  0.00  0.00    -0.002 A 
ATOM      3  C4  UNL d   1      -2.856   2.898   0.960  0.00  0.00     0.004 A 
ATOM      4  C5  UNL d   1      -2.501   1.623   1.400  0.00  0.00    -0.004 A 
ATOM      5  C6  UNL d   1      -1.265   1.074   1.047  0.00  0.00    -0.075 A 
ATOM      6  C7  UNL d   1      -0.869  -0.297   1.511  0.00  0.00     0.076 C 
ATOM      7  C8  UNL d   1      -0.393   1.818   0.240  0.00  0.00     0.001 A 
ENDROOT
BRANCH   1   8
ATOM      8  C1  UNL d   1       0.206   3.889  -1.074  0.00  0.00     0.053 C 
ATOM      9  C   UNL d   1       0.972   4.927  -0.269  0.00  0.00     0.018 C 
ENDBRANCH   1   8
TORSDOF 1
ENDMDL
