MODEL 1
REMARK minimizedAffinity -3.7705195
REMARK minimizedRMSD -1
REMARK  1 active torsions:
REMARK  status: ('A' for Active; 'I' for Inactive)
REMARK    1  A    between atoms: C1_2  and  C2_3 
ROOT
ATOM      1  C2  UNL d   1       0.743   0.683  -0.630  0.00  0.00    -0.073 A 
ATOM      2  C3  UNL d   1       0.841   2.014  -1.053  0.00  0.00    -0.002 A 
ATOM      3  C4  UNL d   1       0.130   3.017  -0.393  0.00  0.00     0.004 A 
ATOM      4  C5  UNL d   1      -0.679   2.701   0.699  0.00  0.00    -0.004 A 
ATOM      5  C6  UNL d   1      -0.781   1.379   1.143  0.00  0.00    -0.075 A 
ATOM      6  C7  UNL d   1      -1.649   1.023   2.314  0.00  0.00     0.076 C 
ATOM      7  C8  UNL d   1      -0.066   0.377   0.473  0.00  0.00     0.001 A 
ENDROOT
BRANCH   1   8
ATOM      8  C1  UNL d   1       1.514  -0.403  -1.336  0.00  0.00     0.053 C 
ATOM      9  C   UNL d   1       0.700  -1.678  -1.481  0.00  0.00     0.018 C 
ENDBRANCH   1   8
TORSDOF 1
ENDMDL
