MODEL 1
REMARK minimizedAffinity -6.18875027
REMARK minimizedRMSD -1
REMARK  1 active torsions:
REMARK  status: ('A' for Active; 'I' for Inactive)
REMARK    1  A    between atoms: C1_2  and  C2_3 
ROOT
ATOM      1  C2  UNL d   1       0.543   0.339  -0.161  0.00  0.00    -0.073 A 
ATOM      2  C3  UNL d   1      -0.214  -0.045   0.952  0.00  0.00    -0.002 A 
ATOM      3  C4  UNL d   1      -1.060   0.872   1.578  0.00  0.00     0.004 A 
ATOM      4  C5  UNL d   1      -1.163   2.176   1.095  0.00  0.00    -0.004 A 
ATOM      5  C6  UNL d   1      -0.424   2.574  -0.024  0.00  0.00    -0.075 A 
ATOM      6  C7  UNL d   1      -0.523   3.974  -0.555  0.00  0.00     0.076 C 
ATOM      7  C8  UNL d   1       0.425   1.649  -0.646  0.00  0.00     0.001 A 
ENDROOT
BRANCH   1   8
ATOM      8  C1  UNL d   1       1.453  -0.649  -0.845  0.00  0.00     0.053 C 
ATOM      9  C   UNL d   1       0.675  -1.679  -1.649  0.00  0.00     0.018 C 
ENDBRANCH   1   8
TORSDOF 1
ENDMDL
