MODEL 1
REMARK minimizedAffinity -2.27955389
REMARK minimizedRMSD -1
REMARK  0 active torsions:
REMARK  status: ('A' for Active; 'I' for Inactive)
ROOT
ATOM      1  C4' PXY d   1      -0.922   0.089  -1.119  0.00  0.00     0.077 C 
ATOM      2  C1' PXY d   1       3.483   2.534   1.715  0.00  0.00     0.077 C 
ATOM      3  C1  PXY d   1       2.334   1.881   0.973  0.00  0.00    -0.082 A 
ATOM      4  C2  PXY d   1       1.625   2.590   0.110  0.00  0.00     0.003 A 
ATOM      5  C3  PXY d   1       0.562   2.024  -0.546  0.00  0.00     0.003 A 
ATOM      6  C4  PXY d   1       0.254   0.704  -0.355  0.00  0.00    -0.082 A 
ATOM      7  C5  PXY d   1       0.978  -0.029   0.517  0.00  0.00     0.003 A 
ATOM      8  C6  PXY d   1       2.028   0.575   1.203  0.00  0.00     0.003 A 
ENDROOT
TORSDOF 0
ENDMDL
