MODEL 1
REMARK minimizedAffinity -4.61005497
REMARK minimizedRMSD -1
REMARK  0 active torsions:
REMARK  status: ('A' for Active; 'I' for Inactive)
ROOT
ATOM      1  C4' PXY d   1       1.635   0.618  -0.028  0.00  0.00     0.077 C 
ATOM      2  C1' PXY d   1      -3.447  -2.136  -0.011  0.00  0.00     0.077 C 
ATOM      3  C1  PXY d   1      -2.116  -1.411  -0.028  0.00  0.00    -0.082 A 
ATOM      4  C2  PXY d   1      -1.200  -1.703   0.881  0.00  0.00     0.003 A 
ATOM      5  C3  PXY d   1      -0.003  -1.035   0.900  0.00  0.00     0.003 A 
ATOM      6  C4  PXY d   1       0.281  -0.095  -0.054  0.00  0.00    -0.082 A 
ATOM      7  C5  PXY d   1      -0.644   0.201  -0.992  0.00  0.00     0.003 A 
ATOM      8  C6  PXY d   1      -1.869  -0.459  -0.969  0.00  0.00     0.003 A 
ENDROOT
TORSDOF 0
ENDMDL
