MODEL 1
REMARK minimizedAffinity -0.696482182
REMARK minimizedRMSD -1
REMARK  0 active torsions:
REMARK  status: ('A' for Active; 'I' for Inactive)
ROOT
ATOM      1  C4' PXY d   1       1.624   0.503   0.006  0.00  0.00     0.077 C 
ATOM      2  C1' PXY d   1      -3.289  -2.417  -0.865  0.00  0.00     0.077 C 
ATOM      3  C1  PXY d   1      -2.001  -1.647  -0.648  0.00  0.00    -0.082 A 
ATOM      4  C2  PXY d   1      -1.152  -2.041   0.287  0.00  0.00     0.003 A 
ATOM      5  C3  PXY d   1       0.002  -1.337   0.517  0.00  0.00     0.003 A 
ATOM      6  C4  PXY d   1       0.316  -0.250  -0.253  0.00  0.00    -0.082 A 
ATOM      7  C5  PXY d   1      -0.539   0.152  -1.217  0.00  0.00     0.003 A 
ATOM      8  C6  PXY d   1      -1.725  -0.551  -1.407  0.00  0.00     0.003 A 
ENDROOT
TORSDOF 0
ENDMDL
