MODEL 1
REMARK minimizedAffinity -4.24635029
REMARK minimizedRMSD -1
REMARK  0 active torsions:
REMARK  status: ('A' for Active; 'I' for Inactive)
ROOT
ATOM      1  C4' PXY d   1      -0.765  -2.632   1.529  0.00  0.00     0.077 C 
ATOM      2  C1' PXY d   1      -1.484   1.296  -2.650  0.00  0.00     0.077 C 
ATOM      3  C1  PXY d   1      -1.309   0.264  -1.554  0.00  0.00    -0.082 A 
ATOM      4  C2  PXY d   1      -0.228   0.297  -0.791  0.00  0.00     0.003 A 
ATOM      5  C3  PXY d   1      -0.038  -0.648   0.184  0.00  0.00     0.003 A 
ATOM      6  C4  PXY d   1      -0.989  -1.605   0.416  0.00  0.00    -0.082 A 
ATOM      7  C5  PXY d   1      -2.099  -1.639  -0.350  0.00  0.00     0.003 A 
ATOM      8  C6  PXY d   1      -2.254  -0.695  -1.362  0.00  0.00     0.003 A 
ENDROOT
TORSDOF 0
ENDMDL
