MODEL 1
REMARK minimizedAffinity -4.17724562
REMARK minimizedRMSD -1
REMARK  0 active torsions:
REMARK  status: ('A' for Active; 'I' for Inactive)
ROOT
ATOM      1  C4' PXY d   1      -1.462  -3.319   1.537  0.00  0.00     0.077 C 
ATOM      2  C1' PXY d   1      -0.680   1.415  -1.686  0.00  0.00     0.077 C 
ATOM      3  C1  PXY d   1      -0.872   0.173  -0.839  0.00  0.00    -0.082 A 
ATOM      4  C2  PXY d   1      -1.938  -0.588  -1.026  0.00  0.00     0.003 A 
ATOM      5  C3  PXY d   1      -2.144  -1.698  -0.247  0.00  0.00     0.003 A 
ATOM      6  C4  PXY d   1      -1.222  -2.061   0.698  0.00  0.00    -0.082 A 
ATOM      7  C5  PXY d   1      -0.127  -1.295   0.888  0.00  0.00     0.003 A 
ATOM      8  C6  PXY d   1       0.043  -0.151   0.115  0.00  0.00     0.003 A 
ENDROOT
TORSDOF 0
ENDMDL
