MODEL 1
REMARK minimizedAffinity -2.8716104
REMARK minimizedRMSD -1
REMARK  0 active torsions:
REMARK  status: ('A' for Active; 'I' for Inactive)
ROOT
ATOM      1  C4' PXY d   1       2.316   0.835   1.018  0.00  0.00     0.077 C 
ATOM      2  C1' PXY d   1      -2.625  -0.796  -1.500  0.00  0.00     0.077 C 
ATOM      3  C1  PXY d   1      -1.332  -0.376  -0.829  0.00  0.00    -0.082 A 
ATOM      4  C2  PXY d   1      -0.750   0.758  -1.184  0.00  0.00     0.003 A 
ATOM      5  C3  PXY d   1       0.436   1.138  -0.610  0.00  0.00     0.003 A 
ATOM      6  C4  PXY d   1       1.005   0.375   0.375  0.00  0.00    -0.082 A 
ATOM      7  C5  PXY d   1       0.411  -0.777   0.750  0.00  0.00     0.003 A 
ATOM      8  C6  PXY d   1      -0.771  -1.166   0.126  0.00  0.00     0.003 A 
ENDROOT
TORSDOF 0
ENDMDL
