MODEL 1
REMARK minimizedAffinity -3.60441279
REMARK minimizedRMSD -1
REMARK  0 active torsions:
REMARK  status: ('A' for Active; 'I' for Inactive)
ROOT
ATOM      1  C4' PXY d   1      -0.737  -2.751   1.802  0.00  0.00     0.077 C 
ATOM      2  C1' PXY d   1      -0.994   0.919  -2.656  0.00  0.00     0.077 C 
ATOM      3  C1  PXY d   1      -0.939  -0.045  -1.487  0.00  0.00    -0.082 A 
ATOM      4  C2  PXY d   1       0.060   0.030  -0.623  0.00  0.00     0.003 A 
ATOM      5  C3  PXY d   1       0.142  -0.855   0.421  0.00  0.00     0.003 A 
ATOM      6  C4  PXY d   1      -0.838  -1.792   0.613  0.00  0.00    -0.082 A 
ATOM      7  C5  PXY d   1      -1.866  -1.869  -0.258  0.00  0.00     0.003 A 
ATOM      8  C6  PXY d   1      -1.909  -0.988  -1.335  0.00  0.00     0.003 A 
ENDROOT
TORSDOF 0
ENDMDL
