MODEL 1
REMARK minimizedAffinity -0.269253165
REMARK minimizedRMSD -1
REMARK  0 active torsions:
REMARK  status: ('A' for Active; 'I' for Inactive)
ROOT
ATOM      1  C4' PXY d   1       0.301   1.011  -1.839  0.00  0.00     0.077 C 
ATOM      2  C1' PXY d   1      -2.389  -3.257   0.983  0.00  0.00     0.077 C 
ATOM      3  C1  PXY d   1      -1.679  -2.133   0.254  0.00  0.00    -0.082 A 
ATOM      4  C2  PXY d   1      -2.143  -1.713  -0.911  0.00  0.00     0.003 A 
ATOM      5  C3  PXY d   1      -1.495  -0.720  -1.599  0.00  0.00     0.003 A 
ATOM      6  C4  PXY d   1      -0.390  -0.114  -1.064  0.00  0.00    -0.082 A 
ATOM      7  C5  PXY d   1       0.084  -0.530   0.130  0.00  0.00     0.003 A 
ATOM      8  C6  PXY d   1      -0.565  -1.568   0.793  0.00  0.00     0.003 A 
ENDROOT
TORSDOF 0
ENDMDL
