MODEL 1
REMARK minimizedAffinity -0.478024423
REMARK minimizedRMSD -1
REMARK  0 active torsions:
REMARK  status: ('A' for Active; 'I' for Inactive)
ROOT
ATOM      1  C4' PXY d   1       2.080   2.306   1.429  0.00  0.00     0.077 C 
ATOM      2  C1' PXY d   1      -1.778  -0.812  -1.538  0.00  0.00     0.077 C 
ATOM      3  C1  PXY d   1      -0.763  -0.005  -0.754  0.00  0.00    -0.082 A 
ATOM      4  C2  PXY d   1      -0.958   1.291  -0.569  0.00  0.00     0.003 A 
ATOM      5  C3  PXY d   1      -0.033   2.042   0.110  0.00  0.00     0.003 A 
ATOM      6  C4  PXY d   1       1.076   1.450   0.652  0.00  0.00    -0.082 A 
ATOM      7  C5  PXY d   1       1.277   0.127   0.477  0.00  0.00     0.003 A 
ATOM      8  C6  PXY d   1       0.348  -0.610  -0.251  0.00  0.00     0.003 A 
ENDROOT
TORSDOF 0
ENDMDL
