MODEL 1
REMARK minimizedAffinity -1.02470446
REMARK minimizedRMSD -1
REMARK  0 active torsions:
REMARK  status: ('A' for Active; 'I' for Inactive)
ROOT
ATOM      1  C4' PXY d   1       2.955   2.988   1.553  0.00  0.00     0.077 C 
ATOM      2  C1' PXY d   1      -0.723  -0.677  -0.987  0.00  0.00     0.077 C 
ATOM      3  C1  PXY d   1       0.232   0.293  -0.321  0.00  0.00    -0.082 A 
ATOM      4  C2  PXY d   1       1.537   0.127  -0.462  0.00  0.00     0.003 A 
ATOM      5  C3  PXY d   1       2.416   0.977   0.160  0.00  0.00     0.003 A 
ATOM      6  C4  PXY d   1       1.954   2.038   0.891  0.00  0.00    -0.082 A 
ATOM      7  C5  PXY d   1       0.623   2.220   1.031  0.00  0.00     0.003 A 
ATOM      8  C6  PXY d   1      -0.251   1.323   0.426  0.00  0.00     0.003 A 
ENDROOT
TORSDOF 0
ENDMDL
