MODEL 1
REMARK minimizedAffinity -2.86376429
REMARK minimizedRMSD -1
REMARK  0 active torsions:
REMARK  status: ('A' for Active; 'I' for Inactive)
ROOT
ATOM      1  C4' PXY d   1      -1.059  -0.154  -0.996  0.00  0.00     0.077 C 
ATOM      2  C1' PXY d   1       2.876   2.900   1.937  0.00  0.00     0.077 C 
ATOM      3  C1  PXY d   1       1.854   2.095   1.160  0.00  0.00    -0.082 A 
ATOM      4  C2  PXY d   1       0.589   2.484   1.144  0.00  0.00     0.003 A 
ATOM      5  C3  PXY d   1      -0.354   1.749   0.473  0.00  0.00     0.003 A 
ATOM      6  C4  PXY d   1       0.009   0.634  -0.233  0.00  0.00    -0.082 A 
ATOM      7  C5  PXY d   1       1.299   0.236  -0.230  0.00  0.00     0.003 A 
ATOM      8  C6  PXY d   1       2.235   0.973   0.491  0.00  0.00     0.003 A 
ENDROOT
TORSDOF 0
ENDMDL
