MODEL 1
REMARK minimizedAffinity -4.77353096
REMARK minimizedRMSD -1
REMARK  0 active torsions:
REMARK  status: ('A' for Active; 'I' for Inactive)
ROOT
ATOM      1  C4' PXY d   1       1.559   0.186   0.905  0.00  0.00     0.077 C 
ATOM      2  C1' PXY d   1      -3.787  -1.653  -0.299  0.00  0.00     0.077 C 
ATOM      3  C1  PXY d   1      -2.387  -1.175   0.029  0.00  0.00    -0.082 A 
ATOM      4  C2  PXY d   1      -1.851  -0.189  -0.672  0.00  0.00     0.003 A 
ATOM      5  C3  PXY d   1      -0.573   0.234  -0.410  0.00  0.00     0.003 A 
ATOM      6  C4  PXY d   1       0.144  -0.322   0.615  0.00  0.00    -0.082 A 
ATOM      7  C5  PXY d   1      -0.400  -1.322   1.342  0.00  0.00     0.003 A 
ATOM      8  C6  PXY d   1      -1.683  -1.764   1.033  0.00  0.00     0.003 A 
ENDROOT
TORSDOF 0
ENDMDL
