MODEL 1
REMARK minimizedAffinity -2.16189694
REMARK minimizedRMSD -1
REMARK  0 active torsions:
REMARK  status: ('A' for Active; 'I' for Inactive)
ROOT
ATOM      1  C4' PXY d   1       2.573   1.506   0.517  0.00  0.00     0.077 C 
ATOM      2  C1' PXY d   1      -2.220  -0.839  -1.705  0.00  0.00     0.077 C 
ATOM      3  C1  PXY d   1      -0.969  -0.222  -1.111  0.00  0.00    -0.082 A 
ATOM      4  C2  PXY d   1      -0.082   0.353  -1.906  0.00  0.00     0.003 A 
ATOM      5  C3  PXY d   1       1.070   0.887  -1.389  0.00  0.00     0.003 A 
ATOM      6  C4  PXY d   1       1.291   0.879  -0.038  0.00  0.00    -0.082 A 
ATOM      7  C5  PXY d   1       0.386   0.304   0.781  0.00  0.00     0.003 A 
ATOM      8  C6  PXY d   1      -0.757  -0.270   0.232  0.00  0.00     0.003 A 
ENDROOT
TORSDOF 0
ENDMDL
