MODEL 1
REMARK minimizedAffinity 5.6234169
REMARK minimizedRMSD -1
REMARK  0 active torsions:
REMARK  status: ('A' for Active; 'I' for Inactive)
ROOT
ATOM      1  C4' PXY d   1      -2.698   0.438  -1.391  0.00  0.00     0.077 C 
ATOM      2  C1' PXY d   1      -1.024  -3.998   1.916  0.00  0.00     0.077 C 
ATOM      3  C1  PXY d   1      -1.452  -2.828   1.052  0.00  0.00    -0.082 A 
ATOM      4  C2  PXY d   1      -2.727  -2.687   0.728  0.00  0.00     0.003 A 
ATOM      5  C3  PXY d   1      -3.128  -1.653  -0.078  0.00  0.00     0.003 A 
ATOM      6  C4  PXY d   1      -2.221  -0.723  -0.514  0.00  0.00    -0.082 A 
ATOM      7  C5  PXY d   1      -0.920  -0.854  -0.178  0.00  0.00     0.003 A 
ATOM      8  C6  PXY d   1      -0.528  -1.934   0.607  0.00  0.00     0.003 A 
ENDROOT
TORSDOF 0
ENDMDL
