MODEL 1
REMARK minimizedAffinity -2.49804521
REMARK minimizedRMSD -1
REMARK  0 active torsions:
REMARK  status: ('A' for Active; 'I' for Inactive)
ROOT
ATOM      1  C4' PXY d   1      -1.366   0.069  -1.519  0.00  0.00     0.077 C 
ATOM      2  C1' PXY d   1       2.508   2.682   1.884  0.00  0.00     0.077 C 
ATOM      3  C1  PXY d   1       1.499   1.986   0.992  0.00  0.00    -0.082 A 
ATOM      4  C2  PXY d   1       0.741   2.703   0.178  0.00  0.00     0.003 A 
ATOM      5  C3  PXY d   1      -0.199   2.092  -0.612  0.00  0.00     0.003 A 
ATOM      6  C4  PXY d   1      -0.327   0.729  -0.608  0.00  0.00    -0.082 A 
ATOM      7  C5  PXY d   1       0.449  -0.010   0.212  0.00  0.00     0.003 A 
ATOM      8  C6  PXY d   1       1.369   0.632   1.036  0.00  0.00     0.003 A 
ENDROOT
TORSDOF 0
ENDMDL
