MODEL 1
REMARK minimizedAffinity -5.08253336
REMARK minimizedRMSD -1
REMARK  0 active torsions:
REMARK  status: ('A' for Active; 'I' for Inactive)
ROOT
ATOM      1  C4' PXY d   1       1.523  -0.487   0.211  0.00  0.00     0.077 C 
ATOM      2  C1' PXY d   1      -4.160  -1.441  -0.252  0.00  0.00     0.077 C 
ATOM      3  C1  PXY d   1      -2.670  -1.196  -0.118  0.00  0.00    -0.082 A 
ATOM      4  C2  PXY d   1      -2.095  -0.251  -0.844  0.00  0.00     0.003 A 
ATOM      5  C3  PXY d   1      -0.743  -0.037  -0.760  0.00  0.00     0.003 A 
ATOM      6  C4  PXY d   1       0.020  -0.763   0.116  0.00  0.00    -0.082 A 
ATOM      7  C5  PXY d   1      -0.561  -1.722   0.868  0.00  0.00     0.003 A 
ATOM      8  C6  PXY d   1      -1.928  -1.951   0.737  0.00  0.00     0.003 A 
ENDROOT
TORSDOF 0
ENDMDL
