MODEL 1
REMARK minimizedAffinity -2.30302572
REMARK minimizedRMSD -1
REMARK  0 active torsions:
REMARK  status: ('A' for Active; 'I' for Inactive)
ROOT
ATOM      1  C4' PXY d   1       1.381   1.108   0.403  0.00  0.00     0.077 C 
ATOM      2  C1' PXY d   1      -2.634  -2.999  -0.253  0.00  0.00     0.077 C 
ATOM      3  C1  PXY d   1      -1.583  -1.919  -0.093  0.00  0.00    -0.082 A 
ATOM      4  C2  PXY d   1      -0.686  -2.016   0.875  0.00  0.00     0.003 A 
ATOM      5  C3  PXY d   1       0.252  -1.032   1.053  0.00  0.00     0.003 A 
ATOM      6  C4  PXY d   1       0.307   0.036   0.199  0.00  0.00    -0.082 A 
ATOM      7  C5  PXY d   1      -0.598   0.137  -0.799  0.00  0.00     0.003 A 
ATOM      8  C6  PXY d   1      -1.568  -0.851  -0.937  0.00  0.00     0.003 A 
ENDROOT
TORSDOF 0
ENDMDL
