MODEL 1
REMARK minimizedAffinity -1.61193669
REMARK minimizedRMSD -1
REMARK  0 active torsions:
REMARK  status: ('A' for Active; 'I' for Inactive)
ROOT
ATOM      1  C4' PXY d   1       2.082  -1.631   1.352  0.00  0.00     0.077 C 
ATOM      2  C1' PXY d   1       2.715   4.006   0.241  0.00  0.00     0.077 C 
ATOM      3  C1  PXY d   1       2.538   2.528   0.526  0.00  0.00    -0.082 A 
ATOM      4  C2  PXY d   1       3.157   1.982   1.560  0.00  0.00     0.003 A 
ATOM      5  C3  PXY d   1       3.034   0.640   1.813  0.00  0.00     0.003 A 
ATOM      6  C4  PXY d   1       2.225  -0.141   1.032  0.00  0.00    -0.082 A 
ATOM      7  C5  PXY d   1       1.581   0.411  -0.018  0.00  0.00     0.003 A 
ATOM      8  C6  PXY d   1       1.752   1.767  -0.283  0.00  0.00     0.003 A 
ENDROOT
TORSDOF 0
ENDMDL
