MODEL 1
REMARK minimizedAffinity -1.61389136
REMARK minimizedRMSD -1
REMARK  0 active torsions:
REMARK  status: ('A' for Active; 'I' for Inactive)
ROOT
ATOM      1  C4' PXY d   1      -2.735  -2.324   0.002  0.00  0.00     0.077 C 
ATOM      2  C1' PXY d   1       1.891   1.089   0.603  0.00  0.00     0.077 C 
ATOM      3  C1  PXY d   1       0.672   0.203   0.439  0.00  0.00    -0.082 A 
ATOM      4  C2  PXY d   1       0.478  -0.805   1.274  0.00  0.00     0.003 A 
ATOM      5  C3  PXY d   1      -0.602  -1.635   1.121  0.00  0.00     0.003 A 
ATOM      6  C4  PXY d   1      -1.523  -1.398   0.135  0.00  0.00    -0.082 A 
ATOM      7  C5  PXY d   1      -1.339  -0.365  -0.714  0.00  0.00     0.003 A 
ATOM      8  C6  PXY d   1      -0.213   0.441  -0.566  0.00  0.00     0.003 A 
ENDROOT
TORSDOF 0
ENDMDL
