MODEL 1
REMARK minimizedAffinity -3.0684793
REMARK minimizedRMSD -1
REMARK  0 active torsions:
REMARK  status: ('A' for Active; 'I' for Inactive)
ROOT
ATOM      1  C4' PXY d   1      -2.909  -2.379  -0.011  0.00  0.00     0.077 C 
ATOM      2  C1' PXY d   1       1.640   1.179   0.237  0.00  0.00     0.077 C 
ATOM      3  C1  PXY d   1       0.440   0.256   0.167  0.00  0.00    -0.082 A 
ATOM      4  C2  PXY d   1       0.351  -0.765   1.003  0.00  0.00     0.003 A 
ATOM      5  C3  PXY d   1      -0.712  -1.629   0.932  0.00  0.00     0.003 A 
ATOM      6  C4  PXY d   1      -1.720  -1.415   0.030  0.00  0.00    -0.082 A 
ATOM      7  C5  PXY d   1      -1.641  -0.369  -0.819  0.00  0.00     0.003 A 
ATOM      8  C6  PXY d   1      -0.534   0.472  -0.758  0.00  0.00     0.003 A 
ENDROOT
TORSDOF 0
ENDMDL
