MODEL 1
REMARK minimizedAffinity 9.95373535
REMARK minimizedRMSD -1
REMARK  1 active torsions:
REMARK  status: ('A' for Active; 'I' for Inactive)
REMARK    1  A    between atoms: C1_2  and  C2_3 
ROOT
ATOM      1  C2  UNL d   1       0.587   0.351   1.889  0.00  0.00    -0.081 A 
ATOM      2  C3  UNL d   1       1.335  -0.424   0.995  0.00  0.00     0.006 A 
ATOM      3  C4  UNL d   1       2.695  -0.170   0.802  0.00  0.00     0.002 A 
ATOM      4  C5  UNL d   1       3.331   0.859   1.505  0.00  0.00    -0.080 A 
ATOM      5  C6  UNL d   1       4.797   1.123   1.330  0.00  0.00     0.076 C 
ATOM      6  C7  UNL d   1       2.580   1.644   2.386  0.00  0.00     0.002 A 
ATOM      7  C8  UNL d   1       1.220   1.391   2.579  0.00  0.00     0.006 A 
ENDROOT
BRANCH   1   8
ATOM      8  C1  UNL d   1      -0.864   0.037   2.148  0.00  0.00     0.054 C 
ATOM      9  C   UNL d   1      -1.399   0.828   3.333  0.00  0.00     0.018 C 
ENDBRANCH   1   8
TORSDOF 1
ENDMDL
