MODEL 1
REMARK minimizedAffinity 13.3011427
REMARK minimizedRMSD -1
REMARK  1 active torsions:
REMARK  status: ('A' for Active; 'I' for Inactive)
REMARK    1  A    between atoms: C1_2  and  C2_3 
ROOT
ATOM      1  C2  UNL d   1       4.353   5.627   3.312  0.00  0.00    -0.081 A 
ATOM      2  C3  UNL d   1       5.599   5.061   3.017  0.00  0.00     0.006 A 
ATOM      3  C4  UNL d   1       6.000   4.882   1.691  0.00  0.00     0.002 A 
ATOM      4  C5  UNL d   1       5.164   5.272   0.638  0.00  0.00    -0.080 A 
ATOM      5  C6  UNL d   1       5.595   5.112  -0.790  0.00  0.00     0.076 C 
ATOM      6  C7  UNL d   1       3.912   5.821   0.933  0.00  0.00     0.002 A 
ATOM      7  C8  UNL d   1       3.511   6.000   2.258  0.00  0.00     0.006 A 
ENDROOT
BRANCH   1   8
ATOM      8  C1  UNL d   1       3.945   5.881   4.741  0.00  0.00     0.054 C 
ATOM      9  C   UNL d   1       5.150   5.868   5.670  0.00  0.00     0.018 C 
ENDBRANCH   1   8
TORSDOF 1
ENDMDL
