MODEL 1
REMARK minimizedAffinity 9.04115391
REMARK minimizedRMSD -1
REMARK  1 active torsions:
REMARK  status: ('A' for Active; 'I' for Inactive)
REMARK    1  A    between atoms: C1_2  and  C2_3 
ROOT
ATOM      1  C2  UNL d   1      -1.982  -1.503   2.393  0.00  0.00    -0.081 A 
ATOM      2  C3  UNL d   1      -2.210  -1.675   3.763  0.00  0.00     0.006 A 
ATOM      3  C4  UNL d   1      -3.510  -1.829   4.252  0.00  0.00     0.002 A 
ATOM      4  C5  UNL d   1      -4.602  -1.821   3.377  0.00  0.00    -0.080 A 
ATOM      5  C6  UNL d   1      -6.000  -2.015   3.885  0.00  0.00     0.076 C 
ATOM      6  C7  UNL d   1      -4.376  -1.631   2.010  0.00  0.00     0.002 A 
ATOM      7  C8  UNL d   1      -3.077  -1.477   1.521  0.00  0.00     0.006 A 
ENDROOT
BRANCH   1   8
ATOM      8  C1  UNL d   1      -0.577  -1.402   1.856  0.00  0.00     0.054 C 
ATOM      9  C   UNL d   1      -0.029  -2.771   1.478  0.00  0.00     0.018 C 
ENDBRANCH   1   8
TORSDOF 1
ENDMDL
