MODEL 1
REMARK minimizedAffinity 0.225946993
REMARK minimizedRMSD -1
REMARK  1 active torsions:
REMARK  status: ('A' for Active; 'I' for Inactive)
REMARK    1  A    between atoms: C1_2  and  C2_3 
ROOT
ATOM      1  C2  UNL d   1      -1.333  -2.187   0.852  0.00  0.00    -0.081 A 
ATOM      2  C3  UNL d   1      -0.049  -2.320   1.395  0.00  0.00     0.006 A 
ATOM      3  C4  UNL d   1       1.025  -2.702   0.588  0.00  0.00     0.002 A 
ATOM      4  C5  UNL d   1       0.835  -2.950  -0.776  0.00  0.00    -0.080 A 
ATOM      5  C6  UNL d   1       1.986  -3.332  -1.659  0.00  0.00     0.076 C 
ATOM      6  C7  UNL d   1      -0.451  -2.835  -1.315  0.00  0.00     0.002 A 
ATOM      7  C8  UNL d   1      -1.525  -2.453  -0.509  0.00  0.00     0.006 A 
ENDROOT
BRANCH   1   8
ATOM      8  C1  UNL d   1      -2.481  -1.712   1.705  0.00  0.00     0.054 C 
ATOM      9  C   UNL d   1      -3.288  -0.633   0.997  0.00  0.00     0.018 C 
ENDBRANCH   1   8
TORSDOF 1
ENDMDL
