MODEL 1
REMARK minimizedAffinity 6.74978876
REMARK minimizedRMSD -1
REMARK  1 active torsions:
REMARK  status: ('A' for Active; 'I' for Inactive)
REMARK    1  A    between atoms: C1_2  and  C2_3 
ROOT
ATOM      1  C2  UNL d   1      -2.568  -4.484   0.907  0.00  0.00    -0.081 A 
ATOM      2  C3  UNL d   1      -1.901  -3.321   1.314  0.00  0.00     0.006 A 
ATOM      3  C4  UNL d   1      -1.030  -3.349   2.405  0.00  0.00     0.002 A 
ATOM      4  C5  UNL d   1      -0.803  -4.541   3.102  0.00  0.00    -0.080 A 
ATOM      5  C6  UNL d   1       0.153  -4.592   4.256  0.00  0.00     0.076 C 
ATOM      6  C7  UNL d   1      -1.482  -5.699   2.707  0.00  0.00     0.002 A 
ATOM      7  C8  UNL d   1      -2.354  -5.671   1.617  0.00  0.00     0.006 A 
ENDROOT
BRANCH   1   8
ATOM      8  C1  UNL d   1      -3.458  -4.471  -0.308  0.00  0.00     0.054 C 
ATOM      9  C   UNL d   1      -2.762  -3.824  -1.498  0.00  0.00     0.018 C 
ENDBRANCH   1   8
TORSDOF 1
ENDMDL
