MODEL 1
REMARK minimizedAffinity 10.7523479
REMARK minimizedRMSD -1
REMARK  1 active torsions:
REMARK  status: ('A' for Active; 'I' for Inactive)
REMARK    1  A    between atoms: C1_2  and  C2_3 
ROOT
ATOM      1  C2  UNL d   1      -2.504   0.005   1.574  0.00  0.00    -0.081 A 
ATOM      2  C3  UNL d   1      -3.731  -0.653   1.423  0.00  0.00     0.006 A 
ATOM      3  C4  UNL d   1      -4.866   0.050   1.011  0.00  0.00     0.002 A 
ATOM      4  C5  UNL d   1      -4.792   1.419   0.736  0.00  0.00    -0.080 A 
ATOM      5  C6  UNL d   1      -5.995   2.180   0.264  0.00  0.00     0.076 C 
ATOM      6  C7  UNL d   1      -3.570   2.081   0.904  0.00  0.00     0.002 A 
ATOM      7  C8  UNL d   1      -2.435   1.379   1.317  0.00  0.00     0.006 A 
ENDROOT
BRANCH   1   8
ATOM      8  C1  UNL d   1      -1.265  -0.762   1.956  0.00  0.00     0.054 C 
ATOM      9  C   UNL d   1      -0.897  -1.785   0.890  0.00  0.00     0.018 C 
ENDBRANCH   1   8
TORSDOF 1
ENDMDL
