MODEL 1
REMARK minimizedAffinity 11.0608873
REMARK minimizedRMSD -1
REMARK  1 active torsions:
REMARK  status: ('A' for Active; 'I' for Inactive)
REMARK    1  A    between atoms: C1_2  and  C2_3 
ROOT
ATOM      1  C2  UNL d   1       3.477   0.240  -1.245  0.00  0.00    -0.081 A 
ATOM      2  C3  UNL d   1       3.556  -1.130  -1.523  0.00  0.00     0.006 A 
ATOM      3  C4  UNL d   1       2.849  -2.052  -0.747  0.00  0.00     0.002 A 
ATOM      4  C5  UNL d   1       2.047  -1.619   0.314  0.00  0.00    -0.080 A 
ATOM      5  C6  UNL d   1       1.260  -2.596   1.137  0.00  0.00     0.076 C 
ATOM      6  C7  UNL d   1       1.983  -0.252   0.603  0.00  0.00     0.002 A 
ATOM      7  C8  UNL d   1       2.689   0.670  -0.172  0.00  0.00     0.006 A 
ENDROOT
BRANCH   1   8
ATOM      8  C1  UNL d   1       4.187   1.241  -2.120  0.00  0.00     0.054 C 
ATOM      9  C   UNL d   1       3.339   1.620  -3.327  0.00  0.00     0.018 C 
ENDBRANCH   1   8
TORSDOF 1
ENDMDL
