MODEL 1
REMARK minimizedAffinity 17.838623
REMARK minimizedRMSD -1
REMARK  1 active torsions:
REMARK  status: ('A' for Active; 'I' for Inactive)
REMARK    1  A    between atoms: C1_2  and  C2_3 
ROOT
ATOM      1  C2  UNL d   1       2.156  -1.103   0.872  0.00  0.00    -0.081 A 
ATOM      2  C3  UNL d   1       2.005  -2.188   1.743  0.00  0.00     0.006 A 
ATOM      3  C4  UNL d   1       2.685  -3.386   1.507  0.00  0.00     0.002 A 
ATOM      4  C5  UNL d   1       3.531  -3.515   0.401  0.00  0.00    -0.080 A 
ATOM      5  C6  UNL d   1       4.290  -4.785   0.152  0.00  0.00     0.076 C 
ATOM      6  C7  UNL d   1       3.668  -2.437  -0.480  0.00  0.00     0.002 A 
ATOM      7  C8  UNL d   1       2.989  -1.240  -0.244  0.00  0.00     0.006 A 
ENDROOT
BRANCH   1   8
ATOM      8  C1  UNL d   1       1.475   0.211   1.159  0.00  0.00     0.054 C 
ATOM      9  C   UNL d   1       2.412   1.175   1.872  0.00  0.00     0.018 C 
ENDBRANCH   1   8
TORSDOF 1
ENDMDL
