MODEL 1
REMARK minimizedAffinity 8.72002792
REMARK minimizedRMSD -1
REMARK  1 active torsions:
REMARK  status: ('A' for Active; 'I' for Inactive)
REMARK    1  A    between atoms: C1_2  and  C2_3 
ROOT
ATOM      1  C2  UNL d   1       1.012  -3.367   1.558  0.00  0.00    -0.081 A 
ATOM      2  C3  UNL d   1       1.905  -3.408   2.636  0.00  0.00     0.006 A 
ATOM      3  C4  UNL d   1       1.662  -4.250   3.724  0.00  0.00     0.002 A 
ATOM      4  C5  UNL d   1       0.528  -5.069   3.749  0.00  0.00    -0.080 A 
ATOM      5  C6  UNL d   1       0.271  -5.999   4.897  0.00  0.00     0.076 C 
ATOM      6  C7  UNL d   1      -0.373  -5.014   2.680  0.00  0.00     0.002 A 
ATOM      7  C8  UNL d   1      -0.131  -4.173   1.592  0.00  0.00     0.006 A 
ENDROOT
BRANCH   1   8
ATOM      8  C1  UNL d   1       1.304  -2.508   0.354  0.00  0.00     0.054 C 
ATOM      9  C   UNL d   1       2.152  -1.300   0.728  0.00  0.00     0.018 C 
ENDBRANCH   1   8
TORSDOF 1
ENDMDL
