MODEL 1
REMARK minimizedAffinity 9.79808044
REMARK minimizedRMSD -1
REMARK  1 active torsions:
REMARK  status: ('A' for Active; 'I' for Inactive)
REMARK    1  A    between atoms: C1_2  and  C2_3 
ROOT
ATOM      1  C2  UNL d   1      -1.172   2.987  -3.773  0.00  0.00    -0.081 A 
ATOM      2  C3  UNL d   1      -1.117   3.228  -5.152  0.00  0.00     0.006 A 
ATOM      3  C4  UNL d   1       0.046   2.950  -5.873  0.00  0.00     0.002 A 
ATOM      4  C5  UNL d   1       1.170   2.419  -5.231  0.00  0.00    -0.080 A 
ATOM      5  C6  UNL d   1       2.415   2.088  -6.000  0.00  0.00     0.076 C 
ATOM      6  C7  UNL d   1       1.122   2.195  -3.851  0.00  0.00     0.002 A 
ATOM      7  C8  UNL d   1      -0.041   2.474  -3.129  0.00  0.00     0.006 A 
ENDROOT
BRANCH   1   8
ATOM      8  C1  UNL d   1      -2.446   3.225  -3.004  0.00  0.00     0.054 C 
ATOM      9  C   UNL d   1      -3.164   1.917  -2.704  0.00  0.00     0.018 C 
ENDBRANCH   1   8
TORSDOF 1
ENDMDL
