MODEL 1
REMARK minimizedAffinity 5.66963387
REMARK minimizedRMSD -1
REMARK  1 active torsions:
REMARK  status: ('A' for Active; 'I' for Inactive)
REMARK    1  A    between atoms: C1_2  and  C2_3 
ROOT
ATOM      1  C2  UNL d   1       2.136  -0.637   0.749  0.00  0.00    -0.081 A 
ATOM      2  C3  UNL d   1       1.882  -1.779   1.519  0.00  0.00     0.006 A 
ATOM      3  C4  UNL d   1       2.303  -3.036   1.081  0.00  0.00     0.002 A 
ATOM      4  C5  UNL d   1       2.991  -3.172  -0.130  0.00  0.00    -0.080 A 
ATOM      5  C6  UNL d   1       3.475  -4.513  -0.597  0.00  0.00     0.076 C 
ATOM      6  C7  UNL d   1       3.229  -2.034  -0.908  0.00  0.00     0.002 A 
ATOM      7  C8  UNL d   1       2.808  -0.776  -0.470  0.00  0.00     0.006 A 
ENDROOT
BRANCH   1   8
ATOM      8  C1  UNL d   1       1.740   0.729   1.250  0.00  0.00     0.054 C 
ATOM      9  C   UNL d   1       2.898   1.414   1.961  0.00  0.00     0.018 C 
ENDBRANCH   1   8
TORSDOF 1
ENDMDL
