MODEL 1
REMARK minimizedAffinity -0.55825299
REMARK minimizedRMSD -1
REMARK  1 active torsions:
REMARK  status: ('A' for Active; 'I' for Inactive)
REMARK    1  A    between atoms: C1_2  and  C2_3 
ROOT
ATOM      1  C2  UNL d   1      -4.531   1.196   0.405  0.00  0.00    -0.081 A 
ATOM      2  C3  UNL d   1      -3.937   2.436   0.666  0.00  0.00     0.006 A 
ATOM      3  C4  UNL d   1      -2.995   2.569   1.689  0.00  0.00     0.002 A 
ATOM      4  C5  UNL d   1      -2.625   1.462   2.461  0.00  0.00    -0.080 A 
ATOM      5  C6  UNL d   1      -1.593   1.584   3.542  0.00  0.00     0.076 C 
ATOM      6  C7  UNL d   1      -3.231   0.226   2.212  0.00  0.00     0.002 A 
ATOM      7  C8  UNL d   1      -4.174   0.094   1.190  0.00  0.00     0.006 A 
ENDROOT
BRANCH   1   8
ATOM      8  C1  UNL d   1      -5.499   1.035  -0.739  0.00  0.00     0.054 C 
ATOM      9  C   UNL d   1      -4.862   1.433  -2.063  0.00  0.00     0.018 C 
ENDBRANCH   1   8
TORSDOF 1
ENDMDL
