MODEL 1
REMARK minimizedAffinity 2.47962356
REMARK minimizedRMSD -1
REMARK  1 active torsions:
REMARK  status: ('A' for Active; 'I' for Inactive)
REMARK    1  A    between atoms: C1_2  and  C2_3 
ROOT
ATOM      1  C2  UNL d   1       1.611  -2.714   0.745  0.00  0.00    -0.081 A 
ATOM      2  C3  UNL d   1       1.445  -1.377   1.129  0.00  0.00     0.006 A 
ATOM      3  C4  UNL d   1       2.149  -0.361   0.479  0.00  0.00     0.002 A 
ATOM      4  C5  UNL d   1       3.023  -0.663  -0.571  0.00  0.00    -0.080 A 
ATOM      5  C6  UNL d   1       3.762   0.422  -1.298  0.00  0.00     0.076 C 
ATOM      6  C7  UNL d   1       3.202  -1.999  -0.944  0.00  0.00     0.002 A 
ATOM      7  C8  UNL d   1       2.499  -3.016  -0.293  0.00  0.00     0.006 A 
ENDROOT
BRANCH   1   8
ATOM      8  C1  UNL d   1       0.805  -3.805   1.401  0.00  0.00     0.054 C 
ATOM      9  C   UNL d   1      -0.572  -3.304   1.815  0.00  0.00     0.018 C 
ENDBRANCH   1   8
TORSDOF 1
ENDMDL
