MODEL 1
REMARK minimizedAffinity 5.32248926
REMARK minimizedRMSD -1
REMARK  1 active torsions:
REMARK  status: ('A' for Active; 'I' for Inactive)
REMARK    1  A    between atoms: C1_2  and  C2_3 
ROOT
ATOM      1  C2  UNL d   1       0.403   2.840  -4.790  0.00  0.00    -0.081 A 
ATOM      2  C3  UNL d   1      -0.454   2.295  -5.754  0.00  0.00     0.006 A 
ATOM      3  C4  UNL d   1      -1.702   2.871  -5.999  0.00  0.00     0.002 A 
ATOM      4  C5  UNL d   1      -2.112   4.006  -5.291  0.00  0.00    -0.080 A 
ATOM      5  C6  UNL d   1      -3.437   4.653  -5.566  0.00  0.00     0.076 C 
ATOM      6  C7  UNL d   1      -1.263   4.541  -4.316  0.00  0.00     0.002 A 
ATOM      7  C8  UNL d   1      -0.015   3.965  -4.070  0.00  0.00     0.006 A 
ENDROOT
BRANCH   1   8
ATOM      8  C1  UNL d   1       1.776   2.260  -4.568  0.00  0.00     0.054 C 
ATOM      9  C   UNL d   1       2.755   2.732  -5.634  0.00  0.00     0.018 C 
ENDBRANCH   1   8
TORSDOF 1
ENDMDL
