MODEL 1
REMARK minimizedAffinity 2.21315742
REMARK minimizedRMSD -1
REMARK  1 active torsions:
REMARK  status: ('A' for Active; 'I' for Inactive)
REMARK    1  A    between atoms: C1_2  and  C2_3 
ROOT
ATOM      1  C2  UNL d   1      -1.910  -0.684   1.599  0.00  0.00    -0.081 A 
ATOM      2  C3  UNL d   1      -3.201  -0.957   1.132  0.00  0.00     0.006 A 
ATOM      3  C4  UNL d   1      -4.165   0.053   1.084  0.00  0.00     0.002 A 
ATOM      4  C5  UNL d   1      -3.852   1.353   1.495  0.00  0.00    -0.080 A 
ATOM      5  C6  UNL d   1      -4.868   2.454   1.421  0.00  0.00     0.076 C 
ATOM      6  C7  UNL d   1      -2.566   1.622   1.979  0.00  0.00     0.002 A 
ATOM      7  C8  UNL d   1      -1.603   0.612   2.027  0.00  0.00     0.006 A 
ENDROOT
BRANCH   1   8
ATOM      8  C1  UNL d   1      -0.850  -1.756   1.591  0.00  0.00     0.054 C 
ATOM      9  C   UNL d   1      -1.205  -2.878   0.627  0.00  0.00     0.018 C 
ENDBRANCH   1   8
TORSDOF 1
ENDMDL
