MODEL 1
REMARK minimizedAffinity 1.70221949
REMARK minimizedRMSD -1
REMARK  0 active torsions:
REMARK  status: ('A' for Active; 'I' for Inactive)
ROOT
ATOM      1  C   UNL d   1      -1.048  -3.574  -3.246  0.00  0.00    -0.002 A 
ATOM      2  C1  UNL d   1      -0.331  -4.095  -2.178  0.00  0.00     0.010 A 
ATOM      3  C2  UNL d   1       0.519  -3.280  -1.428  0.00  0.00     0.041 A 
ATOM      4  C3  UNL d   1       0.636  -1.919  -1.771  0.00  0.00    -0.075 A 
ATOM      5  S   UNL d   1       1.614  -0.731  -0.994  0.00  0.00     0.015 SA
ATOM      6  C4  UNL d   1       1.104   0.496  -2.061  0.00  0.00     0.022 A 
ATOM      7  C5  UNL d   1       0.209   0.028  -2.994  0.00  0.00     0.026 A 
ATOM      8  C6  UNL d   1      -0.076  -1.371  -2.842  0.00  0.00    -0.082 A 
ATOM      9  C7  UNL d   1      -0.929  -2.224  -3.584  0.00  0.00     0.045 A 
ENDROOT
TORSDOF 0
ENDMDL
