MODEL 1
REMARK minimizedAffinity 11.0628977
REMARK minimizedRMSD -1
REMARK  0 active torsions:
REMARK  status: ('A' for Active; 'I' for Inactive)
ROOT
ATOM      1  C   UNL d   1      -5.635   4.577  -5.225  0.00  0.00    -0.002 A 
ATOM      2  C1  UNL d   1      -4.389   5.138  -4.982  0.00  0.00     0.010 A 
ATOM      3  C2  UNL d   1      -3.485   4.514  -4.120  0.00  0.00     0.041 A 
ATOM      4  C3  UNL d   1      -3.857   3.304  -3.503  0.00  0.00    -0.075 A 
ATOM      5  S   UNL d   1      -2.912   2.361  -2.411  0.00  0.00     0.015 SA
ATOM      6  C4  UNL d   1      -4.140   1.190  -2.243  0.00  0.00     0.022 A 
ATOM      7  C5  UNL d   1      -5.250   1.496  -2.994  0.00  0.00     0.026 A 
ATOM      8  C6  UNL d   1      -5.105   2.718  -3.733  0.00  0.00    -0.082 A 
ATOM      9  C7  UNL d   1      -6.000   3.376  -4.611  0.00  0.00     0.045 A 
ENDROOT
TORSDOF 0
ENDMDL
