MODEL 1
REMARK minimizedAffinity 16.1641884
REMARK minimizedRMSD -1
REMARK  0 active torsions:
REMARK  status: ('A' for Active; 'I' for Inactive)
ROOT
ATOM      1  C   UNL d   1      -5.033   1.372  -0.811  0.00  0.00    -0.002 A 
ATOM      2  C1  UNL d   1      -4.031   2.331  -0.848  0.00  0.00     0.010 A 
ATOM      3  C2  UNL d   1      -2.854   2.102  -1.563  0.00  0.00     0.041 A 
ATOM      4  C3  UNL d   1      -2.700   0.880  -2.247  0.00  0.00    -0.075 A 
ATOM      5  S   UNL d   1      -1.344   0.380  -3.188  0.00  0.00     0.015 SA
ATOM      6  C4  UNL d   1      -2.063  -1.119  -3.563  0.00  0.00     0.022 A 
ATOM      7  C5  UNL d   1      -3.307  -1.252  -2.993  0.00  0.00     0.026 A 
ATOM      8  C6  UNL d   1      -3.695  -0.101  -2.225  0.00  0.00    -0.082 A 
ATOM      9  C7  UNL d   1      -4.876   0.161  -1.491  0.00  0.00     0.045 A 
ENDROOT
TORSDOF 0
ENDMDL
