MODEL 1
REMARK minimizedAffinity 14.334095
REMARK minimizedRMSD -1
REMARK  0 active torsions:
REMARK  status: ('A' for Active; 'I' for Inactive)
ROOT
ATOM      1  C   UNL d   1       0.563   6.000  -1.232  0.00  0.00    -0.002 A 
ATOM      2  C1  UNL d   1       1.868   6.000  -0.759  0.00  0.00     0.010 A 
ATOM      3  C2  UNL d   1       2.366   4.905  -0.050  0.00  0.00     0.041 A 
ATOM      4  C3  UNL d   1       1.523   3.799   0.177  0.00  0.00    -0.075 A 
ATOM      5  S   UNL d   1       1.917   2.347   1.019  0.00  0.00     0.015 SA
ATOM      6  C4  UNL d   1       0.363   1.693   0.771  0.00  0.00     0.022 A 
ATOM      7  C5  UNL d   1      -0.449   2.548   0.064  0.00  0.00     0.026 A 
ATOM      8  C6  UNL d   1       0.206   3.776  -0.290  0.00  0.00    -0.082 A 
ATOM      9  C7  UNL d   1      -0.270   4.901  -1.005  0.00  0.00     0.045 A 
ENDROOT
TORSDOF 0
ENDMDL
