MODEL 1
REMARK minimizedAffinity 7.44353628
REMARK minimizedRMSD -1
REMARK  0 active torsions:
REMARK  status: ('A' for Active; 'I' for Inactive)
ROOT
ATOM      1  C   UNL d   1      -2.740   1.395  -2.621  0.00  0.00    -0.002 A 
ATOM      2  C1  UNL d   1      -1.453   1.818  -2.921  0.00  0.00     0.010 A 
ATOM      3  C2  UNL d   1      -0.446   0.891  -3.199  0.00  0.00     0.041 A 
ATOM      4  C3  UNL d   1      -0.759  -0.482  -3.173  0.00  0.00    -0.075 A 
ATOM      5  S   UNL d   1       0.311  -1.798  -3.481  0.00  0.00     0.015 SA
ATOM      6  C4  UNL d   1      -0.915  -2.954  -3.224  0.00  0.00     0.022 A 
ATOM      7  C5  UNL d   1      -2.118  -2.367  -2.909  0.00  0.00     0.026 A 
ATOM      8  C6  UNL d   1      -2.048  -0.933  -2.874  0.00  0.00    -0.082 A 
ATOM      9  C7  UNL d   1      -3.046   0.032  -2.596  0.00  0.00     0.045 A 
ENDROOT
TORSDOF 0
ENDMDL
