MODEL 1
REMARK minimizedAffinity 2.46808672
REMARK minimizedRMSD -1
REMARK  0 active torsions:
REMARK  status: ('A' for Active; 'I' for Inactive)
ROOT
ATOM      1  C   UNL d   1       0.033  -4.436  -2.025  0.00  0.00    -0.002 A 
ATOM      2  C1  UNL d   1      -1.242  -4.779  -2.452  0.00  0.00     0.010 A 
ATOM      3  C2  UNL d   1      -1.867  -4.058  -3.471  0.00  0.00     0.041 A 
ATOM      4  C3  UNL d   1      -1.182  -2.977  -4.061  0.00  0.00    -0.075 A 
ATOM      5  S   UNL d   1      -1.750  -1.952  -5.325  0.00  0.00     0.015 SA
ATOM      6  C4  UNL d   1      -0.314  -1.036  -5.329  0.00  0.00     0.022 A 
ATOM      7  C5  UNL d   1       0.588  -1.487  -4.394  0.00  0.00     0.026 A 
ATOM      8  C6  UNL d   1       0.103  -2.613  -3.648  0.00  0.00    -0.082 A 
ATOM      9  C7  UNL d   1       0.709  -3.363  -2.612  0.00  0.00     0.045 A 
ENDROOT
TORSDOF 0
ENDMDL
