MODEL 1
REMARK minimizedAffinity 8.21022415
REMARK minimizedRMSD -1
REMARK  0 active torsions:
REMARK  status: ('A' for Active; 'I' for Inactive)
ROOT
ATOM      1  C   UNL d   1       5.697  -4.269  -2.234  0.00  0.00    -0.002 A 
ATOM      2  C1  UNL d   1       4.835  -5.330  -1.994  0.00  0.00     0.010 A 
ATOM      3  C2  UNL d   1       3.608  -5.118  -1.361  0.00  0.00     0.041 A 
ATOM      4  C3  UNL d   1       3.258  -3.810  -0.972  0.00  0.00    -0.075 A 
ATOM      5  S   UNL d   1       1.808  -3.313  -0.183  0.00  0.00     0.015 SA
ATOM      6  C4  UNL d   1       2.299  -1.681  -0.148  0.00  0.00     0.022 A 
ATOM      7  C5  UNL d   1       3.536  -1.502  -0.719  0.00  0.00     0.026 A 
ATOM      8  C6  UNL d   1       4.110  -2.726  -1.204  0.00  0.00    -0.082 A 
ATOM      9  C7  UNL d   1       5.347  -2.973  -1.846  0.00  0.00     0.045 A 
ENDROOT
TORSDOF 0
ENDMDL
