MODEL 1
REMARK minimizedAffinity 12.3561935
REMARK minimizedRMSD -1
REMARK  0 active torsions:
REMARK  status: ('A' for Active; 'I' for Inactive)
ROOT
ATOM      1  C   UNL d   1       0.241   2.011   0.271  0.00  0.00    -0.002 A 
ATOM      2  C1  UNL d   1       0.670   2.531   1.484  0.00  0.00     0.010 A 
ATOM      3  C2  UNL d   1       1.325   3.763   1.538  0.00  0.00     0.041 A 
ATOM      4  C3  UNL d   1       1.541   4.472   0.340  0.00  0.00    -0.075 A 
ATOM      5  S   UNL d   1       2.320   6.000   0.163  0.00  0.00     0.015 SA
ATOM      6  C4  UNL d   1       2.101   6.000  -1.527  0.00  0.00     0.022 A 
ATOM      7  C5  UNL d   1       1.452   4.869  -1.963  0.00  0.00     0.026 A 
ATOM      8  C6  UNL d   1       1.118   3.970  -0.894  0.00  0.00    -0.082 A 
ATOM      9  C7  UNL d   1       0.458   2.718  -0.915  0.00  0.00     0.045 A 
ENDROOT
TORSDOF 0
ENDMDL
