MODEL 1
REMARK minimizedAffinity 8.57014084
REMARK minimizedRMSD -1
REMARK  0 active torsions:
REMARK  status: ('A' for Active; 'I' for Inactive)
ROOT
ATOM      1  C   UNL d   1       2.595  -0.848   1.162  0.00  0.00    -0.002 A 
ATOM      2  C1  UNL d   1       2.299  -0.337  -0.093  0.00  0.00     0.010 A 
ATOM      3  C2  UNL d   1       2.997  -0.775  -1.221  0.00  0.00     0.041 A 
ATOM      4  C3  UNL d   1       4.005  -1.746  -1.064  0.00  0.00    -0.075 A 
ATOM      5  S   UNL d   1       4.990  -2.432  -2.302  0.00  0.00     0.015 SA
ATOM      6  C4  UNL d   1       5.826  -3.420  -1.193  0.00  0.00     0.022 A 
ATOM      7  C5  UNL d   1       5.378  -3.243   0.094  0.00  0.00     0.026 A 
ATOM      8  C6  UNL d   1       4.321  -2.276   0.190  0.00  0.00    -0.082 A 
ATOM      9  C7  UNL d   1       3.597  -1.811   1.314  0.00  0.00     0.045 A 
ENDROOT
TORSDOF 0
ENDMDL
