MODEL 1
REMARK minimizedAffinity 9.74105358
REMARK minimizedRMSD -1
REMARK  0 active torsions:
REMARK  status: ('A' for Active; 'I' for Inactive)
ROOT
ATOM      1  C   UNL d   1       4.091  -5.996   0.353  0.00  0.00    -0.002 A 
ATOM      2  C1  UNL d   1       5.333  -5.402   0.527  0.00  0.00     0.010 A 
ATOM      3  C2  UNL d   1       5.991  -4.803  -0.548  0.00  0.00     0.041 A 
ATOM      4  C3  UNL d   1       5.373  -4.808  -1.814  0.00  0.00    -0.075 A 
ATOM      5  S   UNL d   1       5.991  -4.133  -3.275  0.00  0.00     0.015 SA
ATOM      6  C4  UNL d   1       4.620  -4.616  -4.166  0.00  0.00     0.022 A 
ATOM      7  C5  UNL d   1       3.704  -5.278  -3.383  0.00  0.00     0.026 A 
ATOM      8  C6  UNL d   1       4.122  -5.399  -2.015  0.00  0.00    -0.082 A 
ATOM      9  C7  UNL d   1       3.481  -5.999  -0.904  0.00  0.00     0.045 A 
ENDROOT
TORSDOF 0
ENDMDL
