MODEL 1
REMARK minimizedAffinity 14.3263683
REMARK minimizedRMSD -1
REMARK  2 active torsions:
REMARK  status: ('A' for Active; 'I' for Inactive)
REMARK    1  A    between atoms: C1_2  and  C2_3 
REMARK    2  A    between atoms: C2_3  and  C3_4 
ROOT
ATOM      1  C3  UNL d   1      -2.523   3.414  -5.979  0.00  0.00    -0.075 A 
ATOM      2  C4  UNL d   1      -3.925   3.390  -5.976  0.00  0.00     0.002 A 
ATOM      3  C5  UNL d   1      -4.654   4.580  -5.988  0.00  0.00     0.002 A 
ATOM      4  C6  UNL d   1      -3.992   5.805  -5.992  0.00  0.00    -0.004 A 
ATOM      5  C7  UNL d   1      -2.599   5.841  -5.978  0.00  0.00     0.002 A 
ATOM      6  C8  UNL d   1      -1.868   4.653  -5.971  0.00  0.00     0.002 A 
ENDROOT
BRANCH   1   7
ATOM      7  C2  UNL d   1      -1.728   2.130  -5.997  0.00  0.00     0.056 C 
BRANCH   7   8
ATOM      8  C1  UNL d   1      -1.637   1.435  -4.634  0.00  0.00     0.007 C 
ATOM      9  C   UNL d   1      -2.404   2.160  -3.537  0.00  0.00     0.009 C 
ENDBRANCH   7   8
ENDBRANCH   1   7
TORSDOF 2
ENDMDL
