MODEL 1
REMARK minimizedAffinity 14.3286219
REMARK minimizedRMSD -1
REMARK  2 active torsions:
REMARK  status: ('A' for Active; 'I' for Inactive)
REMARK    1  A    between atoms: C1_2  and  C2_3 
REMARK    2  A    between atoms: C2_3  and  C3_4 
ROOT
ATOM      1  C3  UNL d   1       2.189  -3.196  -1.997  0.00  0.00    -0.075 A 
ATOM      2  C4  UNL d   1       2.902  -3.884  -1.005  0.00  0.00     0.002 A 
ATOM      3  C5  UNL d   1       2.863  -5.278  -0.943  0.00  0.00     0.002 A 
ATOM      4  C6  UNL d   1       2.105  -5.998  -1.863  0.00  0.00    -0.004 A 
ATOM      5  C7  UNL d   1       1.380  -5.324  -2.843  0.00  0.00     0.002 A 
ATOM      6  C8  UNL d   1       1.420  -3.930  -2.910  0.00  0.00     0.002 A 
ENDROOT
BRANCH   1   7
ATOM      7  C2  UNL d   1       2.250  -1.690  -2.088  0.00  0.00     0.056 C 
BRANCH   7   8
ATOM      8  C1  UNL d   1       2.519  -0.995  -0.750  0.00  0.00     0.007 C 
ATOM      9  C   UNL d   1       2.865   0.481  -0.898  0.00  0.00     0.009 C 
ENDBRANCH   7   8
ENDBRANCH   1   7
TORSDOF 2
ENDMDL
