MODEL 1
REMARK minimizedAffinity 8.89330578
REMARK minimizedRMSD -1
REMARK  2 active torsions:
REMARK  status: ('A' for Active; 'I' for Inactive)
REMARK    1  A    between atoms: C1_2  and  C2_3 
REMARK    2  A    between atoms: C2_3  and  C3_4 
ROOT
ATOM      1  C3  UNL d   1      -2.404   0.329   2.710  0.00  0.00    -0.075 A 
ATOM      2  C4  UNL d   1      -2.734  -0.264   3.937  0.00  0.00     0.002 A 
ATOM      3  C5  UNL d   1      -3.798  -1.162   4.027  0.00  0.00     0.002 A 
ATOM      4  C6  UNL d   1      -4.551  -1.470   2.896  0.00  0.00    -0.004 A 
ATOM      5  C7  UNL d   1      -4.243  -0.873   1.675  0.00  0.00     0.002 A 
ATOM      6  C8  UNL d   1      -3.176   0.022   1.581  0.00  0.00     0.002 A 
ENDROOT
BRANCH   1   7
ATOM      7  C2  UNL d   1      -1.235   1.279   2.600  0.00  0.00     0.056 C 
BRANCH   7   8
ATOM      8  C1  UNL d   1       0.017   0.815   3.351  0.00  0.00     0.007 C 
ATOM      9  C   UNL d   1       0.614  -0.468   2.789  0.00  0.00     0.009 C 
ENDBRANCH   7   8
ENDBRANCH   1   7
TORSDOF 2
ENDMDL
