MODEL 1
REMARK minimizedAffinity 7.30121279
REMARK minimizedRMSD -1
REMARK  2 active torsions:
REMARK  status: ('A' for Active; 'I' for Inactive)
REMARK    1  A    between atoms: C1_2  and  C2_3 
REMARK    2  A    between atoms: C2_3  and  C3_4 
ROOT
ATOM      1  C3  UNL d   1      -1.278  -3.607  -3.296  0.00  0.00    -0.075 A 
ATOM      2  C4  UNL d   1      -1.756  -4.784  -2.703  0.00  0.00     0.002 A 
ATOM      3  C5  UNL d   1      -3.103  -5.133  -2.807  0.00  0.00     0.002 A 
ATOM      4  C6  UNL d   1      -3.988  -4.307  -3.496  0.00  0.00    -0.004 A 
ATOM      5  C7  UNL d   1      -3.527  -3.127  -4.075  0.00  0.00     0.002 A 
ATOM      6  C8  UNL d   1      -2.179  -2.777  -3.975  0.00  0.00     0.002 A 
ENDROOT
BRANCH   1   7
ATOM      7  C2  UNL d   1       0.184  -3.238  -3.211  0.00  0.00     0.056 C 
BRANCH   7   8
ATOM      8  C1  UNL d   1       0.473  -2.038  -2.303  0.00  0.00     0.007 C 
ATOM      9  C   UNL d   1       1.942  -1.915  -1.921  0.00  0.00     0.009 C 
ENDBRANCH   7   8
ENDBRANCH   1   7
TORSDOF 2
ENDMDL
