MODEL 1
REMARK minimizedAffinity 19.3149776
REMARK minimizedRMSD -1
REMARK  2 active torsions:
REMARK  status: ('A' for Active; 'I' for Inactive)
REMARK    1  A    between atoms: C1_2  and  C2_3 
REMARK    2  A    between atoms: C2_3  and  C3_4 
ROOT
ATOM      1  C3  UNL d   1      -2.608  -3.699  -3.913  0.00  0.00    -0.075 A 
ATOM      2  C4  UNL d   1      -1.233  -3.423  -3.954  0.00  0.00     0.002 A 
ATOM      3  C5  UNL d   1      -0.341  -4.148  -3.163  0.00  0.00     0.002 A 
ATOM      4  C6  UNL d   1      -0.812  -5.148  -2.315  0.00  0.00    -0.004 A 
ATOM      5  C7  UNL d   1      -2.177  -5.419  -2.253  0.00  0.00     0.002 A 
ATOM      6  C8  UNL d   1      -3.071  -4.699  -3.047  0.00  0.00     0.002 A 
ENDROOT
BRANCH   1   7
ATOM      7  C2  UNL d   1      -3.575  -2.939  -4.788  0.00  0.00     0.056 C 
BRANCH   7   8
ATOM      8  C1  UNL d   1      -4.679  -3.808  -5.400  0.00  0.00     0.007 C 
ATOM      9  C   UNL d   1      -5.819  -2.997  -6.000  0.00  0.00     0.009 C 
ENDBRANCH   7   8
ENDBRANCH   1   7
TORSDOF 2
ENDMDL
