MODEL 1
REMARK minimizedAffinity 5.26777935
REMARK minimizedRMSD -1
REMARK  2 active torsions:
REMARK  status: ('A' for Active; 'I' for Inactive)
REMARK    1  A    between atoms: C1_2  and  C2_3 
REMARK    2  A    between atoms: C2_3  and  C3_4 
ROOT
ATOM      1  C3  UNL d   1      -2.353   0.547   2.214  0.00  0.00    -0.075 A 
ATOM      2  C4  UNL d   1      -1.216  -0.098   1.704  0.00  0.00     0.002 A 
ATOM      3  C5  UNL d   1       0.062   0.329   2.064  0.00  0.00     0.002 A 
ATOM      4  C6  UNL d   1       0.221   1.411   2.927  0.00  0.00    -0.004 A 
ATOM      5  C7  UNL d   1      -0.901   2.070   3.426  0.00  0.00     0.002 A 
ATOM      6  C8  UNL d   1      -2.181   1.641   3.071  0.00  0.00     0.002 A 
ENDROOT
BRANCH   1   7
ATOM      7  C2  UNL d   1      -3.739   0.071   1.851  0.00  0.00     0.056 C 
BRANCH   7   8
ATOM      8  C1  UNL d   1      -4.207  -1.152   2.649  0.00  0.00     0.007 C 
ATOM      9  C   UNL d   1      -5.328  -1.922   1.964  0.00  0.00     0.009 C 
ENDBRANCH   7   8
ENDBRANCH   1   7
TORSDOF 2
ENDMDL
