MODEL 1
REMARK minimizedAffinity 0.368537456
REMARK minimizedRMSD -1
REMARK  2 active torsions:
REMARK  status: ('A' for Active; 'I' for Inactive)
REMARK    1  A    between atoms: C1_2  and  C2_3 
REMARK    2  A    between atoms: C2_3  and  C3_4 
ROOT
ATOM      1  C3  UNL d   1      -1.812  -4.258  -4.215  0.00  0.00    -0.075 A 
ATOM      2  C4  UNL d   1      -2.256  -3.791  -5.461  0.00  0.00     0.002 A 
ATOM      3  C5  UNL d   1      -3.603  -3.880  -5.812  0.00  0.00     0.002 A 
ATOM      4  C6  UNL d   1      -4.520  -4.444  -4.929  0.00  0.00    -0.004 A 
ATOM      5  C7  UNL d   1      -4.088  -4.926  -3.695  0.00  0.00     0.002 A 
ATOM      6  C8  UNL d   1      -2.741  -4.835  -3.340  0.00  0.00     0.002 A 
ENDROOT
BRANCH   1   7
ATOM      7  C2  UNL d   1      -0.360  -4.138  -3.818  0.00  0.00     0.056 C 
BRANCH   7   8
ATOM      8  C1  UNL d   1       0.055  -5.079  -2.682  0.00  0.00     0.007 C 
ATOM      9  C   UNL d   1       1.214  -5.995  -3.054  0.00  0.00     0.009 C 
ENDBRANCH   7   8
ENDBRANCH   1   7
TORSDOF 2
ENDMDL
