MODEL 1
REMARK minimizedAffinity 2.21061826
REMARK minimizedRMSD -1
REMARK  2 active torsions:
REMARK  status: ('A' for Active; 'I' for Inactive)
REMARK    1  A    between atoms: C1_2  and  C2_3 
REMARK    2  A    between atoms: C2_3  and  C3_4 
ROOT
ATOM      1  C3  UNL d   1      -2.531  -3.905  -4.126  0.00  0.00    -0.075 A 
ATOM      2  C4  UNL d   1      -3.039  -4.849  -3.221  0.00  0.00     0.002 A 
ATOM      3  C5  UNL d   1      -2.183  -5.538  -2.361  0.00  0.00     0.002 A 
ATOM      4  C6  UNL d   1      -0.811  -5.300  -2.401  0.00  0.00    -0.004 A 
ATOM      5  C7  UNL d   1      -0.293  -4.377  -3.308  0.00  0.00     0.002 A 
ATOM      6  C8  UNL d   1      -1.148  -3.683  -4.166  0.00  0.00     0.002 A 
ENDROOT
BRANCH   1   7
ATOM      7  C2  UNL d   1      -3.455  -3.135  -5.038  0.00  0.00     0.056 C 
BRANCH   7   8
ATOM      8  C1  UNL d   1      -4.269  -4.018  -5.991  0.00  0.00     0.007 C 
ATOM      9  C   UNL d   1      -5.755  -3.686  -5.994  0.00  0.00     0.009 C 
ENDBRANCH   7   8
ENDBRANCH   1   7
TORSDOF 2
ENDMDL
