MODEL 1
REMARK minimizedAffinity 10.4707212
REMARK minimizedRMSD -1
REMARK  2 active torsions:
REMARK  status: ('A' for Active; 'I' for Inactive)
REMARK    1  A    between atoms: C1_2  and  C2_3 
REMARK    2  A    between atoms: C2_3  and  C3_4 
ROOT
ATOM      1  C3  UNL d   1      -2.694   0.062   2.298  0.00  0.00    -0.075 A 
ATOM      2  C4  UNL d   1      -2.133   1.347   2.325  0.00  0.00     0.002 A 
ATOM      3  C5  UNL d   1      -0.781   1.524   2.621  0.00  0.00     0.002 A 
ATOM      4  C6  UNL d   1       0.023   0.422   2.904  0.00  0.00    -0.004 A 
ATOM      5  C7  UNL d   1      -0.528  -0.858   2.897  0.00  0.00     0.002 A 
ATOM      6  C8  UNL d   1      -1.879  -1.038   2.596  0.00  0.00     0.002 A 
ENDROOT
BRANCH   1   7
ATOM      7  C2  UNL d   1      -4.149  -0.139   1.949  0.00  0.00     0.056 C 
BRANCH   7   8
ATOM      8  C1  UNL d   1      -4.501  -1.573   1.542  0.00  0.00     0.007 C 
ATOM      9  C   UNL d   1      -5.996  -1.861   1.589  0.00  0.00     0.009 C 
ENDBRANCH   7   8
ENDBRANCH   1   7
TORSDOF 2
ENDMDL
