MODEL 1
REMARK minimizedAffinity -3.68374443
REMARK minimizedRMSD -1
REMARK  2 active torsions:
REMARK  status: ('A' for Active; 'I' for Inactive)
REMARK    1  A    between atoms: C1_2  and  C2_3 
REMARK    2  A    between atoms: C2_3  and  C3_4 
ROOT
ATOM      1  C3  UNL d   1      -5.651   3.126  -2.524  0.00  0.00    -0.075 A 
ATOM      2  C4  UNL d   1      -5.584   4.079  -3.552  0.00  0.00     0.002 A 
ATOM      3  C5  UNL d   1      -5.736   3.695  -4.884  0.00  0.00     0.002 A 
ATOM      4  C6  UNL d   1      -5.948   2.357  -5.207  0.00  0.00    -0.004 A 
ATOM      5  C7  UNL d   1      -6.000   1.400  -4.196  0.00  0.00     0.002 A 
ATOM      6  C8  UNL d   1      -5.852   1.781  -2.861  0.00  0.00     0.002 A 
ENDROOT
BRANCH   1   7
ATOM      7  C2  UNL d   1      -5.517   3.539  -1.078  0.00  0.00     0.056 C 
BRANCH   7   8
ATOM      8  C1  UNL d   1      -5.999   2.481  -0.080  0.00  0.00     0.007 C 
ATOM      9  C   UNL d   1      -5.014   2.234   1.055  0.00  0.00     0.009 C 
ENDBRANCH   7   8
ENDBRANCH   1   7
TORSDOF 2
ENDMDL
