MODEL 1
REMARK minimizedAffinity 0.126757398
REMARK minimizedRMSD -1
REMARK  2 active torsions:
REMARK  status: ('A' for Active; 'I' for Inactive)
REMARK    1  A    between atoms: C1_2  and  C2_3 
REMARK    2  A    between atoms: C2_3  and  C3_4 
ROOT
ATOM      1  C3  UNL d   1      -5.632   2.091  -1.467  0.00  0.00    -0.075 A 
ATOM      2  C4  UNL d   1      -5.251   3.361  -1.922  0.00  0.00     0.002 A 
ATOM      3  C5  UNL d   1      -5.258   3.657  -3.285  0.00  0.00     0.002 A 
ATOM      4  C6  UNL d   1      -5.635   2.686  -4.210  0.00  0.00    -0.004 A 
ATOM      5  C7  UNL d   1      -6.000   1.415  -3.771  0.00  0.00     0.002 A 
ATOM      6  C8  UNL d   1      -5.998   1.118  -2.407  0.00  0.00     0.002 A 
ENDROOT
BRANCH   1   7
ATOM      7  C2  UNL d   1      -5.655   1.773   0.009  0.00  0.00     0.056 C 
BRANCH   7   8
ATOM      8  C1  UNL d   1      -4.307   1.969   0.710  0.00  0.00     0.007 C 
ATOM      9  C   UNL d   1      -3.933   0.811   1.626  0.00  0.00     0.009 C 
ENDBRANCH   7   8
ENDBRANCH   1   7
TORSDOF 2
ENDMDL
