MODEL 1
REMARK minimizedAffinity 7.60507011
REMARK minimizedRMSD -1
REMARK  2 active torsions:
REMARK  status: ('A' for Active; 'I' for Inactive)
REMARK    1  A    between atoms: C1_2  and  C2_3 
REMARK    2  A    between atoms: C2_3  and  C3_4 
ROOT
ATOM      1  C3  UNL d   1       1.638  -2.619  -0.315  0.00  0.00    -0.075 A 
ATOM      2  C4  UNL d   1       0.774  -1.604  -0.753  0.00  0.00     0.002 A 
ATOM      3  C5  UNL d   1      -0.428  -1.922  -1.387  0.00  0.00     0.002 A 
ATOM      4  C6  UNL d   1      -0.775  -3.254  -1.600  0.00  0.00    -0.004 A 
ATOM      5  C7  UNL d   1       0.083  -4.270  -1.183  0.00  0.00     0.002 A 
ATOM      6  C8  UNL d   1       1.283  -3.955  -0.544  0.00  0.00     0.002 A 
ENDROOT
BRANCH   1   7
ATOM      7  C2  UNL d   1       2.925  -2.282   0.398  0.00  0.00     0.056 C 
BRANCH   7   8
ATOM      8  C1  UNL d   1       4.114  -2.043  -0.539  0.00  0.00     0.007 C 
ATOM      9  C   UNL d   1       5.095  -3.207  -0.574  0.00  0.00     0.009 C 
ENDBRANCH   7   8
ENDBRANCH   1   7
TORSDOF 2
ENDMDL
