MODEL 1
REMARK minimizedAffinity 3.94426537
REMARK minimizedRMSD -1
REMARK  2 active torsions:
REMARK  status: ('A' for Active; 'I' for Inactive)
REMARK    1  A    between atoms: C1_2  and  C2_3 
REMARK    2  A    between atoms: C2_3  and  C3_4 
ROOT
ATOM      1  C3  UNL d   1      -5.668   2.170  -1.292  0.00  0.00    -0.075 A 
ATOM      2  C4  UNL d   1      -5.997   1.144  -2.189  0.00  0.00     0.002 A 
ATOM      3  C5  UNL d   1      -5.926   1.356  -3.566  0.00  0.00     0.002 A 
ATOM      4  C6  UNL d   1      -5.535   2.598  -4.062  0.00  0.00    -0.004 A 
ATOM      5  C7  UNL d   1      -5.222   3.630  -3.180  0.00  0.00     0.002 A 
ATOM      6  C8  UNL d   1      -5.288   3.418  -1.802  0.00  0.00     0.002 A 
ENDROOT
BRANCH   1   7
ATOM      7  C2  UNL d   1      -5.714   1.937   0.200  0.00  0.00     0.056 C 
BRANCH   7   8
ATOM      8  C1  UNL d   1      -4.335   1.806   0.854  0.00  0.00     0.007 C 
ATOM      9  C   UNL d   1      -4.155   0.501   1.619  0.00  0.00     0.009 C 
ENDBRANCH   7   8
ENDBRANCH   1   7
TORSDOF 2
ENDMDL
