MODEL 1
REMARK minimizedAffinity 1.69009709
REMARK minimizedRMSD -1
REMARK  2 active torsions:
REMARK  status: ('A' for Active; 'I' for Inactive)
REMARK    1  A    between atoms: C1_2  and  C2_3 
REMARK    2  A    between atoms: C2_3  and  C3_4 
ROOT
ATOM      1  C3  UNL d   1      -5.647   2.557  -1.356  0.00  0.00    -0.075 A 
ATOM      2  C4  UNL d   1      -5.876   1.510  -2.261  0.00  0.00     0.002 A 
ATOM      3  C5  UNL d   1      -6.000   1.769  -3.627  0.00  0.00     0.002 A 
ATOM      4  C6  UNL d   1      -5.906   3.074  -4.103  0.00  0.00    -0.004 A 
ATOM      5  C7  UNL d   1      -5.696   4.124  -3.211  0.00  0.00     0.002 A 
ATOM      6  C8  UNL d   1      -5.567   3.868  -1.845  0.00  0.00     0.002 A 
ENDROOT
BRANCH   1   7
ATOM      7  C2  UNL d   1      -5.483   2.281   0.119  0.00  0.00     0.056 C 
BRANCH   7   8
ATOM      8  C1  UNL d   1      -4.028   2.296   0.599  0.00  0.00     0.007 C 
ATOM      9  C   UNL d   1      -3.822   1.561   1.916  0.00  0.00     0.009 C 
ENDBRANCH   7   8
ENDBRANCH   1   7
TORSDOF 2
ENDMDL
