MODEL 1
REMARK minimizedAffinity 7.99472904
REMARK minimizedRMSD -1
REMARK  2 active torsions:
REMARK  status: ('A' for Active; 'I' for Inactive)
REMARK    1  A    between atoms: C1_2  and  C2_3 
REMARK    2  A    between atoms: C2_3  and  C3_4 
ROOT
ATOM      1  C3  UNL d   1      -0.043  -3.609  -1.189  0.00  0.00    -0.075 A 
ATOM      2  C4  UNL d   1      -0.202  -2.236  -0.950  0.00  0.00     0.002 A 
ATOM      3  C5  UNL d   1       0.654  -1.565  -0.077  0.00  0.00     0.002 A 
ATOM      4  C6  UNL d   1       1.672  -2.258   0.575  0.00  0.00    -0.004 A 
ATOM      5  C7  UNL d   1       1.829  -3.625   0.358  0.00  0.00     0.002 A 
ATOM      6  C8  UNL d   1       0.976  -4.298  -0.518  0.00  0.00     0.002 A 
ENDROOT
BRANCH   1   7
ATOM      7  C2  UNL d   1      -0.948  -4.336  -2.155  0.00  0.00     0.056 C 
BRANCH   7   8
ATOM      8  C1  UNL d   1      -1.088  -3.647  -3.517  0.00  0.00     0.007 C 
ATOM      9  C   UNL d   1       0.072  -3.940  -4.459  0.00  0.00     0.009 C 
ENDBRANCH   7   8
ENDBRANCH   1   7
TORSDOF 2
ENDMDL
