MODEL 1
REMARK minimizedAffinity 8.36386681
REMARK minimizedRMSD -1
REMARK  2 active torsions:
REMARK  status: ('A' for Active; 'I' for Inactive)
REMARK    1  A    between atoms: C1_2  and  C2_3 
REMARK    2  A    between atoms: C2_3  and  C3_4 
ROOT
ATOM      1  C3  UNL d   1       2.212  -2.953  -0.258  0.00  0.00    -0.075 A 
ATOM      2  C4  UNL d   1       1.678  -4.098  -0.867  0.00  0.00     0.002 A 
ATOM      3  C5  UNL d   1       0.353  -4.117  -1.301  0.00  0.00     0.002 A 
ATOM      4  C6  UNL d   1      -0.458  -2.998  -1.124  0.00  0.00    -0.004 A 
ATOM      5  C7  UNL d   1       0.057  -1.861  -0.505  0.00  0.00     0.002 A 
ATOM      6  C8  UNL d   1       1.384  -1.838  -0.073  0.00  0.00     0.002 A 
ENDROOT
BRANCH   1   7
ATOM      7  C2  UNL d   1       3.654  -2.916   0.188  0.00  0.00     0.056 C 
BRANCH   7   8
ATOM      8  C1  UNL d   1       4.664  -3.061  -0.955  0.00  0.00     0.007 C 
ATOM      9  C   UNL d   1       5.419  -4.383  -0.925  0.00  0.00     0.009 C 
ENDBRANCH   7   8
ENDBRANCH   1   7
TORSDOF 2
ENDMDL
