MODEL 1
REMARK minimizedAffinity 0.630239964
REMARK minimizedRMSD -1
REMARK  2 active torsions:
REMARK  status: ('A' for Active; 'I' for Inactive)
REMARK    1  A    between atoms: C1_2  and  C2_3 
REMARK    2  A    between atoms: C2_3  and  C3_4 
ROOT
ATOM      1  C3  UNL d   1      -5.956   2.194  -4.000  0.00  0.00    -0.075 A 
ATOM      2  C4  UNL d   1      -5.999   1.241  -2.971  0.00  0.00     0.002 A 
ATOM      3  C5  UNL d   1      -5.986   1.641  -1.634  0.00  0.00     0.002 A 
ATOM      4  C6  UNL d   1      -5.918   2.994  -1.310  0.00  0.00    -0.004 A 
ATOM      5  C7  UNL d   1      -5.858   3.948  -2.323  0.00  0.00     0.002 A 
ATOM      6  C8  UNL d   1      -5.876   3.551  -3.661  0.00  0.00     0.002 A 
ENDROOT
BRANCH   1   7
ATOM      7  C2  UNL d   1      -6.000   1.769  -5.448  0.00  0.00     0.056 C 
BRANCH   7   8
ATOM      8  C1  UNL d   1      -5.653   0.294  -5.676  0.00  0.00     0.007 C 
ATOM      9  C   UNL d   1      -4.183   0.066  -5.999  0.00  0.00     0.009 C 
ENDBRANCH   7   8
ENDBRANCH   1   7
TORSDOF 2
ENDMDL
