MODEL 1
REMARK minimizedAffinity -1.59204972
REMARK minimizedRMSD -1
REMARK  2 active torsions:
REMARK  status: ('A' for Active; 'I' for Inactive)
REMARK    1  A    between atoms: C1_2  and  C2_3 
REMARK    2  A    between atoms: C2_3  and  C3_4 
ROOT
ATOM      1  C3  UNL d   1       2.756  -4.245  -0.452  0.00  0.00    -0.075 A 
ATOM      2  C4  UNL d   1       3.045  -2.897  -0.192  0.00  0.00     0.002 A 
ATOM      3  C5  UNL d   1       4.341  -2.407  -0.353  0.00  0.00     0.002 A 
ATOM      4  C6  UNL d   1       5.365  -3.257  -0.765  0.00  0.00    -0.004 A 
ATOM      5  C7  UNL d   1       5.092  -4.602  -1.010  0.00  0.00     0.002 A 
ATOM      6  C8  UNL d   1       3.796  -5.094  -0.854  0.00  0.00     0.002 A 
ENDROOT
BRANCH   1   7
ATOM      7  C2  UNL d   1       1.349  -4.775  -0.308  0.00  0.00     0.056 C 
BRANCH   7   8
ATOM      8  C1  UNL d   1       0.284  -3.912  -0.992  0.00  0.00     0.007 C 
ATOM      9  C   UNL d   1      -0.768  -4.729  -1.730  0.00  0.00     0.009 C 
ENDBRANCH   7   8
ENDBRANCH   1   7
TORSDOF 2
ENDMDL
