MODEL 1
REMARK minimizedAffinity 10.8376226
REMARK minimizedRMSD -1
REMARK  2 active torsions:
REMARK  status: ('A' for Active; 'I' for Inactive)
REMARK    1  A    between atoms: C1_2  and  C2_3 
REMARK    2  A    between atoms: C2_3  and  C3_4 
ROOT
ATOM      1  C3  UNL d   1       0.077   2.803   1.252  0.00  0.00    -0.075 A 
ATOM      2  C4  UNL d   1       1.178   2.351   1.995  0.00  0.00     0.002 A 
ATOM      3  C5  UNL d   1       1.003   1.834   3.279  0.00  0.00     0.002 A 
ATOM      4  C6  UNL d   1      -0.271   1.772   3.840  0.00  0.00    -0.004 A 
ATOM      5  C7  UNL d   1      -1.370   2.233   3.118  0.00  0.00     0.002 A 
ATOM      6  C8  UNL d   1      -1.198   2.747   1.832  0.00  0.00     0.002 A 
ENDROOT
BRANCH   1   7
ATOM      7  C2  UNL d   1       0.256   3.335  -0.149  0.00  0.00     0.056 C 
BRANCH   7   8
ATOM      8  C1  UNL d   1      -0.771   4.400  -0.548  0.00  0.00     0.007 C 
ATOM      9  C   UNL d   1      -0.491   5.765   0.069  0.00  0.00     0.009 C 
ENDBRANCH   7   8
ENDBRANCH   1   7
TORSDOF 2
ENDMDL
