MODEL 1
REMARK minimizedAffinity -1.71991003
REMARK minimizedRMSD -1
REMARK  2 active torsions:
REMARK  status: ('A' for Active; 'I' for Inactive)
REMARK    1  A    between atoms: C1_2  and  C2_3 
REMARK    2  A    between atoms: C2_3  and  C3_4 
ROOT
ATOM      1  C3  UNL d   1      -5.980   4.117  -3.535  0.00  0.00    -0.075 A 
ATOM      2  C4  UNL d   1      -5.951   2.723  -3.682  0.00  0.00     0.002 A 
ATOM      3  C5  UNL d   1      -5.961   1.892  -2.561  0.00  0.00     0.002 A 
ATOM      4  C6  UNL d   1      -5.988   2.443  -1.282  0.00  0.00    -0.004 A 
ATOM      5  C7  UNL d   1      -6.000   3.827  -1.124  0.00  0.00     0.002 A 
ATOM      6  C8  UNL d   1      -5.995   4.661  -2.244  0.00  0.00     0.002 A 
ENDROOT
BRANCH   1   7
ATOM      7  C2  UNL d   1      -5.999   5.021  -4.744  0.00  0.00     0.056 C 
BRANCH   7   8
ATOM      8  C1  UNL d   1      -5.380   4.398  -5.999  0.00  0.00     0.007 C 
ATOM      9  C   UNL d   1      -3.858   4.434  -5.999  0.00  0.00     0.009 C 
ENDBRANCH   7   8
ENDBRANCH   1   7
TORSDOF 2
ENDMDL
