MODEL 1
REMARK minimizedAffinity -2.31257939
REMARK minimizedRMSD -1
REMARK  1 active torsions:
REMARK  status: ('A' for Active; 'I' for Inactive)
REMARK    1  A    between atoms: C3_4  and  O_7 
ROOT
ATOM      1  C   UNL d   1       1.294   0.297   1.837  0.00  0.00    -0.033 A 
ATOM      2  C1  UNL d   1       0.235   0.913   1.167  0.00  0.00     0.039 A 
ATOM      3  C2  UNL d   1      -0.118   0.497  -0.118  0.00  0.00    -0.080 A 
ATOM      4  C3  UNL d   1       0.595  -0.535  -0.721  0.00  0.00     0.150 A 
ATOM      5  C4  UNL d   1       1.649  -1.156  -0.059  0.00  0.00    -0.007 A 
ATOM      6  C5  UNL d   1       2.000  -0.739   1.224  0.00  0.00     0.039 A 
ENDROOT
BRANCH   4   7
ATOM      7  O   UNL d   1       0.291  -0.973  -1.976  0.00  0.00    -0.526 OA
ATOM      8  H5  UNL d   1      -0.440  -0.433  -2.322  0.00  0.00     0.418 HD
ENDBRANCH   4   7
TORSDOF 1
ENDMDL
