MODEL 1
REMARK minimizedAffinity -5.26019955
REMARK minimizedRMSD -1
REMARK  1 active torsions:
REMARK  status: ('A' for Active; 'I' for Inactive)
REMARK    1  A    between atoms: C3_4  and  O_7 
ROOT
ATOM      1  C   UNL d   1      -0.336   1.204   3.461  0.00  0.00    -0.033 A 
ATOM      2  C1  UNL d   1       0.984   0.791   3.266  0.00  0.00     0.039 A 
ATOM      3  C2  UNL d   1       1.369   0.234   2.045  0.00  0.00    -0.080 A 
ATOM      4  C3  UNL d   1       0.427   0.096   1.029  0.00  0.00     0.150 A 
ATOM      5  C4  UNL d   1      -0.888   0.509   1.216  0.00  0.00    -0.007 A 
ATOM      6  C5  UNL d   1      -1.271   1.064   2.436  0.00  0.00     0.039 A 
ENDROOT
BRANCH   4   7
ATOM      7  O   UNL d   1       0.755  -0.446  -0.178  0.00  0.00    -0.526 OA
ATOM      8  H5  UNL d   1       1.690  -0.711  -0.153  0.00  0.00     0.418 HD
ENDBRANCH   4   7
TORSDOF 1
ENDMDL
