MODEL 1
REMARK minimizedAffinity -3.53404307
REMARK minimizedRMSD -1
REMARK  1 active torsions:
REMARK  status: ('A' for Active; 'I' for Inactive)
REMARK    1  A    between atoms: C3_4  and  O_7 
ROOT
ATOM      1  C   UNL d   1       0.899  -0.699  -0.710  0.00  0.00    -0.033 A 
ATOM      2  C1  UNL d   1       1.680  -0.464   0.423  0.00  0.00     0.039 A 
ATOM      3  C2  UNL d   1       1.211   0.376   1.435  0.00  0.00    -0.080 A 
ATOM      4  C3  UNL d   1      -0.040   0.973   1.303  0.00  0.00     0.150 A 
ATOM      5  C4  UNL d   1      -0.825   0.740   0.179  0.00  0.00    -0.007 A 
ATOM      6  C5  UNL d   1      -0.355  -0.098  -0.832  0.00  0.00     0.039 A 
ENDROOT
BRANCH   4   7
ATOM      7  O   UNL d   1      -0.538   1.803   2.262  0.00  0.00    -0.526 OA
ATOM      8  H5  UNL d   1       0.126   1.893   2.966  0.00  0.00     0.418 HD
ENDBRANCH   4   7
TORSDOF 1
ENDMDL
