MODEL 1
REMARK minimizedAffinity -3.13493443
REMARK minimizedRMSD -1
REMARK  1 active torsions:
REMARK  status: ('A' for Active; 'I' for Inactive)
REMARK    1  A    between atoms: C3_4  and  O_7 
ROOT
ATOM      1  C   UNL d   1       0.509  -1.005  -0.556  0.00  0.00    -0.033 A 
ATOM      2  C1  UNL d   1       1.636  -0.732   0.221  0.00  0.00     0.039 A 
ATOM      3  C2  UNL d   1       1.550   0.166   1.287  0.00  0.00    -0.080 A 
ATOM      4  C3  UNL d   1       0.333   0.782   1.565  0.00  0.00     0.150 A 
ATOM      5  C4  UNL d   1      -0.795   0.511   0.797  0.00  0.00    -0.007 A 
ATOM      6  C5  UNL d   1      -0.706  -0.384  -0.268  0.00  0.00     0.039 A 
ENDROOT
BRANCH   4   7
ATOM      7  O   UNL d   1       0.201   1.668   2.593  0.00  0.00    -0.526 OA
ATOM      8  H5  UNL d   1       1.068   1.779   3.017  0.00  0.00     0.418 HD
ENDBRANCH   4   7
TORSDOF 1
ENDMDL
