MODEL 1
REMARK minimizedAffinity -4.10449886
REMARK minimizedRMSD -1
REMARK  1 active torsions:
REMARK  status: ('A' for Active; 'I' for Inactive)
REMARK    1  A    between atoms: C3_4  and  O_7 
ROOT
ATOM      1  C   UNL d   1      -0.202  -0.482  -0.526  0.00  0.00    -0.033 A 
ATOM      2  C1  UNL d   1       0.933  -0.108   0.196  0.00  0.00     0.039 A 
ATOM      3  C2  UNL d   1       0.803   0.646   1.363  0.00  0.00    -0.080 A 
ATOM      4  C3  UNL d   1      -0.465   1.020   1.798  0.00  0.00     0.150 A 
ATOM      5  C4  UNL d   1      -1.601   0.648   1.086  0.00  0.00    -0.007 A 
ATOM      6  C5  UNL d   1      -1.469  -0.105  -0.080  0.00  0.00     0.039 A 
ENDROOT
BRANCH   4   7
ATOM      7  O   UNL d   1      -0.642   1.761   2.929  0.00  0.00    -0.526 OA
ATOM      8  H5  UNL d   1       0.232   1.968   3.300  0.00  0.00     0.418 HD
ENDBRANCH   4   7
TORSDOF 1
ENDMDL
