MODEL 1
REMARK minimizedAffinity -3.81959176
REMARK minimizedRMSD -1
REMARK  1 active torsions:
REMARK  status: ('A' for Active; 'I' for Inactive)
REMARK    1  A    between atoms: C3_4  and  O_7 
ROOT
ATOM      1  C   UNL d   1      -0.961   0.514   0.148  0.00  0.00    -0.033 A 
ATOM      2  C1  UNL d   1      -1.924   0.190   1.105  0.00  0.00     0.039 A 
ATOM      3  C2  UNL d   1      -1.713   0.511   2.448  0.00  0.00    -0.080 A 
ATOM      4  C3  UNL d   1      -0.536   1.155   2.819  0.00  0.00     0.150 A 
ATOM      5  C4  UNL d   1       0.426   1.484   1.870  0.00  0.00    -0.007 A 
ATOM      6  C5  UNL d   1       0.214   1.163   0.531  0.00  0.00     0.039 A 
ENDROOT
BRANCH   4   7
ATOM      7  O   UNL d   1      -0.283   1.484   4.118  0.00  0.00    -0.526 OA
ATOM      8  H5  UNL d   1      -1.023   1.170   4.664  0.00  0.00     0.418 HD
ENDBRANCH   4   7
TORSDOF 1
ENDMDL
