MODEL 1
REMARK minimizedAffinity 2.78351355
REMARK minimizedRMSD -1
REMARK  1 active torsions:
REMARK  status: ('A' for Active; 'I' for Inactive)
REMARK    1  A    between atoms: C3_4  and  O_7 
ROOT
ATOM      1  C   UNL d   1       4.115   0.447  -3.197  0.00  0.00    -0.033 A 
ATOM      2  C1  UNL d   1       3.648  -0.717  -3.811  0.00  0.00     0.039 A 
ATOM      3  C2  UNL d   1       2.359  -0.756  -4.347  0.00  0.00    -0.080 A 
ATOM      4  C3  UNL d   1       1.549   0.373  -4.263  0.00  0.00     0.150 A 
ATOM      5  C4  UNL d   1       2.009   1.537  -3.656  0.00  0.00    -0.007 A 
ATOM      6  C5  UNL d   1       3.296   1.574  -3.120  0.00  0.00     0.039 A 
ENDROOT
BRANCH   4   7
ATOM      7  O   UNL d   1       0.283   0.381  -4.768  0.00  0.00    -0.526 OA
ATOM      8  H5  UNL d   1       0.091  -0.500  -5.131  0.00  0.00     0.418 HD
ENDBRANCH   4   7
TORSDOF 1
ENDMDL
