MODEL 1
REMARK minimizedAffinity -3.98084855
REMARK minimizedRMSD -1
REMARK  2 active torsions:
REMARK  status: ('A' for Active; 'I' for Inactive)
REMARK    1  A    between atoms: C2'_3  and  C1'_4 
REMARK    2  A    between atoms: C1'_4  and  C1_5 
ROOT
ATOM      1  C1  I4B d   1       0.587   0.469   0.699  0.00  0.00    -0.075 A 
ATOM      2  C2  I4B d   1      -0.210   1.577   0.843  0.00  0.00     0.003 A 
ATOM      3  C3  I4B d   1       0.372   2.862   0.971  0.00  0.00     0.002 A 
ATOM      4  C4  I4B d   1       1.746   2.985   1.002  0.00  0.00    -0.004 A 
ATOM      5  C5  I4B d   1       2.552   1.863   0.833  0.00  0.00     0.002 A 
ATOM      6  C6  I4B d   1       1.970   0.598   0.668  0.00  0.00     0.003 A 
ENDROOT
BRANCH   1   7
ATOM      7  C1' I4B d   1      -0.060  -0.876   0.599  0.00  0.00     0.060 C 
BRANCH   7   8
ATOM      8  C2' I4B d   1      -0.392  -1.127  -0.858  0.00  0.00    -0.013 C 
ATOM      9  C4' I4B d   1      -0.334  -2.596  -1.185  0.00  0.00     0.013 C 
ATOM     10  C3' I4B d   1      -1.757  -0.566  -1.124  0.00  0.00     0.013 C 
ENDBRANCH   7   8
ENDBRANCH   1   7
TORSDOF 2
ENDMDL
