MODEL 1
REMARK minimizedAffinity -4.36560345
REMARK minimizedRMSD -1
REMARK  2 active torsions:
REMARK  status: ('A' for Active; 'I' for Inactive)
REMARK    1  A    between atoms: C2'_3  and  C1'_4 
REMARK    2  A    between atoms: C1'_4  and  C1_5 
ROOT
ATOM      1  C1  I4B d   1       0.115  -0.320   0.034  0.00  0.00    -0.075 A 
ATOM      2  C2  I4B d   1      -1.032   0.163  -0.545  0.00  0.00     0.003 A 
ATOM      3  C3  I4B d   1      -1.318   1.549  -0.512  0.00  0.00     0.002 A 
ATOM      4  C4  I4B d   1      -0.461   2.404   0.150  0.00  0.00    -0.004 A 
ATOM      5  C5  I4B d   1       0.713   1.916   0.716  0.00  0.00     0.002 A 
ATOM      6  C6  I4B d   1       1.010   0.547   0.647  0.00  0.00     0.003 A 
ENDROOT
BRANCH   1   7
ATOM      7  C1' I4B d   1       0.370  -1.794   0.009  0.00  0.00     0.060 C 
BRANCH   7   8
ATOM      8  C2' I4B d   1      -0.506  -2.401  -1.067  0.00  0.00    -0.013 C 
ATOM      9  C4' I4B d   1       0.324  -2.990  -2.178  0.00  0.00     0.013 C 
ATOM     10  C3' I4B d   1      -1.371  -3.445  -0.426  0.00  0.00     0.013 C 
ENDBRANCH   7   8
ENDBRANCH   1   7
TORSDOF 2
ENDMDL
