MODEL 1
REMARK minimizedAffinity -3.10580325
REMARK minimizedRMSD -1
REMARK  2 active torsions:
REMARK  status: ('A' for Active; 'I' for Inactive)
REMARK    1  A    between atoms: C2'_3  and  C1'_4 
REMARK    2  A    between atoms: C1'_4  and  C1_5 
ROOT
ATOM      1  C1  I4B d   1       0.278  -0.229   0.265  0.00  0.00    -0.075 A 
ATOM      2  C2  I4B d   1      -1.003   0.246   0.132  0.00  0.00     0.003 A 
ATOM      3  C3  I4B d   1      -1.273   1.625   0.303  0.00  0.00     0.002 A 
ATOM      4  C4  I4B d   1      -0.248   2.480   0.653  0.00  0.00    -0.004 A 
ATOM      5  C5  I4B d   1       1.054   2.000   0.766  0.00  0.00     0.002 A 
ATOM      6  C6  I4B d   1       1.321   0.639   0.558  0.00  0.00     0.003 A 
ENDROOT
BRANCH   1   7
ATOM      7  C1' I4B d   1       0.522  -1.697   0.111  0.00  0.00     0.060 C 
BRANCH   7   8
ATOM      8  C2' I4B d   1      -0.382  -2.207  -0.993  0.00  0.00    -0.013 C 
ATOM      9  C4' I4B d   1       0.413  -2.612  -2.206  0.00  0.00     0.013 C 
ATOM     10  C3' I4B d   1      -1.168  -3.363  -0.450  0.00  0.00     0.013 C 
ENDBRANCH   7   8
ENDBRANCH   1   7
TORSDOF 2
ENDMDL
