MODEL 1
REMARK minimizedAffinity -4.62343502
REMARK minimizedRMSD -1
REMARK  2 active torsions:
REMARK  status: ('A' for Active; 'I' for Inactive)
REMARK    1  A    between atoms: C2'_3  and  C1'_4 
REMARK    2  A    between atoms: C1'_4  and  C1_5 
ROOT
ATOM      1  C1  I4B d   1      -0.837   0.217  -1.037  0.00  0.00    -0.075 A 
ATOM      2  C2  I4B d   1       0.199   0.052  -0.153  0.00  0.00     0.003 A 
ATOM      3  C3  I4B d   1       0.476   1.048   0.815  0.00  0.00     0.002 A 
ATOM      4  C4  I4B d   1      -0.271   2.208   0.830  0.00  0.00    -0.004 A 
ATOM      5  C5  I4B d   1      -1.337   2.363  -0.052  0.00  0.00     0.002 A 
ATOM      6  C6  I4B d   1      -1.630   1.357  -0.984  0.00  0.00     0.003 A 
ENDROOT
BRANCH   1   7
ATOM      7  C1' I4B d   1      -1.081  -0.840  -2.067  0.00  0.00     0.060 C 
BRANCH   7   8
ATOM      8  C2' I4B d   1      -0.344  -2.091  -1.636  0.00  0.00    -0.013 C 
ATOM      9  C4' I4B d   1      -1.235  -2.999  -0.831  0.00  0.00     0.013 C 
ATOM     10  C3' I4B d   1       0.159  -2.780  -2.869  0.00  0.00     0.013 C 
ENDBRANCH   7   8
ENDBRANCH   1   7
TORSDOF 2
ENDMDL
