MODEL 1
REMARK minimizedAffinity -3.0559597
REMARK minimizedRMSD -1
REMARK  2 active torsions:
REMARK  status: ('A' for Active; 'I' for Inactive)
REMARK    1  A    between atoms: C2'_3  and  C1'_4 
REMARK    2  A    between atoms: C1'_4  and  C1_5 
ROOT
ATOM      1  C1  I4B d   1      -0.055  -0.388   0.071  0.00  0.00    -0.075 A 
ATOM      2  C2  I4B d   1       0.879   0.575   0.359  0.00  0.00     0.003 A 
ATOM      3  C3  I4B d   1       0.476   1.911   0.597  0.00  0.00     0.002 A 
ATOM      4  C4  I4B d   1      -0.858   2.248   0.487  0.00  0.00    -0.004 A 
ATOM      5  C5  I4B d   1      -1.807   1.266   0.217  0.00  0.00     0.002 A 
ATOM      6  C6  I4B d   1      -1.405  -0.063   0.019  0.00  0.00     0.003 A 
ENDROOT
BRANCH   1   7
ATOM      7  C1' I4B d   1       0.409  -1.782  -0.207  0.00  0.00     0.060 C 
BRANCH   7   8
ATOM      8  C2' I4B d   1      -0.605  -2.438  -1.122  0.00  0.00    -0.013 C 
ATOM      9  C4' I4B d   1       0.057  -3.016  -2.345  0.00  0.00     0.013 C 
ATOM     10  C3' I4B d   1      -1.316  -3.501  -0.339  0.00  0.00     0.013 C 
ENDBRANCH   7   8
ENDBRANCH   1   7
TORSDOF 2
ENDMDL
