MODEL 1
REMARK minimizedAffinity -4.24955177
REMARK minimizedRMSD -1
REMARK  2 active torsions:
REMARK  status: ('A' for Active; 'I' for Inactive)
REMARK    1  A    between atoms: C2'_3  and  C1'_4 
REMARK    2  A    between atoms: C1'_4  and  C1_5 
ROOT
ATOM      1  C1  I4B d   1      -0.108  -0.168   0.033  0.00  0.00    -0.075 A 
ATOM      2  C2  I4B d   1      -1.385   0.111  -0.385  0.00  0.00     0.003 A 
ATOM      3  C3  I4B d   1      -1.898   1.427  -0.279  0.00  0.00     0.002 A 
ATOM      4  C4  I4B d   1      -1.123   2.415   0.292  0.00  0.00    -0.004 A 
ATOM      5  C5  I4B d   1       0.180   2.135   0.694  0.00  0.00     0.002 A 
ATOM      6  C6  I4B d   1       0.696   0.839   0.552  0.00  0.00     0.003 A 
ENDROOT
BRANCH   1   7
ATOM      7  C1' I4B d   1       0.391  -1.575  -0.063  0.00  0.00     0.060 C 
BRANCH   7   8
ATOM      8  C2' I4B d   1      -0.452  -2.299  -1.093  0.00  0.00    -0.013 C 
ATOM      9  C4' I4B d   1       0.410  -2.940  -2.149  0.00  0.00     0.013 C 
ATOM     10  C3' I4B d   1      -1.281  -3.323  -0.376  0.00  0.00     0.013 C 
ENDBRANCH   7   8
ENDBRANCH   1   7
TORSDOF 2
ENDMDL
