MODEL 1
REMARK minimizedAffinity -3.74622416
REMARK minimizedRMSD -1
REMARK  2 active torsions:
REMARK  status: ('A' for Active; 'I' for Inactive)
REMARK    1  A    between atoms: C2'_3  and  C1'_4 
REMARK    2  A    between atoms: C1'_4  and  C1_5 
ROOT
ATOM      1  C1  I4B d   1      -0.033  -0.346   0.260  0.00  0.00    -0.075 A 
ATOM      2  C2  I4B d   1      -1.247   0.183  -0.099  0.00  0.00     0.003 A 
ATOM      3  C3  I4B d   1      -1.462   1.581  -0.037  0.00  0.00     0.002 A 
ATOM      4  C4  I4B d   1      -0.458   2.403   0.434  0.00  0.00    -0.004 A 
ATOM      5  C5  I4B d   1       0.780   1.867   0.776  0.00  0.00     0.002 A 
ATOM      6  C6  I4B d   1       0.999   0.485   0.677  0.00  0.00     0.003 A 
ENDROOT
BRANCH   1   7
ATOM      7  C1' I4B d   1       0.149  -1.830   0.214  0.00  0.00     0.060 C 
BRANCH   7   8
ATOM      8  C2' I4B d   1      -0.552  -2.348  -1.026  0.00  0.00    -0.013 C 
ATOM      9  C4' I4B d   1       0.441  -2.748  -2.086  0.00  0.00     0.013 C 
ATOM     10  C3' I4B d   1      -1.410  -3.509  -0.622  0.00  0.00     0.013 C 
ENDBRANCH   7   8
ENDBRANCH   1   7
TORSDOF 2
ENDMDL
