MODEL 1
REMARK minimizedAffinity -3.49960542
REMARK minimizedRMSD -1
REMARK  2 active torsions:
REMARK  status: ('A' for Active; 'I' for Inactive)
REMARK    1  A    between atoms: C2'_3  and  C1'_4 
REMARK    2  A    between atoms: C1'_4  and  C1_5 
ROOT
ATOM      1  C1  I4B d   1      -0.344  -0.547  -0.019  0.00  0.00    -0.075 A 
ATOM      2  C2  I4B d   1      -1.070  -0.024   1.023  0.00  0.00     0.003 A 
ATOM      3  C3  I4B d   1      -1.470   1.334   1.002  0.00  0.00     0.002 A 
ATOM      4  C4  I4B d   1      -1.082   2.141  -0.048  0.00  0.00    -0.004 A 
ATOM      5  C5  I4B d   1      -0.366   1.604  -1.114  0.00  0.00     0.002 A 
ATOM      6  C6  I4B d   1      -0.005   0.249  -1.105  0.00  0.00     0.003 A 
ENDROOT
BRANCH   1   7
ATOM      7  C1' I4B d   1       0.090  -1.976   0.051  0.00  0.00     0.060 C 
BRANCH   7   8
ATOM      8  C2' I4B d   1      -0.784  -2.776  -0.894  0.00  0.00    -0.013 C 
ATOM      9  C4' I4B d   1      -0.011  -3.216  -2.110  0.00  0.00     0.013 C 
ATOM     10  C3' I4B d   1      -1.324  -3.954  -0.141  0.00  0.00     0.013 C 
ENDBRANCH   7   8
ENDBRANCH   1   7
TORSDOF 2
ENDMDL
