MODEL 1
REMARK minimizedAffinity -2.13059926
REMARK minimizedRMSD -1
REMARK  2 active torsions:
REMARK  status: ('A' for Active; 'I' for Inactive)
REMARK    1  A    between atoms: C2'_3  and  C1'_4 
REMARK    2  A    between atoms: C1'_4  and  C1_5 
ROOT
ATOM      1  C1  I4B d   1      -0.240  -2.383  -0.002  0.00  0.00    -0.075 A 
ATOM      2  C2  I4B d   1       1.004  -2.486   0.569  0.00  0.00     0.003 A 
ATOM      3  C3  I4B d   1       1.735  -1.320   0.900  0.00  0.00     0.002 A 
ATOM      4  C4  I4B d   1       1.210  -0.080   0.598  0.00  0.00    -0.004 A 
ATOM      5  C5  I4B d   1      -0.061   0.023   0.040  0.00  0.00     0.002 A 
ATOM      6  C6  I4B d   1      -0.797  -1.135  -0.250  0.00  0.00     0.003 A 
ENDROOT
BRANCH   1   7
ATOM      7  C1' I4B d   1      -0.971  -3.636  -0.368  0.00  0.00     0.060 C 
BRANCH   7   8
ATOM      8  C2' I4B d   1      -0.641  -3.965  -1.810  0.00  0.00    -0.013 C 
ATOM      9  C4' I4B d   1      -1.779  -3.600  -2.727  0.00  0.00     0.013 C 
ATOM     10  C3' I4B d   1       0.610  -3.224  -2.178  0.00  0.00     0.013 C 
ENDBRANCH   7   8
ENDBRANCH   1   7
TORSDOF 2
ENDMDL
