MODEL 1
REMARK minimizedAffinity -3.09660292
REMARK minimizedRMSD -1
REMARK  2 active torsions:
REMARK  status: ('A' for Active; 'I' for Inactive)
REMARK    1  A    between atoms: C2'_3  and  C1'_4 
REMARK    2  A    between atoms: C1'_4  and  C1_5 
ROOT
ATOM      1  C1  I4B d   1      -0.280  -0.461  -0.668  0.00  0.00    -0.075 A 
ATOM      2  C2  I4B d   1       0.307   0.076   0.450  0.00  0.00     0.003 A 
ATOM      3  C3  I4B d   1      -0.129   1.325   0.956  0.00  0.00     0.002 A 
ATOM      4  C4  I4B d   1      -1.115   2.021   0.287  0.00  0.00    -0.004 A 
ATOM      5  C5  I4B d   1      -1.726   1.465  -0.833  0.00  0.00     0.002 A 
ATOM      6  C6  I4B d   1      -1.315   0.210  -1.307  0.00  0.00     0.003 A 
ENDROOT
BRANCH   1   7
ATOM      7  C1' I4B d   1       0.228  -1.766  -1.194  0.00  0.00     0.060 C 
BRANCH   7   8
ATOM      8  C2' I4B d   1      -0.969  -2.619  -1.561  0.00  0.00    -0.013 C 
ATOM      9  C4' I4B d   1      -0.707  -3.416  -2.812  0.00  0.00     0.013 C 
ATOM     10  C3' I4B d   1      -1.271  -3.518  -0.400  0.00  0.00     0.013 C 
ENDBRANCH   7   8
ENDBRANCH   1   7
TORSDOF 2
ENDMDL
