MODEL 1
REMARK minimizedAffinity -2.99287605
REMARK minimizedRMSD -1
REMARK  0 active torsions:
REMARK  status: ('A' for Active; 'I' for Inactive)
ROOT
ATOM      1  C   UNL d   1      -1.307   0.273  -0.310  0.00  0.00     0.172 C 
ATOM      2  N   UNL d   1       0.034   0.499   0.176  0.00  0.00    -0.070 N 
ATOM      3  C1  UNL d   1       0.722   1.680   0.099  0.00  0.00    -0.004 A 
ATOM      4  C2  UNL d   1       1.960   1.485   0.672  0.00  0.00    -0.047 A 
ATOM      5  C3  UNL d   1       2.018   0.140   1.109  0.00  0.00    -0.047 A 
ATOM      6  C4  UNL d   1       0.812  -0.447   0.789  0.00  0.00    -0.004 A 
ENDROOT
TORSDOF 0
ENDMDL
