MODEL 1
REMARK minimizedAffinity -2.18269706
REMARK minimizedRMSD -1
REMARK  0 active torsions:
REMARK  status: ('A' for Active; 'I' for Inactive)
ROOT
ATOM      1  C   UNL d   1      -2.045   0.374  -1.243  0.00  0.00     0.172 C 
ATOM      2  N   UNL d   1      -1.052  -0.176  -0.351  0.00  0.00    -0.070 N 
ATOM      3  C1  UNL d   1      -1.228  -1.257   0.472  0.00  0.00    -0.004 A 
ATOM      4  C2  UNL d   1      -0.051  -1.463   1.157  0.00  0.00    -0.047 A 
ATOM      5  C3  UNL d   1       0.865  -0.471   0.732  0.00  0.00    -0.047 A 
ATOM      6  C4  UNL d   1       0.219   0.312  -0.201  0.00  0.00    -0.004 A 
ENDROOT
TORSDOF 0
ENDMDL
