MODEL 1
REMARK minimizedAffinity -1.57123995
REMARK minimizedRMSD -1
REMARK  0 active torsions:
REMARK  status: ('A' for Active; 'I' for Inactive)
ROOT
ATOM      1  C   UNL d   1       3.109   0.452   1.836  0.00  0.00     0.172 C 
ATOM      2  N   UNL d   1       1.792   0.303   1.262  0.00  0.00    -0.070 N 
ATOM      3  C1  UNL d   1       1.083   1.286   0.624  0.00  0.00    -0.004 A 
ATOM      4  C2  UNL d   1      -0.120   0.746   0.224  0.00  0.00    -0.047 A 
ATOM      5  C3  UNL d   1      -0.135  -0.608   0.636  0.00  0.00    -0.047 A 
ATOM      6  C4  UNL d   1       1.061  -0.855   1.276  0.00  0.00    -0.004 A 
ENDROOT
TORSDOF 0
ENDMDL
