MODEL 1
REMARK minimizedAffinity -2.92130184
REMARK minimizedRMSD -1
REMARK  0 active torsions:
REMARK  status: ('A' for Active; 'I' for Inactive)
ROOT
ATOM      1  C   UNL d   1      -1.380  -0.410   0.384  0.00  0.00     0.172 C 
ATOM      2  N   UNL d   1      -0.242   0.476   0.309  0.00  0.00    -0.070 N 
ATOM      3  C1  UNL d   1       1.066   0.111   0.484  0.00  0.00    -0.004 A 
ATOM      4  C2  UNL d   1       1.843   1.240   0.333  0.00  0.00    -0.047 A 
ATOM      5  C3  UNL d   1       0.971   2.321   0.060  0.00  0.00    -0.047 A 
ATOM      6  C4  UNL d   1      -0.314   1.819   0.051  0.00  0.00    -0.004 A 
ENDROOT
TORSDOF 0
ENDMDL
