MODEL 1
REMARK minimizedAffinity -3.19739223
REMARK minimizedRMSD -1
REMARK  0 active torsions:
REMARK  status: ('A' for Active; 'I' for Inactive)
ROOT
ATOM      1  C   UNL d   1      -0.619  -0.758   0.312  0.00  0.00     0.172 C 
ATOM      2  N   UNL d   1       0.681  -0.691   0.937  0.00  0.00    -0.070 N 
ATOM      3  C1  UNL d   1       1.603   0.306   0.757  0.00  0.00    -0.004 A 
ATOM      4  C2  UNL d   1       2.707   0.003   1.525  0.00  0.00    -0.047 A 
ATOM      5  C3  UNL d   1       2.440  -1.219   2.188  0.00  0.00    -0.047 A 
ATOM      6  C4  UNL d   1       1.179  -1.626   1.806  0.00  0.00    -0.004 A 
ENDROOT
TORSDOF 0
ENDMDL
