MODEL 1
REMARK minimizedAffinity -4.25601673
REMARK minimizedRMSD -1
REMARK  0 active torsions:
REMARK  status: ('A' for Active; 'I' for Inactive)
ROOT
ATOM      1  C   UNL d   1       0.788   0.391  -0.638  0.00  0.00     0.172 C 
ATOM      2  N   UNL d   1       1.711  -0.186   0.311  0.00  0.00    -0.070 N 
ATOM      3  C1  UNL d   1       1.462  -1.272   1.108  0.00  0.00    -0.004 A 
ATOM      4  C2  UNL d   1       2.588  -1.506   1.867  0.00  0.00    -0.047 A 
ATOM      5  C3  UNL d   1       3.547  -0.526   1.515  0.00  0.00    -0.047 A 
ATOM      6  C4  UNL d   1       2.978   0.278   0.550  0.00  0.00    -0.004 A 
ENDROOT
TORSDOF 0
ENDMDL
