MODEL 1
REMARK minimizedAffinity -2.17831349
REMARK minimizedRMSD -1
REMARK  0 active torsions:
REMARK  status: ('A' for Active; 'I' for Inactive)
ROOT
ATOM      1  C   UNL d   1      -0.920  -0.163  -0.284  0.00  0.00     0.172 C 
ATOM      2  N   UNL d   1       0.422   0.207   0.102  0.00  0.00    -0.070 N 
ATOM      3  C1  UNL d   1       1.218   1.111  -0.548  0.00  0.00    -0.004 A 
ATOM      4  C2  UNL d   1       2.416   1.183   0.131  0.00  0.00    -0.047 A 
ATOM      5  C3  UNL d   1       2.336   0.291   1.226  0.00  0.00    -0.047 A 
ATOM      6  C4  UNL d   1       1.091  -0.300   1.185  0.00  0.00    -0.004 A 
ENDROOT
TORSDOF 0
ENDMDL
