MODEL 1
REMARK minimizedAffinity 4.54128313
REMARK minimizedRMSD -1
REMARK  0 active torsions:
REMARK  status: ('A' for Active; 'I' for Inactive)
ROOT
ATOM      1  C   UNL d   1       2.511  -0.708   0.172  0.00  0.00     0.124 A 
ATOM      2  C1  UNL d   1       2.066   0.604   0.083  0.00  0.00     0.062 A 
ATOM      3  C2  UNL d   1       0.704   0.885   0.139  0.00  0.00     0.162 A 
ATOM      4  C3  UNL d   1      -0.223  -0.147   0.286  0.00  0.00    -0.034 A 
ATOM      5  C4  UNL d   1       0.233  -1.464   0.374  0.00  0.00     0.162 A 
ATOM      6  C5  UNL d   1       1.595  -1.740   0.317  0.00  0.00     0.062 A 
ATOM      7  F   UNL d   1       2.024  -3.007   0.403  0.00  0.00    -0.097 F 
ATOM      8  F1  UNL d   1      -0.631  -2.480   0.515  0.00  0.00    -0.096 F 
ATOM      9  I   UNL d   1      -2.260   0.270   0.370  0.00  0.00    -0.060 I 
ATOM     10  F2  UNL d   1       0.301   2.162   0.051  0.00  0.00    -0.096 F 
ATOM     11  F3  UNL d   1       2.949   1.603  -0.058  0.00  0.00    -0.097 F 
ATOM     12  F4  UNL d   1       3.822  -0.976   0.117  0.00  0.00    -0.092 F 
ENDROOT
TORSDOF 0
ENDMDL
