MODEL 1
REMARK minimizedAffinity 4.61686611
REMARK minimizedRMSD -1
REMARK  0 active torsions:
REMARK  status: ('A' for Active; 'I' for Inactive)
ROOT
ATOM      1  C   UNL d   1      -4.689   0.224   0.038  0.00  0.00     0.124 A 
ATOM      2  C1  UNL d   1      -4.226   0.721   1.248  0.00  0.00     0.062 A 
ATOM      3  C2  UNL d   1      -2.865   0.940   1.440  0.00  0.00     0.162 A 
ATOM      4  C3  UNL d   1      -1.956   0.664   0.417  0.00  0.00    -0.034 A 
ATOM      5  C4  UNL d   1      -2.430   0.164  -0.797  0.00  0.00     0.162 A 
ATOM      6  C5  UNL d   1      -3.791  -0.054  -0.983  0.00  0.00     0.062 A 
ATOM      7  F   UNL d   1      -4.237  -0.533  -2.154  0.00  0.00    -0.097 F 
ATOM      8  F1  UNL d   1      -1.585  -0.112  -1.801  0.00  0.00    -0.096 F 
ATOM      9  I   UNL d   1       0.079   0.990   0.700  0.00  0.00    -0.060 I 
ATOM     10  F2  UNL d   1      -2.445   1.420   2.620  0.00  0.00    -0.096 F 
ATOM     11  F3  UNL d   1      -5.091   0.989   2.236  0.00  0.00    -0.097 F 
ATOM     12  F4  UNL d   1      -5.999   0.013  -0.144  0.00  0.00    -0.092 F 
ENDROOT
TORSDOF 0
ENDMDL
