MODEL 1
REMARK minimizedAffinity 4.52934217
REMARK minimizedRMSD -1
REMARK  0 active torsions:
REMARK  status: ('A' for Active; 'I' for Inactive)
ROOT
ATOM      1  C   UNL d   1       3.236  -0.265   0.261  0.00  0.00     0.124 A 
ATOM      2  C1  UNL d   1       2.441  -1.379   0.029  0.00  0.00     0.062 A 
ATOM      3  C2  UNL d   1       1.080  -1.228  -0.220  0.00  0.00     0.162 A 
ATOM      4  C3  UNL d   1       0.505   0.043  -0.239  0.00  0.00    -0.034 A 
ATOM      5  C4  UNL d   1       1.311   1.158  -0.003  0.00  0.00     0.162 A 
ATOM      6  C5  UNL d   1       2.670   1.002   0.245  0.00  0.00     0.062 A 
ATOM      7  F   UNL d   1       3.437   2.079   0.470  0.00  0.00    -0.097 F 
ATOM      8  F1  UNL d   1       0.790   2.394  -0.014  0.00  0.00    -0.096 F 
ATOM      9  I   UNL d   1      -1.530   0.273  -0.610  0.00  0.00    -0.060 I 
ATOM     10  F2  UNL d   1       0.336  -2.322  -0.441  0.00  0.00    -0.096 F 
ATOM     11  F3  UNL d   1       2.986  -2.604   0.045  0.00  0.00    -0.097 F 
ATOM     12  F4  UNL d   1       4.545  -0.413   0.502  0.00  0.00    -0.092 F 
ENDROOT
TORSDOF 0
ENDMDL
