MODEL 1
REMARK minimizedAffinity 1.86135018
REMARK minimizedRMSD -1
REMARK  0 active torsions:
REMARK  status: ('A' for Active; 'I' for Inactive)
ROOT
ATOM      1  C   UNL d   1      -4.109   0.610   1.128  0.00  0.00     0.124 A 
ATOM      2  C1  UNL d   1      -2.843   1.137   0.918  0.00  0.00     0.062 A 
ATOM      3  C2  UNL d   1      -2.240   1.034  -0.332  0.00  0.00     0.162 A 
ATOM      4  C3  UNL d   1      -2.903   0.402  -1.384  0.00  0.00    -0.034 A 
ATOM      5  C4  UNL d   1      -4.177  -0.127  -1.165  0.00  0.00     0.162 A 
ATOM      6  C5  UNL d   1      -4.775  -0.021   0.087  0.00  0.00     0.062 A 
ATOM      7  F   UNL d   1      -5.999  -0.531   0.287  0.00  0.00    -0.097 F 
ATOM      8  F1  UNL d   1      -4.843  -0.741  -2.153  0.00  0.00    -0.096 F 
ATOM      9  I   UNL d   1      -2.005   0.245  -3.255  0.00  0.00    -0.060 I 
ATOM     10  F2  UNL d   1      -1.015   1.553  -0.507  0.00  0.00    -0.096 F 
ATOM     11  F3  UNL d   1      -2.197   1.747   1.922  0.00  0.00    -0.097 F 
ATOM     12  F4  UNL d   1      -4.687   0.710   2.332  0.00  0.00    -0.092 F 
ENDROOT
TORSDOF 0
ENDMDL
