MODEL 1
REMARK minimizedAffinity 10.6806479
REMARK minimizedRMSD -1
REMARK  1 active torsions:
REMARK  status: ('A' for Active; 'I' for Inactive)
REMARK    1  A    between atoms: N_2  and  C1_3 
ROOT
ATOM      1  C1  UNL d   1      -0.335   0.113   0.548  0.00  0.00     0.143 A 
ATOM      2  C2  UNL d   1      -0.811   0.423   1.827  0.00  0.00    -0.057 A 
ATOM      3  C3  UNL d   1      -2.177   0.611   2.068  0.00  0.00     0.033 A 
ATOM      4  C4  UNL d   1      -3.092   0.521   1.024  0.00  0.00    -0.042 A 
ATOM      5  C5  UNL d   1      -2.640   0.239  -0.260  0.00  0.00     0.033 A 
ATOM      6  C6  UNL d   1      -1.275   0.045  -0.493  0.00  0.00    -0.057 A 
ENDROOT
BRANCH   1   7
ATOM      7  N   UNL d   1       1.020   0.011   0.226  0.00  0.00    -0.732 N 
ATOM      8  C   UNL d   1       2.011   0.767   0.960  0.00  0.00     0.284 C 
ATOM      9  H3  UNL d   1       1.299  -0.945   0.015  0.00  0.00     0.395 HD
ENDBRANCH   1   7
TORSDOF 1
ENDMDL
