MODEL 1
REMARK minimizedAffinity 1.11721015
REMARK minimizedRMSD -1
REMARK  1 active torsions:
REMARK  status: ('A' for Active; 'I' for Inactive)
REMARK    1  A    between atoms: N_2  and  C1_3 
ROOT
ATOM      1  C1  UNL d   1      -1.118  -0.248   2.411  0.00  0.00     0.143 A 
ATOM      2  C2  UNL d   1       0.213  -0.030   2.042  0.00  0.00    -0.057 A 
ATOM      3  C3  UNL d   1       0.561   0.259   0.717  0.00  0.00     0.033 A 
ATOM      4  C4  UNL d   1      -0.417   0.306  -0.271  0.00  0.00    -0.042 A 
ATOM      5  C5  UNL d   1      -1.744   0.067   0.069  0.00  0.00     0.033 A 
ATOM      6  C6  UNL d   1      -2.086  -0.214   1.395  0.00  0.00    -0.057 A 
ENDROOT
BRANCH   1   7
ATOM      7  N   UNL d   1      -1.516  -0.637   3.693  0.00  0.00    -0.732 N 
ATOM      8  C   UNL d   1      -2.421  -1.751   3.878  0.00  0.00     0.284 C 
ATOM      9  H3  UNL d   1      -0.751  -0.606   4.363  0.00  0.00     0.395 HD
ENDBRANCH   1   7
TORSDOF 1
ENDMDL
