MODEL 1
REMARK minimizedAffinity 3.86977983
REMARK minimizedRMSD -1
REMARK  1 active torsions:
REMARK  status: ('A' for Active; 'I' for Inactive)
REMARK    1  A    between atoms: N_2  and  C1_3 
ROOT
ATOM      1  C1  UNL d   1       0.121  -0.012   1.117  0.00  0.00     0.143 A 
ATOM      2  C2  UNL d   1      -0.856   0.497   0.256  0.00  0.00    -0.057 A 
ATOM      3  C3  UNL d   1      -2.146   0.794   0.714  0.00  0.00     0.033 A 
ATOM      4  C4  UNL d   1      -2.490   0.559   2.041  0.00  0.00    -0.042 A 
ATOM      5  C5  UNL d   1      -1.542   0.030   2.910  0.00  0.00     0.033 A 
ATOM      6  C6  UNL d   1      -0.254  -0.259   2.447  0.00  0.00    -0.057 A 
ENDROOT
BRANCH   1   7
ATOM      7  N   UNL d   1       1.390  -0.420   0.700  0.00  0.00    -0.732 N 
ATOM      8  C   UNL d   1       2.206   0.442  -0.128  0.00  0.00     0.284 C 
ATOM      9  H3  UNL d   1       1.905  -0.899   1.435  0.00  0.00     0.395 HD
ENDBRANCH   1   7
TORSDOF 1
ENDMDL
