MODEL 1
REMARK minimizedAffinity 5.17913008
REMARK minimizedRMSD -1
REMARK  1 active torsions:
REMARK  status: ('A' for Active; 'I' for Inactive)
REMARK    1  A    between atoms: N_2  and  C1_3 
ROOT
ATOM      1  C1  UNL d   1      -0.347  -0.250   0.430  0.00  0.00     0.143 A 
ATOM      2  C2  UNL d   1      -1.343  -0.366  -0.545  0.00  0.00    -0.057 A 
ATOM      3  C3  UNL d   1      -2.660   0.034  -0.288  0.00  0.00     0.033 A 
ATOM      4  C4  UNL d   1      -3.011   0.532   0.962  0.00  0.00    -0.042 A 
ATOM      5  C5  UNL d   1      -2.043   0.633   1.955  0.00  0.00     0.033 A 
ATOM      6  C6  UNL d   1      -0.728   0.238   1.690  0.00  0.00    -0.057 A 
ENDROOT
BRANCH   1   7
ATOM      7  N   UNL d   1       0.958  -0.722   0.269  0.00  0.00    -0.732 N 
ATOM      8  C   UNL d   1       2.028   0.180  -0.097  0.00  0.00     0.284 C 
ATOM      9  H3  UNL d   1       1.214  -1.406   0.978  0.00  0.00     0.395 HD
ENDBRANCH   1   7
TORSDOF 1
ENDMDL
