MODEL 1
REMARK minimizedAffinity 6.01097298
REMARK minimizedRMSD -1
REMARK  1 active torsions:
REMARK  status: ('A' for Active; 'I' for Inactive)
REMARK    1  A    between atoms: N_2  and  C1_3 
ROOT
ATOM      1  C1  UNL d   1      -1.829   0.346   2.078  0.00  0.00     0.143 A 
ATOM      2  C2  UNL d   1      -0.814   0.421   1.117  0.00  0.00    -0.057 A 
ATOM      3  C3  UNL d   1      -1.112   0.488  -0.250  0.00  0.00     0.033 A 
ATOM      4  C4  UNL d   1      -2.433   0.450  -0.682  0.00  0.00    -0.042 A 
ATOM      5  C5  UNL d   1      -3.457   0.351   0.253  0.00  0.00     0.033 A 
ATOM      6  C6  UNL d   1      -3.154   0.291   1.617  0.00  0.00    -0.057 A 
ENDROOT
BRANCH   1   7
ATOM      7  N   UNL d   1      -1.594   0.179   3.445  0.00  0.00    -0.732 N 
ATOM      8  C   UNL d   1      -0.910  -0.998   3.936  0.00  0.00     0.284 C 
ATOM      9  H3  UNL d   1      -1.313   1.044   3.899  0.00  0.00     0.395 HD
ENDBRANCH   1   7
TORSDOF 1
ENDMDL
