MODEL 1
REMARK minimizedAffinity 4.72535181
REMARK minimizedRMSD -1
REMARK  1 active torsions:
REMARK  status: ('A' for Active; 'I' for Inactive)
REMARK    1  A    between atoms: N_2  and  C1_3 
ROOT
ATOM      1  C1  UNL d   1      -0.057  -1.764  -1.539  0.00  0.00     0.143 A 
ATOM      2  C2  UNL d   1      -1.211  -1.079  -1.142  0.00  0.00    -0.057 A 
ATOM      3  C3  UNL d   1      -1.188  -0.182  -0.068  0.00  0.00     0.033 A 
ATOM      4  C4  UNL d   1      -0.015   0.025   0.650  0.00  0.00    -0.042 A 
ATOM      5  C5  UNL d   1       1.138  -0.664   0.289  0.00  0.00     0.033 A 
ATOM      6  C6  UNL d   1       1.111  -1.554  -0.789  0.00  0.00    -0.057 A 
ENDROOT
BRANCH   1   7
ATOM      7  N   UNL d   1      -0.038  -2.743  -2.535  0.00  0.00    -0.732 N 
ATOM      8  C   UNL d   1      -0.403  -2.416  -3.897  0.00  0.00     0.284 C 
ATOM      9  H3  UNL d   1       0.767  -3.361  -2.458  0.00  0.00     0.395 HD
ENDBRANCH   1   7
TORSDOF 1
ENDMDL
