MODEL 1
REMARK minimizedAffinity 4.32921791
REMARK minimizedRMSD -1
REMARK  1 active torsions:
REMARK  status: ('A' for Active; 'I' for Inactive)
REMARK    1  A    between atoms: N_2  and  C1_3 
ROOT
ATOM      1  C1  UNL d   1      -1.242  -0.341   2.294  0.00  0.00     0.143 A 
ATOM      2  C2  UNL d   1      -0.058  -0.372   1.549  0.00  0.00    -0.057 A 
ATOM      3  C3  UNL d   1      -0.082  -0.378   0.149  0.00  0.00     0.033 A 
ATOM      4  C4  UNL d   1      -1.294  -0.382  -0.532  0.00  0.00    -0.042 A 
ATOM      5  C5  UNL d   1      -2.484  -0.377   0.188  0.00  0.00     0.033 A 
ATOM      6  C6  UNL d   1      -2.453  -0.364   1.586  0.00  0.00    -0.057 A 
ENDROOT
BRANCH   1   7
ATOM      7  N   UNL d   1      -1.286  -0.433   3.687  0.00  0.00    -0.732 N 
ATOM      8  C   UNL d   1      -0.439  -1.371   4.392  0.00  0.00     0.284 C 
ATOM      9  H3  UNL d   1      -1.359   0.478   4.135  0.00  0.00     0.395 HD
ENDBRANCH   1   7
TORSDOF 1
ENDMDL
