MODEL 1
REMARK minimizedAffinity 8.38825798
REMARK minimizedRMSD -1
REMARK  1 active torsions:
REMARK  status: ('A' for Active; 'I' for Inactive)
REMARK    1  A    between atoms: N_2  and  C1_3 
ROOT
ATOM      1  C1  UNL d   1      -0.030  -0.156   0.479  0.00  0.00     0.143 A 
ATOM      2  C2  UNL d   1      -0.819  -0.575  -0.597  0.00  0.00    -0.057 A 
ATOM      3  C3  UNL d   1      -2.214  -0.460  -0.564  0.00  0.00     0.033 A 
ATOM      4  C4  UNL d   1      -2.849   0.052   0.563  0.00  0.00    -0.042 A 
ATOM      5  C5  UNL d   1      -2.086   0.453   1.655  0.00  0.00     0.033 A 
ATOM      6  C6  UNL d   1      -0.693   0.341   1.613  0.00  0.00    -0.057 A 
ENDROOT
BRANCH   1   7
ATOM      7  N   UNL d   1       1.354  -0.335   0.546  0.00  0.00    -0.732 N 
ATOM      8  C   UNL d   1       2.227   0.775   0.861  0.00  0.00     0.284 C 
ATOM      9  H3  UNL d   1       1.610  -1.208   1.002  0.00  0.00     0.395 HD
ENDBRANCH   1   7
TORSDOF 1
ENDMDL
