MODEL 1
REMARK minimizedAffinity 3.89471078
REMARK minimizedRMSD -1
REMARK  1 active torsions:
REMARK  status: ('A' for Active; 'I' for Inactive)
REMARK    1  A    between atoms: N_2  and  C1_3 
ROOT
ATOM      1  C1  UNL d   1       0.392  -0.325   2.380  0.00  0.00     0.143 A 
ATOM      2  C2  UNL d   1       0.449  -0.015   1.017  0.00  0.00    -0.057 A 
ATOM      3  C3  UNL d   1      -0.680   0.449   0.330  0.00  0.00     0.033 A 
ATOM      4  C4  UNL d   1      -1.897   0.583   0.990  0.00  0.00    -0.042 A 
ATOM      5  C5  UNL d   1      -1.983   0.256   2.339  0.00  0.00     0.033 A 
ATOM      6  C6  UNL d   1      -0.850  -0.200   3.021  0.00  0.00    -0.057 A 
ENDROOT
BRANCH   1   7
ATOM      7  N   UNL d   1       1.454  -0.884   3.095  0.00  0.00    -0.732 N 
ATOM      8  C   UNL d   1       1.243  -1.437   4.416  0.00  0.00     0.284 C 
ATOM      9  H3  UNL d   1       2.070  -1.439   2.506  0.00  0.00     0.395 HD
ENDBRANCH   1   7
TORSDOF 1
ENDMDL
