MODEL 1
REMARK minimizedAffinity 10.1673975
REMARK minimizedRMSD -1
REMARK  0 active torsions:
REMARK  status: ('A' for Active; 'I' for Inactive)
ROOT
ATOM      1  C   UNL d   1      -0.086  -0.104   1.469  0.00  0.00     0.124 A 
ATOM      2  C1  UNL d   1       0.976   0.762   1.688  0.00  0.00     0.062 A 
ATOM      3  C2  UNL d   1       2.285   0.294   1.624  0.00  0.00     0.162 A 
ATOM      4  C3  UNL d   1       2.540  -1.047   1.338  0.00  0.00    -0.034 A 
ATOM      5  C4  UNL d   1       1.467  -1.912   1.119  0.00  0.00     0.162 A 
ATOM      6  C5  UNL d   1       0.160  -1.440   1.185  0.00  0.00     0.062 A 
ATOM      7  F   UNL d   1      -0.865  -2.278   0.972  0.00  0.00    -0.097 F 
ATOM      8  F1  UNL d   1       1.676  -3.208   0.842  0.00  0.00    -0.096 F 
ATOM      9  I   UNL d   1       4.497  -1.750   1.241  0.00  0.00    -0.060 I 
ATOM     10  F2  UNL d   1       3.292   1.154   1.840  0.00  0.00    -0.096 F 
ATOM     11  F3  UNL d   1       0.741   2.053   1.963  0.00  0.00    -0.097 F 
ATOM     12  F4  UNL d   1      -1.345   0.349   1.532  0.00  0.00    -0.092 F 
ENDROOT
TORSDOF 0
ENDMDL
