MODEL 1
REMARK minimizedAffinity 11.1192255
REMARK minimizedRMSD -1
REMARK  0 active torsions:
REMARK  status: ('A' for Active; 'I' for Inactive)
ROOT
ATOM      1  C   UNL d   1       0.022  -1.740  -1.762  0.00  0.00     0.124 A 
ATOM      2  C1  UNL d   1      -1.007  -1.412  -0.890  0.00  0.00     0.062 A 
ATOM      3  C2  UNL d   1      -0.962  -1.833   0.436  0.00  0.00     0.162 A 
ATOM      4  C3  UNL d   1       0.116  -2.587   0.899  0.00  0.00    -0.034 A 
ATOM      5  C4  UNL d   1       1.147  -2.914   0.016  0.00  0.00     0.162 A 
ATOM      6  C5  UNL d   1       1.098  -2.491  -1.308  0.00  0.00     0.062 A 
ATOM      7  F   UNL d   1       2.093  -2.809  -2.148  0.00  0.00    -0.097 F 
ATOM      8  F1  UNL d   1       2.199  -3.637   0.429  0.00  0.00    -0.096 F 
ATOM      9  I   UNL d   1       0.187  -3.218   2.881  0.00  0.00    -0.060 I 
ATOM     10  F2  UNL d   1      -1.971  -1.502   1.256  0.00  0.00    -0.096 F 
ATOM     11  F3  UNL d   1      -2.048  -0.688  -1.327  0.00  0.00    -0.097 F 
ATOM     12  F4  UNL d   1      -0.024  -1.335  -3.037  0.00  0.00    -0.092 F 
ENDROOT
TORSDOF 0
ENDMDL
