MODEL 1
REMARK minimizedAffinity 6.57788181
REMARK minimizedRMSD -1
REMARK  0 active torsions:
REMARK  status: ('A' for Active; 'I' for Inactive)
ROOT
ATOM      1  C   UNL d   1      -0.992  -2.103   1.147  0.00  0.00     0.124 A 
ATOM      2  C1  UNL d   1      -1.339  -0.773   0.953  0.00  0.00     0.062 A 
ATOM      3  C2  UNL d   1      -0.359   0.216   0.974  0.00  0.00     0.162 A 
ATOM      4  C3  UNL d   1       0.977  -0.122   1.188  0.00  0.00    -0.034 A 
ATOM      5  C4  UNL d   1       1.318  -1.461   1.384  0.00  0.00     0.162 A 
ATOM      6  C5  UNL d   1       0.336  -2.446   1.362  0.00  0.00     0.062 A 
ATOM      7  F   UNL d   1       0.673  -3.730   1.550  0.00  0.00    -0.097 F 
ATOM      8  F1  UNL d   1       2.593  -1.820   1.593  0.00  0.00    -0.096 F 
ATOM      9  I   UNL d   1       2.444   1.354   1.221  0.00  0.00    -0.060 I 
ATOM     10  F2  UNL d   1      -0.723   1.493   0.783  0.00  0.00    -0.096 F 
ATOM     11  F3  UNL d   1      -2.621  -0.440   0.745  0.00  0.00    -0.097 F 
ATOM     12  F4  UNL d   1      -1.936  -3.053   1.127  0.00  0.00    -0.092 F 
ENDROOT
TORSDOF 0
ENDMDL
