MODEL 1
REMARK minimizedAffinity 15.631566
REMARK minimizedRMSD -1
REMARK  0 active torsions:
REMARK  status: ('A' for Active; 'I' for Inactive)
ROOT
ATOM      1  C   UNL d   1       3.586  -0.393   0.803  0.00  0.00     0.124 A 
ATOM      2  C1  UNL d   1       3.111   0.878   0.509  0.00  0.00     0.062 A 
ATOM      3  C2  UNL d   1       1.749   1.151   0.587  0.00  0.00     0.162 A 
ATOM      4  C3  UNL d   1       0.851   0.153   0.964  0.00  0.00    -0.034 A 
ATOM      5  C4  UNL d   1       1.335  -1.123   1.258  0.00  0.00     0.162 A 
ATOM      6  C5  UNL d   1       2.698  -1.392   1.177  0.00  0.00     0.062 A 
ATOM      7  F   UNL d   1       3.155  -2.620   1.462  0.00  0.00    -0.097 F 
ATOM      8  F1  UNL d   1       0.500  -2.107   1.622  0.00  0.00    -0.096 F 
ATOM      9  I   UNL d   1      -1.187   0.558   1.083  0.00  0.00    -0.060 I 
ATOM     10  F2  UNL d   1       1.318   2.388   0.297  0.00  0.00    -0.096 F 
ATOM     11  F3  UNL d   1       3.967   1.844   0.146  0.00  0.00    -0.097 F 
ATOM     12  F4  UNL d   1       4.897  -0.654   0.726  0.00  0.00    -0.092 F 
ENDROOT
TORSDOF 0
ENDMDL
