MODEL 1
REMARK minimizedAffinity 10.2689762
REMARK minimizedRMSD -1
REMARK  0 active torsions:
REMARK  status: ('A' for Active; 'I' for Inactive)
ROOT
ATOM      1  C   UNL d   1       2.830   1.438   3.789  0.00  0.00     0.124 A 
ATOM      2  C1  UNL d   1       2.721   1.603   2.415  0.00  0.00     0.062 A 
ATOM      3  C2  UNL d   1       1.984   0.698   1.658  0.00  0.00     0.162 A 
ATOM      4  C3  UNL d   1       1.348  -0.381   2.272  0.00  0.00    -0.034 A 
ATOM      5  C4  UNL d   1       1.462  -0.540   3.654  0.00  0.00     0.162 A 
ATOM      6  C5  UNL d   1       2.200   0.367   4.407  0.00  0.00     0.062 A 
ATOM      7  F   UNL d   1       2.304   0.206   5.735  0.00  0.00    -0.097 F 
ATOM      8  F1  UNL d   1       0.863  -1.566   4.278  0.00  0.00    -0.096 F 
ATOM      9  I   UNL d   1       0.244  -1.736   1.143  0.00  0.00    -0.060 I 
ATOM     10  F2  UNL d   1       1.896   0.882   0.332  0.00  0.00    -0.096 F 
ATOM     11  F3  UNL d   1       3.329   2.637   1.816  0.00  0.00    -0.097 F 
ATOM     12  F4  UNL d   1       3.541   2.310   4.516  0.00  0.00    -0.092 F 
ENDROOT
TORSDOF 0
ENDMDL
