MODEL 1
REMARK minimizedAffinity 5.30454731
REMARK minimizedRMSD -1
REMARK  0 active torsions:
REMARK  status: ('A' for Active; 'I' for Inactive)
ROOT
ATOM      1  C   UNL d   1      -0.390  -0.326   1.391  0.00  0.00     0.124 A 
ATOM      2  C1  UNL d   1       0.626   0.618   1.434  0.00  0.00     0.062 A 
ATOM      3  C2  UNL d   1       1.955   0.222   1.311  0.00  0.00     0.162 A 
ATOM      4  C3  UNL d   1       2.275  -1.125   1.141  0.00  0.00    -0.034 A 
ATOM      5  C4  UNL d   1       1.248  -2.069   1.099  0.00  0.00     0.162 A 
ATOM      6  C5  UNL d   1      -0.079  -1.668   1.223  0.00  0.00     0.062 A 
ATOM      7  F   UNL d   1      -1.060  -2.582   1.181  0.00  0.00    -0.097 F 
ATOM      8  F1  UNL d   1       1.520  -3.372   0.937  0.00  0.00    -0.096 F 
ATOM      9  I   UNL d   1       4.261  -1.721   0.955  0.00  0.00    -0.060 I 
ATOM     10  F2  UNL d   1       2.917   1.156   1.356  0.00  0.00    -0.096 F 
ATOM     11  F3  UNL d   1       0.328   1.915   1.597  0.00  0.00    -0.097 F 
ATOM     12  F4  UNL d   1      -1.668   0.057   1.511  0.00  0.00    -0.092 F 
ENDROOT
TORSDOF 0
ENDMDL
