MODEL 1
REMARK minimizedAffinity 17.2042542
REMARK minimizedRMSD -1
REMARK  0 active torsions:
REMARK  status: ('A' for Active; 'I' for Inactive)
ROOT
ATOM      1  C   UNL d   1       0.871  -1.747  -1.923  0.00  0.00     0.124 A 
ATOM      2  C1  UNL d   1      -0.076  -1.669  -0.912  0.00  0.00     0.062 A 
ATOM      3  C2  UNL d   1       0.301  -1.286   0.372  0.00  0.00     0.162 A 
ATOM      4  C3  UNL d   1       1.632  -0.976   0.653  0.00  0.00    -0.034 A 
ATOM      5  C4  UNL d   1       2.579  -1.058  -0.370  0.00  0.00     0.162 A 
ATOM      6  C5  UNL d   1       2.198  -1.442  -1.651  0.00  0.00     0.062 A 
ATOM      7  F   UNL d   1       3.114  -1.517  -2.627  0.00  0.00    -0.097 F 
ATOM      8  F1  UNL d   1       3.867  -0.768  -0.135  0.00  0.00    -0.096 F 
ATOM      9  I   UNL d   1       2.199  -0.403   2.571  0.00  0.00    -0.060 I 
ATOM     10  F2  UNL d   1      -0.636  -1.219   1.330  0.00  0.00    -0.096 F 
ATOM     11  F3  UNL d   1      -1.358  -1.964  -1.172  0.00  0.00    -0.097 F 
ATOM     12  F4  UNL d   1       0.506  -2.116  -3.157  0.00  0.00    -0.092 F 
ENDROOT
TORSDOF 0
ENDMDL
