MODEL 1
REMARK minimizedAffinity -2.55059695
REMARK minimizedRMSD -1
REMARK  0 active torsions:
REMARK  status: ('A' for Active; 'I' for Inactive)
ROOT
ATOM      1  C   UNL d   1       2.741  -0.590   1.617  0.00  0.00     0.124 A 
ATOM      2  C1  UNL d   1       2.214   0.639   1.245  0.00  0.00     0.062 A 
ATOM      3  C2  UNL d   1       1.030   0.700   0.514  0.00  0.00     0.162 A 
ATOM      4  C3  UNL d   1       0.365  -0.471   0.152  0.00  0.00    -0.034 A 
ATOM      5  C4  UNL d   1       0.902  -1.703   0.530  0.00  0.00     0.162 A 
ATOM      6  C5  UNL d   1       2.085  -1.759   1.260  0.00  0.00     0.062 A 
ATOM      7  F   UNL d   1       2.593  -2.947   1.619  0.00  0.00    -0.097 F 
ATOM      8  F1  UNL d   1       0.289  -2.849   0.198  0.00  0.00    -0.096 F 
ATOM      9  I   UNL d   1      -1.404  -0.384  -0.940  0.00  0.00    -0.060 I 
ATOM     10  F2  UNL d   1       0.544   1.901   0.168  0.00  0.00    -0.096 F 
ATOM     11  F3  UNL d   1       2.846   1.770   1.588  0.00  0.00    -0.097 F 
ATOM     12  F4  UNL d   1       3.880  -0.646   2.319  0.00  0.00    -0.092 F 
ENDROOT
TORSDOF 0
ENDMDL
