MODEL 1
REMARK minimizedAffinity -0.838135302
REMARK minimizedRMSD -1
REMARK  0 active torsions:
REMARK  status: ('A' for Active; 'I' for Inactive)
ROOT
ATOM      1  C4' PXY d   1       2.326  -1.679  -0.291  0.00  0.00     0.077 C 
ATOM      2  C1' PXY d   1      -0.238   0.676  -4.906  0.00  0.00     0.077 C 
ATOM      3  C1  PXY d   1       0.444   0.054  -3.703  0.00  0.00    -0.082 A 
ATOM      4  C2  PXY d   1      -0.277  -0.294  -2.650  0.00  0.00     0.003 A 
ATOM      5  C3  PXY d   1       0.328  -0.828  -1.541  0.00  0.00     0.003 A 
ATOM      6  C4  PXY d   1       1.678  -1.057  -1.531  0.00  0.00    -0.082 A 
ATOM      7  C5  PXY d   1       2.419  -0.715  -2.607  0.00  0.00     0.003 A 
ATOM      8  C6  PXY d   1       1.792  -0.136  -3.706  0.00  0.00     0.003 A 
ENDROOT
TORSDOF 0
ENDMDL
