MODEL 1
REMARK minimizedAffinity -3.2944088
REMARK minimizedRMSD -1
REMARK  0 active torsions:
REMARK  status: ('A' for Active; 'I' for Inactive)
ROOT
ATOM      1  C4' PXY d   1       0.866  -0.608  -2.140  0.00  0.00     0.077 C 
ATOM      2  C1' PXY d   1      -0.975   0.748   3.169  0.00  0.00     0.077 C 
ATOM      3  C1  PXY d   1      -0.480   0.395   1.780  0.00  0.00    -0.082 A 
ATOM      4  C2  PXY d   1      -1.300   0.498   0.747  0.00  0.00     0.003 A 
ATOM      5  C3  PXY d   1      -0.878   0.152  -0.511  0.00  0.00     0.003 A 
ATOM      6  C4  PXY d   1       0.412  -0.253  -0.721  0.00  0.00    -0.082 A 
ATOM      7  C5  PXY d   1       1.258  -0.351   0.326  0.00  0.00     0.003 A 
ATOM      8  C6  PXY d   1       0.799  -0.034   1.601  0.00  0.00     0.003 A 
ENDROOT
TORSDOF 0
ENDMDL
