MODEL 1
REMARK minimizedAffinity -2.79823709
REMARK minimizedRMSD -1
REMARK  0 active torsions:
REMARK  status: ('A' for Active; 'I' for Inactive)
ROOT
ATOM      1  C4' PXY d   1      -0.057   0.349   3.821  0.00  0.00     0.077 C 
ATOM      2  C1' PXY d   1       0.218  -0.600  -1.875  0.00  0.00     0.077 C 
ATOM      3  C1  PXY d   1       0.135  -0.343  -0.383  0.00  0.00    -0.082 A 
ATOM      4  C2  PXY d   1       1.208  -0.521   0.371  0.00  0.00     0.003 A 
ATOM      5  C3  PXY d   1       1.143  -0.324   1.727  0.00  0.00     0.003 A 
ATOM      6  C4  PXY d   1      -0.018   0.111   2.309  0.00  0.00    -0.082 A 
ATOM      7  C5  PXY d   1      -1.114   0.305   1.544  0.00  0.00     0.003 A 
ATOM      8  C6  PXY d   1      -1.038   0.060   0.176  0.00  0.00     0.003 A 
ENDROOT
TORSDOF 0
ENDMDL
