MODEL 1
REMARK minimizedAffinity -3.94828582
REMARK minimizedRMSD -1
REMARK  0 active torsions:
REMARK  status: ('A' for Active; 'I' for Inactive)
ROOT
ATOM      1  C4' PXY d   1       0.346  -0.650  -3.018  0.00  0.00     0.077 C 
ATOM      2  C1' PXY d   1      -1.539   0.327   2.359  0.00  0.00     0.077 C 
ATOM      3  C1  PXY d   1      -1.032   0.074   0.953  0.00  0.00    -0.082 A 
ATOM      4  C2  PXY d   1      -1.859   0.199  -0.072  0.00  0.00     0.003 A 
ATOM      5  C3  PXY d   1      -1.426  -0.058  -1.348  0.00  0.00     0.003 A 
ATOM      6  C4  PXY d   1      -0.119  -0.394  -1.581  0.00  0.00    -0.082 A 
ATOM      7  C5  PXY d   1       0.733  -0.513  -0.542  0.00  0.00     0.003 A 
ATOM      8  C6  PXY d   1       0.263  -0.289   0.749  0.00  0.00     0.003 A 
ENDROOT
TORSDOF 0
ENDMDL
