MODEL 1
REMARK minimizedAffinity -2.49039984
REMARK minimizedRMSD -1
REMARK  0 active torsions:
REMARK  status: ('A' for Active; 'I' for Inactive)
ROOT
ATOM      1  C4' PXY d   1      -0.196  -0.021   1.868  0.00  0.00     0.077 C 
ATOM      2  C1' PXY d   1       0.430  -0.541  -3.855  0.00  0.00     0.077 C 
ATOM      3  C1  PXY d   1       0.276  -0.413  -2.352  0.00  0.00    -0.082 A 
ATOM      4  C2  PXY d   1      -0.884  -0.029  -1.845  0.00  0.00     0.003 A 
ATOM      5  C3  PXY d   1      -1.032   0.123  -0.490  0.00  0.00     0.003 A 
ATOM      6  C4  PXY d   1       0.003  -0.173   0.357  0.00  0.00    -0.082 A 
ATOM      7  C5  PXY d   1       1.186  -0.576  -0.152  0.00  0.00     0.003 A 
ATOM      8  C6  PXY d   1       1.328  -0.684  -1.533  0.00  0.00     0.003 A 
ENDROOT
TORSDOF 0
ENDMDL
