MODEL 1
REMARK minimizedAffinity -2.17737556
REMARK minimizedRMSD -1
REMARK  0 active torsions:
REMARK  status: ('A' for Active; 'I' for Inactive)
ROOT
ATOM      1  C4' PXY d   1       0.388   0.140  -1.808  0.00  0.00     0.077 C 
ATOM      2  C1' PXY d   1       0.287  -0.391   3.947  0.00  0.00     0.077 C 
ATOM      3  C1  PXY d   1       0.326  -0.249   2.438  0.00  0.00    -0.082 A 
ATOM      4  C2  PXY d   1      -0.783   0.044   1.780  0.00  0.00     0.003 A 
ATOM      5  C3  PXY d   1      -0.772   0.144   0.412  0.00  0.00     0.003 A 
ATOM      6  C4  PXY d   1       0.397  -0.004  -0.284  0.00  0.00    -0.082 A 
ATOM      7  C5  PXY d   1       1.536  -0.293   0.382  0.00  0.00     0.003 A 
ATOM      8  C6  PXY d   1       1.495  -0.431   1.766  0.00  0.00     0.003 A 
ENDROOT
TORSDOF 0
ENDMDL
