MODEL 1
REMARK minimizedAffinity 1.75569582
REMARK minimizedRMSD -1
REMARK  0 active torsions:
REMARK  status: ('A' for Active; 'I' for Inactive)
ROOT
ATOM      1  C4' PXY d   1       6.000   3.306   6.000  0.00  0.00     0.077 C 
ATOM      2  C1' PXY d   1       4.173  -0.789   2.352  0.00  0.00     0.077 C 
ATOM      3  C1  PXY d   1       4.653   0.294   3.299  0.00  0.00    -0.082 A 
ATOM      4  C2  PXY d   1       5.262  -0.044   4.424  0.00  0.00     0.003 A 
ATOM      5  C3  PXY d   1       5.673   0.921   5.306  0.00  0.00     0.003 A 
ATOM      6  C4  PXY d   1       5.507   2.247   5.010  0.00  0.00    -0.082 A 
ATOM      7  C5  PXY d   1       4.896   2.600   3.859  0.00  0.00     0.003 A 
ATOM      8  C6  PXY d   1       4.449   1.604   2.996  0.00  0.00     0.003 A 
ENDROOT
TORSDOF 0
ENDMDL
