MODEL 1
REMARK minimizedAffinity -0.584552884
REMARK minimizedRMSD -1
REMARK  0 active torsions:
REMARK  status: ('A' for Active; 'I' for Inactive)
ROOT
ATOM      1  C   UNL d   1       1.045   0.894   0.461  0.00  0.00    -0.002 A 
ATOM      2  C1  UNL d   1       1.293  -0.169  -0.394  0.00  0.00     0.010 A 
ATOM      3  C2  UNL d   1       0.564  -0.315  -1.577  0.00  0.00     0.041 A 
ATOM      4  C3  UNL d   1      -0.426   0.637  -1.888  0.00  0.00    -0.075 A 
ATOM      5  S   UNL d   1      -1.442   0.663  -3.281  0.00  0.00     0.015 SA
ATOM      6  C4  UNL d   1      -2.229   2.087  -2.774  0.00  0.00     0.022 A 
ATOM      7  C5  UNL d   1      -1.741   2.545  -1.573  0.00  0.00     0.026 A 
ATOM      8  C6  UNL d   1      -0.694   1.718  -1.043  0.00  0.00    -0.082 A 
ATOM      9  C7  UNL d   1       0.061   1.837   0.149  0.00  0.00     0.045 A 
ENDROOT
TORSDOF 0
ENDMDL
