MODEL 1
REMARK minimizedAffinity 2.25509381
REMARK minimizedRMSD -1
REMARK  0 active torsions:
REMARK  status: ('A' for Active; 'I' for Inactive)
ROOT
ATOM      1  C   UNL d   1       2.400  -0.791  -0.708  0.00  0.00    -0.002 A 
ATOM      2  C1  UNL d   1       1.401  -0.037  -1.307  0.00  0.00     0.010 A 
ATOM      3  C2  UNL d   1       0.186   0.179  -0.654  0.00  0.00     0.041 A 
ATOM      4  C3  UNL d   1      -0.009  -0.380   0.624  0.00  0.00    -0.075 A 
ATOM      5  S   UNL d   1      -1.415  -0.247   1.613  0.00  0.00     0.015 SA
ATOM      6  C4  UNL d   1      -0.723  -1.188   2.854  0.00  0.00     0.022 A 
ATOM      7  C5  UNL d   1       0.550  -1.602   2.538  0.00  0.00     0.026 A 
ATOM      8  C6  UNL d   1       0.982  -1.143   1.248  0.00  0.00    -0.082 A 
ATOM      9  C7  UNL d   1       2.203  -1.344   0.560  0.00  0.00     0.045 A 
ENDROOT
TORSDOF 0
ENDMDL
