MODEL 1
REMARK minimizedAffinity 3.23588371
REMARK minimizedRMSD -1
REMARK  0 active torsions:
REMARK  status: ('A' for Active; 'I' for Inactive)
ROOT
ATOM      1  C   UNL d   1       0.613   1.251   0.196  0.00  0.00    -0.002 A 
ATOM      2  C1  UNL d   1      -0.305   0.437   0.845  0.00  0.00     0.010 A 
ATOM      3  C2  UNL d   1      -1.527   0.125   0.246  0.00  0.00     0.041 A 
ATOM      4  C3  UNL d   1      -1.813   0.649  -1.030  0.00  0.00    -0.075 A 
ATOM      5  S   UNL d   1      -3.245   0.401  -1.957  0.00  0.00     0.015 SA
ATOM      6  C4  UNL d   1      -2.673   1.369  -3.238  0.00  0.00     0.022 A 
ATOM      7  C5  UNL d   1      -1.422   1.877  -2.981  0.00  0.00     0.026 A 
ATOM      8  C6  UNL d   1      -0.905   1.470  -1.704  0.00  0.00    -0.082 A 
ATOM      9  C7  UNL d   1       0.325   1.769  -1.070  0.00  0.00     0.045 A 
ENDROOT
TORSDOF 0
ENDMDL
