MODEL 1
REMARK minimizedAffinity -0.427362621
REMARK minimizedRMSD -1
REMARK  0 active torsions:
REMARK  status: ('A' for Active; 'I' for Inactive)
ROOT
ATOM      1  C   UNL d   1      -2.141   2.181  -3.137  0.00  0.00    -0.002 A 
ATOM      2  C1  UNL d   1      -1.478   3.348  -2.782  0.00  0.00     0.010 A 
ATOM      3  C2  UNL d   1      -1.012   3.531  -1.479  0.00  0.00     0.041 A 
ATOM      4  C3  UNL d   1      -1.224   2.513  -0.529  0.00  0.00    -0.075 A 
ATOM      5  S   UNL d   1      -0.741   2.517   1.126  0.00  0.00     0.015 SA
ATOM      6  C4  UNL d   1      -1.403   0.971   1.400  0.00  0.00     0.022 A 
ATOM      7  C5  UNL d   1      -1.983   0.449   0.268  0.00  0.00     0.026 A 
ATOM      8  C6  UNL d   1      -1.889   1.329  -0.863  0.00  0.00    -0.082 A 
ATOM      9  C7  UNL d   1      -2.350   1.173  -2.192  0.00  0.00     0.045 A 
ENDROOT
TORSDOF 0
ENDMDL
