MODEL 1
REMARK minimizedAffinity 8.69809246
REMARK minimizedRMSD -1
REMARK  0 active torsions:
REMARK  status: ('A' for Active; 'I' for Inactive)
ROOT
ATOM      1  C   UNL d   1      -2.802  -1.410  -1.942  0.00  0.00    -0.002 A 
ATOM      2  C1  UNL d   1      -2.387  -2.500  -1.190  0.00  0.00     0.010 A 
ATOM      3  C2  UNL d   1      -2.131  -2.364   0.175  0.00  0.00     0.041 A 
ATOM      4  C3  UNL d   1      -2.303  -1.103   0.779  0.00  0.00    -0.075 A 
ATOM      5  S   UNL d   1      -2.049  -0.701   2.436  0.00  0.00     0.015 SA
ATOM      6  C4  UNL d   1      -2.487   0.927   2.185  0.00  0.00     0.022 A 
ATOM      7  C5  UNL d   1      -2.821   1.175   0.875  0.00  0.00     0.026 A 
ATOM      8  C6  UNL d   1      -2.721   0.009   0.043  0.00  0.00    -0.082 A 
ATOM      9  C7  UNL d   1      -2.971  -0.160  -1.340  0.00  0.00     0.045 A 
ENDROOT
TORSDOF 0
ENDMDL
