MODEL 1
REMARK minimizedAffinity 3.50614119
REMARK minimizedRMSD -1
REMARK  0 active torsions:
REMARK  status: ('A' for Active; 'I' for Inactive)
ROOT
ATOM      1  C   UNL d   1       3.747   0.094  -2.424  0.00  0.00    -0.002 A 
ATOM      2  C1  UNL d   1       3.144   1.208  -1.856  0.00  0.00     0.010 A 
ATOM      3  C2  UNL d   1       2.359   1.083  -0.708  0.00  0.00     0.041 A 
ATOM      4  C3  UNL d   1       2.190  -0.192  -0.134  0.00  0.00    -0.075 A 
ATOM      5  S   UNL d   1       1.274  -0.586   1.273  0.00  0.00     0.015 SA
ATOM      6  C4  UNL d   1       1.662  -2.241   1.154  0.00  0.00     0.022 A 
ATOM      7  C5  UNL d   1       2.469  -2.505   0.073  0.00  0.00     0.026 A 
ATOM      8  C6  UNL d   1       2.788  -1.329  -0.686  0.00  0.00    -0.082 A 
ATOM      9  C7  UNL d   1       3.577  -1.169  -1.851  0.00  0.00     0.045 A 
ENDROOT
TORSDOF 0
ENDMDL
