MODEL 1
REMARK minimizedAffinity 3.73634601
REMARK minimizedRMSD -1
REMARK  0 active torsions:
REMARK  status: ('A' for Active; 'I' for Inactive)
ROOT
ATOM      1  C   UNL d   1       2.109   0.584  -0.149  0.00  0.00    -0.002 A 
ATOM      2  C1  UNL d   1       2.610   0.027  -1.316  0.00  0.00     0.010 A 
ATOM      3  C2  UNL d   1       2.569  -1.354  -1.518  0.00  0.00     0.041 A 
ATOM      4  C3  UNL d   1       2.009  -2.173  -0.518  0.00  0.00    -0.075 A 
ATOM      5  S   UNL d   1       1.852  -3.890  -0.547  0.00  0.00     0.015 SA
ATOM      6  C4  UNL d   1       1.115  -3.923   0.990  0.00  0.00     0.022 A 
ATOM      7  C5  UNL d   1       0.985  -2.664   1.526  0.00  0.00     0.026 A 
ATOM      8  C6  UNL d   1       1.497  -1.635   0.666  0.00  0.00    -0.082 A 
ATOM      9  C7  UNL d   1       1.554  -0.231   0.841  0.00  0.00     0.045 A 
ENDROOT
TORSDOF 0
ENDMDL
