MODEL 1
REMARK minimizedAffinity 8.55475044
REMARK minimizedRMSD -1
REMARK  0 active torsions:
REMARK  status: ('A' for Active; 'I' for Inactive)
ROOT
ATOM      1  C   UNL d   1       1.383  -1.481   1.417  0.00  0.00    -0.002 A 
ATOM      2  C1  UNL d   1       1.929  -2.633   0.868  0.00  0.00     0.010 A 
ATOM      3  C2  UNL d   1       2.735  -2.563  -0.271  0.00  0.00     0.041 A 
ATOM      4  C3  UNL d   1       2.986  -1.305  -0.852  0.00  0.00    -0.075 A 
ATOM      5  S   UNL d   1       3.944  -0.978  -2.248  0.00  0.00     0.015 SA
ATOM      6  C4  UNL d   1       3.651   0.698  -2.147  0.00  0.00     0.022 A 
ATOM      7  C5  UNL d   1       2.844   1.018  -1.081  0.00  0.00     0.026 A 
ATOM      8  C6  UNL d   1       2.448  -0.131  -0.317  0.00  0.00    -0.082 A 
ATOM      9  C7  UNL d   1       1.634  -0.235   0.837  0.00  0.00     0.045 A 
ENDROOT
TORSDOF 0
ENDMDL
