MODEL 1
REMARK minimizedAffinity 10.126543
REMARK minimizedRMSD -1
REMARK  0 active torsions:
REMARK  status: ('A' for Active; 'I' for Inactive)
ROOT
ATOM      1  C   UNL d   1      -2.919   0.619   1.320  0.00  0.00    -0.002 A 
ATOM      2  C1  UNL d   1      -1.977   1.571   1.683  0.00  0.00     0.010 A 
ATOM      3  C2  UNL d   1      -1.406   2.408   0.722  0.00  0.00     0.041 A 
ATOM      4  C3  UNL d   1      -1.804   2.271  -0.623  0.00  0.00    -0.075 A 
ATOM      5  S   UNL d   1      -1.241   3.186  -1.971  0.00  0.00     0.015 SA
ATOM      6  C4  UNL d   1      -2.238   2.335  -3.060  0.00  0.00     0.022 A 
ATOM      7  C5  UNL d   1      -2.989   1.373  -2.428  0.00  0.00     0.026 A 
ATOM      8  C6  UNL d   1      -2.751   1.320  -1.013  0.00  0.00    -0.082 A 
ATOM      9  C7  UNL d   1      -3.311   0.487  -0.015  0.00  0.00     0.045 A 
ENDROOT
TORSDOF 0
ENDMDL
