MODEL 1
REMARK minimizedAffinity 4.57848024
REMARK minimizedRMSD -1
REMARK  0 active torsions:
REMARK  status: ('A' for Active; 'I' for Inactive)
ROOT
ATOM      1  C   UNL d   1       2.323  -1.612   0.267  0.00  0.00    -0.002 A 
ATOM      2  C1  UNL d   1       2.403  -0.295  -0.163  0.00  0.00     0.010 A 
ATOM      3  C2  UNL d   1       1.374   0.607   0.115  0.00  0.00     0.041 A 
ATOM      4  C3  UNL d   1       0.253   0.159   0.841  0.00  0.00    -0.075 A 
ATOM      5  S   UNL d   1      -1.127   1.085   1.299  0.00  0.00     0.015 SA
ATOM      6  C4  UNL d   1      -1.855  -0.245   2.077  0.00  0.00     0.022 A 
ATOM      7  C5  UNL d   1      -1.078  -1.377   1.999  0.00  0.00     0.026 A 
ATOM      8  C6  UNL d   1       0.150  -1.162   1.286  0.00  0.00    -0.082 A 
ATOM      9  C7  UNL d   1       1.210  -2.053   0.988  0.00  0.00     0.045 A 
ENDROOT
TORSDOF 0
ENDMDL
