MODEL 1
REMARK minimizedAffinity 1.50726485
REMARK minimizedRMSD -1
REMARK  0 active torsions:
REMARK  status: ('A' for Active; 'I' for Inactive)
ROOT
ATOM      1  C   UNL d   1      -5.200   0.623   1.172  0.00  0.00     0.023 A 
ATOM      2  C1  UNL d   1      -4.714  -0.023   0.035  0.00  0.00     0.003 A 
ATOM      3  C2  UNL d   1      -3.346  -0.016  -0.243  0.00  0.00     0.048 A 
ATOM      4  C3  UNL d   1      -2.468   0.638   0.621  0.00  0.00     0.023 A 
ATOM      5  C4  UNL d   1      -2.949   1.285   1.761  0.00  0.00     0.048 A 
ATOM      6  C5  UNL d   1      -4.318   1.276   2.034  0.00  0.00     0.003 A 
ATOM      7  I   UNL d   1      -0.431   0.649   0.210  0.00  0.00    -0.146 I 
ENDROOT
TORSDOF 0
ENDMDL
