MODEL 1
REMARK minimizedAffinity 2.20154619
REMARK minimizedRMSD -1
REMARK  0 active torsions:
REMARK  status: ('A' for Active; 'I' for Inactive)
ROOT
ATOM      1  C   UNL d   1      -1.276  -1.435  -4.377  0.00  0.00     0.023 A 
ATOM      2  C1  UNL d   1      -1.246  -0.059  -4.148  0.00  0.00     0.003 A 
ATOM      3  C2  UNL d   1      -0.889   0.434  -2.892  0.00  0.00     0.048 A 
ATOM      4  C3  UNL d   1      -0.561  -0.455  -1.868  0.00  0.00     0.023 A 
ATOM      5  C4  UNL d   1      -0.589  -1.832  -2.092  0.00  0.00     0.048 A 
ATOM      6  C5  UNL d   1      -0.948  -2.320  -3.350  0.00  0.00     0.003 A 
ATOM      7  I   UNL d   1      -0.028   0.276   0.003  0.00  0.00    -0.146 I 
ENDROOT
TORSDOF 0
ENDMDL
