MODEL 1
REMARK minimizedAffinity 0.899330854
REMARK minimizedRMSD -1
REMARK  0 active torsions:
REMARK  status: ('A' for Active; 'I' for Inactive)
ROOT
ATOM      1  C   UNL d   1      -4.464   1.184   1.689  0.00  0.00     0.023 A 
ATOM      2  C1  UNL d   1      -3.340   1.791   2.252  0.00  0.00     0.003 A 
ATOM      3  C2  UNL d   1      -2.062   1.435   1.817  0.00  0.00     0.048 A 
ATOM      4  C3  UNL d   1      -1.914   0.472   0.819  0.00  0.00     0.023 A 
ATOM      5  C4  UNL d   1      -3.035  -0.136   0.252  0.00  0.00     0.048 A 
ATOM      6  C5  UNL d   1      -4.311   0.222   0.691  0.00  0.00     0.003 A 
ATOM      7  I   UNL d   1      -0.013  -0.059   0.169  0.00  0.00    -0.146 I 
ENDROOT
TORSDOF 0
ENDMDL
