MODEL 1
REMARK minimizedAffinity -2.67912412
REMARK minimizedRMSD -1
REMARK  0 active torsions:
REMARK  status: ('A' for Active; 'I' for Inactive)
ROOT
ATOM      1  C   UNL d   1      -5.618   0.380   0.841  0.00  0.00     0.023 A 
ATOM      2  C1  UNL d   1      -5.222  -0.335  -0.289  0.00  0.00     0.003 A 
ATOM      3  C2  UNL d   1      -3.897  -0.277  -0.725  0.00  0.00     0.048 A 
ATOM      4  C3  UNL d   1      -2.972   0.496  -0.024  0.00  0.00     0.023 A 
ATOM      5  C4  UNL d   1      -3.363   1.212   1.108  0.00  0.00     0.048 A 
ATOM      6  C5  UNL d   1      -4.690   1.153   1.539  0.00  0.00     0.003 A 
ATOM      7  I   UNL d   1      -0.998   0.583  -0.670  0.00  0.00    -0.146 I 
ENDROOT
TORSDOF 0
ENDMDL
