MODEL 1
REMARK minimizedAffinity -0.314606667
REMARK minimizedRMSD -1
REMARK  0 active torsions:
REMARK  status: ('A' for Active; 'I' for Inactive)
ROOT
ATOM      1  C   UNL d   1       1.933  -1.164   0.938  0.00  0.00     0.023 A 
ATOM      2  C1  UNL d   1       0.783  -0.402   1.140  0.00  0.00     0.003 A 
ATOM      3  C2  UNL d   1      -0.152  -0.259   0.112  0.00  0.00     0.048 A 
ATOM      4  C3  UNL d   1       0.070  -0.883  -1.116  0.00  0.00     0.023 A 
ATOM      5  C4  UNL d   1       1.220  -1.648  -1.322  0.00  0.00     0.048 A 
ATOM      6  C5  UNL d   1       2.151  -1.786  -0.292  0.00  0.00     0.003 A 
ATOM      7  I   UNL d   1      -1.319  -0.673  -2.647  0.00  0.00    -0.146 I 
ENDROOT
TORSDOF 0
ENDMDL
