MODEL 1
REMARK minimizedAffinity -1.25055432
REMARK minimizedRMSD -1
REMARK  0 active torsions:
REMARK  status: ('A' for Active; 'I' for Inactive)
ROOT
ATOM      1  C   UNL d   1       2.909  -1.711   1.011  0.00  0.00     0.023 A 
ATOM      2  C1  UNL d   1       2.183  -2.023  -0.138  0.00  0.00     0.003 A 
ATOM      3  C2  UNL d   1       1.101  -1.227  -0.520  0.00  0.00     0.048 A 
ATOM      4  C3  UNL d   1       0.751  -0.119   0.251  0.00  0.00     0.023 A 
ATOM      5  C4  UNL d   1       1.476   0.198   1.402  0.00  0.00     0.048 A 
ATOM      6  C5  UNL d   1       2.556  -0.602   1.780  0.00  0.00     0.003 A 
ATOM      7  I   UNL d   1      -0.858   1.068  -0.316  0.00  0.00    -0.146 I 
ENDROOT
TORSDOF 0
ENDMDL
