MODEL 1
REMARK minimizedAffinity -1.98298883
REMARK minimizedRMSD -1
REMARK  0 active torsions:
REMARK  status: ('A' for Active; 'I' for Inactive)
ROOT
ATOM      1  C   UNL d   1       3.149  -1.636   0.770  0.00  0.00     0.023 A 
ATOM      2  C1  UNL d   1       2.612  -0.657   1.607  0.00  0.00     0.003 A 
ATOM      3  C2  UNL d   1       1.439   0.007   1.243  0.00  0.00     0.048 A 
ATOM      4  C3  UNL d   1       0.808  -0.313   0.041  0.00  0.00     0.023 A 
ATOM      5  C4  UNL d   1       1.341  -1.292  -0.799  0.00  0.00     0.048 A 
ATOM      6  C5  UNL d   1       2.515  -1.952  -0.431  0.00  0.00     0.003 A 
ATOM      7  I   UNL d   1      -0.939   0.674  -0.503  0.00  0.00    -0.146 I 
ENDROOT
TORSDOF 0
ENDMDL
