MODEL 1
REMARK minimizedAffinity -1.80058169
REMARK minimizedRMSD -1
REMARK  0 active torsions:
REMARK  status: ('A' for Active; 'I' for Inactive)
ROOT
ATOM      1  C   UNL d   1      -3.323   0.651  -1.631  0.00  0.00     0.078 C 
ATOM      2  C1  UNL d   1      -2.081   0.508  -0.804  0.00  0.00    -0.077 A 
ATOM      3  C2  UNL d   1      -1.113   1.519  -0.776  0.00  0.00    -0.001 A 
ATOM      4  C3  UNL d   1       0.043   1.368  -0.009  0.00  0.00     0.003 A 
ATOM      5  C4  UNL d   1       0.243   0.207   0.736  0.00  0.00    -0.005 A 
ATOM      6  C5  UNL d   1      -0.714  -0.805   0.713  0.00  0.00     0.003 A 
ATOM      7  C6  UNL d   1      -1.871  -0.656  -0.054  0.00  0.00    -0.001 A 
ENDROOT
TORSDOF 0
ENDMDL
