MODEL 1
REMARK minimizedAffinity -5.85663557
REMARK minimizedRMSD -1
REMARK  0 active torsions:
REMARK  status: ('A' for Active; 'I' for Inactive)
ROOT
ATOM      1  C   UNL d   1       0.072  -2.439   1.360  0.00  0.00     0.078 C 
ATOM      2  C1  UNL d   1       0.574  -1.138   0.808  0.00  0.00    -0.077 A 
ATOM      3  C2  UNL d   1       1.946  -0.876   0.710  0.00  0.00    -0.001 A 
ATOM      4  C3  UNL d   1       2.398   0.343   0.203  0.00  0.00     0.003 A 
ATOM      5  C4  UNL d   1       1.485   1.311  -0.209  0.00  0.00    -0.005 A 
ATOM      6  C5  UNL d   1       0.117   1.061  -0.114  0.00  0.00     0.003 A 
ATOM      7  C6  UNL d   1      -0.337  -0.158   0.393  0.00  0.00    -0.001 A 
ENDROOT
TORSDOF 0
ENDMDL
