MODEL 1
REMARK minimizedAffinity -2.05401683
REMARK minimizedRMSD -1
REMARK  0 active torsions:
REMARK  status: ('A' for Active; 'I' for Inactive)
ROOT
ATOM      1  C   UNL d   1      -4.469   5.443  -2.325  0.00  0.00     0.078 C 
ATOM      2  C1  UNL d   1      -3.781   4.122  -2.503  0.00  0.00    -0.077 A 
ATOM      3  C2  UNL d   1      -3.343   3.702  -3.765  0.00  0.00    -0.001 A 
ATOM      4  C3  UNL d   1      -2.713   2.466  -3.917  0.00  0.00     0.003 A 
ATOM      5  C4  UNL d   1      -2.517   1.639  -2.813  0.00  0.00    -0.005 A 
ATOM      6  C5  UNL d   1      -2.951   2.048  -1.554  0.00  0.00     0.003 A 
ATOM      7  C6  UNL d   1      -3.581   3.284  -1.399  0.00  0.00    -0.001 A 
ENDROOT
TORSDOF 0
ENDMDL
