MODEL 1
REMARK minimizedAffinity -4.20030212
REMARK minimizedRMSD -1
REMARK  0 active torsions:
REMARK  status: ('A' for Active; 'I' for Inactive)
ROOT
ATOM      1  C   UNL d   1      -0.663  -0.038  -0.269  0.00  0.00     0.078 C 
ATOM      2  C1  UNL d   1       0.522  -0.399   0.576  0.00  0.00    -0.077 A 
ATOM      3  C2  UNL d   1       1.595   0.488   0.729  0.00  0.00    -0.001 A 
ATOM      4  C3  UNL d   1       2.696   0.136   1.510  0.00  0.00     0.003 A 
ATOM      5  C4  UNL d   1       2.736  -1.105   2.144  0.00  0.00    -0.005 A 
ATOM      6  C5  UNL d   1       1.675  -1.995   1.996  0.00  0.00     0.003 A 
ATOM      7  C6  UNL d   1       0.572  -1.644   1.214  0.00  0.00    -0.001 A 
ENDROOT
TORSDOF 0
ENDMDL
