MODEL 1
REMARK minimizedAffinity -3.62774348
REMARK minimizedRMSD -1
REMARK  0 active torsions:
REMARK  status: ('A' for Active; 'I' for Inactive)
ROOT
ATOM      1  C   UNL d   1      -1.041  -0.110  -0.280  0.00  0.00     0.078 C 
ATOM      2  C1  UNL d   1       0.223  -0.281   0.509  0.00  0.00    -0.077 A 
ATOM      3  C2  UNL d   1       1.266   0.647   0.408  0.00  0.00    -0.001 A 
ATOM      4  C3  UNL d   1       2.441   0.470   1.141  0.00  0.00     0.003 A 
ATOM      5  C4  UNL d   1       2.584  -0.635   1.978  0.00  0.00    -0.005 A 
ATOM      6  C5  UNL d   1       1.552  -1.565   2.082  0.00  0.00     0.003 A 
ATOM      7  C6  UNL d   1       0.376  -1.389   1.351  0.00  0.00    -0.001 A 
ENDROOT
TORSDOF 0
ENDMDL
