MODEL 1
REMARK minimizedAffinity 1.45479369
REMARK minimizedRMSD -1
REMARK  1 active torsions:
REMARK  status: ('A' for Active; 'I' for Inactive)
REMARK    1  A    between atoms: C1_2  and  C2_3 
ROOT
ATOM      1  C2  UNL d   1       0.611  -2.533  -0.016  0.00  0.00    -0.076 A 
ATOM      2  C3  UNL d   1      -0.608  -2.000  -0.472  0.00  0.00     0.004 A 
ATOM      3  C4  UNL d   1      -0.644  -0.812  -1.201  0.00  0.00    -0.003 A 
ATOM      4  C5  UNL d   1       0.538  -0.138  -1.487  0.00  0.00     0.000 A 
ATOM      5  C6  UNL d   1       1.758  -0.661  -1.058  0.00  0.00     0.000 A 
ATOM      6  C7  UNL d   1       1.813  -1.866  -0.336  0.00  0.00    -0.073 A 
ATOM      7  C8  UNL d   1       3.155  -2.381   0.107  0.00  0.00     0.078 C 
ENDROOT
BRANCH   1   8
ATOM      8  C1  UNL d   1       0.586  -3.809   0.793  0.00  0.00     0.053 C 
ATOM      9  C   UNL d   1      -0.796  -4.443   0.840  0.00  0.00     0.018 C 
ENDBRANCH   1   8
TORSDOF 1
ENDMDL
