MODEL 1
REMARK minimizedAffinity 3.48197079
REMARK minimizedRMSD -1
REMARK  1 active torsions:
REMARK  status: ('A' for Active; 'I' for Inactive)
REMARK    1  A    between atoms: C1_2  and  C2_3 
ROOT
ATOM      1  C2  UNL d   1       0.681  -3.687   0.659  0.00  0.00    -0.076 A 
ATOM      2  C3  UNL d   1      -0.715  -3.602   0.515  0.00  0.00     0.004 A 
ATOM      3  C4  UNL d   1      -1.306  -2.508  -0.113  0.00  0.00    -0.003 A 
ATOM      4  C5  UNL d   1      -0.511  -1.480  -0.609  0.00  0.00     0.000 A 
ATOM      5  C6  UNL d   1       0.877  -1.557  -0.491  0.00  0.00     0.000 A 
ATOM      6  C7  UNL d   1       1.489  -2.661   0.126  0.00  0.00    -0.073 A 
ATOM      7  C8  UNL d   1       2.990  -2.688   0.232  0.00  0.00     0.078 C 
ENDROOT
BRANCH   1   8
ATOM      8  C1  UNL d   1       1.264  -4.885   1.374  0.00  0.00     0.053 C 
ATOM      9  C   UNL d   1       0.247  -5.999   1.568  0.00  0.00     0.018 C 
ENDBRANCH   1   8
TORSDOF 1
ENDMDL
