MODEL 1
REMARK minimizedAffinity 5.11839581
REMARK minimizedRMSD -1
REMARK  1 active torsions:
REMARK  status: ('A' for Active; 'I' for Inactive)
REMARK    1  A    between atoms: C1_2  and  C2_3 
ROOT
ATOM      1  C2  UNL d   1       0.880  -3.026   0.326  0.00  0.00    -0.076 A 
ATOM      2  C3  UNL d   1      -0.444  -2.559   0.245  0.00  0.00     0.004 A 
ATOM      3  C4  UNL d   1      -0.752  -1.393  -0.453  0.00  0.00    -0.003 A 
ATOM      4  C5  UNL d   1       0.258  -0.675  -1.083  0.00  0.00     0.000 A 
ATOM      5  C6  UNL d   1       1.574  -1.133  -1.029  0.00  0.00     0.000 A 
ATOM      6  C7  UNL d   1       1.900  -2.315  -0.342  0.00  0.00    -0.073 A 
ATOM      7  C8  UNL d   1       3.337  -2.759  -0.311  0.00  0.00     0.078 C 
ENDROOT
BRANCH   1   8
ATOM      8  C1  UNL d   1       1.158  -4.282   1.120  0.00  0.00     0.053 C 
ATOM      9  C   UNL d   1      -0.016  -5.248   1.112  0.00  0.00     0.018 C 
ENDBRANCH   1   8
TORSDOF 1
ENDMDL
