MODEL 1
REMARK minimizedAffinity 9.02581978
REMARK minimizedRMSD -1
REMARK  1 active torsions:
REMARK  status: ('A' for Active; 'I' for Inactive)
REMARK    1  A    between atoms: C1_2  and  C2_3 
ROOT
ATOM      1  C2  UNL d   1       1.788  -2.733  -0.822  0.00  0.00    -0.076 A 
ATOM      2  C3  UNL d   1       0.634  -2.382  -1.544  0.00  0.00     0.004 A 
ATOM      3  C4  UNL d   1       0.077  -1.109  -1.433  0.00  0.00    -0.003 A 
ATOM      4  C5  UNL d   1       0.666  -0.166  -0.598  0.00  0.00     0.000 A 
ATOM      5  C6  UNL d   1       1.822  -0.490   0.112  0.00  0.00     0.000 A 
ATOM      6  C7  UNL d   1       2.405  -1.764  -0.001  0.00  0.00    -0.073 A 
ATOM      7  C8  UNL d   1       3.648  -2.062   0.792  0.00  0.00     0.078 C 
ENDROOT
BRANCH   1   8
ATOM      8  C1  UNL d   1       2.331  -4.137  -0.961  0.00  0.00     0.053 C 
ATOM      9  C   UNL d   1       2.087  -4.982   0.279  0.00  0.00     0.018 C 
ENDBRANCH   1   8
TORSDOF 1
ENDMDL
