MODEL 1
REMARK minimizedAffinity -5.96295643
REMARK minimizedRMSD -1
REMARK  1 active torsions:
REMARK  status: ('A' for Active; 'I' for Inactive)
REMARK    1  A    between atoms: C1_2  and  C2_3 
ROOT
ATOM      1  C2  UNL d   1       1.147  -3.273  -0.114  0.00  0.00    -0.076 A 
ATOM      2  C3  UNL d   1      -0.137  -3.025  -0.630  0.00  0.00     0.004 A 
ATOM      3  C4  UNL d   1      -0.619  -1.724  -0.760  0.00  0.00    -0.003 A 
ATOM      4  C5  UNL d   1       0.175  -0.649  -0.377  0.00  0.00     0.000 A 
ATOM      5  C6  UNL d   1       1.458  -0.875   0.120  0.00  0.00     0.000 A 
ATOM      6  C7  UNL d   1       1.966  -2.180   0.243  0.00  0.00    -0.073 A 
ATOM      7  C8  UNL d   1       3.354  -2.366   0.791  0.00  0.00     0.078 C 
ENDROOT
BRANCH   1   8
ATOM      8  C1  UNL d   1       1.605  -4.706   0.030  0.00  0.00     0.053 C 
ATOM      9  C   UNL d   1       0.649  -5.543   0.866  0.00  0.00     0.018 C 
ENDBRANCH   1   8
TORSDOF 1
ENDMDL
