MODEL 1
REMARK minimizedAffinity -0.559432685
REMARK minimizedRMSD -1
REMARK  1 active torsions:
REMARK  status: ('A' for Active; 'I' for Inactive)
REMARK    1  A    between atoms: C1_2  and  C2_3 
ROOT
ATOM      1  C2  UNL d   1      -0.476  -2.769  -0.059  0.00  0.00    -0.076 A 
ATOM      2  C3  UNL d   1      -1.115  -2.593  -1.299  0.00  0.00     0.004 A 
ATOM      3  C4  UNL d   1      -0.811  -1.505  -2.114  0.00  0.00    -0.003 A 
ATOM      4  C5  UNL d   1       0.138  -0.574  -1.703  0.00  0.00     0.000 A 
ATOM      5  C6  UNL d   1       0.794  -0.743  -0.485  0.00  0.00     0.000 A 
ATOM      6  C7  UNL d   1       0.511  -1.844   0.342  0.00  0.00    -0.073 A 
ATOM      7  C8  UNL d   1       1.244  -1.973   1.649  0.00  0.00     0.078 C 
ENDROOT
BRANCH   1   8
ATOM      8  C1  UNL d   1      -0.867  -3.954   0.795  0.00  0.00     0.053 C 
ATOM      9  C   UNL d   1      -1.928  -4.822   0.137  0.00  0.00     0.018 C 
ENDBRANCH   1   8
TORSDOF 1
ENDMDL
