MODEL 1
REMARK minimizedAffinity -2.07493258
REMARK minimizedRMSD -1
REMARK  1 active torsions:
REMARK  status: ('A' for Active; 'I' for Inactive)
REMARK    1  A    between atoms: C1_2  and  C2_3 
ROOT
ATOM      1  C2  UNL d   1       0.820  -1.454  -0.318  0.00  0.00    -0.076 A 
ATOM      2  C3  UNL d   1       2.085  -2.065  -0.368  0.00  0.00     0.004 A 
ATOM      3  C4  UNL d   1       2.254  -3.396   0.010  0.00  0.00    -0.003 A 
ATOM      4  C5  UNL d   1       1.161  -4.138   0.443  0.00  0.00     0.000 A 
ATOM      5  C6  UNL d   1      -0.104  -3.554   0.483  0.00  0.00     0.000 A 
ATOM      6  C7  UNL d   1      -0.295  -2.218   0.090  0.00  0.00    -0.073 A 
ATOM      7  C8  UNL d   1      -1.681  -1.636   0.158  0.00  0.00     0.078 C 
ENDROOT
BRANCH   1   8
ATOM      8  C1  UNL d   1       0.701   0.000  -0.714  0.00  0.00     0.053 C 
ATOM      9  C   UNL d   1       0.029   0.183  -2.066  0.00  0.00     0.018 C 
ENDBRANCH   1   8
TORSDOF 1
ENDMDL
