MODEL 1
REMARK minimizedAffinity -0.628859639
REMARK minimizedRMSD -1
REMARK  1 active torsions:
REMARK  status: ('A' for Active; 'I' for Inactive)
REMARK    1  A    between atoms: C1_2  and  C2_3 
ROOT
ATOM      1  C2  UNL d   1       0.707  -3.030  -0.051  0.00  0.00    -0.076 A 
ATOM      2  C3  UNL d   1       2.083  -2.740  -0.067  0.00  0.00     0.004 A 
ATOM      3  C4  UNL d   1       2.550  -1.504  -0.510  0.00  0.00    -0.003 A 
ATOM      4  C5  UNL d   1       1.649  -0.537  -0.943  0.00  0.00     0.000 A 
ATOM      5  C6  UNL d   1       0.280  -0.801  -0.918  0.00  0.00     0.000 A 
ATOM      6  C7  UNL d   1      -0.208  -2.036  -0.459  0.00  0.00    -0.073 A 
ATOM      7  C8  UNL d   1      -1.694  -2.269  -0.459  0.00  0.00     0.078 C 
ENDROOT
BRANCH   1   8
ATOM      8  C1  UNL d   1       0.261  -4.398   0.414  0.00  0.00     0.053 C 
ATOM      9  C   UNL d   1       1.431  -5.326   0.700  0.00  0.00     0.018 C 
ENDBRANCH   1   8
TORSDOF 1
ENDMDL
