MODEL 1
REMARK minimizedAffinity -4.91389084
REMARK minimizedRMSD -1
REMARK  1 active torsions:
REMARK  status: ('A' for Active; 'I' for Inactive)
REMARK    1  A    between atoms: C1_2  and  C2_3 
ROOT
ATOM      1  C2  UNL d   1       0.886  -3.112   0.252  0.00  0.00    -0.076 A 
ATOM      2  C3  UNL d   1       2.140  -2.877  -0.338  0.00  0.00     0.004 A 
ATOM      3  C4  UNL d   1       2.373  -1.730  -1.094  0.00  0.00    -0.003 A 
ATOM      4  C5  UNL d   1       1.357  -0.798  -1.271  0.00  0.00     0.000 A 
ATOM      5  C6  UNL d   1       0.112  -1.006  -0.678  0.00  0.00     0.000 A 
ATOM      6  C7  UNL d   1      -0.135  -2.150   0.100  0.00  0.00    -0.073 A 
ATOM      7  C8  UNL d   1      -1.498  -2.327   0.711  0.00  0.00     0.078 C 
ENDROOT
BRANCH   1   8
ATOM      8  C1  UNL d   1       0.683  -4.388   1.039  0.00  0.00     0.053 C 
ATOM      9  C   UNL d   1       1.667  -5.478   0.644  0.00  0.00     0.018 C 
ENDBRANCH   1   8
TORSDOF 1
ENDMDL
