MODEL 1
REMARK minimizedAffinity -5.68118286
REMARK minimizedRMSD -1
REMARK  1 active torsions:
REMARK  status: ('A' for Active; 'I' for Inactive)
REMARK    1  A    between atoms: C1_2  and  C2_3 
ROOT
ATOM      1  C2  UNL d   1       1.329  -2.311   0.277  0.00  0.00    -0.076 A 
ATOM      2  C3  UNL d   1       2.372  -1.584  -0.322  0.00  0.00     0.004 A 
ATOM      3  C4  UNL d   1       2.106  -0.476  -1.125  0.00  0.00    -0.003 A 
ATOM      4  C5  UNL d   1       0.791  -0.078  -1.342  0.00  0.00     0.000 A 
ATOM      5  C6  UNL d   1      -0.255  -0.777  -0.742  0.00  0.00     0.000 A 
ATOM      6  C7  UNL d   1      -0.003  -1.886   0.084  0.00  0.00    -0.073 A 
ATOM      7  C8  UNL d   1      -1.170  -2.607   0.701  0.00  0.00     0.078 C 
ENDROOT
BRANCH   1   8
ATOM      8  C1  UNL d   1       1.677  -3.520   1.116  0.00  0.00     0.053 C 
ATOM      9  C   UNL d   1       1.238  -4.824   0.469  0.00  0.00     0.018 C 
ENDBRANCH   1   8
TORSDOF 1
ENDMDL
