MODEL 1
REMARK minimizedAffinity -1.93546915
REMARK minimizedRMSD -1
REMARK  1 active torsions:
REMARK  status: ('A' for Active; 'I' for Inactive)
REMARK    1  A    between atoms: C1_2  and  C2_3 
ROOT
ATOM      1  C2  UNL d   1      -0.096  -1.936  -0.189  0.00  0.00    -0.076 A 
ATOM      2  C3  UNL d   1       0.061  -0.645  -0.721  0.00  0.00     0.004 A 
ATOM      3  C4  UNL d   1       1.327  -0.127  -0.985  0.00  0.00    -0.003 A 
ATOM      4  C5  UNL d   1       2.458  -0.892  -0.723  0.00  0.00     0.000 A 
ATOM      5  C6  UNL d   1       2.320  -2.182  -0.212  0.00  0.00     0.000 A 
ATOM      6  C7  UNL d   1       1.050  -2.726   0.045  0.00  0.00    -0.073 A 
ATOM      7  C8  UNL d   1       0.961  -4.120   0.602  0.00  0.00     0.078 C 
ENDROOT
BRANCH   1   8
ATOM      8  C1  UNL d   1      -1.493  -2.435   0.103  0.00  0.00     0.053 C 
ATOM      9  C   UNL d   1      -2.023  -3.355  -0.986  0.00  0.00     0.018 C 
ENDBRANCH   1   8
TORSDOF 1
ENDMDL
