MODEL 1
REMARK minimizedAffinity -1.7370894
REMARK minimizedRMSD -1
REMARK  1 active torsions:
REMARK  status: ('A' for Active; 'I' for Inactive)
REMARK    1  A    between atoms: C1_2  and  C2_3 
ROOT
ATOM      1  C2  UNL d   1       0.892  -2.354   0.349  0.00  0.00    -0.076 A 
ATOM      2  C3  UNL d   1       1.981  -3.242   0.405  0.00  0.00     0.004 A 
ATOM      3  C4  UNL d   1       1.810  -4.562   0.820  0.00  0.00    -0.003 A 
ATOM      4  C5  UNL d   1       0.547  -5.015   1.184  0.00  0.00     0.000 A 
ATOM      5  C6  UNL d   1      -0.547  -4.153   1.117  0.00  0.00     0.000 A 
ATOM      6  C7  UNL d   1      -0.395  -2.824   0.686  0.00  0.00    -0.073 A 
ATOM      7  C8  UNL d   1      -1.608  -1.937   0.639  0.00  0.00     0.078 C 
ENDROOT
BRANCH   1   8
ATOM      8  C1  UNL d   1       1.144  -0.927  -0.082  0.00  0.00     0.053 C 
ATOM      9  C   UNL d   1       0.287  -0.518  -1.271  0.00  0.00     0.018 C 
ENDBRANCH   1   8
TORSDOF 1
ENDMDL
