MODEL 1
REMARK minimizedAffinity 4.05153799
REMARK minimizedRMSD -1
REMARK  3 active torsions:
REMARK  status: ('A' for Active; 'I' for Inactive)
REMARK    1  A    between atoms: C3'_2  and  C2'_3 
REMARK    2  A    between atoms: C2'_3  and  C1'_4 
REMARK    3  A    between atoms: C1'_4  and  C1_5 
ROOT
ATOM      1  C1  N4B d   1       2.578   5.894   3.613  0.00  0.00    -0.075 A 
ATOM      2  C2  N4B d   1       1.171   5.774   3.614  0.00  0.00     0.002 A 
ATOM      3  C3  N4B d   1       0.485   5.752   4.803  0.00  0.00     0.002 A 
ATOM      4  C4  N4B d   1       1.182   5.830   5.999  0.00  0.00    -0.004 A 
ATOM      5  C5  N4B d   1       2.539   5.972   5.989  0.00  0.00     0.002 A 
ATOM      6  C6  N4B d   1       3.242   5.999   4.802  0.00  0.00     0.002 A 
ENDROOT
BRANCH   1   7
ATOM      7  C1' N4B d   1       3.380   5.836   2.342  0.00  0.00     0.057 C 
BRANCH   7   8
ATOM      8  C2' N4B d   1       4.860   6.000   2.675  0.00  0.00     0.009 C 
BRANCH   8   9
ATOM      9  C3' N4B d   1       5.637   4.713   2.454  0.00  0.00     0.004 C 
ATOM     10  C4' N4B d   1       4.789   3.487   2.616  0.00  0.00     0.003 C 
ENDBRANCH   8   9
ENDBRANCH   7   8
ENDBRANCH   1   7
TORSDOF 3
ENDMDL
