MODEL 1
REMARK minimizedAffinity 0.0835328847
REMARK minimizedRMSD -1
REMARK  3 active torsions:
REMARK  status: ('A' for Active; 'I' for Inactive)
REMARK    1  A    between atoms: C3'_2  and  C2'_3 
REMARK    2  A    between atoms: C2'_3  and  C1'_4 
REMARK    3  A    between atoms: C1'_4  and  C1_5 
ROOT
ATOM      1  C1  N4B d   1      -1.546  -0.478   1.245  0.00  0.00    -0.075 A 
ATOM      2  C2  N4B d   1      -0.398  -0.875   1.965  0.00  0.00     0.002 A 
ATOM      3  C3  N4B d   1       0.781  -1.110   1.302  0.00  0.00     0.002 A 
ATOM      4  C4  N4B d   1       0.831  -0.975  -0.078  0.00  0.00    -0.004 A 
ATOM      5  C5  N4B d   1      -0.276  -0.567  -0.763  0.00  0.00     0.002 A 
ATOM      6  C6  N4B d   1      -1.466  -0.323  -0.109  0.00  0.00     0.002 A 
ENDROOT
BRANCH   1   7
ATOM      7  C1' N4B d   1      -2.879  -0.293   1.916  0.00  0.00     0.057 C 
BRANCH   7   8
ATOM      8  C2' N4B d   1      -3.426  -1.656   2.330  0.00  0.00     0.009 C 
BRANCH   8   9
ATOM      9  C3' N4B d   1      -2.523  -2.348   3.337  0.00  0.00     0.004 C 
ATOM     10  C4' N4B d   1      -3.251  -3.359   4.171  0.00  0.00     0.003 C 
ENDBRANCH   8   9
ENDBRANCH   7   8
ENDBRANCH   1   7
TORSDOF 3
ENDMDL
