MODEL 1
REMARK minimizedAffinity -4.07522249
REMARK minimizedRMSD -1
REMARK  1 active torsions:
REMARK  status: ('A' for Active; 'I' for Inactive)
REMARK    1  A    between atoms: C1_2  and  C2_3 
ROOT
ATOM      1  C2  UNL d   1      -0.351  -0.472  -2.035  0.00  0.00    -0.081 A 
ATOM      2  C3  UNL d   1       0.678   0.460  -2.216  0.00  0.00     0.006 A 
ATOM      3  C4  UNL d   1       1.157   0.748  -3.496  0.00  0.00     0.002 A 
ATOM      4  C5  UNL d   1       0.610   0.114  -4.617  0.00  0.00    -0.080 A 
ATOM      5  C6  UNL d   1       1.094   0.435  -6.000  0.00  0.00     0.076 C 
ATOM      6  C7  UNL d   1      -0.406  -0.831  -4.436  0.00  0.00     0.002 A 
ATOM      7  C8  UNL d   1      -0.884  -1.119  -3.156  0.00  0.00     0.006 A 
ENDROOT
BRANCH   1   8
ATOM      8  C1  UNL d   1      -0.913  -0.736  -0.662  0.00  0.00     0.054 C 
ATOM      9  C   UNL d   1      -1.107   0.558   0.115  0.00  0.00     0.018 C 
ENDBRANCH   1   8
TORSDOF 1
ENDMDL
