MODEL 1
REMARK minimizedAffinity -1.74255693
REMARK minimizedRMSD -1
REMARK  1 active torsions:
REMARK  status: ('A' for Active; 'I' for Inactive)
REMARK    1  A    between atoms: C1_2  and  C2_3 
ROOT
ATOM      1  C2  UNL d   1      -0.112  -0.102  -4.312  0.00  0.00    -0.081 A 
ATOM      2  C3  UNL d   1       1.275   0.034  -4.184  0.00  0.00     0.006 A 
ATOM      3  C4  UNL d   1       1.891  -0.131  -2.940  0.00  0.00     0.002 A 
ATOM      4  C5  UNL d   1       1.130  -0.440  -1.808  0.00  0.00    -0.080 A 
ATOM      5  C6  UNL d   1       1.782  -0.649  -0.473  0.00  0.00     0.076 C 
ATOM      6  C7  UNL d   1      -0.258  -0.559  -1.933  0.00  0.00     0.002 A 
ATOM      7  C8  UNL d   1      -0.874  -0.394  -3.176  0.00  0.00     0.006 A 
ENDROOT
BRANCH   1   8
ATOM      8  C1  UNL d   1      -0.771   0.011  -5.664  0.00  0.00     0.054 C 
ATOM      9  C   UNL d   1      -1.565  -1.244  -5.998  0.00  0.00     0.018 C 
ENDBRANCH   1   8
TORSDOF 1
ENDMDL
