MODEL 1
REMARK minimizedAffinity -3.18851733
REMARK minimizedRMSD -1
REMARK  1 active torsions:
REMARK  status: ('A' for Active; 'I' for Inactive)
REMARK    1  A    between atoms: C1_2  and  C2_3 
ROOT
ATOM      1  C2  UNL d   1       0.315  -0.745  -0.777  0.00  0.00    -0.081 A 
ATOM      2  C3  UNL d   1      -1.066  -0.517  -0.726  0.00  0.00     0.006 A 
ATOM      3  C4  UNL d   1      -1.660  -0.028   0.440  0.00  0.00     0.002 A 
ATOM      4  C5  UNL d   1      -0.884   0.250   1.570  0.00  0.00    -0.080 A 
ATOM      5  C6  UNL d   1      -1.505   0.804   2.817  0.00  0.00     0.076 C 
ATOM      6  C7  UNL d   1       0.493   0.006   1.524  0.00  0.00     0.002 A 
ATOM      7  C8  UNL d   1       1.088  -0.484   0.360  0.00  0.00     0.006 A 
ENDROOT
BRANCH   1   8
ATOM      8  C1  UNL d   1       0.968  -1.211  -2.053  0.00  0.00     0.054 C 
ATOM      9  C   UNL d   1       0.525  -0.369  -3.241  0.00  0.00     0.018 C 
ENDBRANCH   1   8
TORSDOF 1
ENDMDL
