MODEL 1
REMARK minimizedAffinity -3.73086858
REMARK minimizedRMSD -1
REMARK  1 active torsions:
REMARK  status: ('A' for Active; 'I' for Inactive)
REMARK    1  A    between atoms: C1_2  and  C2_3 
ROOT
ATOM      1  C2  UNL d   1      -1.667   0.630   0.030  0.00  0.00    -0.081 A 
ATOM      2  C3  UNL d   1      -1.967   1.101   1.314  0.00  0.00     0.006 A 
ATOM      3  C4  UNL d   1      -1.077   0.893   2.371  0.00  0.00     0.002 A 
ATOM      4  C5  UNL d   1       0.130   0.218   2.159  0.00  0.00    -0.080 A 
ATOM      5  C6  UNL d   1       1.108   0.014   3.278  0.00  0.00     0.076 C 
ATOM      6  C7  UNL d   1       0.421  -0.268   0.880  0.00  0.00     0.002 A 
ATOM      7  C8  UNL d   1      -0.468  -0.061  -0.176  0.00  0.00     0.006 A 
ENDROOT
BRANCH   1   8
ATOM      8  C1  UNL d   1      -2.595   0.909  -1.124  0.00  0.00     0.054 C 
ATOM      9  C   UNL d   1      -4.037   1.045  -0.656  0.00  0.00     0.018 C 
ENDBRANCH   1   8
TORSDOF 1
ENDMDL
