MODEL 1
REMARK minimizedAffinity -2.77505827
REMARK minimizedRMSD -1
REMARK  1 active torsions:
REMARK  status: ('A' for Active; 'I' for Inactive)
REMARK    1  A    between atoms: C1_2  and  C2_3 
ROOT
ATOM      1  C2  UNL d   1       0.672   0.012  -2.670  0.00  0.00    -0.081 A 
ATOM      2  C3  UNL d   1       0.775   1.128  -1.831  0.00  0.00     0.006 A 
ATOM      3  C4  UNL d   1       0.614   0.993  -0.450  0.00  0.00     0.002 A 
ATOM      4  C5  UNL d   1       0.355  -0.260   0.116  0.00  0.00    -0.080 A 
ATOM      5  C6  UNL d   1       0.210  -0.424   1.600  0.00  0.00     0.076 C 
ATOM      6  C7  UNL d   1       0.235  -1.372  -0.724  0.00  0.00     0.002 A 
ATOM      7  C8  UNL d   1       0.395  -1.238  -2.105  0.00  0.00     0.006 A 
ENDROOT
BRANCH   1   8
ATOM      8  C1  UNL d   1       0.910   0.143  -4.152  0.00  0.00     0.054 C 
ATOM      9  C   UNL d   1       1.952   1.211  -4.454  0.00  0.00     0.018 C 
ENDBRANCH   1   8
TORSDOF 1
ENDMDL
