MODEL 1
REMARK minimizedAffinity 5.24374676
REMARK minimizedRMSD -1
REMARK  0 active torsions:
REMARK  status: ('A' for Active; 'I' for Inactive)
ROOT
ATOM      1  C   UNL d   1      -0.710   3.099   2.328  0.00  0.00     0.077 C 
ATOM      2  C1  UNL d   1      -0.923   2.473   0.982  0.00  0.00    -0.074 A 
ATOM      3  C2  UNL d   1      -2.177   1.977   0.610  0.00  0.00    -0.005 A 
ATOM      4  C3  UNL d   1      -2.362   1.406  -0.649  0.00  0.00     0.006 A 
ATOM      5  C4  UNL d   1      -1.297   1.325  -1.548  0.00  0.00    -0.005 A 
ATOM      6  C5  UNL d   1      -0.037   1.817  -1.194  0.00  0.00    -0.074 A 
ATOM      7  C6  UNL d   1       1.116   1.747  -2.151  0.00  0.00     0.077 C 
ATOM      8  C7  UNL d   1       0.140   2.395   0.071  0.00  0.00    -0.001 A 
ENDROOT
TORSDOF 0
ENDMDL
