MODEL 1
REMARK minimizedAffinity 0.362477928
REMARK minimizedRMSD -1
REMARK  0 active torsions:
REMARK  status: ('A' for Active; 'I' for Inactive)
ROOT
ATOM      1  C   UNL d   1       0.328  -1.077   1.853  0.00  0.00     0.077 C 
ATOM      2  C1  UNL d   1      -0.288   0.272   1.629  0.00  0.00    -0.074 A 
ATOM      3  C2  UNL d   1      -0.635   1.092   2.707  0.00  0.00    -0.005 A 
ATOM      4  C3  UNL d   1      -1.199   2.348   2.483  0.00  0.00     0.006 A 
ATOM      5  C4  UNL d   1      -1.420   2.796   1.180  0.00  0.00    -0.005 A 
ATOM      6  C5  UNL d   1      -1.078   1.991   0.089  0.00  0.00    -0.074 A 
ATOM      7  C6  UNL d   1      -1.300   2.461  -1.317  0.00  0.00     0.077 C 
ATOM      8  C7  UNL d   1      -0.506   0.732   0.323  0.00  0.00    -0.001 A 
ENDROOT
TORSDOF 0
ENDMDL
