MODEL 1
REMARK minimizedAffinity -3.68801522
REMARK minimizedRMSD -1
REMARK  0 active torsions:
REMARK  status: ('A' for Active; 'I' for Inactive)
ROOT
ATOM      1  C   UNL d   1      -1.074   2.988  -0.926  0.00  0.00     0.077 C 
ATOM      2  C1  UNL d   1      -0.704   1.934   0.074  0.00  0.00    -0.074 A 
ATOM      3  C2  UNL d   1      -0.855   2.160   1.446  0.00  0.00    -0.005 A 
ATOM      4  C3  UNL d   1      -0.516   1.166   2.364  0.00  0.00     0.006 A 
ATOM      5  C4  UNL d   1      -0.023  -0.062   1.921  0.00  0.00    -0.005 A 
ATOM      6  C5  UNL d   1       0.133  -0.306   0.553  0.00  0.00    -0.074 A 
ATOM      7  C6  UNL d   1       0.652  -1.624   0.059  0.00  0.00     0.077 C 
ATOM      8  C7  UNL d   1      -0.216   0.695  -0.364  0.00  0.00    -0.001 A 
ENDROOT
TORSDOF 0
ENDMDL
