MODEL 1
REMARK minimizedAffinity -5.31657505
REMARK minimizedRMSD -1
REMARK  0 active torsions:
REMARK  status: ('A' for Active; 'I' for Inactive)
ROOT
ATOM      1  C   UNL d   1       0.841  -1.094  -1.786  0.00  0.00     0.077 C 
ATOM      2  C1  UNL d   1       0.216  -0.706  -0.478  0.00  0.00    -0.074 A 
ATOM      3  C2  UNL d   1       0.588  -1.340   0.712  0.00  0.00    -0.005 A 
ATOM      4  C3  UNL d   1       0.005  -0.962   1.921  0.00  0.00     0.006 A 
ATOM      5  C4  UNL d   1      -0.954   0.051   1.953  0.00  0.00    -0.005 A 
ATOM      6  C5  UNL d   1      -1.338   0.696   0.773  0.00  0.00    -0.074 A 
ATOM      7  C6  UNL d   1      -2.360   1.794   0.791  0.00  0.00     0.077 C 
ATOM      8  C7  UNL d   1      -0.743   0.316  -0.437  0.00  0.00    -0.001 A 
ENDROOT
TORSDOF 0
ENDMDL
