MODEL 1
REMARK minimizedAffinity -4.49760818
REMARK minimizedRMSD -1
REMARK  0 active torsions:
REMARK  status: ('A' for Active; 'I' for Inactive)
ROOT
ATOM      1  C   UNL d   1       1.213  -1.774  -0.429  0.00  0.00     0.077 C 
ATOM      2  C1  UNL d   1       0.647  -0.389  -0.530  0.00  0.00    -0.074 A 
ATOM      3  C2  UNL d   1       1.035   0.472  -1.561  0.00  0.00    -0.005 A 
ATOM      4  C3  UNL d   1       0.492   1.754  -1.648  0.00  0.00     0.006 A 
ATOM      5  C4  UNL d   1      -0.443   2.187  -0.707  0.00  0.00    -0.005 A 
ATOM      6  C5  UNL d   1      -0.844   1.339   0.330  0.00  0.00    -0.074 A 
ATOM      7  C6  UNL d   1      -1.855   1.784   1.345  0.00  0.00     0.077 C 
ATOM      8  C7  UNL d   1      -0.299   0.050   0.407  0.00  0.00    -0.001 A 
ENDROOT
TORSDOF 0
ENDMDL
