MODEL 1
REMARK minimizedAffinity -4.77772808
REMARK minimizedRMSD -1
REMARK  0 active torsions:
REMARK  status: ('A' for Active; 'I' for Inactive)
ROOT
ATOM      1  C   UNL d   1      -1.948   1.743   1.667  0.00  0.00     0.077 C 
ATOM      2  C1  UNL d   1      -1.015   0.682   1.165  0.00  0.00    -0.074 A 
ATOM      3  C2  UNL d   1      -0.788   0.512  -0.205  0.00  0.00    -0.005 A 
ATOM      4  C3  UNL d   1       0.090  -0.473  -0.656  0.00  0.00     0.006 A 
ATOM      5  C4  UNL d   1       0.749  -1.298   0.256  0.00  0.00    -0.005 A 
ATOM      6  C5  UNL d   1       0.536  -1.143   1.630  0.00  0.00    -0.074 A 
ATOM      7  C6  UNL d   1       1.244  -2.014   2.624  0.00  0.00     0.077 C 
ATOM      8  C7  UNL d   1      -0.342  -0.146   2.075  0.00  0.00    -0.001 A 
ENDROOT
TORSDOF 0
ENDMDL
