MODEL 1
REMARK minimizedAffinity -3.73628592
REMARK minimizedRMSD -1
REMARK  0 active torsions:
REMARK  status: ('A' for Active; 'I' for Inactive)
ROOT
ATOM      1  C   UNL d   1      -1.476   0.536   1.500  0.00  0.00     0.077 C 
ATOM      2  C1  UNL d   1      -0.485   0.484   0.376  0.00  0.00    -0.074 A 
ATOM      3  C2  UNL d   1      -0.189   1.625  -0.376  0.00  0.00    -0.005 A 
ATOM      4  C3  UNL d   1       0.742   1.563  -1.413  0.00  0.00     0.006 A 
ATOM      5  C4  UNL d   1       1.385   0.361  -1.708  0.00  0.00    -0.005 A 
ATOM      6  C5  UNL d   1       1.102  -0.791  -0.967  0.00  0.00    -0.074 A 
ATOM      7  C6  UNL d   1       1.792  -2.089  -1.265  0.00  0.00     0.077 C 
ATOM      8  C7  UNL d   1       0.171  -0.719   0.078  0.00  0.00    -0.001 A 
ENDROOT
TORSDOF 0
ENDMDL
