MODEL 1
REMARK minimizedAffinity -2.95110583
REMARK minimizedRMSD -1
REMARK  0 active torsions:
REMARK  status: ('A' for Active; 'I' for Inactive)
ROOT
ATOM      1  C   UNL d   1       0.742  -1.848  -0.818  0.00  0.00     0.077 C 
ATOM      2  C1  UNL d   1       0.408  -0.391  -0.686  0.00  0.00    -0.074 A 
ATOM      3  C2  UNL d   1       1.077   0.572  -1.449  0.00  0.00    -0.005 A 
ATOM      4  C3  UNL d   1       0.749   1.921  -1.322  0.00  0.00     0.006 A 
ATOM      5  C4  UNL d   1      -0.249   2.321  -0.432  0.00  0.00    -0.005 A 
ATOM      6  C5  UNL d   1      -0.928   1.373   0.339  0.00  0.00    -0.074 A 
ATOM      7  C6  UNL d   1      -2.010   1.785   1.293  0.00  0.00     0.077 C 
ATOM      8  C7  UNL d   1      -0.598   0.018   0.201  0.00  0.00    -0.001 A 
ENDROOT
TORSDOF 0
ENDMDL
