MODEL 1
REMARK minimizedAffinity -6.02444363
REMARK minimizedRMSD -1
REMARK  0 active torsions:
REMARK  status: ('A' for Active; 'I' for Inactive)
ROOT
ATOM      1  C   UNL d   1      -0.352  -1.468   3.130  0.00  0.00     0.077 C 
ATOM      2  C1  UNL d   1      -0.532  -0.494   2.005  0.00  0.00    -0.074 A 
ATOM      3  C2  UNL d   1       0.074  -0.710   0.763  0.00  0.00    -0.005 A 
ATOM      4  C3  UNL d   1      -0.109   0.200  -0.277  0.00  0.00     0.006 A 
ATOM      5  C4  UNL d   1      -0.899   1.335  -0.087  0.00  0.00    -0.005 A 
ATOM      6  C5  UNL d   1      -1.514   1.568   1.147  0.00  0.00    -0.074 A 
ATOM      7  C6  UNL d   1      -2.374   2.777   1.365  0.00  0.00     0.077 C 
ATOM      8  C7  UNL d   1      -1.330   0.644   2.186  0.00  0.00    -0.001 A 
ENDROOT
TORSDOF 0
ENDMDL
