MODEL 1
REMARK minimizedAffinity -4.89219856
REMARK minimizedRMSD -1
REMARK  0 active torsions:
REMARK  status: ('A' for Active; 'I' for Inactive)
ROOT
ATOM      1  C   UNL d   1      -2.208   2.766   1.219  0.00  0.00     0.077 C 
ATOM      2  C1  UNL d   1      -1.481   1.459   1.337  0.00  0.00    -0.074 A 
ATOM      3  C2  UNL d   1      -1.558   0.697   2.507  0.00  0.00    -0.005 A 
ATOM      4  C3  UNL d   1      -0.885  -0.521   2.599  0.00  0.00     0.006 A 
ATOM      5  C4  UNL d   1      -0.128  -0.988   1.523  0.00  0.00    -0.005 A 
ATOM      6  C5  UNL d   1      -0.040  -0.240   0.345  0.00  0.00    -0.074 A 
ATOM      7  C6  UNL d   1       0.761  -0.733  -0.824  0.00  0.00     0.077 C 
ATOM      8  C7  UNL d   1      -0.725   0.979   0.258  0.00  0.00    -0.001 A 
ENDROOT
TORSDOF 0
ENDMDL
