MODEL 1
REMARK minimizedAffinity -5.71888924
REMARK minimizedRMSD -1
REMARK  0 active torsions:
REMARK  status: ('A' for Active; 'I' for Inactive)
ROOT
ATOM      1  C   UNL d   1       1.225   0.063  -1.374  0.00  0.00     0.077 C 
ATOM      2  C1  UNL d   1       0.303   0.318  -0.219  0.00  0.00    -0.074 A 
ATOM      3  C2  UNL d   1      -0.524   1.445  -0.195  0.00  0.00    -0.005 A 
ATOM      4  C3  UNL d   1      -1.384   1.664   0.881  0.00  0.00     0.006 A 
ATOM      5  C4  UNL d   1      -1.425   0.759   1.943  0.00  0.00    -0.005 A 
ATOM      6  C5  UNL d   1      -0.606  -0.374   1.936  0.00  0.00    -0.074 A 
ATOM      7  C6  UNL d   1      -0.644  -1.361   3.064  0.00  0.00     0.077 C 
ATOM      8  C7  UNL d   1       0.250  -0.591   0.847  0.00  0.00    -0.001 A 
ENDROOT
TORSDOF 0
ENDMDL
