MODEL 1
REMARK minimizedAffinity -5.69739819
REMARK minimizedRMSD -1
REMARK  0 active torsions:
REMARK  status: ('A' for Active; 'I' for Inactive)
ROOT
ATOM      1  C   UNL d   1      -2.262   2.058   0.741  0.00  0.00     0.077 C 
ATOM      2  C1  UNL d   1      -1.267   0.955   0.955  0.00  0.00    -0.074 A 
ATOM      3  C2  UNL d   1      -1.094   0.377   2.216  0.00  0.00    -0.005 A 
ATOM      4  C3  UNL d   1      -0.173  -0.654   2.397  0.00  0.00     0.006 A 
ATOM      5  C4  UNL d   1       0.584  -1.117   1.320  0.00  0.00    -0.005 A 
ATOM      6  C5  UNL d   1       0.423  -0.553   0.051  0.00  0.00    -0.074 A 
ATOM      7  C6  UNL d   1       1.221  -1.046  -1.120  0.00  0.00     0.077 C 
ATOM      8  C7  UNL d   1      -0.510   0.478  -0.124  0.00  0.00    -0.001 A 
ENDROOT
TORSDOF 0
ENDMDL
