MODEL 1
REMARK minimizedAffinity -4.69948149
REMARK minimizedRMSD -1
REMARK  0 active torsions:
REMARK  status: ('A' for Active; 'I' for Inactive)
ROOT
ATOM      1  C   UNL d   1       1.017  -0.868  -1.244  0.00  0.00     0.077 C 
ATOM      2  C1  UNL d   1       0.336  -0.465   0.030  0.00  0.00    -0.074 A 
ATOM      3  C2  UNL d   1       0.586  -1.147   1.225  0.00  0.00    -0.005 A 
ATOM      4  C3  UNL d   1      -0.048  -0.754   2.404  0.00  0.00     0.006 A 
ATOM      5  C4  UNL d   1      -0.936   0.322   2.400  0.00  0.00    -0.005 A 
ATOM      6  C5  UNL d   1      -1.197   1.016   1.214  0.00  0.00    -0.074 A 
ATOM      7  C6  UNL d   1      -2.141   2.182   1.194  0.00  0.00     0.077 C 
ATOM      8  C7  UNL d   1      -0.551   0.620   0.035  0.00  0.00    -0.001 A 
ENDROOT
TORSDOF 0
ENDMDL
