MODEL 1
REMARK minimizedAffinity 7.25188684
REMARK minimizedRMSD -1
REMARK  1 active torsions:
REMARK  status: ('A' for Active; 'I' for Inactive)
REMARK    1  A    between atoms: C1_2  and  C2_3 
ROOT
ATOM      1  C2  UNL d   1       0.817   0.020   0.875  0.00  0.00    -0.081 A 
ATOM      2  C3  UNL d   1       0.847  -0.465   2.189  0.00  0.00     0.006 A 
ATOM      3  C4  UNL d   1      -0.322  -0.520   2.950  0.00  0.00     0.002 A 
ATOM      4  C5  UNL d   1      -1.542  -0.099   2.409  0.00  0.00    -0.080 A 
ATOM      5  C6  UNL d   1      -2.810  -0.181   3.205  0.00  0.00     0.076 C 
ATOM      6  C7  UNL d   1      -1.569   0.401   1.103  0.00  0.00     0.002 A 
ATOM      7  C8  UNL d   1      -0.400   0.457   0.341  0.00  0.00     0.006 A 
ENDROOT
BRANCH   1   8
ATOM      8  C1  UNL d   1       2.065   0.020   0.030  0.00  0.00     0.054 C 
ATOM      9  C   UNL d   1       2.779   1.362   0.097  0.00  0.00     0.018 C 
ENDBRANCH   1   8
TORSDOF 1
ENDMDL
