MODEL 1
REMARK minimizedAffinity 7.02828455
REMARK minimizedRMSD -1
REMARK  1 active torsions:
REMARK  status: ('A' for Active; 'I' for Inactive)
REMARK    1  A    between atoms: C1_2  and  C2_3 
ROOT
ATOM      1  C2  UNL d   1      -0.274  -0.226   1.800  0.00  0.00    -0.081 A 
ATOM      2  C3  UNL d   1      -1.447   0.323   2.332  0.00  0.00     0.006 A 
ATOM      3  C4  UNL d   1      -2.553   0.560   1.512  0.00  0.00     0.002 A 
ATOM      4  C5  UNL d   1      -2.507   0.246   0.150  0.00  0.00    -0.080 A 
ATOM      5  C6  UNL d   1      -3.697   0.468  -0.736  0.00  0.00     0.076 C 
ATOM      6  C7  UNL d   1      -1.328  -0.286  -0.385  0.00  0.00     0.002 A 
ATOM      7  C8  UNL d   1      -0.222  -0.523   0.434  0.00  0.00     0.006 A 
ENDROOT
BRANCH   1   8
ATOM      8  C1  UNL d   1       0.898  -0.543   2.694  0.00  0.00     0.054 C 
ATOM      9  C   UNL d   1       0.442  -1.193   3.993  0.00  0.00     0.018 C 
ENDBRANCH   1   8
TORSDOF 1
ENDMDL
