MODEL 1
REMARK minimizedAffinity 9.14285469
REMARK minimizedRMSD -1
REMARK  1 active torsions:
REMARK  status: ('A' for Active; 'I' for Inactive)
REMARK    1  A    between atoms: C1_2  and  C2_3 
ROOT
ATOM      1  C2  UNL d   1      -1.340   0.127   1.529  0.00  0.00    -0.081 A 
ATOM      2  C3  UNL d   1      -2.350  -0.069   0.580  0.00  0.00     0.006 A 
ATOM      3  C4  UNL d   1      -2.029  -0.411  -0.736  0.00  0.00     0.002 A 
ATOM      4  C5  UNL d   1      -0.694  -0.569  -1.122  0.00  0.00    -0.080 A 
ATOM      5  C6  UNL d   1      -0.336  -0.965  -2.524  0.00  0.00     0.076 C 
ATOM      6  C7  UNL d   1       0.316  -0.355  -0.178  0.00  0.00     0.002 A 
ATOM      7  C8  UNL d   1      -0.004  -0.013   1.138  0.00  0.00     0.006 A 
ENDROOT
BRANCH   1   8
ATOM      8  C1  UNL d   1      -1.686   0.432   2.965  0.00  0.00     0.054 C 
ATOM      9  C   UNL d   1      -1.789  -0.841   3.791  0.00  0.00     0.018 C 
ENDBRANCH   1   8
TORSDOF 1
ENDMDL
