MODEL 1
REMARK minimizedAffinity 8.88031483
REMARK minimizedRMSD -1
REMARK  1 active torsions:
REMARK  status: ('A' for Active; 'I' for Inactive)
REMARK    1  A    between atoms: C1_2  and  C2_3 
ROOT
ATOM      1  C2  UNL d   1      -2.235   0.493   0.722  0.00  0.00    -0.081 A 
ATOM      2  C3  UNL d   1      -0.846   0.325   0.771  0.00  0.00     0.006 A 
ATOM      3  C4  UNL d   1      -0.228  -0.124   1.941  0.00  0.00     0.002 A 
ATOM      4  C5  UNL d   1      -0.988  -0.419   3.077  0.00  0.00    -0.080 A 
ATOM      5  C6  UNL d   1      -0.340  -0.931   4.329  0.00  0.00     0.076 C 
ATOM      6  C7  UNL d   1      -2.374  -0.234   3.034  0.00  0.00     0.002 A 
ATOM      7  C8  UNL d   1      -2.993   0.215   1.865  0.00  0.00     0.006 A 
ENDROOT
BRANCH   1   8
ATOM      8  C1  UNL d   1      -2.911   0.915  -0.557  0.00  0.00     0.054 C 
ATOM      9  C   UNL d   1      -4.204   0.143  -0.781  0.00  0.00     0.018 C 
ENDBRANCH   1   8
TORSDOF 1
ENDMDL
