MODEL 1
REMARK minimizedAffinity 7.1948843
REMARK minimizedRMSD -1
REMARK  1 active torsions:
REMARK  status: ('A' for Active; 'I' for Inactive)
REMARK    1  A    between atoms: C1_2  and  C2_3 
ROOT
ATOM      1  C2  UNL d   1      -0.252  -0.462   0.736  0.00  0.00    -0.081 A 
ATOM      2  C3  UNL d   1      -1.420  -0.547  -0.031  0.00  0.00     0.006 A 
ATOM      3  C4  UNL d   1      -1.392  -1.127  -1.302  0.00  0.00     0.002 A 
ATOM      4  C5  UNL d   1      -0.198  -1.639  -1.822  0.00  0.00    -0.080 A 
ATOM      5  C6  UNL d   1      -0.160  -2.291  -3.172  0.00  0.00     0.076 C 
ATOM      6  C7  UNL d   1       0.973  -1.537  -1.063  0.00  0.00     0.002 A 
ATOM      7  C8  UNL d   1       0.945  -0.957   0.207  0.00  0.00     0.006 A 
ENDROOT
BRANCH   1   8
ATOM      8  C1  UNL d   1      -0.292   0.105   2.132  0.00  0.00     0.054 C 
ATOM      9  C   UNL d   1      -0.851  -0.905   3.124  0.00  0.00     0.018 C 
ENDBRANCH   1   8
TORSDOF 1
ENDMDL
