MODEL 1
REMARK minimizedAffinity -0.8847844
REMARK minimizedRMSD -1
REMARK  1 active torsions:
REMARK  status: ('A' for Active; 'I' for Inactive)
REMARK    1  A    between atoms: C1_2  and  C2_3 
ROOT
ATOM      1  C2  UNL d   1      -1.668  -0.530   0.527  0.00  0.00    -0.081 A 
ATOM      2  C3  UNL d   1      -0.753   0.512   0.337  0.00  0.00     0.006 A 
ATOM      3  C4  UNL d   1      -0.371   1.323   1.409  0.00  0.00     0.002 A 
ATOM      4  C5  UNL d   1      -0.891   1.101   2.688  0.00  0.00    -0.080 A 
ATOM      5  C6  UNL d   1      -0.466   1.945   3.853  0.00  0.00     0.076 C 
ATOM      6  C7  UNL d   1      -1.819   0.071   2.874  0.00  0.00     0.002 A 
ATOM      7  C8  UNL d   1      -2.202  -0.740   1.804  0.00  0.00     0.006 A 
ENDROOT
BRANCH   1   8
ATOM      8  C1  UNL d   1      -2.033  -1.447  -0.612  0.00  0.00     0.054 C 
ATOM      9  C   UNL d   1      -3.374  -2.124  -0.370  0.00  0.00     0.018 C 
ENDBRANCH   1   8
TORSDOF 1
ENDMDL
