MODEL 1
REMARK minimizedAffinity 0.403813064
REMARK minimizedRMSD -1
REMARK  1 active torsions:
REMARK  status: ('A' for Active; 'I' for Inactive)
REMARK    1  A    between atoms: C1_2  and  C2_3 
ROOT
ATOM      1  C2  UNL d   1       0.347  -0.623   3.061  0.00  0.00    -0.081 A 
ATOM      2  C3  UNL d   1      -0.933  -0.203   3.443  0.00  0.00     0.006 A 
ATOM      3  C4  UNL d   1      -1.845   0.251   2.488  0.00  0.00     0.002 A 
ATOM      4  C5  UNL d   1      -1.496   0.284   1.133  0.00  0.00    -0.080 A 
ATOM      5  C6  UNL d   1      -2.476   0.740   0.094  0.00  0.00     0.076 C 
ATOM      6  C7  UNL d   1      -0.212  -0.119   0.753  0.00  0.00     0.002 A 
ATOM      7  C8  UNL d   1       0.701  -0.572   1.708  0.00  0.00     0.006 A 
ENDROOT
BRANCH   1   8
ATOM      8  C1  UNL d   1       1.310  -1.174   4.081  0.00  0.00     0.054 C 
ATOM      9  C   UNL d   1       1.000  -0.647   5.475  0.00  0.00     0.018 C 
ENDBRANCH   1   8
TORSDOF 1
ENDMDL
