MODEL 1
REMARK minimizedAffinity 4.85828924
REMARK minimizedRMSD -1
REMARK  1 active torsions:
REMARK  status: ('A' for Active; 'I' for Inactive)
REMARK    1  A    between atoms: C1_2  and  C2_3 
ROOT
ATOM      1  C2  UNL d   1       0.283  -0.159   0.417  0.00  0.00    -0.081 A 
ATOM      2  C3  UNL d   1      -0.848   0.218   1.152  0.00  0.00     0.006 A 
ATOM      3  C4  UNL d   1      -2.130  -0.028   0.656  0.00  0.00     0.002 A 
ATOM      4  C5  UNL d   1      -2.304  -0.662  -0.578  0.00  0.00    -0.080 A 
ATOM      5  C6  UNL d   1      -3.675  -0.960  -1.108  0.00  0.00     0.076 C 
ATOM      6  C7  UNL d   1      -1.175  -1.024  -1.321  0.00  0.00     0.002 A 
ATOM      7  C8  UNL d   1       0.108  -0.778  -0.826  0.00  0.00     0.006 A 
ENDROOT
BRANCH   1   8
ATOM      8  C1  UNL d   1       1.666   0.046   0.979  0.00  0.00     0.054 C 
ATOM      9  C   UNL d   1       2.420   1.123   0.211  0.00  0.00     0.018 C 
ENDBRANCH   1   8
TORSDOF 1
ENDMDL
