MODEL 1
REMARK minimizedAffinity 8.83672905
REMARK minimizedRMSD -1
REMARK  1 active torsions:
REMARK  status: ('A' for Active; 'I' for Inactive)
REMARK    1  A    between atoms: C1_2  and  C2_3 
ROOT
ATOM      1  C2  UNL d   1       0.368   0.209   0.880  0.00  0.00    -0.081 A 
ATOM      2  C3  UNL d   1      -0.819   0.728   1.412  0.00  0.00     0.006 A 
ATOM      3  C4  UNL d   1      -2.054   0.385   0.856  0.00  0.00     0.002 A 
ATOM      4  C5  UNL d   1      -2.123  -0.487  -0.235  0.00  0.00    -0.080 A 
ATOM      5  C6  UNL d   1      -3.444  -0.886  -0.823  0.00  0.00     0.076 C 
ATOM      6  C7  UNL d   1      -0.937  -0.991  -0.779  0.00  0.00     0.002 A 
ATOM      7  C8  UNL d   1       0.298  -0.649  -0.224  0.00  0.00     0.006 A 
ENDROOT
BRANCH   1   8
ATOM      8  C1  UNL d   1       1.697   0.525   1.518  0.00  0.00     0.054 C 
ATOM      9  C   UNL d   1       2.127   1.954   1.220  0.00  0.00     0.018 C 
ENDBRANCH   1   8
TORSDOF 1
ENDMDL
