MODEL 1
REMARK minimizedAffinity -5.09154749
REMARK minimizedRMSD -1
REMARK  0 active torsions:
REMARK  status: ('A' for Active; 'I' for Inactive)
ROOT
ATOM      1  C   UNL d   1       0.780   0.688  -0.016  0.00  0.00     0.078 C 
ATOM      2  C1  UNL d   1       0.515  -0.746  -0.365  0.00  0.00    -0.077 A 
ATOM      3  C2  UNL d   1       0.805  -1.243  -1.641  0.00  0.00    -0.001 A 
ATOM      4  C3  UNL d   1       0.545  -2.578  -1.955  0.00  0.00     0.003 A 
ATOM      5  C4  UNL d   1      -0.008  -3.427  -0.997  0.00  0.00    -0.005 A 
ATOM      6  C5  UNL d   1      -0.302  -2.941   0.275  0.00  0.00     0.003 A 
ATOM      7  C6  UNL d   1      -0.042  -1.606   0.590  0.00  0.00    -0.001 A 
ENDROOT
TORSDOF 0
ENDMDL
