MODEL 1
REMARK minimizedAffinity -5.25885963
REMARK minimizedRMSD -1
REMARK  0 active torsions:
REMARK  status: ('A' for Active; 'I' for Inactive)
ROOT
ATOM      1  C   UNL d   1      -0.354   0.749  -0.855  0.00  0.00     0.078 C 
ATOM      2  C1  UNL d   1      -0.316  -0.739  -0.674  0.00  0.00    -0.077 A 
ATOM      3  C2  UNL d   1      -0.609  -1.323   0.564  0.00  0.00    -0.001 A 
ATOM      4  C3  UNL d   1      -0.560  -2.709   0.721  0.00  0.00     0.003 A 
ATOM      5  C4  UNL d   1      -0.217  -3.523  -0.357  0.00  0.00    -0.005 A 
ATOM      6  C5  UNL d   1       0.079  -2.951  -1.593  0.00  0.00     0.003 A 
ATOM      7  C6  UNL d   1       0.030  -1.566  -1.751  0.00  0.00    -0.001 A 
ENDROOT
TORSDOF 0
ENDMDL
