MODEL 1
REMARK minimizedAffinity -4.96673775
REMARK minimizedRMSD -1
REMARK  0 active torsions:
REMARK  status: ('A' for Active; 'I' for Inactive)
ROOT
ATOM      1  C   UNL d   1      -0.024   0.034   0.430  0.00  0.00     0.078 C 
ATOM      2  C1  UNL d   1       0.059  -1.385  -0.045  0.00  0.00    -0.077 A 
ATOM      3  C2  UNL d   1       0.261  -1.682  -1.399  0.00  0.00    -0.001 A 
ATOM      4  C3  UNL d   1       0.326  -3.009  -1.828  0.00  0.00     0.003 A 
ATOM      5  C4  UNL d   1       0.189  -4.049  -0.911  0.00  0.00    -0.005 A 
ATOM      6  C5  UNL d   1      -0.015  -3.763   0.437  0.00  0.00     0.003 A 
ATOM      7  C6  UNL d   1      -0.081  -2.437   0.869  0.00  0.00    -0.001 A 
ENDROOT
TORSDOF 0
ENDMDL
