MODEL 1
REMARK minimizedAffinity -4.65168381
REMARK minimizedRMSD -1
REMARK  0 active torsions:
REMARK  status: ('A' for Active; 'I' for Inactive)
ROOT
ATOM      1  C   UNL d   1       0.019   1.039  -0.349  0.00  0.00     0.078 C 
ATOM      2  C1  UNL d   1      -0.084  -0.438  -0.116  0.00  0.00    -0.077 A 
ATOM      3  C2  UNL d   1      -0.771  -0.948   0.993  0.00  0.00    -0.001 A 
ATOM      4  C3  UNL d   1      -0.850  -2.325   1.203  0.00  0.00     0.003 A 
ATOM      5  C4  UNL d   1      -0.244  -3.205   0.308  0.00  0.00    -0.005 A 
ATOM      6  C5  UNL d   1       0.444  -2.708  -0.797  0.00  0.00     0.003 A 
ATOM      7  C6  UNL d   1       0.524  -1.330  -1.008  0.00  0.00    -0.001 A 
ENDROOT
TORSDOF 0
ENDMDL
