MODEL 1
REMARK minimizedAffinity -2.94564033
REMARK minimizedRMSD -1
REMARK  0 active torsions:
REMARK  status: ('A' for Active; 'I' for Inactive)
ROOT
ATOM      1  C   UNL d   1       0.288   1.683  -0.256  0.00  0.00     0.078 C 
ATOM      2  C1  UNL d   1       0.052   0.208  -0.130  0.00  0.00    -0.077 A 
ATOM      3  C2  UNL d   1       0.126  -0.633  -1.247  0.00  0.00    -0.001 A 
ATOM      4  C3  UNL d   1      -0.106  -2.003  -1.117  0.00  0.00     0.003 A 
ATOM      5  C4  UNL d   1      -0.415  -2.545   0.129  0.00  0.00    -0.005 A 
ATOM      6  C5  UNL d   1      -0.494  -1.716   1.247  0.00  0.00     0.003 A 
ATOM      7  C6  UNL d   1      -0.262  -0.346   1.118  0.00  0.00    -0.001 A 
ENDROOT
TORSDOF 0
ENDMDL
