MODEL 1
REMARK minimizedAffinity -4.21730375
REMARK minimizedRMSD -1
REMARK  0 active torsions:
REMARK  status: ('A' for Active; 'I' for Inactive)
ROOT
ATOM      1  C   UNL d   1      -0.655  -0.463   1.062  0.00  0.00     0.078 C 
ATOM      2  C1  UNL d   1      -0.425  -1.303  -0.158  0.00  0.00    -0.077 A 
ATOM      3  C2  UNL d   1       0.228  -0.780  -1.281  0.00  0.00    -0.001 A 
ATOM      4  C3  UNL d   1       0.427  -1.571  -2.414  0.00  0.00     0.003 A 
ATOM      5  C4  UNL d   1      -0.024  -2.889  -2.435  0.00  0.00    -0.005 A 
ATOM      6  C5  UNL d   1      -0.677  -3.418  -1.323  0.00  0.00     0.003 A 
ATOM      7  C6  UNL d   1      -0.877  -2.628  -0.189  0.00  0.00    -0.001 A 
ENDROOT
TORSDOF 0
ENDMDL
