MODEL 1
REMARK minimizedAffinity -5.59172535
REMARK minimizedRMSD -1
REMARK  0 active torsions:
REMARK  status: ('A' for Active; 'I' for Inactive)
ROOT
ATOM      1  C   UNL d   1       0.291  -3.430  -1.089  0.00  0.00     0.078 C 
ATOM      2  C1  UNL d   1      -0.140  -2.190  -0.364  0.00  0.00    -0.077 A 
ATOM      3  C2  UNL d   1      -0.824  -2.269   0.856  0.00  0.00    -0.001 A 
ATOM      4  C3  UNL d   1      -1.228  -1.107   1.515  0.00  0.00     0.003 A 
ATOM      5  C4  UNL d   1      -0.953   0.142   0.962  0.00  0.00    -0.005 A 
ATOM      6  C5  UNL d   1      -0.275   0.231  -0.252  0.00  0.00     0.003 A 
ATOM      7  C6  UNL d   1       0.129  -0.930  -0.913  0.00  0.00    -0.001 A 
ENDROOT
TORSDOF 0
ENDMDL
