MODEL 1
REMARK minimizedAffinity -4.07568312
REMARK minimizedRMSD -1
REMARK  0 active torsions:
REMARK  status: ('A' for Active; 'I' for Inactive)
ROOT
ATOM      1  C   UNL d   1      -0.009   0.751  -0.272  0.00  0.00     0.078 C 
ATOM      2  C1  UNL d   1      -0.141  -0.716  -0.553  0.00  0.00    -0.077 A 
ATOM      3  C2  UNL d   1       0.040  -1.222  -1.846  0.00  0.00    -0.001 A 
ATOM      4  C3  UNL d   1      -0.095  -2.589  -2.095  0.00  0.00     0.003 A 
ATOM      5  C4  UNL d   1      -0.413  -3.461  -1.056  0.00  0.00    -0.005 A 
ATOM      6  C5  UNL d   1      -0.597  -2.967   0.234  0.00  0.00     0.003 A 
ATOM      7  C6  UNL d   1      -0.462  -1.600   0.484  0.00  0.00    -0.001 A 
ENDROOT
TORSDOF 0
ENDMDL
