MODEL 1
REMARK minimizedAffinity -4.64186907
REMARK minimizedRMSD -1
REMARK  0 active torsions:
REMARK  status: ('A' for Active; 'I' for Inactive)
ROOT
ATOM      1  C   UNL d   1       0.273   0.829  -0.159  0.00  0.00     0.078 C 
ATOM      2  C1  UNL d   1       0.123  -0.663  -0.132  0.00  0.00    -0.077 A 
ATOM      3  C2  UNL d   1       0.328  -1.430  -1.286  0.00  0.00    -0.001 A 
ATOM      4  C3  UNL d   1       0.176  -2.817  -1.248  0.00  0.00     0.003 A 
ATOM      5  C4  UNL d   1      -0.183  -3.449  -0.059  0.00  0.00    -0.005 A 
ATOM      6  C5  UNL d   1      -0.392  -2.694   1.093  0.00  0.00     0.003 A 
ATOM      7  C6  UNL d   1      -0.240  -1.307   1.057  0.00  0.00    -0.001 A 
ENDROOT
TORSDOF 0
ENDMDL
