MODEL 1
REMARK minimizedAffinity -5.60721779
REMARK minimizedRMSD -1
REMARK  0 active torsions:
REMARK  status: ('A' for Active; 'I' for Inactive)
ROOT
ATOM      1  C   UNL d   1       0.095  -2.329  -3.279  0.00  0.00     0.078 C 
ATOM      2  C1  UNL d   1       0.023  -2.460  -1.787  0.00  0.00    -0.077 A 
ATOM      3  C2  UNL d   1      -0.017  -1.327  -0.965  0.00  0.00    -0.001 A 
ATOM      4  C3  UNL d   1      -0.074  -1.464   0.423  0.00  0.00     0.003 A 
ATOM      5  C4  UNL d   1      -0.091  -2.732   1.001  0.00  0.00    -0.005 A 
ATOM      6  C5  UNL d   1      -0.050  -3.865   0.191  0.00  0.00     0.003 A 
ATOM      7  C6  UNL d   1       0.007  -3.730  -1.197  0.00  0.00    -0.001 A 
ENDROOT
TORSDOF 0
ENDMDL
