MODEL 1
REMARK minimizedAffinity -2.66082573
REMARK minimizedRMSD -1
REMARK  0 active torsions:
REMARK  status: ('A' for Active; 'I' for Inactive)
ROOT
ATOM      1  C   UNL d   1      -0.856   0.028   0.719  0.00  0.00     0.078 C 
ATOM      2  C1  UNL d   1       0.194   1.039   0.365  0.00  0.00    -0.077 A 
ATOM      3  C2  UNL d   1       1.457   0.638  -0.089  0.00  0.00    -0.001 A 
ATOM      4  C3  UNL d   1       2.428   1.589  -0.406  0.00  0.00     0.003 A 
ATOM      5  C4  UNL d   1       2.147   2.947  -0.271  0.00  0.00    -0.005 A 
ATOM      6  C5  UNL d   1       0.894   3.356   0.182  0.00  0.00     0.003 A 
ATOM      7  C6  UNL d   1      -0.078   2.406   0.499  0.00  0.00    -0.001 A 
ENDROOT
TORSDOF 0
ENDMDL
