MODEL 1
REMARK minimizedAffinity -5.24804974
REMARK minimizedRMSD -1
REMARK  0 active torsions:
REMARK  status: ('A' for Active; 'I' for Inactive)
ROOT
ATOM      1  C   UNL d   1      -0.323  -3.240  -2.300  0.00  0.00     0.078 C 
ATOM      2  C1  UNL d   1      -0.360  -2.013  -1.439  0.00  0.00    -0.077 A 
ATOM      3  C2  UNL d   1      -0.458  -2.112  -0.046  0.00  0.00    -0.001 A 
ATOM      4  C3  UNL d   1      -0.501  -0.961   0.742  0.00  0.00     0.003 A 
ATOM      5  C4  UNL d   1      -0.447   0.298   0.147  0.00  0.00    -0.005 A 
ATOM      6  C5  UNL d   1      -0.351   0.406  -1.239  0.00  0.00     0.003 A 
ATOM      7  C6  UNL d   1      -0.308  -0.743  -2.029  0.00  0.00    -0.001 A 
ENDROOT
TORSDOF 0
ENDMDL
