MODEL 1
REMARK minimizedAffinity -2.69742346
REMARK minimizedRMSD -1
REMARK  0 active torsions:
REMARK  status: ('A' for Active; 'I' for Inactive)
ROOT
ATOM      1  C   UNL d   1      -0.055  -3.836   0.300  0.00  0.00     0.078 C 
ATOM      2  C1  UNL d   1      -0.121  -2.389  -0.087  0.00  0.00    -0.077 A 
ATOM      3  C2  UNL d   1       0.394  -1.945  -1.311  0.00  0.00    -0.001 A 
ATOM      4  C3  UNL d   1       0.335  -0.593  -1.653  0.00  0.00     0.003 A 
ATOM      5  C4  UNL d   1      -0.239   0.326  -0.777  0.00  0.00    -0.005 A 
ATOM      6  C5  UNL d   1      -0.753  -0.106   0.444  0.00  0.00     0.003 A 
ATOM      7  C6  UNL d   1      -0.694  -1.457   0.788  0.00  0.00    -0.001 A 
ENDROOT
TORSDOF 0
ENDMDL
