MODEL 1
REMARK minimizedAffinity -4.49370289
REMARK minimizedRMSD -1
REMARK  0 active torsions:
REMARK  status: ('A' for Active; 'I' for Inactive)
ROOT
ATOM      1  C   UNL d   1       0.012  -2.367  -2.077  0.00  0.00     0.078 C 
ATOM      2  C1  UNL d   1      -0.305  -1.513  -0.885  0.00  0.00    -0.077 A 
ATOM      3  C2  UNL d   1      -0.460  -2.079   0.386  0.00  0.00    -0.001 A 
ATOM      4  C3  UNL d   1      -0.765  -1.274   1.485  0.00  0.00     0.003 A 
ATOM      5  C4  UNL d   1      -0.918   0.101   1.323  0.00  0.00    -0.005 A 
ATOM      6  C5  UNL d   1      -0.768   0.673   0.061  0.00  0.00     0.003 A 
ATOM      7  C6  UNL d   1      -0.463  -0.130  -1.038  0.00  0.00    -0.001 A 
ENDROOT
TORSDOF 0
ENDMDL
