MODEL 1
REMARK minimizedAffinity 20.0134983
REMARK minimizedRMSD -1
REMARK  1 active torsions:
REMARK  status: ('A' for Active; 'I' for Inactive)
REMARK    1  A    between atoms: C1_2  and  C2_3 
ROOT
ATOM      1  C2  UNL d   1       4.164  -0.383  -3.874  0.00  0.00    -0.077 A 
ATOM      2  C3  UNL d   1       4.584   0.790  -3.231  0.00  0.00     0.002 A 
ATOM      3  C4  UNL d   1       5.140   1.838  -3.967  0.00  0.00     0.002 A 
ATOM      4  C5  UNL d   1       5.277   1.726  -5.349  0.00  0.00    -0.004 A 
ATOM      5  C6  UNL d   1       4.864   0.562  -5.998  0.00  0.00     0.002 A 
ATOM      6  C7  UNL d   1       4.309  -0.487  -5.264  0.00  0.00     0.002 A 
ENDROOT
BRANCH   1   7
ATOM      7  C1  UNL d   1       3.520  -1.496  -3.089  0.00  0.00     0.055 C 
ATOM      8  C   UNL d   1       3.035  -2.611  -4.004  0.00  0.00     0.019 C 
ENDBRANCH   1   7
TORSDOF 1
ENDMDL
