MODEL 1
REMARK minimizedAffinity 10.0600061
REMARK minimizedRMSD -1
REMARK  1 active torsions:
REMARK  status: ('A' for Active; 'I' for Inactive)
REMARK    1  A    between atoms: C1_2  and  C2_3 
ROOT
ATOM      1  C2  UNL d   1       5.289   3.868  -3.570  0.00  0.00    -0.077 A 
ATOM      2  C3  UNL d   1       5.999   2.888  -4.278  0.00  0.00     0.002 A 
ATOM      3  C4  UNL d   1       5.364   2.126  -5.261  0.00  0.00     0.002 A 
ATOM      4  C5  UNL d   1       4.017   2.340  -5.547  0.00  0.00    -0.004 A 
ATOM      5  C6  UNL d   1       3.302   3.310  -4.848  0.00  0.00     0.002 A 
ATOM      6  C7  UNL d   1       3.935   4.072  -3.864  0.00  0.00     0.002 A 
ENDROOT
BRANCH   1   7
ATOM      7  C1  UNL d   1       5.985   4.723  -2.544  0.00  0.00     0.055 C 
ATOM      8  C   UNL d   1       4.991   5.570  -1.763  0.00  0.00     0.019 C 
ENDBRANCH   1   7
TORSDOF 1
ENDMDL
