MODEL 1
REMARK minimizedAffinity 11.4887094
REMARK minimizedRMSD -1
REMARK  1 active torsions:
REMARK  status: ('A' for Active; 'I' for Inactive)
REMARK    1  A    between atoms: C1_2  and  C2_3 
ROOT
ATOM      1  C2  UNL d   1       4.160  -2.702   4.811  0.00  0.00    -0.077 A 
ATOM      2  C3  UNL d   1       5.427  -2.625   5.407  0.00  0.00     0.002 A 
ATOM      3  C4  UNL d   1       5.999  -3.752   6.000  0.00  0.00     0.002 A 
ATOM      4  C5  UNL d   1       5.313  -4.965   6.000  0.00  0.00    -0.004 A 
ATOM      5  C6  UNL d   1       4.052  -5.052   5.412  0.00  0.00     0.002 A 
ATOM      6  C7  UNL d   1       3.478  -3.925   4.820  0.00  0.00     0.002 A 
ENDROOT
BRANCH   1   7
ATOM      7  C1  UNL d   1       3.564  -1.500   4.128  0.00  0.00     0.055 C 
ATOM      8  C   UNL d   1       3.381  -1.744   2.637  0.00  0.00     0.019 C 
ENDBRANCH   1   7
TORSDOF 1
ENDMDL
