MODEL 1
REMARK minimizedAffinity 16.9837608
REMARK minimizedRMSD -1
REMARK  1 active torsions:
REMARK  status: ('A' for Active; 'I' for Inactive)
REMARK    1  A    between atoms: C1_2  and  C2_3 
ROOT
ATOM      1  C2  UNL d   1      -4.092  -3.917  -4.466  0.00  0.00    -0.077 A 
ATOM      2  C3  UNL d   1      -3.278  -4.963  -4.926  0.00  0.00     0.002 A 
ATOM      3  C4  UNL d   1      -3.823  -5.999  -5.686  0.00  0.00     0.002 A 
ATOM      4  C5  UNL d   1      -5.181  -5.999  -5.996  0.00  0.00    -0.004 A 
ATOM      5  C6  UNL d   1      -5.999  -4.964  -5.542  0.00  0.00     0.002 A 
ATOM      6  C7  UNL d   1      -5.456  -3.928  -4.781  0.00  0.00     0.002 A 
ENDROOT
BRANCH   1   7
ATOM      7  C1  UNL d   1      -3.497  -2.773  -3.688  0.00  0.00     0.055 C 
ATOM      8  C   UNL d   1      -1.983  -2.729  -3.838  0.00  0.00     0.019 C 
ENDBRANCH   1   7
TORSDOF 1
ENDMDL
