MODEL 1
REMARK minimizedAffinity 16.0443096
REMARK minimizedRMSD -1
REMARK  1 active torsions:
REMARK  status: ('A' for Active; 'I' for Inactive)
REMARK    1  A    between atoms: C1_2  and  C2_3 
ROOT
ATOM      1  C2  UNL d   1       3.572   4.907  -1.160  0.00  0.00    -0.077 A 
ATOM      2  C3  UNL d   1       3.583   5.579  -2.390  0.00  0.00     0.002 A 
ATOM      3  C4  UNL d   1       4.793   5.922  -2.996  0.00  0.00     0.002 A 
ATOM      4  C5  UNL d   1       6.000   5.594  -2.382  0.00  0.00    -0.004 A 
ATOM      5  C6  UNL d   1       5.999   4.927  -1.157  0.00  0.00     0.002 A 
ATOM      6  C7  UNL d   1       4.790   4.585  -0.549  0.00  0.00     0.002 A 
ENDROOT
BRANCH   1   7
ATOM      7  C1  UNL d   1       2.268   4.493  -0.528  0.00  0.00     0.055 C 
ATOM      8  C   UNL d   1       2.011   5.256   0.762  0.00  0.00     0.019 C 
ENDBRANCH   1   7
TORSDOF 1
ENDMDL
