MODEL 1
REMARK minimizedAffinity 9.13114262
REMARK minimizedRMSD -1
REMARK  1 active torsions:
REMARK  status: ('A' for Active; 'I' for Inactive)
REMARK    1  A    between atoms: C1_2  and  C2_3 
ROOT
ATOM      1  C2  UNL d   1       1.765  -2.065  -2.631  0.00  0.00    -0.077 A 
ATOM      2  C3  UNL d   1       2.747  -1.406  -1.878  0.00  0.00     0.002 A 
ATOM      3  C4  UNL d   1       4.093  -1.502  -2.235  0.00  0.00     0.002 A 
ATOM      4  C5  UNL d   1       4.469  -2.252  -3.348  0.00  0.00    -0.004 A 
ATOM      5  C6  UNL d   1       3.500  -2.912  -4.102  0.00  0.00     0.002 A 
ATOM      6  C7  UNL d   1       2.154  -2.819  -3.746  0.00  0.00     0.002 A 
ENDROOT
BRANCH   1   7
ATOM      7  C1  UNL d   1       0.307  -1.923  -2.277  0.00  0.00     0.055 C 
ATOM      8  C   UNL d   1       0.084  -2.079  -0.779  0.00  0.00     0.019 C 
ENDBRANCH   1   7
TORSDOF 1
ENDMDL
