MODEL 1
REMARK minimizedAffinity 3.9452436
REMARK minimizedRMSD -1
REMARK  1 active torsions:
REMARK  status: ('A' for Active; 'I' for Inactive)
REMARK    1  A    between atoms: C1_2  and  C2_3 
ROOT
ATOM      1  C2  UNL d   1       5.838  -3.791  -4.468  0.00  0.00    -0.077 A 
ATOM      2  C3  UNL d   1       5.831  -2.994  -5.622  0.00  0.00     0.002 A 
ATOM      3  C4  UNL d   1       5.729  -1.605  -5.520  0.00  0.00     0.002 A 
ATOM      4  C5  UNL d   1       5.637  -1.002  -4.268  0.00  0.00    -0.004 A 
ATOM      5  C6  UNL d   1       5.641  -1.786  -3.115  0.00  0.00     0.002 A 
ATOM      6  C7  UNL d   1       5.742  -3.174  -3.214  0.00  0.00     0.002 A 
ENDROOT
BRANCH   1   7
ATOM      7  C1  UNL d   1       5.997  -5.285  -4.574  0.00  0.00     0.055 C 
ATOM      8  C   UNL d   1       5.291  -5.999  -3.430  0.00  0.00     0.019 C 
ENDBRANCH   1   7
TORSDOF 1
ENDMDL
