MODEL 1
REMARK minimizedAffinity -1.19740713
REMARK minimizedRMSD -1
REMARK  0 active torsions:
REMARK  status: ('A' for Active; 'I' for Inactive)
ROOT
ATOM      1  C1  DEN d   1       6.000  -0.647   3.217  0.00  0.00     0.130 A 
ATOM      2  C2  DEN d   1       4.983   0.362   2.934  0.00  0.00    -0.031 A 
ATOM      3  C3  DEN d   1       3.793   0.053   3.752  0.00  0.00     0.027 A 
ATOM      4  C4  DEN d   1       3.429  -1.877   5.423  0.00  0.00     0.027 A 
ATOM      5  C5  DEN d   1       4.002  -2.994   5.991  0.00  0.00    -0.003 A 
ATOM      6  C6  DEN d   1       5.258  -3.423   5.651  0.00  0.00     0.001 A 
ATOM      7  C7  DEN d   1       6.000  -2.704   4.751  0.00  0.00     0.017 A 
ATOM      8  C8  DEN d   1       5.426  -1.581   4.169  0.00  0.00    -0.094 A 
ATOM      9  C9  DEN d   1       4.160  -1.157   4.535  0.00  0.00    -0.072 A 
ENDROOT
TORSDOF 0
ENDMDL
