MODEL 1
REMARK minimizedAffinity -2.75261331
REMARK minimizedRMSD -1
REMARK  0 active torsions:
REMARK  status: ('A' for Active; 'I' for Inactive)
ROOT
ATOM      1  C1  DEN d   1      -0.871  -0.870   1.318  0.00  0.00     0.130 A 
ATOM      2  C2  DEN d   1      -0.899  -0.217   0.012  0.00  0.00    -0.031 A 
ATOM      3  C3  DEN d   1      -1.643   1.051   0.152  0.00  0.00     0.027 A 
ATOM      4  C4  DEN d   1      -2.745   2.062   2.253  0.00  0.00     0.027 A 
ATOM      5  C5  DEN d   1      -2.996   1.867   3.594  0.00  0.00    -0.003 A 
ATOM      6  C6  DEN d   1      -2.589   0.740   4.256  0.00  0.00     0.001 A 
ATOM      7  C7  DEN d   1      -1.869  -0.216   3.589  0.00  0.00     0.017 A 
ATOM      8  C8  DEN d   1      -1.619  -0.030   2.236  0.00  0.00    -0.094 A 
ATOM      9  C9  DEN d   1      -2.029   1.122   1.587  0.00  0.00    -0.072 A 
ENDROOT
TORSDOF 0
ENDMDL
