MODEL 1
REMARK minimizedAffinity 6.8643465
REMARK minimizedRMSD -1
REMARK  0 active torsions:
REMARK  status: ('A' for Active; 'I' for Inactive)
ROOT
ATOM      1  C1  DEN d   1       0.175   1.193  -1.149  0.00  0.00     0.130 A 
ATOM      2  C2  DEN d   1      -0.016   0.021  -0.299  0.00  0.00    -0.031 A 
ATOM      3  C3  DEN d   1       0.253  -1.182  -1.112  0.00  0.00     0.027 A 
ATOM      4  C4  DEN d   1       0.947  -1.343  -3.591  0.00  0.00     0.027 A 
ATOM      5  C5  DEN d   1       1.222  -0.617  -4.729  0.00  0.00    -0.003 A 
ATOM      6  C6  DEN d   1       1.135   0.749  -4.763  0.00  0.00     0.001 A 
ATOM      7  C7  DEN d   1       0.808   1.437  -3.624  0.00  0.00     0.017 A 
ATOM      8  C8  DEN d   1       0.522   0.712  -2.475  0.00  0.00    -0.094 A 
ATOM      9  C9  DEN d   1       0.627  -0.668  -2.458  0.00  0.00    -0.072 A 
ENDROOT
TORSDOF 0
ENDMDL
