MODEL 1
REMARK minimizedAffinity -5.20721388
REMARK minimizedRMSD -1
REMARK  0 active torsions:
REMARK  status: ('A' for Active; 'I' for Inactive)
ROOT
ATOM      1  C1  DEN d   1      -3.407   1.989   3.646  0.00  0.00     0.130 A 
ATOM      2  C2  DEN d   1      -3.151   1.220   4.861  0.00  0.00    -0.031 A 
ATOM      3  C3  DEN d   1      -3.125   2.160   6.000  0.00  0.00     0.027 A 
ATOM      4  C4  DEN d   1      -3.458   4.718   6.000  0.00  0.00     0.027 A 
ATOM      5  C5  DEN d   1      -3.691   5.820   5.207  0.00  0.00    -0.003 A 
ATOM      6  C6  DEN d   1      -3.811   5.727   3.845  0.00  0.00     0.001 A 
ATOM      7  C7  DEN d   1      -3.743   4.500   3.240  0.00  0.00     0.017 A 
ATOM      8  C8  DEN d   1      -3.501   3.386   4.032  0.00  0.00    -0.094 A 
ATOM      9  C9  DEN d   1      -3.395   3.499   5.408  0.00  0.00    -0.072 A 
ENDROOT
TORSDOF 0
ENDMDL
