MODEL 1
REMARK minimizedAffinity 9.19366837
REMARK minimizedRMSD -1
REMARK  0 active torsions:
REMARK  status: ('A' for Active; 'I' for Inactive)
ROOT
ATOM      1  C1  DEN d   1       1.733   0.774  -3.207  0.00  0.00     0.130 A 
ATOM      2  C2  DEN d   1       0.898  -0.305  -2.686  0.00  0.00    -0.031 A 
ATOM      3  C3  DEN d   1       0.870  -0.190  -1.214  0.00  0.00     0.027 A 
ATOM      4  C4  DEN d   1       2.029   1.547   0.300  0.00  0.00     0.027 A 
ATOM      5  C5  DEN d   1       2.854   2.650   0.316  0.00  0.00    -0.003 A 
ATOM      6  C6  DEN d   1       3.386   3.180  -0.830  0.00  0.00     0.001 A 
ATOM      7  C7  DEN d   1       3.063   2.634  -2.044  0.00  0.00     0.017 A 
ATOM      8  C8  DEN d   1       2.237   1.518  -2.067  0.00  0.00    -0.094 A 
ATOM      9  C9  DEN d   1       1.700   1.004  -0.899  0.00  0.00    -0.072 A 
ENDROOT
TORSDOF 0
ENDMDL
