MODEL 1
REMARK minimizedAffinity 4.45935583
REMARK minimizedRMSD -1
REMARK  0 active torsions:
REMARK  status: ('A' for Active; 'I' for Inactive)
ROOT
ATOM      1  C1  DEN d   1       6.000   0.900   4.555  0.00  0.00     0.130 A 
ATOM      2  C2  DEN d   1       5.999  -0.551   4.721  0.00  0.00    -0.031 A 
ATOM      3  C3  DEN d   1       5.042  -1.120   3.751  0.00  0.00     0.027 A 
ATOM      4  C4  DEN d   1       3.573   0.097   2.015  0.00  0.00     0.027 A 
ATOM      5  C5  DEN d   1       3.221   1.329   1.508  0.00  0.00    -0.003 A 
ATOM      6  C6  DEN d   1       3.741   2.496   2.001  0.00  0.00     0.001 A 
ATOM      7  C7  DEN d   1       4.676   2.454   3.001  0.00  0.00     0.017 A 
ATOM      8  C8  DEN d   1       5.031   1.217   3.521  0.00  0.00    -0.094 A 
ATOM      9  C9  DEN d   1       4.503   0.047   3.002  0.00  0.00    -0.072 A 
ENDROOT
TORSDOF 0
ENDMDL
