MODEL 1
REMARK minimizedAffinity 14.4687796
REMARK minimizedRMSD -1
REMARK  0 active torsions:
REMARK  status: ('A' for Active; 'I' for Inactive)
ROOT
ATOM      1  C1  DEN d   1      -0.823  -1.145   3.886  0.00  0.00     0.130 A 
ATOM      2  C2  DEN d   1      -2.242  -1.401   4.115  0.00  0.00    -0.031 A 
ATOM      3  C3  DEN d   1      -2.798  -2.020   2.895  0.00  0.00     0.027 A 
ATOM      4  C4  DEN d   1      -1.603  -2.609   0.686  0.00  0.00     0.027 A 
ATOM      5  C5  DEN d   1      -0.401  -2.568   0.015  0.00  0.00    -0.003 A 
ATOM      6  C6  DEN d   1       0.727  -2.025   0.570  0.00  0.00     0.001 A 
ATOM      7  C7  DEN d   1       0.688  -1.540   1.850  0.00  0.00     0.017 A 
ATOM      8  C8  DEN d   1      -0.522  -1.570   2.531  0.00  0.00    -0.094 A 
ATOM      9  C9  DEN d   1      -1.649  -2.135   1.957  0.00  0.00    -0.072 A 
ENDROOT
TORSDOF 0
ENDMDL
