MODEL 1
REMARK minimizedAffinity 12.4666014
REMARK minimizedRMSD -1
REMARK  0 active torsions:
REMARK  status: ('A' for Active; 'I' for Inactive)
ROOT
ATOM      1  C1  DEN d   1       0.495  -2.545  -1.832  0.00  0.00     0.130 A 
ATOM      2  C2  DEN d   1       0.884  -3.124  -3.115  0.00  0.00    -0.031 A 
ATOM      3  C3  DEN d   1       1.203  -2.017  -4.038  0.00  0.00     0.027 A 
ATOM      4  C4  DEN d   1       1.138   0.525  -3.606  0.00  0.00     0.027 A 
ATOM      5  C5  DEN d   1       0.858   1.498  -2.672  0.00  0.00    -0.003 A 
ATOM      6  C6  DEN d   1       0.408   1.196  -1.414  0.00  0.00     0.001 A 
ATOM      7  C7  DEN d   1       0.268  -0.115  -1.041  0.00  0.00     0.017 A 
ATOM      8  C8  DEN d   1       0.542  -1.102  -1.979  0.00  0.00    -0.094 A 
ATOM      9  C9  DEN d   1       1.007  -0.775  -3.242  0.00  0.00    -0.072 A 
ENDROOT
TORSDOF 0
ENDMDL
