MODEL 1
REMARK minimizedAffinity 1.73961961
REMARK minimizedRMSD -1
REMARK  0 active torsions:
REMARK  status: ('A' for Active; 'I' for Inactive)
ROOT
ATOM      1  C1  DEN d   1      -4.815   2.247   5.921  0.00  0.00     0.130 A 
ATOM      2  C2  DEN d   1      -3.824   1.308   5.403  0.00  0.00    -0.031 A 
ATOM      3  C3  DEN d   1      -2.688   2.089   4.873  0.00  0.00     0.027 A 
ATOM      4  C4  DEN d   1      -2.367   4.647   4.810  0.00  0.00     0.027 A 
ATOM      5  C5  DEN d   1      -2.943   5.859   5.122  0.00  0.00    -0.003 A 
ATOM      6  C6  DEN d   1      -4.187   5.952   5.687  0.00  0.00     0.001 A 
ATOM      7  C7  DEN d   1      -4.878   4.811   5.999  0.00  0.00     0.017 A 
ATOM      8  C8  DEN d   1      -4.307   3.586   5.680  0.00  0.00    -0.094 A 
ATOM      9  C9  DEN d   1      -3.043   3.513   5.120  0.00  0.00    -0.072 A 
ENDROOT
TORSDOF 0
ENDMDL
