MODEL 1
REMARK minimizedAffinity 3.14966035
REMARK minimizedRMSD -1
REMARK  0 active torsions:
REMARK  status: ('A' for Active; 'I' for Inactive)
ROOT
ATOM      1  C1  DEN d   1       3.430   4.145  -5.288  0.00  0.00     0.130 A 
ATOM      2  C2  DEN d   1       4.202   5.006  -4.396  0.00  0.00    -0.031 A 
ATOM      3  C3  DEN d   1       5.348   4.225  -3.888  0.00  0.00     0.027 A 
ATOM      4  C4  DEN d   1       6.000   1.781  -4.397  0.00  0.00     0.027 A 
ATOM      5  C5  DEN d   1       5.642   0.645  -5.088  0.00  0.00    -0.003 A 
ATOM      6  C6  DEN d   1       4.512   0.585  -5.860  0.00  0.00     0.001 A 
ATOM      7  C7  DEN d   1       3.724   1.697  -5.997  0.00  0.00     0.017 A 
ATOM      8  C8  DEN d   1       4.074   2.845  -5.298  0.00  0.00    -0.094 A 
ATOM      9  C9  DEN d   1       5.227   2.889  -4.531  0.00  0.00    -0.072 A 
ENDROOT
TORSDOF 0
ENDMDL
