MODEL 1
REMARK minimizedAffinity 10.1463432
REMARK minimizedRMSD -1
REMARK  0 active torsions:
REMARK  status: ('A' for Active; 'I' for Inactive)
ROOT
ATOM      1  C1  DEN d   1       4.722   1.929  -6.000  0.00  0.00     0.130 A 
ATOM      2  C2  DEN d   1       5.967   1.867  -5.239  0.00  0.00    -0.031 A 
ATOM      3  C3  DEN d   1       6.000   3.023  -4.321  0.00  0.00     0.027 A 
ATOM      4  C4  DEN d   1       4.250   4.891  -4.001  0.00  0.00     0.027 A 
ATOM      5  C5  DEN d   1       3.035   5.376  -4.431  0.00  0.00    -0.003 A 
ATOM      6  C6  DEN d   1       2.318   4.770  -5.429  0.00  0.00     0.001 A 
ATOM      7  C7  DEN d   1       2.790   3.618  -6.000  0.00  0.00     0.017 A 
ATOM      8  C8  DEN d   1       4.019   3.127  -5.577  0.00  0.00    -0.094 A 
ATOM      9  C9  DEN d   1       4.722   3.747  -4.559  0.00  0.00    -0.072 A 
ENDROOT
TORSDOF 0
ENDMDL
