MODEL 1
REMARK minimizedAffinity 14.1709595
REMARK minimizedRMSD -1
REMARK  0 active torsions:
REMARK  status: ('A' for Active; 'I' for Inactive)
ROOT
ATOM      1  C1  DEN d   1       1.884   3.134  -5.855  0.00  0.00     0.130 A 
ATOM      2  C2  DEN d   1       1.409   4.512  -5.951  0.00  0.00    -0.031 A 
ATOM      3  C3  DEN d   1       2.502   5.403  -5.512  0.00  0.00     0.027 A 
ATOM      4  C4  DEN d   1       4.873   4.786  -4.705  0.00  0.00     0.027 A 
ATOM      5  C5  DEN d   1       5.733   3.743  -4.442  0.00  0.00    -0.003 A 
ATOM      6  C6  DEN d   1       5.363   2.434  -4.599  0.00  0.00     0.001 A 
ATOM      7  C7  DEN d   1       4.113   2.134  -5.073  0.00  0.00     0.017 A 
ATOM      8  C8  DEN d   1       3.237   3.180  -5.333  0.00  0.00    -0.094 A 
ATOM      9  C9  DEN d   1       3.635   4.497  -5.180  0.00  0.00    -0.072 A 
ENDROOT
TORSDOF 0
ENDMDL
