MODEL 1
REMARK minimizedAffinity 11.6626997
REMARK minimizedRMSD -1
REMARK  0 active torsions:
REMARK  status: ('A' for Active; 'I' for Inactive)
ROOT
ATOM      1  C1  DEN d   1      -3.629   5.993   5.999  0.00  0.00     0.130 A 
ATOM      2  C2  DEN d   1      -5.089   5.978   5.988  0.00  0.00    -0.031 A 
ATOM      3  C3  DEN d   1      -5.534   5.884   4.583  0.00  0.00     0.027 A 
ATOM      4  C4  DEN d   1      -4.111   5.757   2.436  0.00  0.00     0.027 A 
ATOM      5  C5  DEN d   1      -2.827   5.750   1.939  0.00  0.00    -0.003 A 
ATOM      6  C6  DEN d   1      -1.729   5.856   2.752  0.00  0.00     0.001 A 
ATOM      7  C7  DEN d   1      -1.894   5.930   4.109  0.00  0.00     0.017 A 
ATOM      8  C8  DEN d   1      -3.187   5.945   4.617  0.00  0.00    -0.094 A 
ATOM      9  C9  DEN d   1      -4.283   5.824   3.780  0.00  0.00    -0.072 A 
ENDROOT
TORSDOF 0
ENDMDL
