MODEL 1
REMARK minimizedAffinity -4.19460201
REMARK minimizedRMSD -1
REMARK  0 active torsions:
REMARK  status: ('A' for Active; 'I' for Inactive)
ROOT
ATOM      1  C   UNL d   1      -0.779   1.562  -2.250  0.00  0.00    -0.002 A 
ATOM      2  C1  UNL d   1      -0.544   2.879  -1.883  0.00  0.00     0.010 A 
ATOM      3  C2  UNL d   1      -1.581   3.814  -1.890  0.00  0.00     0.041 A 
ATOM      4  C3  UNL d   1      -2.871   3.398  -2.274  0.00  0.00    -0.075 A 
ATOM      5  S   UNL d   1      -4.294   4.368  -2.358  0.00  0.00     0.015 SA
ATOM      6  C4  UNL d   1      -5.247   3.056  -2.882  0.00  0.00     0.022 A 
ATOM      7  C5  UNL d   1      -4.514   1.899  -2.997  0.00  0.00     0.026 A 
ATOM      8  C6  UNL d   1      -3.132   2.077  -2.648  0.00  0.00    -0.082 A 
ATOM      9  C7  UNL d   1      -2.060   1.153  -2.631  0.00  0.00     0.045 A 
ENDROOT
TORSDOF 0
ENDMDL
