MODEL 1
REMARK minimizedAffinity -1.14931655
REMARK minimizedRMSD -1
REMARK  0 active torsions:
REMARK  status: ('A' for Active; 'I' for Inactive)
ROOT
ATOM      1  C   UNL d   1      -1.481   3.587  -3.644  0.00  0.00    -0.002 A 
ATOM      2  C1  UNL d   1      -2.084   3.693  -2.399  0.00  0.00     0.010 A 
ATOM      3  C2  UNL d   1      -1.870   2.718  -1.422  0.00  0.00     0.041 A 
ATOM      4  C3  UNL d   1      -1.030   1.627  -1.720  0.00  0.00    -0.075 A 
ATOM      5  S   UNL d   1      -0.623   0.314  -0.679  0.00  0.00     0.015 SA
ATOM      6  C4  UNL d   1       0.362  -0.416  -1.862  0.00  0.00     0.022 A 
ATOM      7  C5  UNL d   1       0.390   0.310  -3.029  0.00  0.00     0.026 A 
ATOM      8  C6  UNL d   1      -0.411   1.499  -2.966  0.00  0.00    -0.082 A 
ATOM      9  C7  UNL d   1      -0.649   2.503  -3.936  0.00  0.00     0.045 A 
ENDROOT
TORSDOF 0
ENDMDL
