MODEL 1
REMARK minimizedAffinity 2.74170685
REMARK minimizedRMSD -1
REMARK  0 active torsions:
REMARK  status: ('A' for Active; 'I' for Inactive)
ROOT
ATOM      1  C   UNL d   1       0.150   2.435  -2.313  0.00  0.00    -0.002 A 
ATOM      2  C1  UNL d   1       0.230   3.757  -2.727  0.00  0.00     0.010 A 
ATOM      3  C2  UNL d   1      -0.929   4.495  -2.974  0.00  0.00     0.041 A 
ATOM      4  C3  UNL d   1      -2.182   3.877  -2.794  0.00  0.00    -0.075 A 
ATOM      5  S   UNL d   1      -3.735   4.586  -3.035  0.00  0.00     0.015 SA
ATOM      6  C4  UNL d   1      -4.542   3.151  -2.592  0.00  0.00     0.022 A 
ATOM      7  C5  UNL d   1      -3.663   2.146  -2.266  0.00  0.00     0.026 A 
ATOM      8  C6  UNL d   1      -2.288   2.548  -2.376  0.00  0.00    -0.082 A 
ATOM      9  C7  UNL d   1      -1.095   1.825  -2.135  0.00  0.00     0.045 A 
ENDROOT
TORSDOF 0
ENDMDL
