MODEL 1
REMARK minimizedAffinity -3.65871167
REMARK minimizedRMSD -1
REMARK  0 active torsions:
REMARK  status: ('A' for Active; 'I' for Inactive)
ROOT
ATOM      1  C   UNL d   1       0.676  -0.418   2.797  0.00  0.00    -0.002 A 
ATOM      2  C1  UNL d   1       1.090   0.886   2.562  0.00  0.00     0.010 A 
ATOM      3  C2  UNL d   1       0.741   1.539   1.378  0.00  0.00     0.041 A 
ATOM      4  C3  UNL d   1      -0.040   0.854   0.427  0.00  0.00    -0.075 A 
ATOM      5  S   UNL d   1      -0.589   1.454  -1.094  0.00  0.00     0.015 SA
ATOM      6  C4  UNL d   1      -1.386  -0.005  -1.467  0.00  0.00     0.022 A 
ATOM      7  C5  UNL d   1      -1.247  -0.939  -0.467  0.00  0.00     0.026 A 
ATOM      8  C6  UNL d   1      -0.470  -0.459   0.641  0.00  0.00    -0.082 A 
ATOM      9  C7  UNL d   1      -0.098  -1.094   1.851  0.00  0.00     0.045 A 
ENDROOT
TORSDOF 0
ENDMDL
