MODEL 1
REMARK minimizedAffinity -2.7709198
REMARK minimizedRMSD -1
REMARK  3 active torsions:
REMARK  status: ('A' for Active; 'I' for Inactive)
REMARK    1  A    between atoms: C3'_2  and  C2'_3 
REMARK    2  A    between atoms: C2'_3  and  C1'_4 
REMARK    3  A    between atoms: C1'_4  and  C1_5 
ROOT
ATOM      1  C1  N4B d   1       0.372  -1.261  -0.730  0.00  0.00    -0.075 A 
ATOM      2  C2  N4B d   1      -0.271  -2.506  -0.553  0.00  0.00     0.002 A 
ATOM      3  C3  N4B d   1      -0.145  -3.486  -1.507  0.00  0.00     0.002 A 
ATOM      4  C4  N4B d   1       0.601  -3.238  -2.650  0.00  0.00    -0.004 A 
ATOM      5  C5  N4B d   1       1.240  -2.043  -2.801  0.00  0.00     0.002 A 
ATOM      6  C6  N4B d   1       1.125  -1.050  -1.848  0.00  0.00     0.002 A 
ENDROOT
BRANCH   1   7
ATOM      7  C1' N4B d   1       0.193  -0.129   0.245  0.00  0.00     0.057 C 
BRANCH   7   8
ATOM      8  C2' N4B d   1      -0.460  -0.662   1.517  0.00  0.00     0.009 C 
BRANCH   8   9
ATOM      9  C3' N4B d   1      -1.326   0.387   2.193  0.00  0.00     0.004 C 
ATOM     10  C4' N4B d   1      -0.689   1.745   2.207  0.00  0.00     0.003 C 
ENDBRANCH   8   9
ENDBRANCH   7   8
ENDBRANCH   1   7
TORSDOF 3
ENDMDL
