MODEL 1
REMARK minimizedAffinity -1.65562117
REMARK minimizedRMSD -1
REMARK  3 active torsions:
REMARK  status: ('A' for Active; 'I' for Inactive)
REMARK    1  A    between atoms: C3'_2  and  C2'_3 
REMARK    2  A    between atoms: C2'_3  and  C1'_4 
REMARK    3  A    between atoms: C1'_4  and  C1_5 
ROOT
ATOM      1  C1  N4B d   1       0.054  -0.575   0.079  0.00  0.00    -0.075 A 
ATOM      2  C2  N4B d   1      -0.732  -1.276   1.019  0.00  0.00     0.002 A 
ATOM      3  C3  N4B d   1      -1.497  -0.585   1.926  0.00  0.00     0.002 A 
ATOM      4  C4  N4B d   1      -1.477   0.802   1.924  0.00  0.00    -0.004 A 
ATOM      5  C5  N4B d   1      -0.734   1.472   0.996  0.00  0.00     0.002 A 
ATOM      6  C6  N4B d   1       0.036   0.789   0.075  0.00  0.00     0.002 A 
ENDROOT
BRANCH   1   7
ATOM      7  C1' N4B d   1       0.973  -1.288  -0.877  0.00  0.00     0.057 C 
BRANCH   7   8
ATOM      8  C2' N4B d   1       0.145  -2.184  -1.793  0.00  0.00     0.009 C 
BRANCH   8   9
ATOM      9  C3' N4B d   1       0.552  -3.643  -1.679  0.00  0.00     0.004 C 
ATOM     10  C4' N4B d   1       0.504  -4.364  -2.993  0.00  0.00     0.003 C 
ENDBRANCH   8   9
ENDBRANCH   7   8
ENDBRANCH   1   7
TORSDOF 3
ENDMDL
