MODEL 1
REMARK minimizedAffinity -1.06639779
REMARK minimizedRMSD -1
REMARK  3 active torsions:
REMARK  status: ('A' for Active; 'I' for Inactive)
REMARK    1  A    between atoms: C3'_2  and  C2'_3 
REMARK    2  A    between atoms: C2'_3  and  C1'_4 
REMARK    3  A    between atoms: C1'_4  and  C1_5 
ROOT
ATOM      1  C1  N4B d   1      -0.109  -0.224   0.064  0.00  0.00    -0.075 A 
ATOM      2  C2  N4B d   1      -0.722  -1.165   0.920  0.00  0.00     0.002 A 
ATOM      3  C3  N4B d   1      -1.198  -0.770   2.146  0.00  0.00     0.002 A 
ATOM      4  C4  N4B d   1      -1.056   0.551   2.544  0.00  0.00    -0.004 A 
ATOM      5  C5  N4B d   1      -0.486   1.459   1.700  0.00  0.00     0.002 A 
ATOM      6  C6  N4B d   1      -0.007   1.077   0.464  0.00  0.00     0.002 A 
ENDROOT
BRANCH   1   7
ATOM      7  C1' N4B d   1       0.504  -0.626  -1.250  0.00  0.00     0.057 C 
BRANCH   7   8
ATOM      8  C2' N4B d   1       1.085  -2.030  -1.122  0.00  0.00     0.009 C 
BRANCH   8   9
ATOM      9  C3' N4B d   1       0.725  -2.905  -2.310  0.00  0.00     0.004 C 
ATOM     10  C4' N4B d   1      -0.002  -4.155  -1.913  0.00  0.00     0.003 C 
ENDBRANCH   8   9
ENDBRANCH   7   8
ENDBRANCH   1   7
TORSDOF 3
ENDMDL
