MODEL 1
REMARK minimizedAffinity -1.97458231
REMARK minimizedRMSD -1
REMARK  3 active torsions:
REMARK  status: ('A' for Active; 'I' for Inactive)
REMARK    1  A    between atoms: C3'_2  and  C2'_3 
REMARK    2  A    between atoms: C2'_3  and  C1'_4 
REMARK    3  A    between atoms: C1'_4  and  C1_5 
ROOT
ATOM      1  C1  N4B d   1       0.326  -1.476  -0.974  0.00  0.00    -0.075 A 
ATOM      2  C2  N4B d   1       1.421  -2.265  -0.559  0.00  0.00     0.002 A 
ATOM      3  C3  N4B d   1       1.687  -3.456  -1.188  0.00  0.00     0.002 A 
ATOM      4  C4  N4B d   1       0.863  -3.887  -2.217  0.00  0.00    -0.004 A 
ATOM      5  C5  N4B d   1      -0.178  -3.107  -2.629  0.00  0.00     0.002 A 
ATOM      6  C6  N4B d   1      -0.453  -1.905  -2.009  0.00  0.00     0.002 A 
ENDROOT
BRANCH   1   7
ATOM      7  C1' N4B d   1      -0.054  -0.207  -0.261  0.00  0.00     0.057 C 
BRANCH   7   8
ATOM      8  C2' N4B d   1      -0.432  -0.537   1.180  0.00  0.00     0.009 C 
BRANCH   8   9
ATOM      9  C3' N4B d   1       0.111   0.490   2.159  0.00  0.00     0.004 C 
ATOM     10  C4' N4B d   1      -0.892   1.551   2.504  0.00  0.00     0.003 C 
ENDBRANCH   8   9
ENDBRANCH   7   8
ENDBRANCH   1   7
TORSDOF 3
ENDMDL
