MODEL 1
REMARK minimizedAffinity -3.47414827
REMARK minimizedRMSD -1
REMARK  3 active torsions:
REMARK  status: ('A' for Active; 'I' for Inactive)
REMARK    1  A    between atoms: C3'_2  and  C2'_3 
REMARK    2  A    between atoms: C2'_3  and  C1'_4 
REMARK    3  A    between atoms: C1'_4  and  C1_5 
ROOT
ATOM      1  C1  N4B d   1       0.730  -1.167  -1.466  0.00  0.00    -0.075 A 
ATOM      2  C2  N4B d   1       1.358  -2.198  -0.733  0.00  0.00     0.002 A 
ATOM      3  C3  N4B d   1       1.561  -3.427  -1.312  0.00  0.00     0.002 A 
ATOM      4  C4  N4B d   1       1.130  -3.652  -2.611  0.00  0.00    -0.004 A 
ATOM      5  C5  N4B d   1       0.548  -2.643  -3.321  0.00  0.00     0.002 A 
ATOM      6  C6  N4B d   1       0.341  -1.402  -2.753  0.00  0.00     0.002 A 
ENDROOT
BRANCH   1   7
ATOM      7  C1' N4B d   1       0.410   0.166  -0.847  0.00  0.00     0.057 C 
BRANCH   7   8
ATOM      8  C2' N4B d   1      -0.897   0.054  -0.068  0.00  0.00     0.009 C 
BRANCH   8   9
ATOM      9  C3' N4B d   1      -0.661  -0.007   1.432  0.00  0.00     0.004 C 
ATOM     10  C4' N4B d   1      -1.338   1.108   2.172  0.00  0.00     0.003 C 
ENDBRANCH   8   9
ENDBRANCH   7   8
ENDBRANCH   1   7
TORSDOF 3
ENDMDL
