MODEL 1
REMARK minimizedAffinity -1.79599857
REMARK minimizedRMSD -1
REMARK  3 active torsions:
REMARK  status: ('A' for Active; 'I' for Inactive)
REMARK    1  A    between atoms: C3'_2  and  C2'_3 
REMARK    2  A    between atoms: C2'_3  and  C1'_4 
REMARK    3  A    between atoms: C1'_4  and  C1_5 
ROOT
ATOM      1  C1  N4B d   1      -0.427   0.258   1.114  0.00  0.00    -0.075 A 
ATOM      2  C2  N4B d   1       0.310   0.890   0.089  0.00  0.00     0.002 A 
ATOM      3  C3  N4B d   1       1.071   0.139  -0.773  0.00  0.00     0.002 A 
ATOM      4  C4  N4B d   1       1.126  -1.238  -0.617  0.00  0.00    -0.004 A 
ATOM      5  C5  N4B d   1       0.391  -1.843   0.360  0.00  0.00     0.002 A 
ATOM      6  C6  N4B d   1      -0.382  -1.101   1.231  0.00  0.00     0.002 A 
ENDROOT
BRANCH   1   7
ATOM      7  C1' N4B d   1      -1.205   1.045   2.133  0.00  0.00     0.057 C 
BRANCH   7   8
ATOM      8  C2' N4B d   1      -0.479   2.357   2.414  0.00  0.00     0.009 C 
BRANCH   8   9
ATOM      9  C3' N4B d   1      -1.095   3.520   1.657  0.00  0.00     0.004 C 
ATOM     10  C4' N4B d   1      -0.115   4.209   0.754  0.00  0.00     0.003 C 
ENDBRANCH   8   9
ENDBRANCH   7   8
ENDBRANCH   1   7
TORSDOF 3
ENDMDL
