MODEL 1
REMARK minimizedAffinity -2.53651047
REMARK minimizedRMSD -1
REMARK  3 active torsions:
REMARK  status: ('A' for Active; 'I' for Inactive)
REMARK    1  A    between atoms: C3'_2  and  C2'_3 
REMARK    2  A    between atoms: C2'_3  and  C1'_4 
REMARK    3  A    between atoms: C1'_4  and  C1_5 
ROOT
ATOM      1  C1  N4B d   1       0.088  -0.211   0.227  0.00  0.00    -0.075 A 
ATOM      2  C2  N4B d   1      -0.827  -0.583   1.235  0.00  0.00     0.002 A 
ATOM      3  C3  N4B d   1      -1.407   0.379   2.026  0.00  0.00     0.002 A 
ATOM      4  C4  N4B d   1      -1.074   1.712   1.839  0.00  0.00    -0.004 A 
ATOM      5  C5  N4B d   1      -0.208   2.066   0.846  0.00  0.00     0.002 A 
ATOM      6  C6  N4B d   1       0.379   1.110   0.042  0.00  0.00     0.002 A 
ENDROOT
BRANCH   1   7
ATOM      7  C1' N4B d   1       0.813  -1.234  -0.605  0.00  0.00     0.057 C 
BRANCH   7   8
ATOM      8  C2' N4B d   1      -0.127  -1.755  -1.688  0.00  0.00     0.009 C 
BRANCH   8   9
ATOM      9  C3' N4B d   1       0.095  -3.231  -1.971  0.00  0.00     0.004 C 
ATOM     10  C4' N4B d   1       1.103  -3.853  -1.051  0.00  0.00     0.003 C 
ENDBRANCH   8   9
ENDBRANCH   7   8
ENDBRANCH   1   7
TORSDOF 3
ENDMDL
