MODEL 1
REMARK minimizedAffinity -3.3329668
REMARK minimizedRMSD -1
REMARK  3 active torsions:
REMARK  status: ('A' for Active; 'I' for Inactive)
REMARK    1  A    between atoms: C3'_2  and  C2'_3 
REMARK    2  A    between atoms: C2'_3  and  C1'_4 
REMARK    3  A    between atoms: C1'_4  and  C1_5 
ROOT
ATOM      1  C1  N4B d   1      -0.231   1.008   0.768  0.00  0.00    -0.075 A 
ATOM      2  C2  N4B d   1       0.369   1.697  -0.309  0.00  0.00     0.002 A 
ATOM      3  C3  N4B d   1       0.355   3.069  -0.339  0.00  0.00     0.002 A 
ATOM      4  C4  N4B d   1      -0.266   3.772   0.682  0.00  0.00    -0.004 A 
ATOM      5  C5  N4B d   1      -0.821   3.100   1.732  0.00  0.00     0.002 A 
ATOM      6  C6  N4B d   1      -0.810   1.720   1.778  0.00  0.00     0.002 A 
ENDROOT
BRANCH   1   7
ATOM      7  C1' N4B d   1      -0.316  -0.494   0.802  0.00  0.00     0.057 C 
BRANCH   7   8
ATOM      8  C2' N4B d   1      -0.641  -1.008  -0.597  0.00  0.00     0.009 C 
BRANCH   8   9
ATOM      9  C3' N4B d   1       0.503  -1.815  -1.186  0.00  0.00     0.004 C 
ATOM     10  C4' N4B d   1       0.043  -2.829  -2.190  0.00  0.00     0.003 C 
ENDBRANCH   8   9
ENDBRANCH   7   8
ENDBRANCH   1   7
TORSDOF 3
ENDMDL
