MODEL 1
REMARK minimizedAffinity -3.21733284
REMARK minimizedRMSD -1
REMARK  0 active torsions:
REMARK  status: ('A' for Active; 'I' for Inactive)
ROOT
ATOM      1  C   UNL d   1      -0.864  -0.129   1.980  0.00  0.00     0.020 A 
ATOM      2  C1  UNL d   1       0.208  -0.781   2.589  0.00  0.00     0.020 A 
ATOM      3  C2  UNL d   1       1.222  -1.337   1.806  0.00  0.00     0.034 A 
ATOM      4  C3  UNL d   1       1.167  -1.243   0.411  0.00  0.00     0.017 A 
ATOM      5  C4  UNL d   1       0.091  -0.589  -0.199  0.00  0.00     0.017 A 
ATOM      6  C5  UNL d   1      -0.922  -0.033   0.589  0.00  0.00     0.034 A 
ATOM      7 Cl   UNL d   1      -0.047  -0.432  -1.915  0.00  0.00    -0.070 Cl
ATOM      8 Cl1  UNL d   1       2.456  -1.953  -0.494  0.00  0.00    -0.070 Cl
ENDROOT
TORSDOF 0
ENDMDL
