MODEL 1
REMARK minimizedAffinity -4.63961315
REMARK minimizedRMSD -1
REMARK  0 active torsions:
REMARK  status: ('A' for Active; 'I' for Inactive)
ROOT
ATOM      1  C   UNL d   1       0.876  -0.807   2.709  0.00  0.00     0.020 A 
ATOM      2  C1  UNL d   1       1.726  -0.311   1.721  0.00  0.00     0.020 A 
ATOM      3  C2  UNL d   1       1.205   0.086   0.488  0.00  0.00     0.034 A 
ATOM      4  C3  UNL d   1      -0.169  -0.012   0.239  0.00  0.00     0.017 A 
ATOM      5  C4  UNL d   1      -1.021  -0.510   1.232  0.00  0.00     0.017 A 
ATOM      6  C5  UNL d   1      -0.494  -0.906   2.465  0.00  0.00     0.034 A 
ATOM      7 Cl   UNL d   1      -2.727  -0.661   1.000  0.00  0.00    -0.070 Cl
ATOM      8 Cl1  UNL d   1      -0.744   0.497  -1.308  0.00  0.00    -0.070 Cl
ENDROOT
TORSDOF 0
ENDMDL
