MODEL 1
REMARK minimizedAffinity -4.90777159
REMARK minimizedRMSD -1
REMARK  0 active torsions:
REMARK  status: ('A' for Active; 'I' for Inactive)
ROOT
ATOM      1  C   UNL d   1       1.366  -1.408   3.188  0.00  0.00     0.020 A 
ATOM      2  C1  UNL d   1       0.276  -0.603   2.861  0.00  0.00     0.020 A 
ATOM      3  C2  UNL d   1       0.072  -0.208   1.537  0.00  0.00     0.034 A 
ATOM      4  C3  UNL d   1       0.959  -0.619   0.536  0.00  0.00     0.017 A 
ATOM      5  C4  UNL d   1       2.053  -1.427   0.865  0.00  0.00     0.017 A 
ATOM      6  C5  UNL d   1       2.253  -1.820   2.192  0.00  0.00     0.034 A 
ATOM      7 Cl   UNL d   1       3.191  -1.974  -0.316  0.00  0.00    -0.070 Cl
ATOM      8 Cl1  UNL d   1       0.646  -0.093  -1.080  0.00  0.00    -0.070 Cl
ENDROOT
TORSDOF 0
ENDMDL
