MODEL 1
REMARK minimizedAffinity -3.73528314
REMARK minimizedRMSD -1
REMARK  0 active torsions:
REMARK  status: ('A' for Active; 'I' for Inactive)
ROOT
ATOM      1  C   UNL d   1       0.088  -0.451   2.929  0.00  0.00     0.020 A 
ATOM      2  C1  UNL d   1      -1.104   0.114   2.476  0.00  0.00     0.020 A 
ATOM      3  C2  UNL d   1      -1.282   0.369   1.115  0.00  0.00     0.034 A 
ATOM      4  C3  UNL d   1      -0.268   0.058   0.201  0.00  0.00     0.017 A 
ATOM      5  C4  UNL d   1       0.927  -0.510   0.657  0.00  0.00     0.017 A 
ATOM      6  C5  UNL d   1       1.101  -0.762   2.021  0.00  0.00     0.034 A 
ATOM      7 Cl   UNL d   1       2.224  -0.921  -0.409  0.00  0.00    -0.070 Cl
ATOM      8 Cl1  UNL d   1      -0.557   0.399  -1.468  0.00  0.00    -0.070 Cl
ENDROOT
TORSDOF 0
ENDMDL
