MODEL 1
REMARK minimizedAffinity -3.29815578
REMARK minimizedRMSD -1
REMARK  0 active torsions:
REMARK  status: ('A' for Active; 'I' for Inactive)
ROOT
ATOM      1  C   UNL d   1      -1.170   0.062   0.821  0.00  0.00     0.020 A 
ATOM      2  C1  UNL d   1      -0.691   0.050  -0.488  0.00  0.00     0.020 A 
ATOM      3  C2  UNL d   1       0.638  -0.294  -0.742  0.00  0.00     0.034 A 
ATOM      4  C3  UNL d   1       1.493  -0.628   0.314  0.00  0.00     0.017 A 
ATOM      5  C4  UNL d   1       1.011  -0.616   1.628  0.00  0.00     0.017 A 
ATOM      6  C5  UNL d   1      -0.321  -0.271   1.877  0.00  0.00     0.034 A 
ATOM      7 Cl   UNL d   1       2.006  -1.016   2.984  0.00  0.00    -0.070 Cl
ATOM      8 Cl1  UNL d   1       3.125  -1.044  -0.073  0.00  0.00    -0.070 Cl
ENDROOT
TORSDOF 0
ENDMDL
