MODEL 1
REMARK minimizedAffinity -6.20933294
REMARK minimizedRMSD -1
REMARK  0 active torsions:
REMARK  status: ('A' for Active; 'I' for Inactive)
ROOT
ATOM      1  C   UNL d   1       2.499  -1.716   1.651  0.00  0.00     0.020 A 
ATOM      2  C1  UNL d   1       1.727  -1.446   2.781  0.00  0.00     0.020 A 
ATOM      3  C2  UNL d   1       0.470  -0.854   2.643  0.00  0.00     0.034 A 
ATOM      4  C3  UNL d   1      -0.019  -0.529   1.372  0.00  0.00     0.017 A 
ATOM      5  C4  UNL d   1       0.756  -0.800   0.239  0.00  0.00     0.017 A 
ATOM      6  C5  UNL d   1       2.014  -1.394   0.383  0.00  0.00     0.034 A 
ATOM      7 Cl   UNL d   1       0.220  -0.429  -1.362  0.00  0.00    -0.070 Cl
ATOM      8 Cl1  UNL d   1      -1.582   0.201   1.275  0.00  0.00    -0.070 Cl
ENDROOT
TORSDOF 0
ENDMDL
