MODEL 1
REMARK minimizedAffinity -4.31098032
REMARK minimizedRMSD -1
REMARK  0 active torsions:
REMARK  status: ('A' for Active; 'I' for Inactive)
ROOT
ATOM      1  C   UNL d   1      -0.078  -0.058   2.284  0.00  0.00     0.020 A 
ATOM      2  C1  UNL d   1       0.962  -0.828   2.804  0.00  0.00     0.020 A 
ATOM      3  C2  UNL d   1       1.786  -1.559   1.946  0.00  0.00     0.034 A 
ATOM      4  C3  UNL d   1       1.572  -1.522   0.564  0.00  0.00     0.017 A 
ATOM      5  C4  UNL d   1       0.528  -0.749   0.042  0.00  0.00     0.017 A 
ATOM      6  C5  UNL d   1      -0.294  -0.019   0.906  0.00  0.00     0.034 A 
ATOM      7 Cl   UNL d   1       0.202  -0.654  -1.652  0.00  0.00    -0.070 Cl
ATOM      8 Cl1  UNL d   1       2.630  -2.451  -0.438  0.00  0.00    -0.070 Cl
ENDROOT
TORSDOF 0
ENDMDL
