MODEL 1
REMARK minimizedAffinity -3.96376729
REMARK minimizedRMSD -1
REMARK  0 active torsions:
REMARK  status: ('A' for Active; 'I' for Inactive)
ROOT
ATOM      1  C   UNL d   1      -1.224   0.703  -0.842  0.00  0.00     0.020 A 
ATOM      2  C1  UNL d   1      -1.734   0.744   0.455  0.00  0.00     0.020 A 
ATOM      3  C2  UNL d   1      -1.084   0.058   1.483  0.00  0.00     0.034 A 
ATOM      4  C3  UNL d   1       0.080  -0.672   1.216  0.00  0.00     0.017 A 
ATOM      5  C4  UNL d   1       0.591  -0.713  -0.087  0.00  0.00     0.017 A 
ATOM      6  C5  UNL d   1      -0.064  -0.024  -1.112  0.00  0.00     0.034 A 
ATOM      7 Cl   UNL d   1       2.023  -1.593  -0.493  0.00  0.00    -0.070 Cl
ATOM      8 Cl1  UNL d   1       0.832  -1.496   2.535  0.00  0.00    -0.070 Cl
ENDROOT
TORSDOF 0
ENDMDL
