MODEL 1
REMARK minimizedAffinity -2.39292169
REMARK minimizedRMSD -1
REMARK  0 active torsions:
REMARK  status: ('A' for Active; 'I' for Inactive)
ROOT
ATOM      1  C   UNL d   1      -1.076   0.040   1.417  0.00  0.00     0.020 A 
ATOM      2  C1  UNL d   1      -0.405  -0.556   2.484  0.00  0.00     0.020 A 
ATOM      3  C2  UNL d   1       0.714  -1.356   2.245  0.00  0.00     0.034 A 
ATOM      4  C3  UNL d   1       1.166  -1.562   0.937  0.00  0.00     0.017 A 
ATOM      5  C4  UNL d   1       0.492  -0.963  -0.133  0.00  0.00     0.017 A 
ATOM      6  C5  UNL d   1      -0.628  -0.163   0.111  0.00  0.00     0.034 A 
ATOM      7 Cl   UNL d   1       0.990  -1.170  -1.775  0.00  0.00    -0.070 Cl
ATOM      8 Cl1  UNL d   1       2.557  -2.562   0.715  0.00  0.00    -0.070 Cl
ENDROOT
TORSDOF 0
ENDMDL
