MODEL 1
REMARK minimizedAffinity -3.65921926
REMARK minimizedRMSD -1
REMARK  0 active torsions:
REMARK  status: ('A' for Active; 'I' for Inactive)
ROOT
ATOM      1  C4' PXY d   1      -3.268   4.142  -3.302  0.00  0.00     0.077 C 
ATOM      2  C1' PXY d   1       0.092   2.675   1.167  0.00  0.00     0.077 C 
ATOM      3  C1  PXY d   1      -0.779   3.060  -0.013  0.00  0.00    -0.082 A 
ATOM      4  C2  PXY d   1      -1.936   3.666   0.198  0.00  0.00     0.003 A 
ATOM      5  C3  PXY d   1      -2.750   3.992  -0.855  0.00  0.00     0.003 A 
ATOM      6  C4  PXY d   1      -2.352   3.743  -2.142  0.00  0.00    -0.082 A 
ATOM      7  C5  PXY d   1      -1.168   3.135  -2.366  0.00  0.00     0.003 A 
ATOM      8  C6  PXY d   1      -0.375   2.775  -1.280  0.00  0.00     0.003 A 
ENDROOT
TORSDOF 0
ENDMDL
