MODEL 1
REMARK minimizedAffinity 2.82794762
REMARK minimizedRMSD -1
REMARK  0 active torsions:
REMARK  status: ('A' for Active; 'I' for Inactive)
ROOT
ATOM      1  C4' PXY d   1      -0.214   2.835   1.246  0.00  0.00     0.077 C 
ATOM      2  C1' PXY d   1       1.060  -1.327   5.050  0.00  0.00     0.077 C 
ATOM      3  C1  PXY d   1       0.713  -0.236   4.056  0.00  0.00    -0.082 A 
ATOM      4  C2  PXY d   1       1.490  -0.040   3.002  0.00  0.00     0.003 A 
ATOM      5  C3  PXY d   1       1.209   0.963   2.111  0.00  0.00     0.003 A 
ATOM      6  C4  PXY d   1       0.092   1.739   2.270  0.00  0.00    -0.082 A 
ATOM      7  C5  PXY d   1      -0.711   1.538   3.337  0.00  0.00     0.003 A 
ATOM      8  C6  PXY d   1      -0.385   0.542   4.252  0.00  0.00     0.003 A 
ENDROOT
TORSDOF 0
ENDMDL
