MODEL 1
REMARK minimizedAffinity 2.66289377
REMARK minimizedRMSD -1
REMARK  0 active torsions:
REMARK  status: ('A' for Active; 'I' for Inactive)
ROOT
ATOM      1  C4' PXY d   1       1.744  -1.723   4.428  0.00  0.00     0.077 C 
ATOM      2  C1' PXY d   1      -0.538   2.681   1.459  0.00  0.00     0.077 C 
ATOM      3  C1  PXY d   1       0.053   1.529   2.248  0.00  0.00    -0.082 A 
ATOM      4  C2  PXY d   1       1.259   1.079   1.944  0.00  0.00     0.003 A 
ATOM      5  C3  PXY d   1       1.796   0.017   2.626  0.00  0.00     0.003 A 
ATOM      6  C4  PXY d   1       1.112  -0.556   3.665  0.00  0.00    -0.082 A 
ATOM      7  C5  PXY d   1      -0.116  -0.095   3.988  0.00  0.00     0.003 A 
ATOM      8  C6  PXY d   1      -0.659   0.957   3.256  0.00  0.00     0.003 A 
ENDROOT
TORSDOF 0
ENDMDL
