MODEL 1
REMARK minimizedAffinity 5.65006399
REMARK minimizedRMSD -1
REMARK  0 active torsions:
REMARK  status: ('A' for Active; 'I' for Inactive)
ROOT
ATOM      1  C4' PXY d   1      -3.604  -0.158   1.015  0.00  0.00     0.077 C 
ATOM      2  C1' PXY d   1      -5.912  -2.107   5.943  0.00  0.00     0.077 C 
ATOM      3  C1  PXY d   1      -5.318  -1.593   4.647  0.00  0.00    -0.082 A 
ATOM      4  C2  PXY d   1      -4.134  -2.030   4.251  0.00  0.00     0.003 A 
ATOM      5  C3  PXY d   1      -3.568  -1.551   3.097  0.00  0.00     0.003 A 
ATOM      6  C4  PXY d   1      -4.246  -0.656   2.313  0.00  0.00    -0.082 A 
ATOM      7  C5  PXY d   1      -5.459  -0.214   2.704  0.00  0.00     0.003 A 
ATOM      8  C6  PXY d   1      -5.998  -0.681   3.900  0.00  0.00     0.003 A 
ENDROOT
TORSDOF 0
ENDMDL
