MODEL 1
REMARK minimizedAffinity 7.08078337
REMARK minimizedRMSD -1
REMARK  0 active torsions:
REMARK  status: ('A' for Active; 'I' for Inactive)
ROOT
ATOM      1  C4' PXY d   1       1.048   4.599   0.668  0.00  0.00     0.077 C 
ATOM      2  C1' PXY d   1       0.380  -0.969   2.072  0.00  0.00     0.077 C 
ATOM      3  C1  PXY d   1       0.554   0.495   1.716  0.00  0.00    -0.082 A 
ATOM      4  C2  PXY d   1       0.313   0.900   0.480  0.00  0.00     0.003 A 
ATOM      5  C3  PXY d   1       0.495   2.214   0.133  0.00  0.00     0.003 A 
ATOM      6  C4  PXY d   1       0.877   3.132   1.074  0.00  0.00    -0.082 A 
ATOM      7  C5  PXY d   1       1.114   2.729   2.340  0.00  0.00     0.003 A 
ATOM      8  C6  PXY d   1       0.963   1.383   2.662  0.00  0.00     0.003 A 
ENDROOT
TORSDOF 0
ENDMDL
