MODEL 1
REMARK minimizedAffinity 0.180862769
REMARK minimizedRMSD -1
REMARK  0 active torsions:
REMARK  status: ('A' for Active; 'I' for Inactive)
ROOT
ATOM      1  C4' PXY d   1       0.412   4.126  -0.266  0.00  0.00     0.077 C 
ATOM      2  C1' PXY d   1       0.232  -0.632   3.011  0.00  0.00     0.077 C 
ATOM      3  C1  PXY d   1       0.276   0.623   2.162  0.00  0.00    -0.082 A 
ATOM      4  C2  PXY d   1       0.137   0.530   0.849  0.00  0.00     0.003 A 
ATOM      5  C3  PXY d   1       0.206   1.651   0.063  0.00  0.00     0.003 A 
ATOM      6  C4  PXY d   1       0.365   2.887   0.631  0.00  0.00    -0.082 A 
ATOM      7  C5  PXY d   1       0.496   2.991   1.971  0.00  0.00     0.003 A 
ATOM      8  C6  PXY d   1       0.465   1.837   2.747  0.00  0.00     0.003 A 
ENDROOT
TORSDOF 0
ENDMDL
