MODEL 1
REMARK minimizedAffinity 1.0857929
REMARK minimizedRMSD -1
REMARK  0 active torsions:
REMARK  status: ('A' for Active; 'I' for Inactive)
ROOT
ATOM      1  C4' PXY d   1      -0.757  -0.799  -1.366  0.00  0.00     0.077 C 
ATOM      2  C1' PXY d   1       1.619   1.807   3.214  0.00  0.00     0.077 C 
ATOM      3  C1  PXY d   1       0.995   1.135   2.007  0.00  0.00    -0.082 A 
ATOM      4  C2  PXY d   1       0.445  -0.061   2.136  0.00  0.00     0.003 A 
ATOM      5  C3  PXY d   1      -0.097  -0.697   1.049  0.00  0.00     0.003 A 
ATOM      6  C4  PXY d   1      -0.123  -0.079  -0.173  0.00  0.00    -0.082 A 
ATOM      7  C5  PXY d   1       0.427   1.147  -0.310  0.00  0.00     0.003 A 
ATOM      8  C6  PXY d   1       1.008   1.757   0.797  0.00  0.00     0.003 A 
ENDROOT
TORSDOF 0
ENDMDL
