MODEL 1
REMARK minimizedAffinity 3.649647
REMARK minimizedRMSD -1
REMARK  3 active torsions:
REMARK  status: ('A' for Active; 'I' for Inactive)
REMARK    1  A    between atoms: C3'_2  and  C2'_3 
REMARK    2  A    between atoms: C2'_3  and  C1'_4 
REMARK    3  A    between atoms: C1'_4  and  C1_5 
ROOT
ATOM      1  C1  N4B d   1      -3.663   1.514   4.642  0.00  0.00    -0.075 A 
ATOM      2  C2  N4B d   1      -4.833   1.267   3.891  0.00  0.00     0.002 A 
ATOM      3  C3  N4B d   1      -5.986   1.958   4.170  0.00  0.00     0.002 A 
ATOM      4  C4  N4B d   1      -5.999   2.883   5.203  0.00  0.00    -0.004 A 
ATOM      5  C5  N4B d   1      -4.858   3.134   5.907  0.00  0.00     0.002 A 
ATOM      6  C6  N4B d   1      -3.690   2.450   5.635  0.00  0.00     0.002 A 
ENDROOT
BRANCH   1   7
ATOM      7  C1' N4B d   1      -2.402   0.722   4.430  0.00  0.00     0.057 C 
BRANCH   7   8
ATOM      8  C2' N4B d   1      -2.134   0.596   2.933  0.00  0.00     0.009 C 
BRANCH   8   9
ATOM      9  C3' N4B d   1      -1.433  -0.707   2.589  0.00  0.00     0.004 C 
ATOM     10  C4' N4B d   1      -2.321  -1.670   1.860  0.00  0.00     0.003 C 
ENDBRANCH   8   9
ENDBRANCH   7   8
ENDBRANCH   1   7
TORSDOF 3
ENDMDL
