MODEL 1
REMARK minimizedAffinity 11.0457153
REMARK minimizedRMSD -1
REMARK  3 active torsions:
REMARK  status: ('A' for Active; 'I' for Inactive)
REMARK    1  A    between atoms: C3'_2  and  C2'_3 
REMARK    2  A    between atoms: C2'_3  and  C1'_4 
REMARK    3  A    between atoms: C1'_4  and  C1_5 
ROOT
ATOM      1  C1  N4B d   1      -2.972   2.273   4.759  0.00  0.00    -0.075 A 
ATOM      2  C2  N4B d   1      -2.154   1.583   5.680  0.00  0.00     0.002 A 
ATOM      3  C3  N4B d   1      -1.202   0.702   5.227  0.00  0.00     0.002 A 
ATOM      4  C4  N4B d   1      -1.064   0.483   3.864  0.00  0.00    -0.004 A 
ATOM      5  C5  N4B d   1      -1.841   1.173   2.980  0.00  0.00     0.002 A 
ATOM      6  C6  N4B d   1      -2.798   2.064   3.421  0.00  0.00     0.002 A 
ENDROOT
BRANCH   1   7
ATOM      7  C1' N4B d   1      -4.084   3.181   5.210  0.00  0.00     0.057 C 
BRANCH   7   8
ATOM      8  C2' N4B d   1      -3.631   4.632   5.076  0.00  0.00     0.009 C 
BRANCH   8   9
ATOM      9  C3' N4B d   1      -4.405   5.556   6.000  0.00  0.00     0.004 C 
ATOM     10  C4' N4B d   1      -5.889   5.366   5.900  0.00  0.00     0.003 C 
ENDBRANCH   8   9
ENDBRANCH   7   8
ENDBRANCH   1   7
TORSDOF 3
ENDMDL
