MODEL 1
REMARK minimizedAffinity 8.61535072
REMARK minimizedRMSD -1
REMARK  3 active torsions:
REMARK  status: ('A' for Active; 'I' for Inactive)
REMARK    1  A    between atoms: C3'_2  and  C2'_3 
REMARK    2  A    between atoms: C2'_3  and  C1'_4 
REMARK    3  A    between atoms: C1'_4  and  C1_5 
ROOT
ATOM      1  C1  N4B d   1       0.010  -2.110   2.673  0.00  0.00    -0.075 A 
ATOM      2  C2  N4B d   1      -0.620  -0.957   2.154  0.00  0.00     0.002 A 
ATOM      3  C3  N4B d   1      -0.800   0.145   2.953  0.00  0.00     0.002 A 
ATOM      4  C4  N4B d   1      -0.376   0.112   4.274  0.00  0.00    -0.004 A 
ATOM      5  C5  N4B d   1       0.254  -0.996   4.759  0.00  0.00     0.002 A 
ATOM      6  C6  N4B d   1       0.445  -2.110   3.967  0.00  0.00     0.002 A 
ENDROOT
BRANCH   1   7
ATOM      7  C1' N4B d   1       0.152  -3.370   1.864  0.00  0.00     0.057 C 
BRANCH   7   8
ATOM      8  C2' N4B d   1       1.614  -3.804   1.865  0.00  0.00     0.009 C 
BRANCH   8   9
ATOM      9  C3' N4B d   1       1.920  -4.774   0.737  0.00  0.00     0.004 C 
ATOM     10  C4' N4B d   1       3.358  -4.737   0.312  0.00  0.00     0.003 C 
ENDBRANCH   8   9
ENDBRANCH   7   8
ENDBRANCH   1   7
TORSDOF 3
ENDMDL
