MODEL 1
REMARK minimizedAffinity 8.25760937
REMARK minimizedRMSD -1
REMARK  3 active torsions:
REMARK  status: ('A' for Active; 'I' for Inactive)
REMARK    1  A    between atoms: C3'_2  and  C2'_3 
REMARK    2  A    between atoms: C2'_3  and  C1'_4 
REMARK    3  A    between atoms: C1'_4  and  C1_5 
ROOT
ATOM      1  C1  N4B d   1      -2.526  -0.058   1.529  0.00  0.00    -0.075 A 
ATOM      2  C2  N4B d   1      -1.370  -0.817   1.245  0.00  0.00     0.002 A 
ATOM      3  C3  N4B d   1      -0.292  -0.770   2.095  0.00  0.00     0.002 A 
ATOM      4  C4  N4B d   1      -0.341   0.039   3.221  0.00  0.00    -0.004 A 
ATOM      5  C5  N4B d   1      -1.472   0.749   3.501  0.00  0.00     0.002 A 
ATOM      6  C6  N4B d   1      -2.564   0.709   2.658  0.00  0.00     0.002 A 
ENDROOT
BRANCH   1   7
ATOM      7  C1' N4B d   1      -3.696  -0.010   0.585  0.00  0.00     0.057 C 
BRANCH   7   8
ATOM      8  C2' N4B d   1      -4.721   0.992   1.108  0.00  0.00     0.009 C 
BRANCH   8   9
ATOM      9  C3' N4B d   1      -5.631   1.503   0.004  0.00  0.00     0.004 C 
ATOM     10  C4' N4B d   1      -6.000   0.437  -0.984  0.00  0.00     0.003 C 
ENDBRANCH   8   9
ENDBRANCH   7   8
ENDBRANCH   1   7
TORSDOF 3
ENDMDL
