MODEL 1
REMARK minimizedAffinity -3.01129889
REMARK minimizedRMSD -1
REMARK  0 active torsions:
REMARK  status: ('A' for Active; 'I' for Inactive)
ROOT
ATOM      1  C4' PXY d   1       0.624  -2.656  -2.069  0.00  0.00     0.077 C 
ATOM      2  C1' PXY d   1      -0.955   1.022   2.101  0.00  0.00     0.077 C 
ATOM      3  C1  PXY d   1      -0.533   0.066   1.002  0.00  0.00    -0.082 A 
ATOM      4  C2  PXY d   1      -1.343  -0.916   0.643  0.00  0.00     0.003 A 
ATOM      5  C3  PXY d   1      -0.963  -1.808  -0.327  0.00  0.00     0.003 A 
ATOM      6  C4  PXY d   1       0.236  -1.662  -0.972  0.00  0.00    -0.082 A 
ATOM      7  C5  PXY d   1       1.063  -0.656  -0.618  0.00  0.00     0.003 A 
ATOM      8  C6  PXY d   1       0.677   0.214   0.397  0.00  0.00     0.003 A 
ENDROOT
TORSDOF 0
ENDMDL
