MODEL 1
REMARK minimizedAffinity -2.14980292
REMARK minimizedRMSD -1
REMARK  0 active torsions:
REMARK  status: ('A' for Active; 'I' for Inactive)
ROOT
ATOM      1  C4' PXY d   1       0.284   4.136  -0.140  0.00  0.00     0.077 C 
ATOM      2  C1' PXY d   1      -0.718  -1.263   1.665  0.00  0.00     0.077 C 
ATOM      3  C1  PXY d   1      -0.444   0.149   1.185  0.00  0.00    -0.082 A 
ATOM      4  C2  PXY d   1      -0.938   1.176   1.858  0.00  0.00     0.003 A 
ATOM      5  C3  PXY d   1      -0.727   2.458   1.421  0.00  0.00     0.003 A 
ATOM      6  C4  PXY d   1       0.042   2.694   0.313  0.00  0.00    -0.082 A 
ATOM      7  C5  PXY d   1       0.558   1.652  -0.373  0.00  0.00     0.003 A 
ATOM      8  C6  PXY d   1       0.298   0.357   0.064  0.00  0.00     0.003 A 
ENDROOT
TORSDOF 0
ENDMDL
