MODEL 1
REMARK minimizedAffinity -3.39212036
REMARK minimizedRMSD -1
REMARK  0 active torsions:
REMARK  status: ('A' for Active; 'I' for Inactive)
ROOT
ATOM      1  C4' PXY d   1       0.616  -2.490  -1.828  0.00  0.00     0.077 C 
ATOM      2  C1' PXY d   1      -0.997   1.306   2.221  0.00  0.00     0.077 C 
ATOM      3  C1  PXY d   1      -0.565   0.319   1.154  0.00  0.00    -0.082 A 
ATOM      4  C2  PXY d   1      -1.383  -0.658   0.798  0.00  0.00     0.003 A 
ATOM      5  C3  PXY d   1      -0.997  -1.578  -0.142  0.00  0.00     0.003 A 
ATOM      6  C4  PXY d   1       0.219  -1.466  -0.762  0.00  0.00    -0.082 A 
ATOM      7  C5  PXY d   1       1.054  -0.465  -0.412  0.00  0.00     0.003 A 
ATOM      8  C6  PXY d   1       0.660   0.434   0.574  0.00  0.00     0.003 A 
ENDROOT
TORSDOF 0
ENDMDL
