MODEL 1
REMARK minimizedAffinity -4.94407558
REMARK minimizedRMSD -1
REMARK  0 active torsions:
REMARK  status: ('A' for Active; 'I' for Inactive)
ROOT
ATOM      1  C4' PXY d   1       0.792  -2.867  -2.604  0.00  0.00     0.077 C 
ATOM      2  C1' PXY d   1      -0.579   0.791   1.656  0.00  0.00     0.077 C 
ATOM      3  C1  PXY d   1      -0.210  -0.160   0.536  0.00  0.00    -0.082 A 
ATOM      4  C2  PXY d   1      -1.128  -0.973   0.037  0.00  0.00     0.003 A 
ATOM      5  C3  PXY d   1      -0.803  -1.862  -0.954  0.00  0.00     0.003 A 
ATOM      6  C4  PXY d   1       0.462  -1.883  -1.478  0.00  0.00    -0.082 A 
ATOM      7  C5  PXY d   1       1.401  -1.050  -0.983  0.00  0.00     0.003 A 
ATOM      8  C6  PXY d   1       1.062  -0.184   0.052  0.00  0.00     0.003 A 
ENDROOT
TORSDOF 0
ENDMDL
