MODEL 1
REMARK minimizedAffinity -3.53696918
REMARK minimizedRMSD -1
REMARK  0 active torsions:
REMARK  status: ('A' for Active; 'I' for Inactive)
ROOT
ATOM      1  C4' PXY d   1       1.020  -2.422  -2.210  0.00  0.00     0.077 C 
ATOM      2  C1' PXY d   1      -1.212   0.600   2.184  0.00  0.00     0.077 C 
ATOM      3  C1  PXY d   1      -0.618  -0.184   1.030  0.00  0.00    -0.082 A 
ATOM      4  C2  PXY d   1      -1.389  -0.992   0.322  0.00  0.00     0.003 A 
ATOM      5  C3  PXY d   1      -0.861  -1.733  -0.704  0.00  0.00     0.003 A 
ATOM      6  C4  PXY d   1       0.460  -1.604  -1.043  0.00  0.00    -0.082 A 
ATOM      7  C5  PXY d   1       1.251  -0.773  -0.331  0.00  0.00     0.003 A 
ATOM      8  C6  PXY d   1       0.705  -0.062   0.733  0.00  0.00     0.003 A 
ENDROOT
TORSDOF 0
ENDMDL
