MODEL 1
REMARK minimizedAffinity -4.26631641
REMARK minimizedRMSD -1
REMARK  0 active torsions:
REMARK  status: ('A' for Active; 'I' for Inactive)
ROOT
ATOM      1  C4' PXY d   1       0.020  -3.289  -2.644  0.00  0.00     0.077 C 
ATOM      2  C1' PXY d   1      -0.218   0.622   1.606  0.00  0.00     0.077 C 
ATOM      3  C1  PXY d   1      -0.144  -0.398   0.488  0.00  0.00    -0.082 A 
ATOM      4  C2  PXY d   1      -1.254  -0.969   0.049  0.00  0.00     0.003 A 
ATOM      5  C3  PXY d   1      -1.202  -1.918  -0.940  0.00  0.00     0.003 A 
ATOM      6  C4  PXY d   1      -0.008  -2.246  -1.523  0.00  0.00    -0.082 A 
ATOM      7  C5  PXY d   1       1.128  -1.660  -1.088  0.00  0.00     0.003 A 
ATOM      8  C6  PXY d   1       1.059  -0.730  -0.055  0.00  0.00     0.003 A 
ENDROOT
TORSDOF 0
ENDMDL
