MODEL 1
REMARK minimizedAffinity -1.27345407
REMARK minimizedRMSD -1
REMARK  0 active torsions:
REMARK  status: ('A' for Active; 'I' for Inactive)
ROOT
ATOM      1  C4' PXY d   1       0.437  -3.049  -1.793  0.00  0.00     0.077 C 
ATOM      2  C1' PXY d   1      -0.864   0.755   2.361  0.00  0.00     0.077 C 
ATOM      3  C1  PXY d   1      -0.514  -0.235   1.267  0.00  0.00    -0.082 A 
ATOM      4  C2  PXY d   1      -1.406  -1.136   0.890  0.00  0.00     0.003 A 
ATOM      5  C3  PXY d   1      -1.095  -2.058  -0.076  0.00  0.00     0.003 A 
ATOM      6  C4  PXY d   1       0.124  -2.024  -0.699  0.00  0.00    -0.082 A 
ATOM      7  C5  PXY d   1       1.036  -1.101  -0.327  0.00  0.00     0.003 A 
ATOM      8  C6  PXY d   1       0.715  -0.200   0.684  0.00  0.00     0.003 A 
ENDROOT
TORSDOF 0
ENDMDL
