MODEL 1
REMARK minimizedAffinity -3.06838632
REMARK minimizedRMSD -1
REMARK  0 active torsions:
REMARK  status: ('A' for Active; 'I' for Inactive)
ROOT
ATOM      1  C4' PXY d   1       0.139   3.921   0.338  0.00  0.00     0.077 C 
ATOM      2  C1' PXY d   1      -1.140  -1.638   1.274  0.00  0.00     0.077 C 
ATOM      3  C1  PXY d   1      -0.795  -0.183   1.021  0.00  0.00    -0.082 A 
ATOM      4  C2  PXY d   1      -1.140   0.735   1.909  0.00  0.00     0.003 A 
ATOM      5  C3  PXY d   1      -0.864   2.059   1.680  0.00  0.00     0.003 A 
ATOM      6  C4  PXY d   1      -0.180   2.440   0.557  0.00  0.00    -0.082 A 
ATOM      7  C5  PXY d   1       0.184   1.508  -0.349  0.00  0.00     0.003 A 
ATOM      8  C6  PXY d   1      -0.142   0.174  -0.118  0.00  0.00     0.003 A 
ENDROOT
TORSDOF 0
ENDMDL
