MODEL 1
REMARK minimizedAffinity -3.99376345
REMARK minimizedRMSD -1
REMARK  0 active torsions:
REMARK  status: ('A' for Active; 'I' for Inactive)
ROOT
ATOM      1  C4' PXY d   1      -0.351   0.576   1.416  0.00  0.00     0.077 C 
ATOM      2  C1' PXY d   1       0.994  -2.879  -3.020  0.00  0.00     0.077 C 
ATOM      3  C1  PXY d   1       0.654  -1.973  -1.853  0.00  0.00    -0.082 A 
ATOM      4  C2  PXY d   1      -0.589  -1.926  -1.402  0.00  0.00     0.003 A 
ATOM      5  C3  PXY d   1      -0.921  -1.089  -0.368  0.00  0.00     0.003 A 
ATOM      6  C4  PXY d   1       0.040  -0.331   0.246  0.00  0.00    -0.082 A 
ATOM      7  C5  PXY d   1       1.313  -0.381  -0.202  0.00  0.00     0.003 A 
ATOM      8  C6  PXY d   1       1.621  -1.207  -1.279  0.00  0.00     0.003 A 
ENDROOT
TORSDOF 0
ENDMDL
