MODEL 1
REMARK minimizedAffinity -0.880203366
REMARK minimizedRMSD -1
REMARK  0 active torsions:
REMARK  status: ('A' for Active; 'I' for Inactive)
ROOT
ATOM      1  C4' PXY d   1      -0.871   1.365   2.405  0.00  0.00     0.077 C 
ATOM      2  C1' PXY d   1       0.401  -2.365  -1.824  0.00  0.00     0.077 C 
ATOM      3  C1  PXY d   1       0.055  -1.391  -0.715  0.00  0.00    -0.082 A 
ATOM      4  C2  PXY d   1       0.802  -0.314  -0.534  0.00  0.00     0.003 A 
ATOM      5  C3  PXY d   1       0.522   0.561   0.484  0.00  0.00     0.003 A 
ATOM      6  C4  PXY d   1      -0.564   0.359   1.292  0.00  0.00    -0.082 A 
ATOM      7  C5  PXY d   1      -1.338  -0.731   1.107  0.00  0.00     0.003 A 
ATOM      8  C6  PXY d   1      -1.013  -1.629   0.094  0.00  0.00     0.003 A 
ENDROOT
TORSDOF 0
ENDMDL
