MODEL 1
REMARK minimizedAffinity -3.7192812
REMARK minimizedRMSD -1
REMARK  0 active torsions:
REMARK  status: ('A' for Active; 'I' for Inactive)
ROOT
ATOM      1  C4' PXY d   1       0.672  -2.609  -1.995  0.00  0.00     0.077 C 
ATOM      2  C1' PXY d   1      -0.928   1.334   1.918  0.00  0.00     0.077 C 
ATOM      3  C1  PXY d   1      -0.501   0.309   0.885  0.00  0.00    -0.082 A 
ATOM      4  C2  PXY d   1      -1.267  -0.745   0.654  0.00  0.00     0.003 A 
ATOM      5  C3  PXY d   1      -0.881  -1.698  -0.253  0.00  0.00     0.003 A 
ATOM      6  C4  PXY d   1       0.276  -1.544  -0.969  0.00  0.00    -0.082 A 
ATOM      7  C5  PXY d   1       1.058  -0.466  -0.747  0.00  0.00     0.003 A 
ATOM      8  C6  PXY d   1       0.668   0.469   0.208  0.00  0.00     0.003 A 
ENDROOT
TORSDOF 0
ENDMDL
