MODEL 1
REMARK minimizedAffinity -4.88705444
REMARK minimizedRMSD -1
REMARK  0 active torsions:
REMARK  status: ('A' for Active; 'I' for Inactive)
ROOT
ATOM      1  C4' PXY d   1      -0.781   1.239   2.183  0.00  0.00     0.077 C 
ATOM      2  C1' PXY d   1      -0.180  -2.966  -1.738  0.00  0.00     0.077 C 
ATOM      3  C1  PXY d   1      -0.324  -1.862  -0.709  0.00  0.00    -0.082 A 
ATOM      4  C2  PXY d   1      -1.433  -1.777   0.008  0.00  0.00     0.003 A 
ATOM      5  C3  PXY d   1      -1.594  -0.766   0.920  0.00  0.00     0.003 A 
ATOM      6  C4  PXY d   1      -0.587   0.135   1.139  0.00  0.00    -0.082 A 
ATOM      7  C5  PXY d   1       0.552   0.049   0.420  0.00  0.00     0.003 A 
ATOM      8  C6  PXY d   1       0.678  -0.960  -0.531  0.00  0.00     0.003 A 
ENDROOT
TORSDOF 0
ENDMDL
