MODEL 1
REMARK minimizedAffinity -4.33187389
REMARK minimizedRMSD -1
REMARK  0 active torsions:
REMARK  status: ('A' for Active; 'I' for Inactive)
ROOT
ATOM      1  C4' PXY d   1      -0.728   1.206   1.924  0.00  0.00     0.077 C 
ATOM      2  C1' PXY d   1       0.338  -2.699  -2.203  0.00  0.00     0.077 C 
ATOM      3  C1  PXY d   1       0.071  -1.675  -1.118  0.00  0.00    -0.082 A 
ATOM      4  C2  PXY d   1      -1.113  -1.639  -0.529  0.00  0.00     0.003 A 
ATOM      5  C3  PXY d   1      -1.382  -0.698   0.432  0.00  0.00     0.003 A 
ATOM      6  C4  PXY d   1      -0.411   0.182   0.830  0.00  0.00    -0.082 A 
ATOM      7  C5  PXY d   1       0.803   0.145   0.241  0.00  0.00     0.003 A 
ATOM      8  C6  PXY d   1       1.042  -0.791  -0.761  0.00  0.00     0.003 A 
ENDROOT
TORSDOF 0
ENDMDL
