MODEL 1
REMARK minimizedAffinity -2.33000803
REMARK minimizedRMSD -1
REMARK  0 active torsions:
REMARK  status: ('A' for Active; 'I' for Inactive)
ROOT
ATOM      1  C4' PXY d   1       0.295  -2.228  -2.116  0.00  0.00     0.077 C 
ATOM      2  C1' PXY d   1      -0.763   1.433   2.231  0.00  0.00     0.077 C 
ATOM      3  C1  PXY d   1      -0.481   0.483   1.084  0.00  0.00    -0.082 A 
ATOM      4  C2  PXY d   1      -1.130  -0.668   1.013  0.00  0.00     0.003 A 
ATOM      5  C3  PXY d   1      -0.864  -1.553   0.001  0.00  0.00     0.003 A 
ATOM      6  C4  PXY d   1       0.036  -1.234  -0.980  0.00  0.00    -0.082 A 
ATOM      7  C5  PXY d   1       0.694  -0.056  -0.922  0.00  0.00     0.003 A 
ATOM      8  C6  PXY d   1       0.440   0.810   0.137  0.00  0.00     0.003 A 
ENDROOT
TORSDOF 0
ENDMDL
