MODEL 1
REMARK minimizedAffinity -2.45385122
REMARK minimizedRMSD -1
REMARK  0 active torsions:
REMARK  status: ('A' for Active; 'I' for Inactive)
ROOT
ATOM      1  C4' PXY d   1      -0.166  -1.166   2.477  0.00  0.00     0.077 C 
ATOM      2  C1' PXY d   1       0.291   3.098  -1.400  0.00  0.00     0.077 C 
ATOM      3  C1  PXY d   1       0.170   1.988  -0.373  0.00  0.00    -0.082 A 
ATOM      4  C2  PXY d   1       0.656   0.789  -0.647  0.00  0.00     0.003 A 
ATOM      5  C3  PXY d   1       0.527  -0.235   0.257  0.00  0.00     0.003 A 
ATOM      6  C4  PXY d   1      -0.059  -0.013   1.475  0.00  0.00    -0.082 A 
ATOM      7  C5  PXY d   1      -0.547   1.211   1.766  0.00  0.00     0.003 A 
ATOM      8  C6  PXY d   1      -0.443   2.225   0.818  0.00  0.00     0.003 A 
ENDROOT
TORSDOF 0
ENDMDL
