MODEL 1
REMARK minimizedAffinity -3.74370575
REMARK minimizedRMSD -1
REMARK  0 active torsions:
REMARK  status: ('A' for Active; 'I' for Inactive)
ROOT
ATOM      1  C4' PXY d   1      -0.034  -2.978  -2.652  0.00  0.00     0.077 C 
ATOM      2  C1' PXY d   1      -0.204   0.976   1.561  0.00  0.00     0.077 C 
ATOM      3  C1  PXY d   1      -0.171  -0.065   0.460  0.00  0.00    -0.082 A 
ATOM      4  C2  PXY d   1       0.992  -0.471  -0.022  0.00  0.00     0.003 A 
ATOM      5  C3  PXY d   1       1.039  -1.388  -1.040  0.00  0.00     0.003 A 
ATOM      6  C4  PXY d   1      -0.115  -1.935  -1.533  0.00  0.00    -0.082 A 
ATOM      7  C5  PXY d   1      -1.305  -1.534  -1.039  0.00  0.00     0.003 A 
ATOM      8  C6  PXY d   1      -1.333  -0.572  -0.035  0.00  0.00     0.003 A 
ENDROOT
TORSDOF 0
ENDMDL
