MODEL 1
REMARK minimizedAffinity -4.11923599
REMARK minimizedRMSD -1
REMARK  0 active torsions:
REMARK  status: ('A' for Active; 'I' for Inactive)
ROOT
ATOM      1  C4' PXY d   1      -1.087  -0.835   1.125  0.00  0.00     0.077 C 
ATOM      2  C1' PXY d   1       0.231   4.742   0.369  0.00  0.00     0.077 C 
ATOM      3  C1  PXY d   1      -0.114   3.278   0.555  0.00  0.00    -0.082 A 
ATOM      4  C2  PXY d   1      -0.769   2.892   1.638  0.00  0.00     0.003 A 
ATOM      5  C3  PXY d   1      -1.061   1.567   1.837  0.00  0.00     0.003 A 
ATOM      6  C4  PXY d   1      -0.726   0.635   0.892  0.00  0.00    -0.082 A 
ATOM      7  C5  PXY d   1      -0.067   1.022  -0.221  0.00  0.00     0.003 A 
ATOM      8  C6  PXY d   1       0.257   2.365  -0.384  0.00  0.00     0.003 A 
ENDROOT
TORSDOF 0
ENDMDL
