MODEL 1
REMARK minimizedAffinity -4.21157789
REMARK minimizedRMSD -1
REMARK  0 active torsions:
REMARK  status: ('A' for Active; 'I' for Inactive)
ROOT
ATOM      1  C4' PXY d   1       0.805  -2.687  -2.281  0.00  0.00     0.077 C 
ATOM      2  C1' PXY d   1      -0.664   1.022   1.902  0.00  0.00     0.077 C 
ATOM      3  C1  PXY d   1      -0.268   0.057   0.802  0.00  0.00    -0.082 A 
ATOM      4  C2  PXY d   1      -1.186  -0.725   0.257  0.00  0.00     0.003 A 
ATOM      5  C3  PXY d   1      -0.840  -1.627  -0.717  0.00  0.00     0.003 A 
ATOM      6  C4  PXY d   1       0.449  -1.691  -1.174  0.00  0.00    -0.082 A 
ATOM      7  C5  PXY d   1       1.389  -0.888  -0.631  0.00  0.00     0.003 A 
ATOM      8  C6  PXY d   1       1.025  -0.010   0.385  0.00  0.00     0.003 A 
ENDROOT
TORSDOF 0
ENDMDL
