MODEL 1
REMARK minimizedAffinity -2.14633512
REMARK minimizedRMSD -1
REMARK  0 active torsions:
REMARK  status: ('A' for Active; 'I' for Inactive)
ROOT
ATOM      1  C4' PXY d   1       0.249  -2.845  -1.547  0.00  0.00     0.077 C 
ATOM      2  C1' PXY d   1      -0.569   1.806   1.787  0.00  0.00     0.077 C 
ATOM      3  C1  PXY d   1      -0.341   0.589   0.913  0.00  0.00    -0.082 A 
ATOM      4  C2  PXY d   1      -1.321   0.144   0.143  0.00  0.00     0.003 A 
ATOM      5  C3  PXY d   1      -1.143  -0.974  -0.630  0.00  0.00     0.003 A 
ATOM      6  C4  PXY d   1       0.068  -1.614  -0.655  0.00  0.00    -0.082 A 
ATOM      7  C5  PXY d   1       1.076  -1.160   0.120  0.00  0.00     0.003 A 
ATOM      8  C6  PXY d   1       0.862  -0.047   0.928  0.00  0.00     0.003 A 
ENDROOT
TORSDOF 0
ENDMDL
