MODEL 1
REMARK minimizedAffinity -3.78871679
REMARK minimizedRMSD -1
REMARK  0 active torsions:
REMARK  status: ('A' for Active; 'I' for Inactive)
ROOT
ATOM      1  C4' PXY d   1      -0.040   4.385   0.602  0.00  0.00     0.077 C 
ATOM      2  C1' PXY d   1      -0.869  -1.303   1.221  0.00  0.00     0.077 C 
ATOM      3  C1  PXY d   1      -0.663   0.191   1.064  0.00  0.00    -0.082 A 
ATOM      4  C2  PXY d   1       0.158   0.644   0.131  0.00  0.00     0.003 A 
ATOM      5  C3  PXY d   1       0.380   1.990  -0.004  0.00  0.00     0.003 A 
ATOM      6  C4  PXY d   1      -0.285   2.885   0.790  0.00  0.00    -0.082 A 
ATOM      7  C5  PXY d   1      -1.133   2.432   1.738  0.00  0.00     0.003 A 
ATOM      8  C6  PXY d   1      -1.313   1.059   1.886  0.00  0.00     0.003 A 
ENDROOT
TORSDOF 0
ENDMDL
