MODEL 1
REMARK minimizedAffinity -3.97084093
REMARK minimizedRMSD -1
REMARK  0 active torsions:
REMARK  status: ('A' for Active; 'I' for Inactive)
ROOT
ATOM      1  C   UNL d   1      -0.724   0.514  -0.447  0.00  0.00     0.172 C 
ATOM      2  N   UNL d   1       0.574   0.071  -0.899  0.00  0.00    -0.070 N 
ATOM      3  C1  UNL d   1       1.331   0.676  -1.867  0.00  0.00    -0.004 A 
ATOM      4  C2  UNL d   1       2.496  -0.048  -2.006  0.00  0.00    -0.047 A 
ATOM      5  C3  UNL d   1       2.436  -1.125  -1.090  0.00  0.00    -0.047 A 
ATOM      6  C4  UNL d   1       1.236  -1.028  -0.418  0.00  0.00    -0.004 A 
ENDROOT
TORSDOF 0
ENDMDL
