MODEL 1
REMARK minimizedAffinity -3.73151278
REMARK minimizedRMSD -1
REMARK  0 active torsions:
REMARK  status: ('A' for Active; 'I' for Inactive)
ROOT
ATOM      1  C   UNL d   1       2.316   0.136  -1.052  0.00  0.00     0.172 C 
ATOM      2  N   UNL d   1       0.919   0.371  -0.776  0.00  0.00    -0.070 N 
ATOM      3  C1  UNL d   1       0.139   1.330  -1.364  0.00  0.00    -0.004 A 
ATOM      4  C2  UNL d   1      -1.129   1.228  -0.832  0.00  0.00    -0.047 A 
ATOM      5  C3  UNL d   1      -1.110   0.171   0.108  0.00  0.00    -0.047 A 
ATOM      6  C4  UNL d   1       0.170  -0.342   0.123  0.00  0.00    -0.004 A 
ENDROOT
TORSDOF 0
ENDMDL
