MODEL 1
REMARK minimizedAffinity -2.02321434
REMARK minimizedRMSD -1
REMARK  0 active torsions:
REMARK  status: ('A' for Active; 'I' for Inactive)
ROOT
ATOM      1  C   UNL d   1      -0.862   0.531   0.455  0.00  0.00     0.172 C 
ATOM      2  N   UNL d   1       0.004  -0.492  -0.083  0.00  0.00    -0.070 N 
ATOM      3  C1  UNL d   1      -0.263  -1.835  -0.101  0.00  0.00    -0.004 A 
ATOM      4  C2  UNL d   1       0.806  -2.470  -0.697  0.00  0.00    -0.047 A 
ATOM      5  C3  UNL d   1       1.748  -1.473  -1.048  0.00  0.00    -0.047 A 
ATOM      6  C4  UNL d   1       1.226  -0.258  -0.657  0.00  0.00    -0.004 A 
ENDROOT
TORSDOF 0
ENDMDL
