MODEL 1
REMARK minimizedAffinity -3.47616959
REMARK minimizedRMSD -1
REMARK  0 active torsions:
REMARK  status: ('A' for Active; 'I' for Inactive)
ROOT
ATOM      1  C   UNL d   1      -0.604  -0.034   0.533  0.00  0.00     0.172 C 
ATOM      2  N   UNL d   1       0.669  -0.258  -0.112  0.00  0.00    -0.070 N 
ATOM      3  C1  UNL d   1       0.902  -1.140  -1.133  0.00  0.00    -0.004 A 
ATOM      4  C2  UNL d   1       2.236  -1.056  -1.467  0.00  0.00    -0.047 A 
ATOM      5  C3  UNL d   1       2.826  -0.090  -0.617  0.00  0.00    -0.047 A 
ATOM      6  C4  UNL d   1       1.833   0.387   0.212  0.00  0.00    -0.004 A 
ENDROOT
TORSDOF 0
ENDMDL
