MODEL 1
REMARK minimizedAffinity -3.43857741
REMARK minimizedRMSD -1
REMARK  0 active torsions:
REMARK  status: ('A' for Active; 'I' for Inactive)
ROOT
ATOM      1  C   UNL d   1      -0.991   0.358   0.398  0.00  0.00     0.172 C 
ATOM      2  N   UNL d   1       0.164  -0.347  -0.106  0.00  0.00    -0.070 N 
ATOM      3  C1  UNL d   1       1.441   0.145  -0.153  0.00  0.00    -0.004 A 
ATOM      4  C2  UNL d   1       2.249  -0.830  -0.698  0.00  0.00    -0.047 A 
ATOM      5  C3  UNL d   1       1.428  -1.946  -0.989  0.00  0.00    -0.047 A 
ATOM      6  C4  UNL d   1       0.143  -1.620  -0.612  0.00  0.00    -0.004 A 
ENDROOT
TORSDOF 0
ENDMDL
