MODEL 1
REMARK minimizedAffinity -2.1911447
REMARK minimizedRMSD -1
REMARK  0 active torsions:
REMARK  status: ('A' for Active; 'I' for Inactive)
ROOT
ATOM      1  C   UNL d   1      -0.184  -0.035  -0.065  0.00  0.00     0.172 C 
ATOM      2  N   UNL d   1       1.212  -0.217  -0.384  0.00  0.00    -0.070 N 
ATOM      3  C1  UNL d   1       1.709  -1.061  -1.341  0.00  0.00    -0.004 A 
ATOM      4  C2  UNL d   1       3.082  -0.944  -1.335  0.00  0.00    -0.047 A 
ATOM      5  C3  UNL d   1       3.422   0.002  -0.339  0.00  0.00    -0.047 A 
ATOM      6  C4  UNL d   1       2.246   0.436   0.234  0.00  0.00    -0.004 A 
ENDROOT
TORSDOF 0
ENDMDL
