MODEL 1
REMARK minimizedAffinity -0.646581411
REMARK minimizedRMSD -1
REMARK  0 active torsions:
REMARK  status: ('A' for Active; 'I' for Inactive)
ROOT
ATOM      1  C   UNL d   1       1.982   0.812  -0.739  0.00  0.00     0.172 C 
ATOM      2  N   UNL d   1       0.576   0.665  -0.446  0.00  0.00    -0.070 N 
ATOM      3  C1  UNL d   1      -0.449   1.265  -1.128  0.00  0.00    -0.004 A 
ATOM      4  C2  UNL d   1      -1.633   0.874  -0.542  0.00  0.00    -0.047 A 
ATOM      5  C3  UNL d   1      -1.309   0.010   0.531  0.00  0.00    -0.047 A 
ATOM      6  C4  UNL d   1       0.065  -0.102   0.568  0.00  0.00    -0.004 A 
ENDROOT
TORSDOF 0
ENDMDL
