MODEL 1
REMARK minimizedAffinity -3.73985887
REMARK minimizedRMSD -1
REMARK  0 active torsions:
REMARK  status: ('A' for Active; 'I' for Inactive)
ROOT
ATOM      1  C   UNL d   1      -0.435   0.081   0.389  0.00  0.00     0.172 C 
ATOM      2  N   UNL d   1       0.729  -0.151  -0.433  0.00  0.00    -0.070 N 
ATOM      3  C1  UNL d   1       1.832   0.658  -0.501  0.00  0.00    -0.004 A 
ATOM      4  C2  UNL d   1       2.715   0.092  -1.395  0.00  0.00    -0.047 A 
ATOM      5  C3  UNL d   1       2.122  -1.097  -1.882  0.00  0.00    -0.047 A 
ATOM      6  C4  UNL d   1       0.893  -1.223  -1.270  0.00  0.00    -0.004 A 
ENDROOT
TORSDOF 0
ENDMDL
