MODEL 1
REMARK minimizedAffinity -2.65402293
REMARK minimizedRMSD -1
REMARK  0 active torsions:
REMARK  status: ('A' for Active; 'I' for Inactive)
ROOT
ATOM      1  C   UNL d   1       0.501   0.974   0.213  0.00  0.00     0.172 C 
ATOM      2  N   UNL d   1       1.100   1.244  -1.073  0.00  0.00    -0.070 N 
ATOM      3  C1  UNL d   1       0.720   2.234  -1.939  0.00  0.00    -0.004 A 
ATOM      4  C2  UNL d   1       1.534   2.161  -3.048  0.00  0.00    -0.047 A 
ATOM      5  C3  UNL d   1       2.434   1.089  -2.843  0.00  0.00    -0.047 A 
ATOM      6  C4  UNL d   1       2.143   0.538  -1.612  0.00  0.00    -0.004 A 
ENDROOT
TORSDOF 0
ENDMDL
