MODEL 1
REMARK minimizedAffinity -3.72458315
REMARK minimizedRMSD -1
REMARK  0 active torsions:
REMARK  status: ('A' for Active; 'I' for Inactive)
ROOT
ATOM      1  C   UNL d   1      -0.156   0.018   1.002  0.00  0.00     0.172 C 
ATOM      2  N   UNL d   1       0.687  -0.555  -0.021  0.00  0.00    -0.070 N 
ATOM      3  C1  UNL d   1       0.439  -1.716  -0.703  0.00  0.00    -0.004 A 
ATOM      4  C2  UNL d   1       1.476  -1.915  -1.589  0.00  0.00    -0.047 A 
ATOM      5  C3  UNL d   1       2.378  -0.836  -1.434  0.00  0.00    -0.047 A 
ATOM      6  C4  UNL d   1       1.866  -0.009  -0.457  0.00  0.00    -0.004 A 
ENDROOT
TORSDOF 0
ENDMDL
