MODEL 1
REMARK minimizedAffinity -0.617463768
REMARK minimizedRMSD -1
REMARK  0 active torsions:
REMARK  status: ('A' for Active; 'I' for Inactive)
ROOT
ATOM      1  C   UNL d   1      -1.378  -0.849  -0.138  0.00  0.00     0.172 C 
ATOM      2  N   UNL d   1      -0.186  -0.064  -0.355  0.00  0.00    -0.070 N 
ATOM      3  C1  UNL d   1      -0.102   1.061  -1.132  0.00  0.00    -0.004 A 
ATOM      4  C2  UNL d   1       1.199   1.514  -1.079  0.00  0.00    -0.047 A 
ATOM      5  C3  UNL d   1       1.921   0.630  -0.242  0.00  0.00    -0.047 A 
ATOM      6  C4  UNL d   1       1.040  -0.337   0.193  0.00  0.00    -0.004 A 
ENDROOT
TORSDOF 0
ENDMDL
