MODEL 1
REMARK minimizedAffinity -3.70589018
REMARK minimizedRMSD -1
REMARK  0 active torsions:
REMARK  status: ('A' for Active; 'I' for Inactive)
ROOT
ATOM      1  C   UNL d   1       1.852   2.132  -1.632  0.00  0.00     0.172 C 
ATOM      2  N   UNL d   1       1.574   0.740  -1.369  0.00  0.00    -0.070 N 
ATOM      3  C1  UNL d   1       2.269  -0.324  -1.879  0.00  0.00    -0.004 A 
ATOM      4  C2  UNL d   1       1.694  -1.477  -1.390  0.00  0.00    -0.047 A 
ATOM      5  C3  UNL d   1       0.616  -1.093  -0.558  0.00  0.00    -0.047 A 
ATOM      6  C4  UNL d   1       0.564   0.285  -0.562  0.00  0.00    -0.004 A 
ENDROOT
TORSDOF 0
ENDMDL
