MODEL 1
REMARK minimizedAffinity 3.70453072
REMARK minimizedRMSD -1
REMARK  0 active torsions:
REMARK  status: ('A' for Active; 'I' for Inactive)
ROOT
ATOM      1  C   UNL d   1       0.605   1.520   2.182  0.00  0.00     0.172 C 
ATOM      2  N   UNL d   1       1.683   1.215   1.272  0.00  0.00    -0.070 N 
ATOM      3  C1  UNL d   1       2.609   0.219   1.437  0.00  0.00    -0.004 A 
ATOM      4  C2  UNL d   1       3.464   0.255   0.356  0.00  0.00    -0.047 A 
ATOM      5  C3  UNL d   1       3.038   1.309  -0.486  0.00  0.00    -0.047 A 
ATOM      6  C4  UNL d   1       1.934   1.886   0.104  0.00  0.00    -0.004 A 
ENDROOT
TORSDOF 0
ENDMDL
