MODEL 1
REMARK minimizedAffinity 1.71813512
REMARK minimizedRMSD -1
REMARK  0 active torsions:
REMARK  status: ('A' for Active; 'I' for Inactive)
ROOT
ATOM      1  C   UNL d   1      -5.989   4.229   2.895  0.00  0.00     0.172 C 
ATOM      2  N   UNL d   1      -5.369   4.933   3.992  0.00  0.00    -0.070 N 
ATOM      3  C1  UNL d   1      -4.073   5.376   4.027  0.00  0.00    -0.004 A 
ATOM      4  C2  UNL d   1      -3.871   5.995   5.241  0.00  0.00    -0.047 A 
ATOM      5  C3  UNL d   1      -5.087   5.921   5.962  0.00  0.00    -0.047 A 
ATOM      6  C4  UNL d   1      -5.997   5.258   5.166  0.00  0.00    -0.004 A 
ENDROOT
TORSDOF 0
ENDMDL
