MODEL 1
REMARK minimizedAffinity 5.46270752
REMARK minimizedRMSD -1
REMARK  0 active torsions:
REMARK  status: ('A' for Active; 'I' for Inactive)
ROOT
ATOM      1  C   UNL d   1      -4.122  -1.233  -1.522  0.00  0.00     0.172 C 
ATOM      2  N   UNL d   1      -4.491  -0.011  -0.847  0.00  0.00    -0.070 N 
ATOM      3  C1  UNL d   1      -5.763   0.356  -0.498  0.00  0.00    -0.004 A 
ATOM      4  C2  UNL d   1      -5.693   1.583   0.125  0.00  0.00    -0.047 A 
ATOM      5  C3  UNL d   1      -4.332   1.968   0.150  0.00  0.00    -0.047 A 
ATOM      6  C4  UNL d   1      -3.610   0.963  -0.458  0.00  0.00    -0.004 A 
ENDROOT
TORSDOF 0
ENDMDL
