MODEL 1
REMARK minimizedAffinity 2.80107164
REMARK minimizedRMSD -1
REMARK  0 active torsions:
REMARK  status: ('A' for Active; 'I' for Inactive)
ROOT
ATOM      1  C   UNL d   1       4.059  -1.491   1.475  0.00  0.00     0.172 C 
ATOM      2  N   UNL d   1       3.482  -0.446   0.663  0.00  0.00    -0.070 N 
ATOM      3  C1  UNL d   1       2.660   0.553   1.113  0.00  0.00    -0.004 A 
ATOM      4  C2  UNL d   1       2.327   1.343   0.035  0.00  0.00    -0.047 A 
ATOM      5  C3  UNL d   1       2.969   0.800  -1.103  0.00  0.00    -0.047 A 
ATOM      6  C4  UNL d   1       3.677  -0.307  -0.686  0.00  0.00    -0.004 A 
ENDROOT
TORSDOF 0
ENDMDL
