MODEL 1
REMARK minimizedAffinity 8.02864265
REMARK minimizedRMSD -1
REMARK  0 active torsions:
REMARK  status: ('A' for Active; 'I' for Inactive)
ROOT
ATOM      1  C   UNL d   1       5.418   3.167   2.032  0.00  0.00     0.172 C 
ATOM      2  N   UNL d   1       4.729   2.634   0.880  0.00  0.00    -0.070 N 
ATOM      3  C1  UNL d   1       4.995   2.951  -0.426  0.00  0.00    -0.004 A 
ATOM      4  C2  UNL d   1       4.125   2.234  -1.219  0.00  0.00    -0.047 A 
ATOM      5  C3  UNL d   1       3.308   1.461  -0.360  0.00  0.00    -0.047 A 
ATOM      6  C4  UNL d   1       3.704   1.728   0.933  0.00  0.00    -0.004 A 
ENDROOT
TORSDOF 0
ENDMDL
