MODEL 1
REMARK minimizedAffinity 3.70800781
REMARK minimizedRMSD -1
REMARK  0 active torsions:
REMARK  status: ('A' for Active; 'I' for Inactive)
ROOT
ATOM      1  C   UNL d   1       4.438   2.523  -1.385  0.00  0.00     0.172 C 
ATOM      2  N   UNL d   1       3.527   1.639  -0.696  0.00  0.00    -0.070 N 
ATOM      3  C1  UNL d   1       2.392   1.089  -1.230  0.00  0.00    -0.004 A 
ATOM      4  C2  UNL d   1       1.804   0.309  -0.258  0.00  0.00    -0.047 A 
ATOM      5  C3  UNL d   1       2.612   0.395   0.901  0.00  0.00    -0.047 A 
ATOM      6  C4  UNL d   1       3.672   1.225   0.601  0.00  0.00    -0.004 A 
ENDROOT
TORSDOF 0
ENDMDL
