MODEL 1
REMARK minimizedAffinity 5.52880096
REMARK minimizedRMSD -1
REMARK  0 active torsions:
REMARK  status: ('A' for Active; 'I' for Inactive)
ROOT
ATOM      1  C   UNL d   1       4.860   3.446  -1.468  0.00  0.00     0.172 C 
ATOM      2  N   UNL d   1       4.060   2.297  -1.116  0.00  0.00    -0.070 N 
ATOM      3  C1  UNL d   1       3.452   2.087   0.092  0.00  0.00    -0.004 A 
ATOM      4  C2  UNL d   1       2.787   0.882   0.027  0.00  0.00    -0.047 A 
ATOM      5  C3  UNL d   1       3.004   0.348  -1.265  0.00  0.00    -0.047 A 
ATOM      6  C4  UNL d   1       3.795   1.244  -1.952  0.00  0.00    -0.004 A 
ENDROOT
TORSDOF 0
ENDMDL
