MODEL 1
REMARK minimizedAffinity 4.08144999
REMARK minimizedRMSD -1
REMARK  0 active torsions:
REMARK  status: ('A' for Active; 'I' for Inactive)
ROOT
ATOM      1  C   UNL d   1       2.653   2.148   2.385  0.00  0.00     0.172 C 
ATOM      2  N   UNL d   1       2.468   1.419   1.152  0.00  0.00    -0.070 N 
ATOM      3  C1  UNL d   1       2.335   1.975  -0.092  0.00  0.00    -0.004 A 
ATOM      4  C2  UNL d   1       2.178   0.949  -0.998  0.00  0.00    -0.047 A 
ATOM      5  C3  UNL d   1       2.217  -0.266  -0.274  0.00  0.00    -0.047 A 
ATOM      6  C4  UNL d   1       2.397   0.054   1.055  0.00  0.00    -0.004 A 
ENDROOT
TORSDOF 0
ENDMDL
