MODEL 1
REMARK minimizedAffinity 5.64161825
REMARK minimizedRMSD -1
REMARK  0 active torsions:
REMARK  status: ('A' for Active; 'I' for Inactive)
ROOT
ATOM      1  C   UNL d   1       1.094  -2.931  -0.812  0.00  0.00     0.172 C 
ATOM      2  N   UNL d   1       1.843  -1.744  -0.472  0.00  0.00    -0.070 N 
ATOM      3  C1  UNL d   1       2.533  -1.542   0.694  0.00  0.00    -0.004 A 
ATOM      4  C2  UNL d   1       3.109  -0.292   0.632  0.00  0.00    -0.047 A 
ATOM      5  C3  UNL d   1       2.753   0.278  -0.614  0.00  0.00    -0.047 A 
ATOM      6  C4  UNL d   1       1.969  -0.643  -1.277  0.00  0.00    -0.004 A 
ENDROOT
TORSDOF 0
ENDMDL
