MODEL 1
REMARK minimizedAffinity 6.11241817
REMARK minimizedRMSD -1
REMARK  0 active torsions:
REMARK  status: ('A' for Active; 'I' for Inactive)
ROOT
ATOM      1  C   UNL d   1      -5.652   4.155   5.944  0.00  0.00     0.172 C 
ATOM      2  N   UNL d   1      -5.726   4.635   4.584  0.00  0.00    -0.070 N 
ATOM      3  C1  UNL d   1      -5.537   3.877   3.458  0.00  0.00    -0.004 A 
ATOM      4  C2  UNL d   1      -5.693   4.701   2.364  0.00  0.00    -0.047 A 
ATOM      5  C3  UNL d   1      -5.986   5.998   2.849  0.00  0.00    -0.047 A 
ATOM      6  C4  UNL d   1      -6.000   5.928   4.226  0.00  0.00    -0.004 A 
ENDROOT
TORSDOF 0
ENDMDL
