MODEL 1
REMARK minimizedAffinity 2.82778049
REMARK minimizedRMSD -1
REMARK  0 active torsions:
REMARK  status: ('A' for Active; 'I' for Inactive)
ROOT
ATOM      1  C   UNL d   1       6.000   1.923  -1.586  0.00  0.00     0.172 C 
ATOM      2  N   UNL d   1       4.785   1.353  -1.052  0.00  0.00    -0.070 N 
ATOM      3  C1  UNL d   1       3.516   1.633  -1.483  0.00  0.00    -0.004 A 
ATOM      4  C2  UNL d   1       2.639   0.889  -0.724  0.00  0.00    -0.047 A 
ATOM      5  C3  UNL d   1       3.408   0.137   0.196  0.00  0.00    -0.047 A 
ATOM      6  C4  UNL d   1       4.733   0.443  -0.030  0.00  0.00    -0.004 A 
ENDROOT
TORSDOF 0
ENDMDL
