MODEL 1
REMARK minimizedAffinity 6.11281395
REMARK minimizedRMSD -1
REMARK  0 active torsions:
REMARK  status: ('A' for Active; 'I' for Inactive)
ROOT
ATOM      1  C   UNL d   1       1.261   2.227   5.331  0.00  0.00     0.172 C 
ATOM      2  N   UNL d   1       1.554   3.595   4.971  0.00  0.00    -0.070 N 
ATOM      3  C1  UNL d   1       2.483   3.996   4.048  0.00  0.00    -0.004 A 
ATOM      4  C2  UNL d   1       2.458   5.373   3.996  0.00  0.00    -0.047 A 
ATOM      5  C3  UNL d   1       1.481   5.815   4.919  0.00  0.00    -0.047 A 
ATOM      6  C4  UNL d   1       0.937   4.693   5.509  0.00  0.00    -0.004 A 
ENDROOT
TORSDOF 0
ENDMDL
