MODEL 1
REMARK minimizedAffinity 11.6749468
REMARK minimizedRMSD -1
REMARK  0 active torsions:
REMARK  status: ('A' for Active; 'I' for Inactive)
ROOT
ATOM      1  C   UNL d   1      -2.152   0.271  -2.124  0.00  0.00     0.172 C 
ATOM      2  N   UNL d   1      -3.142   0.543  -1.109  0.00  0.00    -0.070 N 
ATOM      3  C1  UNL d   1      -2.916   1.198   0.072  0.00  0.00    -0.004 A 
ATOM      4  C2  UNL d   1      -4.109   1.255   0.758  0.00  0.00    -0.047 A 
ATOM      5  C3  UNL d   1      -5.087   0.611  -0.037  0.00  0.00    -0.047 A 
ATOM      6  C4  UNL d   1      -4.461   0.180  -1.188  0.00  0.00    -0.004 A 
ENDROOT
TORSDOF 0
ENDMDL
