MODEL 1
REMARK minimizedAffinity 13.1036272
REMARK minimizedRMSD -1
REMARK  0 active torsions:
REMARK  status: ('A' for Active; 'I' for Inactive)
ROOT
ATOM      1  C   UNL d   1      -3.332  -3.731  -5.996  0.00  0.00     0.124 A 
ATOM      2  C1  UNL d   1      -1.950  -3.601  -5.995  0.00  0.00     0.062 A 
ATOM      3  C2  UNL d   1      -1.365  -2.338  -5.994  0.00  0.00     0.162 A 
ATOM      4  C3  UNL d   1      -2.163  -1.194  -5.993  0.00  0.00    -0.034 A 
ATOM      5  C4  UNL d   1      -3.552  -1.332  -5.994  0.00  0.00     0.162 A 
ATOM      6  C5  UNL d   1      -4.131  -2.597  -5.995  0.00  0.00     0.062 A 
ATOM      7  F   UNL d   1      -5.466  -2.720  -5.996  0.00  0.00    -0.097 F 
ATOM      8  F1  UNL d   1      -4.348  -0.253  -5.993  0.00  0.00    -0.096 F 
ATOM      9  I   UNL d   1      -1.292   0.697  -5.991  0.00  0.00    -0.060 I 
ATOM     10  F2  UNL d   1      -0.027  -2.243  -5.993  0.00  0.00    -0.096 F 
ATOM     11  F3  UNL d   1      -1.175  -4.696  -5.996  0.00  0.00    -0.097 F 
ATOM     12  F4  UNL d   1      -3.891  -4.948  -5.998  0.00  0.00    -0.092 F 
ENDROOT
TORSDOF 0
ENDMDL
