MODEL 1
REMARK minimizedAffinity 21.8715305
REMARK minimizedRMSD -1
REMARK  0 active torsions:
REMARK  status: ('A' for Active; 'I' for Inactive)
ROOT
ATOM      1  C   UNL d   1      -0.293  -0.276   2.877  0.00  0.00     0.124 A 
ATOM      2  C1  UNL d   1      -0.615  -1.437   2.189  0.00  0.00     0.062 A 
ATOM      3  C2  UNL d   1      -1.550  -1.404   1.158  0.00  0.00     0.162 A 
ATOM      4  C3  UNL d   1      -2.170  -0.204   0.809  0.00  0.00    -0.034 A 
ATOM      5  C4  UNL d   1      -1.841   0.960   1.506  0.00  0.00     0.162 A 
ATOM      6  C5  UNL d   1      -0.906   0.921   2.535  0.00  0.00     0.062 A 
ATOM      7  F   UNL d   1      -0.597   2.044   3.199  0.00  0.00    -0.097 F 
ATOM      8  F1  UNL d   1      -2.418   2.130   1.196  0.00  0.00    -0.096 F 
ATOM      9  I   UNL d   1      -3.568  -0.150  -0.732  0.00  0.00    -0.060 I 
ATOM     10  F2  UNL d   1      -1.842  -2.542   0.511  0.00  0.00    -0.096 F 
ATOM     11  F3  UNL d   1      -0.025  -2.596   2.518  0.00  0.00    -0.097 F 
ATOM     12  F4  UNL d   1       0.606  -0.311   3.869  0.00  0.00    -0.092 F 
ENDROOT
TORSDOF 0
ENDMDL
