MODEL 1
REMARK minimizedAffinity 7.17300463
REMARK minimizedRMSD -1
REMARK  0 active torsions:
REMARK  status: ('A' for Active; 'I' for Inactive)
ROOT
ATOM      1  C   UNL d   1       2.299  -5.904   2.370  0.00  0.00     0.124 A 
ATOM      2  C1  UNL d   1       3.609  -5.896   1.911  0.00  0.00     0.062 A 
ATOM      3  C2  UNL d   1       4.667  -5.923   2.815  0.00  0.00     0.162 A 
ATOM      4  C3  UNL d   1       4.420  -5.959   4.187  0.00  0.00    -0.034 A 
ATOM      5  C4  UNL d   1       3.100  -5.965   4.641  0.00  0.00     0.162 A 
ATOM      6  C5  UNL d   1       2.046  -5.938   3.734  0.00  0.00     0.062 A 
ATOM      7  F   UNL d   1       0.781  -5.946   4.179  0.00  0.00    -0.097 F 
ATOM      8  F1  UNL d   1       2.826  -5.999   5.954  0.00  0.00    -0.096 F 
ATOM      9  I   UNL d   1       6.000  -5.999   5.542  0.00  0.00    -0.060 I 
ATOM     10  F2  UNL d   1       5.923  -5.915   2.343  0.00  0.00    -0.096 F 
ATOM     11  F3  UNL d   1       3.856  -5.862   0.594  0.00  0.00    -0.097 F 
ATOM     12  F4  UNL d   1       1.283  -5.877   1.498  0.00  0.00    -0.092 F 
ENDROOT
TORSDOF 0
ENDMDL
