MODEL 1
REMARK minimizedAffinity 9.71963882
REMARK minimizedRMSD -1
REMARK  0 active torsions:
REMARK  status: ('A' for Active; 'I' for Inactive)
ROOT
ATOM      1  C   UNL d   1      -4.720  -2.259  -5.999  0.00  0.00     0.124 A 
ATOM      2  C1  UNL d   1      -4.409  -0.907  -5.999  0.00  0.00     0.062 A 
ATOM      3  C2  UNL d   1      -3.080  -0.494  -5.998  0.00  0.00     0.162 A 
ATOM      4  C3  UNL d   1      -2.051  -1.435  -5.998  0.00  0.00    -0.034 A 
ATOM      5  C4  UNL d   1      -2.371  -2.794  -5.997  0.00  0.00     0.162 A 
ATOM      6  C5  UNL d   1      -3.701  -3.201  -5.998  0.00  0.00     0.062 A 
ATOM      7  F   UNL d   1      -3.999  -4.509  -5.998  0.00  0.00    -0.097 F 
ATOM      8  F1  UNL d   1      -1.406  -3.725  -5.997  0.00  0.00    -0.096 F 
ATOM      9  I   UNL d   1      -0.062  -0.821  -5.997  0.00  0.00    -0.060 I 
ATOM     10  F2  UNL d   1      -2.809   0.820  -5.999  0.00  0.00    -0.096 F 
ATOM     11  F3  UNL d   1      -5.392   0.005  -6.000  0.00  0.00    -0.097 F 
ATOM     12  F4  UNL d   1      -6.000  -2.654  -5.999  0.00  0.00    -0.092 F 
ENDROOT
TORSDOF 0
ENDMDL
