MODEL 1
REMARK minimizedAffinity 17.7938538
REMARK minimizedRMSD -1
REMARK  0 active torsions:
REMARK  status: ('A' for Active; 'I' for Inactive)
ROOT
ATOM      1  C   UNL d   1      -1.035  -1.398  -5.924  0.00  0.00     0.124 A 
ATOM      2  C1  UNL d   1      -1.311  -2.758  -5.950  0.00  0.00     0.062 A 
ATOM      3  C2  UNL d   1      -2.629  -3.205  -5.971  0.00  0.00     0.162 A 
ATOM      4  C3  UNL d   1      -3.682  -2.290  -5.968  0.00  0.00    -0.034 A 
ATOM      5  C4  UNL d   1      -3.397  -0.924  -5.940  0.00  0.00     0.162 A 
ATOM      6  C5  UNL d   1      -2.078  -0.483  -5.919  0.00  0.00     0.062 A 
ATOM      7  F   UNL d   1      -1.813   0.832  -5.894  0.00  0.00    -0.097 F 
ATOM      8  F1  UNL d   1      -4.385  -0.017  -5.936  0.00  0.00    -0.096 F 
ATOM      9  I   UNL d   1      -5.654  -2.954  -5.999  0.00  0.00    -0.060 I 
ATOM     10  F2  UNL d   1      -2.866  -4.525  -5.996  0.00  0.00    -0.096 F 
ATOM     11  F3  UNL d   1      -0.305  -3.645  -5.954  0.00  0.00    -0.097 F 
ATOM     12  F4  UNL d   1       0.234  -0.971  -5.903  0.00  0.00    -0.092 F 
ENDROOT
TORSDOF 0
ENDMDL
