MODEL 1
REMARK minimizedAffinity 14.9772978
REMARK minimizedRMSD -1
REMARK  0 active torsions:
REMARK  status: ('A' for Active; 'I' for Inactive)
ROOT
ATOM      1  C   UNL d   1      -3.179   1.017   1.555  0.00  0.00     0.124 A 
ATOM      2  C1  UNL d   1      -4.406   1.249   2.162  0.00  0.00     0.062 A 
ATOM      3  C2  UNL d   1      -4.666   0.739   3.431  0.00  0.00     0.162 A 
ATOM      4  C3  UNL d   1      -3.697  -0.006   4.103  0.00  0.00    -0.034 A 
ATOM      5  C4  UNL d   1      -2.466  -0.235   3.486  0.00  0.00     0.162 A 
ATOM      6  C5  UNL d   1      -2.211   0.276   2.218  0.00  0.00     0.062 A 
ATOM      7  F   UNL d   1      -1.025   0.051   1.633  0.00  0.00    -0.097 F 
ATOM      8  F1  UNL d   1      -1.512  -0.948   4.103  0.00  0.00    -0.096 F 
ATOM      9  I   UNL d   1      -4.083  -0.769   6.000  0.00  0.00    -0.060 I 
ATOM     10  F2  UNL d   1      -5.860   0.979   3.993  0.00  0.00    -0.096 F 
ATOM     11  F3  UNL d   1      -5.343   1.964   1.524  0.00  0.00    -0.097 F 
ATOM     12  F4  UNL d   1      -2.931   1.508   0.334  0.00  0.00    -0.092 F 
ENDROOT
TORSDOF 0
ENDMDL
