MODEL 1
REMARK minimizedAffinity 18.0305386
REMARK minimizedRMSD -1
REMARK  0 active torsions:
REMARK  status: ('A' for Active; 'I' for Inactive)
ROOT
ATOM      1  C   UNL d   1      -3.111   1.208   1.915  0.00  0.00     0.124 A 
ATOM      2  C1  UNL d   1      -2.097   0.415   2.432  0.00  0.00     0.062 A 
ATOM      3  C2  UNL d   1      -2.305  -0.317   3.597  0.00  0.00     0.162 A 
ATOM      4  C3  UNL d   1      -3.534  -0.260   4.254  0.00  0.00    -0.034 A 
ATOM      5  C4  UNL d   1      -4.550   0.541   3.729  0.00  0.00     0.162 A 
ATOM      6  C5  UNL d   1      -4.337   1.271   2.564  0.00  0.00     0.062 A 
ATOM      7  F   UNL d   1      -5.318   2.037   2.066  0.00  0.00    -0.097 F 
ATOM      8  F1  UNL d   1      -5.744   0.619   4.335  0.00  0.00    -0.096 F 
ATOM      9  I   UNL d   1      -3.850  -1.352   5.997  0.00  0.00    -0.060 I 
ATOM     10  F2  UNL d   1      -1.306  -1.075   4.074  0.00  0.00    -0.096 F 
ATOM     11  F3  UNL d   1      -0.911   0.354   1.808  0.00  0.00    -0.097 F 
ATOM     12  F4  UNL d   1      -2.908   1.912   0.794  0.00  0.00    -0.092 F 
ENDROOT
TORSDOF 0
ENDMDL
