MODEL 1
REMARK minimizedAffinity 11.9476328
REMARK minimizedRMSD -1
REMARK  0 active torsions:
REMARK  status: ('A' for Active; 'I' for Inactive)
ROOT
ATOM      1  C   UNL d   1      -4.817  -0.030   0.993  0.00  0.00     0.124 A 
ATOM      2  C1  UNL d   1      -3.623   0.572   1.365  0.00  0.00     0.062 A 
ATOM      3  C2  UNL d   1      -2.438  -0.159   1.355  0.00  0.00     0.162 A 
ATOM      4  C3  UNL d   1      -2.441  -1.499   0.968  0.00  0.00    -0.034 A 
ATOM      5  C4  UNL d   1      -3.647  -2.097   0.596  0.00  0.00     0.162 A 
ATOM      6  C5  UNL d   1      -4.828  -1.363   0.608  0.00  0.00     0.062 A 
ATOM      7  F   UNL d   1      -5.981  -1.946   0.248  0.00  0.00    -0.097 F 
ATOM      8  F1  UNL d   1      -3.685  -3.384   0.219  0.00  0.00    -0.096 F 
ATOM      9  I   UNL d   1      -0.672  -2.595   0.951  0.00  0.00    -0.060 I 
ATOM     10  F2  UNL d   1      -1.299   0.448   1.720  0.00  0.00    -0.096 F 
ATOM     11  F3  UNL d   1      -3.611   1.859   1.738  0.00  0.00    -0.097 F 
ATOM     12  F4  UNL d   1      -5.956   0.675   1.005  0.00  0.00    -0.092 F 
ENDROOT
TORSDOF 0
ENDMDL
