MODEL 1
REMARK minimizedAffinity 10.9984999
REMARK minimizedRMSD -1
REMARK  0 active torsions:
REMARK  status: ('A' for Active; 'I' for Inactive)
ROOT
ATOM      1  C   UNL d   1      -3.320  -0.624  -5.854  0.00  0.00     0.124 A 
ATOM      2  C1  UNL d   1      -4.591  -1.178  -5.907  0.00  0.00     0.062 A 
ATOM      3  C2  UNL d   1      -4.752  -2.560  -5.948  0.00  0.00     0.162 A 
ATOM      4  C3  UNL d   1      -3.637  -3.399  -5.935  0.00  0.00    -0.034 A 
ATOM      5  C4  UNL d   1      -2.361  -2.834  -5.883  0.00  0.00     0.162 A 
ATOM      6  C5  UNL d   1      -2.206  -1.452  -5.842  0.00  0.00     0.062 A 
ATOM      7  F   UNL d   1      -0.977  -0.919  -5.792  0.00  0.00    -0.097 F 
ATOM      8  F1  UNL d   1      -1.268  -3.611  -5.870  0.00  0.00    -0.096 F 
ATOM      9  I   UNL d   1      -3.872  -5.466  -5.996  0.00  0.00    -0.060 I 
ATOM     10  F2  UNL d   1      -5.992  -3.068  -5.998  0.00  0.00    -0.096 F 
ATOM     11  F3  UNL d   1      -5.669  -0.380  -5.920  0.00  0.00    -0.097 F 
ATOM     12  F4  UNL d   1      -3.169   0.706  -5.816  0.00  0.00    -0.092 F 
ENDROOT
TORSDOF 0
ENDMDL
