MODEL 1
REMARK minimizedAffinity 14.117136
REMARK minimizedRMSD -1
REMARK  0 active torsions:
REMARK  status: ('A' for Active; 'I' for Inactive)
ROOT
ATOM      1  C   UNL d   1       2.329  -0.099  -2.921  0.00  0.00     0.124 A 
ATOM      2  C1  UNL d   1       2.383   1.116  -2.253  0.00  0.00     0.062 A 
ATOM      3  C2  UNL d   1       3.002   2.213  -2.844  0.00  0.00     0.162 A 
ATOM      4  C3  UNL d   1       3.572   2.100  -4.113  0.00  0.00    -0.034 A 
ATOM      5  C4  UNL d   1       3.515   0.874  -4.778  0.00  0.00     0.162 A 
ATOM      6  C5  UNL d   1       2.895  -0.219  -4.182  0.00  0.00     0.062 A 
ATOM      7  F   UNL d   1       2.844  -1.393  -4.829  0.00  0.00    -0.097 F 
ATOM      8  F1  UNL d   1       4.053   0.731  -5.998  0.00  0.00    -0.096 F 
ATOM      9  I   UNL d   1       4.499   3.738  -5.001  0.00  0.00    -0.060 I 
ATOM     10  F2  UNL d   1       3.040   3.376  -2.176  0.00  0.00    -0.096 F 
ATOM     11  F3  UNL d   1       1.838   1.234  -1.033  0.00  0.00    -0.097 F 
ATOM     12  F4  UNL d   1       1.734  -1.154  -2.349  0.00  0.00    -0.092 F 
ENDROOT
TORSDOF 0
ENDMDL
