MODEL 1
REMARK minimizedAffinity 21.595459
REMARK minimizedRMSD -1
REMARK  0 active torsions:
REMARK  status: ('A' for Active; 'I' for Inactive)
ROOT
ATOM      1  C   UNL d   1       4.256   3.792  -4.156  0.00  0.00     0.124 A 
ATOM      2  C1  UNL d   1       3.285   3.665  -3.173  0.00  0.00     0.062 A 
ATOM      3  C2  UNL d   1       2.535   2.496  -3.077  0.00  0.00     0.162 A 
ATOM      4  C3  UNL d   1       2.755   1.444  -3.966  0.00  0.00    -0.034 A 
ATOM      5  C4  UNL d   1       3.733   1.580  -4.953  0.00  0.00     0.162 A 
ATOM      6  C5  UNL d   1       4.479   2.750  -5.045  0.00  0.00     0.062 A 
ATOM      7  F   UNL d   1       5.418   2.872  -5.995  0.00  0.00    -0.097 F 
ATOM      8  F1  UNL d   1       3.970   0.588  -5.825  0.00  0.00    -0.096 F 
ATOM      9  I   UNL d   1       1.636  -0.305  -3.826  0.00  0.00    -0.060 I 
ATOM     10  F2  UNL d   1       1.603   2.400  -2.117  0.00  0.00    -0.096 F 
ATOM     11  F3  UNL d   1       3.067   4.670  -2.313  0.00  0.00    -0.097 F 
ATOM     12  F4  UNL d   1       4.976   4.918  -4.247  0.00  0.00    -0.092 F 
ENDROOT
TORSDOF 0
ENDMDL
