MODEL 1
REMARK minimizedAffinity 25.5660934
REMARK minimizedRMSD -1
REMARK  0 active torsions:
REMARK  status: ('A' for Active; 'I' for Inactive)
ROOT
ATOM      1  C   UNL d   1      -0.746  -2.232   1.914  0.00  0.00     0.124 A 
ATOM      2  C1  UNL d   1      -0.158  -2.364   3.164  0.00  0.00     0.062 A 
ATOM      3  C2  UNL d   1       0.686  -3.439   3.431  0.00  0.00     0.162 A 
ATOM      4  C3  UNL d   1       0.947  -4.390   2.444  0.00  0.00    -0.034 A 
ATOM      5  C4  UNL d   1       0.350  -4.251   1.190  0.00  0.00     0.162 A 
ATOM      6  C5  UNL d   1      -0.492  -3.175   0.929  0.00  0.00     0.062 A 
ATOM      7  F   UNL d   1      -1.060  -3.049  -0.279  0.00  0.00    -0.097 F 
ATOM      8  F1  UNL d   1       0.579  -5.147   0.219  0.00  0.00    -0.096 F 
ATOM      9  I   UNL d   1       2.208  -5.998   2.839  0.00  0.00    -0.060 I 
ATOM     10  F2  UNL d   1       1.241  -3.541   4.647  0.00  0.00    -0.096 F 
ATOM     11  F3  UNL d   1      -0.402  -1.455   4.119  0.00  0.00    -0.097 F 
ATOM     12  F4  UNL d   1      -1.558  -1.198   1.661  0.00  0.00    -0.092 F 
ENDROOT
TORSDOF 0
ENDMDL
