MODEL 1
REMARK minimizedAffinity 14.1915731
REMARK minimizedRMSD -1
REMARK  0 active torsions:
REMARK  status: ('A' for Active; 'I' for Inactive)
ROOT
ATOM      1  C   UNL d   1      -1.065   2.041   2.669  0.00  0.00     0.124 A 
ATOM      2  C1  UNL d   1      -0.760   0.696   2.514  0.00  0.00     0.062 A 
ATOM      3  C2  UNL d   1      -1.653  -0.154   1.868  0.00  0.00     0.162 A 
ATOM      4  C3  UNL d   1      -2.860   0.338   1.372  0.00  0.00    -0.034 A 
ATOM      5  C4  UNL d   1      -3.160   1.692   1.533  0.00  0.00     0.162 A 
ATOM      6  C5  UNL d   1      -2.265   2.538   2.179  0.00  0.00     0.062 A 
ATOM      7  F   UNL d   1      -2.561   3.837   2.329  0.00  0.00    -0.097 F 
ATOM      8  F1  UNL d   1      -4.312   2.198   1.068  0.00  0.00    -0.096 F 
ATOM      9  I   UNL d   1      -4.198  -0.930   0.406  0.00  0.00    -0.060 I 
ATOM     10  F2  UNL d   1      -1.332  -1.449   1.732  0.00  0.00    -0.096 F 
ATOM     11  F3  UNL d   1       0.398   0.214   2.987  0.00  0.00    -0.097 F 
ATOM     12  F4  UNL d   1      -0.204   2.857   3.292  0.00  0.00    -0.092 F 
ENDROOT
TORSDOF 0
ENDMDL
