MODEL 1
REMARK minimizedAffinity 6.86684847
REMARK minimizedRMSD -1
REMARK  0 active torsions:
REMARK  status: ('A' for Active; 'I' for Inactive)
ROOT
ATOM      1  C   UNL d   1      -4.703  -3.314  -5.999  0.00  0.00     0.124 A 
ATOM      2  C1  UNL d   1      -4.472  -1.946  -5.999  0.00  0.00     0.062 A 
ATOM      3  C2  UNL d   1      -3.170  -1.455  -5.997  0.00  0.00     0.162 A 
ATOM      4  C3  UNL d   1      -2.087  -2.335  -5.998  0.00  0.00    -0.034 A 
ATOM      5  C4  UNL d   1      -2.327  -3.710  -5.998  0.00  0.00     0.162 A 
ATOM      6  C5  UNL d   1      -3.631  -4.195  -5.999  0.00  0.00     0.062 A 
ATOM      7  F   UNL d   1      -3.852  -5.518  -6.000  0.00  0.00    -0.097 F 
ATOM      8  F1  UNL d   1      -1.309  -4.583  -5.998  0.00  0.00    -0.096 F 
ATOM      9  I   UNL d   1      -0.137  -1.606  -5.996  0.00  0.00    -0.060 I 
ATOM     10  F2  UNL d   1      -2.976  -0.128  -5.997  0.00  0.00    -0.096 F 
ATOM     11  F3  UNL d   1      -5.507  -1.093  -5.998  0.00  0.00    -0.097 F 
ATOM     12  F4  UNL d   1      -5.958  -3.783  -6.000  0.00  0.00    -0.092 F 
ENDROOT
TORSDOF 0
ENDMDL
