MODEL 1
REMARK minimizedAffinity 5.77717924
REMARK minimizedRMSD -1
REMARK  0 active torsions:
REMARK  status: ('A' for Active; 'I' for Inactive)
ROOT
ATOM      1  C   UNL d   1      -1.662  -1.618  -5.952  0.00  0.00     0.124 A 
ATOM      2  C1  UNL d   1      -1.733  -3.004  -5.969  0.00  0.00     0.062 A 
ATOM      3  C2  UNL d   1      -2.970  -3.641  -5.982  0.00  0.00     0.162 A 
ATOM      4  C3  UNL d   1      -4.147  -2.893  -5.980  0.00  0.00    -0.034 A 
ATOM      5  C4  UNL d   1      -4.068  -1.499  -5.962  0.00  0.00     0.162 A 
ATOM      6  C5  UNL d   1      -2.829  -0.867  -5.949  0.00  0.00     0.062 A 
ATOM      7  F   UNL d   1      -2.762   0.472  -5.933  0.00  0.00    -0.097 F 
ATOM      8  F1  UNL d   1      -5.180  -0.749  -5.960  0.00  0.00    -0.096 F 
ATOM      9  I   UNL d   1      -6.000  -3.841  -6.000  0.00  0.00    -0.060 I 
ATOM     10  F2  UNL d   1      -3.009  -4.982  -5.998  0.00  0.00    -0.096 F 
ATOM     11  F3  UNL d   1      -0.607  -3.732  -5.971  0.00  0.00    -0.097 F 
ATOM     12  F4  UNL d   1      -0.470  -1.008  -5.939  0.00  0.00    -0.092 F 
ENDROOT
TORSDOF 0
ENDMDL
