MODEL 1
REMARK minimizedAffinity 14.4333839
REMARK minimizedRMSD -1
REMARK  0 active torsions:
REMARK  status: ('A' for Active; 'I' for Inactive)
ROOT
ATOM      1  C   UNL d   1      -0.159   0.084   0.616  0.00  0.00     0.124 A 
ATOM      2  C1  UNL d   1       0.064   0.902  -0.483  0.00  0.00     0.062 A 
ATOM      3  C2  UNL d   1       1.130   1.797  -0.484  0.00  0.00     0.162 A 
ATOM      4  C3  UNL d   1       1.982   1.878   0.618  0.00  0.00    -0.034 A 
ATOM      5  C4  UNL d   1       1.750   1.053   1.719  0.00  0.00     0.162 A 
ATOM      6  C5  UNL d   1       0.684   0.160   1.716  0.00  0.00     0.062 A 
ATOM      7  F   UNL d   1       0.470  -0.630   2.778  0.00  0.00    -0.097 F 
ATOM      8  F1  UNL d   1       2.550   1.105   2.795  0.00  0.00    -0.096 F 
ATOM      9  I   UNL d   1       3.576   3.216   0.620  0.00  0.00    -0.060 I 
ATOM     10  F2  UNL d   1       1.321   2.576  -1.559  0.00  0.00    -0.096 F 
ATOM     11  F3  UNL d   1      -0.750   0.831  -1.546  0.00  0.00    -0.097 F 
ATOM     12  F4  UNL d   1      -1.186  -0.776   0.615  0.00  0.00    -0.092 F 
ENDROOT
TORSDOF 0
ENDMDL
