MODEL 1
REMARK minimizedAffinity 13.7407579
REMARK minimizedRMSD -1
REMARK  0 active torsions:
REMARK  status: ('A' for Active; 'I' for Inactive)
ROOT
ATOM      1  C   UNL d   1      -1.709  -2.972  -4.565  0.00  0.00     0.124 A 
ATOM      2  C1  UNL d   1      -0.384  -2.573  -4.665  0.00  0.00     0.062 A 
ATOM      3  C2  UNL d   1       0.227  -1.905  -3.608  0.00  0.00     0.162 A 
ATOM      4  C3  UNL d   1      -0.486  -1.633  -2.440  0.00  0.00    -0.034 A 
ATOM      5  C4  UNL d   1      -1.819  -2.037  -2.348  0.00  0.00     0.162 A 
ATOM      6  C5  UNL d   1      -2.426  -2.704  -3.408  0.00  0.00     0.062 A 
ATOM      7  F   UNL d   1      -3.706  -3.089  -3.310  0.00  0.00    -0.097 F 
ATOM      8  F1  UNL d   1      -2.535  -1.791  -1.240  0.00  0.00    -0.096 F 
ATOM      9  I   UNL d   1       0.424  -0.634  -0.857  0.00  0.00    -0.060 I 
ATOM     10  F2  UNL d   1       1.509  -1.531  -3.731  0.00  0.00    -0.096 F 
ATOM     11  F3  UNL d   1       0.310  -2.830  -5.783  0.00  0.00    -0.097 F 
ATOM     12  F4  UNL d   1      -2.295  -3.614  -5.585  0.00  0.00    -0.092 F 
ENDROOT
TORSDOF 0
ENDMDL
