MODEL 1
REMARK minimizedAffinity 6.16382504
REMARK minimizedRMSD -1
REMARK  0 active torsions:
REMARK  status: ('A' for Active; 'I' for Inactive)
ROOT
ATOM      1  C   UNL d   1       0.039  -5.999   1.260  0.00  0.00     0.124 A 
ATOM      2  C1  UNL d   1       1.401  -5.999   1.528  0.00  0.00     0.062 A 
ATOM      3  C2  UNL d   1       1.856  -5.998   2.843  0.00  0.00     0.162 A 
ATOM      4  C3  UNL d   1       0.948  -5.999   3.902  0.00  0.00    -0.034 A 
ATOM      5  C4  UNL d   1      -0.421  -5.998   3.625  0.00  0.00     0.162 A 
ATOM      6  C5  UNL d   1      -0.870  -5.999   2.309  0.00  0.00     0.062 A 
ATOM      7  F   UNL d   1      -2.187  -5.999   2.052  0.00  0.00    -0.097 F 
ATOM      8  F1  UNL d   1      -1.321  -5.999   4.619  0.00  0.00    -0.096 F 
ATOM      9  I   UNL d   1       1.624  -5.998   5.870  0.00  0.00    -0.060 I 
ATOM     10  F2  UNL d   1       3.177  -5.998   3.072  0.00  0.00    -0.096 F 
ATOM     11  F3  UNL d   1       2.281  -5.998   0.516  0.00  0.00    -0.097 F 
ATOM     12  F4  UNL d   1      -0.397  -5.999  -0.006  0.00  0.00    -0.092 F 
ENDROOT
TORSDOF 0
ENDMDL
