MODEL 1
REMARK minimizedAffinity 13.2580309
REMARK minimizedRMSD -1
REMARK  0 active torsions:
REMARK  status: ('A' for Active; 'I' for Inactive)
ROOT
ATOM      1  C   UNL d   1       0.667  -5.996   1.480  0.00  0.00     0.124 A 
ATOM      2  C1  UNL d   1      -0.295  -5.997   0.480  0.00  0.00     0.062 A 
ATOM      3  C2  UNL d   1      -1.647  -5.998   0.809  0.00  0.00     0.162 A 
ATOM      4  C3  UNL d   1      -2.046  -5.998   2.145  0.00  0.00    -0.034 A 
ATOM      5  C4  UNL d   1      -1.073  -5.998   3.146  0.00  0.00     0.162 A 
ATOM      6  C5  UNL d   1       0.277  -5.996   2.812  0.00  0.00     0.062 A 
ATOM      7  F   UNL d   1       1.205  -5.996   3.780  0.00  0.00    -0.097 F 
ATOM      8  F1  UNL d   1      -1.422  -5.997   4.441  0.00  0.00    -0.096 F 
ATOM      9  I   UNL d   1      -4.068  -6.000   2.641  0.00  0.00    -0.060 I 
ATOM     10  F2  UNL d   1      -2.555  -5.999  -0.179  0.00  0.00    -0.096 F 
ATOM     11  F3  UNL d   1       0.079  -5.998  -0.808  0.00  0.00    -0.097 F 
ATOM     12  F4  UNL d   1       1.968  -5.996   1.161  0.00  0.00    -0.092 F 
ENDROOT
TORSDOF 0
ENDMDL
