MODEL 1
REMARK minimizedAffinity 12.855854
REMARK minimizedRMSD -1
REMARK  0 active torsions:
REMARK  status: ('A' for Active; 'I' for Inactive)
ROOT
ATOM      1  C   UNL d   1       2.216   0.725   2.076  0.00  0.00     0.124 A 
ATOM      2  C1  UNL d   1       1.013   1.407   2.188  0.00  0.00     0.062 A 
ATOM      3  C2  UNL d   1      -0.193   0.729   2.034  0.00  0.00     0.162 A 
ATOM      4  C3  UNL d   1      -0.201  -0.640   1.767  0.00  0.00    -0.034 A 
ATOM      5  C4  UNL d   1       1.013  -1.319   1.655  0.00  0.00     0.162 A 
ATOM      6  C5  UNL d   1       2.216  -0.637   1.810  0.00  0.00     0.062 A 
ATOM      7  F   UNL d   1       3.377  -1.298   1.701  0.00  0.00    -0.097 F 
ATOM      8  F1  UNL d   1       1.041  -2.635   1.398  0.00  0.00    -0.096 F 
ATOM      9  I   UNL d   1      -2.002  -1.657   1.535  0.00  0.00    -0.060 I 
ATOM     10  F2  UNL d   1      -1.341   1.414   2.147  0.00  0.00    -0.096 F 
ATOM     11  F3  UNL d   1       1.011   2.723   2.445  0.00  0.00    -0.097 F 
ATOM     12  F4  UNL d   1       3.375   1.380   2.224  0.00  0.00    -0.092 F 
ENDROOT
TORSDOF 0
ENDMDL
