MODEL 1
REMARK minimizedAffinity 20.3165245
REMARK minimizedRMSD -1
REMARK  0 active torsions:
REMARK  status: ('A' for Active; 'I' for Inactive)
ROOT
ATOM      1  C   UNL d   1      -0.855  -0.358   2.951  0.00  0.00     0.124 A 
ATOM      2  C1  UNL d   1      -0.083   0.134   1.908  0.00  0.00     0.062 A 
ATOM      3  C2  UNL d   1      -0.329  -0.276   0.600  0.00  0.00     0.162 A 
ATOM      4  C3  UNL d   1      -1.353  -1.183   0.329  0.00  0.00    -0.034 A 
ATOM      5  C4  UNL d   1      -2.125  -1.675   1.383  0.00  0.00     0.162 A 
ATOM      6  C5  UNL d   1      -1.875  -1.262   2.688  0.00  0.00     0.062 A 
ATOM      7  F   UNL d   1      -2.621  -1.739   3.694  0.00  0.00    -0.097 F 
ATOM      8  F1  UNL d   1      -3.117  -2.549   1.157  0.00  0.00    -0.096 F 
ATOM      9  I   UNL d   1      -1.724  -1.799  -1.625  0.00  0.00    -0.060 I 
ATOM     10  F2  UNL d   1       0.432   0.217  -0.388  0.00  0.00    -0.096 F 
ATOM     11  F3  UNL d   1       0.903   1.007   2.159  0.00  0.00    -0.097 F 
ATOM     12  F4  UNL d   1      -0.616   0.037   4.208  0.00  0.00    -0.092 F 
ENDROOT
TORSDOF 0
ENDMDL
