MODEL 1
REMARK minimizedAffinity 9.87734795
REMARK minimizedRMSD -1
REMARK  0 active torsions:
REMARK  status: ('A' for Active; 'I' for Inactive)
ROOT
ATOM      1  C   UNL d   1       1.324  -5.999   2.569  0.00  0.00     0.124 A 
ATOM      2  C1  UNL d   1       0.429  -5.999   3.629  0.00  0.00     0.062 A 
ATOM      3  C2  UNL d   1      -0.942  -5.998   3.388  0.00  0.00     0.162 A 
ATOM      4  C3  UNL d   1      -1.426  -5.999   2.080  0.00  0.00    -0.034 A 
ATOM      5  C4  UNL d   1      -0.520  -5.998   1.019  0.00  0.00     0.162 A 
ATOM      6  C5  UNL d   1       0.849  -5.998   1.265  0.00  0.00     0.062 A 
ATOM      7  F   UNL d   1       1.713  -5.998   0.239  0.00  0.00    -0.097 F 
ATOM      8  F1  UNL d   1      -0.952  -5.999  -0.251  0.00  0.00    -0.096 F 
ATOM      9  I   UNL d   1      -3.475  -5.999   1.716  0.00  0.00    -0.060 I 
ATOM     10  F2  UNL d   1      -1.784  -5.998   4.433  0.00  0.00    -0.096 F 
ATOM     11  F3  UNL d   1       0.886  -5.998   4.890  0.00  0.00    -0.097 F 
ATOM     12  F4  UNL d   1       2.643  -5.998   2.803  0.00  0.00    -0.092 F 
ENDROOT
TORSDOF 0
ENDMDL
