MODEL 1
REMARK minimizedAffinity 11.3525105
REMARK minimizedRMSD -1
REMARK  0 active torsions:
REMARK  status: ('A' for Active; 'I' for Inactive)
ROOT
ATOM      1  C   UNL d   1      -0.352   0.683   0.038  0.00  0.00     0.124 A 
ATOM      2  C1  UNL d   1      -0.966  -0.258  -0.777  0.00  0.00     0.062 A 
ATOM      3  C2  UNL d   1      -1.516  -1.410  -0.223  0.00  0.00     0.162 A 
ATOM      4  C3  UNL d   1      -1.455  -1.629   1.153  0.00  0.00    -0.034 A 
ATOM      5  C4  UNL d   1      -0.834  -0.678   1.966  0.00  0.00     0.162 A 
ATOM      6  C5  UNL d   1      -0.287   0.473   1.408  0.00  0.00     0.062 A 
ATOM      7  F   UNL d   1       0.306   1.381   2.197  0.00  0.00    -0.097 F 
ATOM      8  F1  UNL d   1      -0.758  -0.856   3.293  0.00  0.00    -0.096 F 
ATOM      9  I   UNL d   1      -2.275  -3.351   1.984  0.00  0.00    -0.060 I 
ATOM     10  F2  UNL d   1      -2.103  -2.303  -1.034  0.00  0.00    -0.096 F 
ATOM     11  F3  UNL d   1      -1.029  -0.057  -2.101  0.00  0.00    -0.097 F 
ATOM     12  F4  UNL d   1       0.177   1.791  -0.497  0.00  0.00    -0.092 F 
ENDROOT
TORSDOF 0
ENDMDL
