MODEL 1
REMARK minimizedAffinity 8.63305283
REMARK minimizedRMSD -1
REMARK  0 active torsions:
REMARK  status: ('A' for Active; 'I' for Inactive)
ROOT
ATOM      1  C   UNL d   1      -2.357  -5.994   3.733  0.00  0.00     0.124 A 
ATOM      2  C1  UNL d   1      -3.695  -5.995   4.102  0.00  0.00     0.062 A 
ATOM      3  C2  UNL d   1      -4.690  -5.995   3.129  0.00  0.00     0.162 A 
ATOM      4  C3  UNL d   1      -4.351  -5.994   1.776  0.00  0.00    -0.034 A 
ATOM      5  C4  UNL d   1      -3.003  -5.992   1.412  0.00  0.00     0.162 A 
ATOM      6  C5  UNL d   1      -2.013  -5.993   2.389  0.00  0.00     0.062 A 
ATOM      7  F   UNL d   1      -0.720  -5.992   2.030  0.00  0.00    -0.097 F 
ATOM      8  F1  UNL d   1      -2.642  -5.991   0.120  0.00  0.00    -0.096 F 
ATOM      9  I   UNL d   1      -5.836  -5.993   0.317  0.00  0.00    -0.060 I 
ATOM     10  F2  UNL d   1      -5.975  -5.996   3.514  0.00  0.00    -0.096 F 
ATOM     11  F3  UNL d   1      -4.031  -5.996   5.400  0.00  0.00    -0.097 F 
ATOM     12  F4  UNL d   1      -1.402  -5.994   4.671  0.00  0.00    -0.092 F 
ENDROOT
TORSDOF 0
ENDMDL
