MODEL 1
REMARK minimizedAffinity 13.0257387
REMARK minimizedRMSD -1
REMARK  0 active torsions:
REMARK  status: ('A' for Active; 'I' for Inactive)
ROOT
ATOM      1  C   UNL d   1      -2.156  -2.636   1.876  0.00  0.00     0.124 A 
ATOM      2  C1  UNL d   1      -2.056  -1.918   3.060  0.00  0.00     0.062 A 
ATOM      3  C2  UNL d   1      -3.152  -1.210   3.543  0.00  0.00     0.162 A 
ATOM      4  C3  UNL d   1      -4.359  -1.215   2.843  0.00  0.00    -0.034 A 
ATOM      5  C4  UNL d   1      -4.451  -1.939   1.652  0.00  0.00     0.162 A 
ATOM      6  C5  UNL d   1      -3.353  -2.645   1.173  0.00  0.00     0.062 A 
ATOM      7  F   UNL d   1      -3.451  -3.338   0.029  0.00  0.00    -0.097 F 
ATOM      8  F1  UNL d   1      -5.596  -1.966   0.954  0.00  0.00    -0.096 F 
ATOM      9  I   UNL d   1      -6.000  -0.157   3.562  0.00  0.00    -0.060 I 
ATOM     10  F2  UNL d   1      -3.028  -0.525   4.690  0.00  0.00    -0.096 F 
ATOM     11  F3  UNL d   1      -0.901  -1.907   3.740  0.00  0.00    -0.097 F 
ATOM     12  F4  UNL d   1      -1.099  -3.316   1.413  0.00  0.00    -0.092 F 
ENDROOT
TORSDOF 0
ENDMDL
