MODEL 1
REMARK minimizedAffinity 11.2030849
REMARK minimizedRMSD -1
REMARK  0 active torsions:
REMARK  status: ('A' for Active; 'I' for Inactive)
ROOT
ATOM      1  C   UNL d   1       0.657   1.322   2.011  0.00  0.00     0.124 A 
ATOM      2  C1  UNL d   1      -0.107   0.295   1.475  0.00  0.00     0.062 A 
ATOM      3  C2  UNL d   1      -1.338  -0.028   2.037  0.00  0.00     0.162 A 
ATOM      4  C3  UNL d   1      -1.815   0.678   3.142  0.00  0.00    -0.034 A 
ATOM      5  C4  UNL d   1      -1.040   1.709   3.676  0.00  0.00     0.162 A 
ATOM      6  C5  UNL d   1       0.190   2.028   3.111  0.00  0.00     0.062 A 
ATOM      7  F   UNL d   1       0.926   3.021   3.630  0.00  0.00    -0.097 F 
ATOM      8  F1  UNL d   1      -1.468   2.409   4.738  0.00  0.00    -0.096 F 
ATOM      9  I   UNL d   1      -3.656   0.198   3.985  0.00  0.00    -0.060 I 
ATOM     10  F2  UNL d   1      -2.055  -1.026   1.499  0.00  0.00    -0.096 F 
ATOM     11  F3  UNL d   1       0.343  -0.390   0.414  0.00  0.00    -0.097 F 
ATOM     12  F4  UNL d   1       1.842   1.630   1.469  0.00  0.00    -0.092 F 
ENDROOT
TORSDOF 0
ENDMDL
