MODEL 1
REMARK minimizedAffinity 9.47126389
REMARK minimizedRMSD -1
REMARK  0 active torsions:
REMARK  status: ('A' for Active; 'I' for Inactive)
ROOT
ATOM      1  C   UNL d   1      -4.948   0.543   5.089  0.00  0.00     0.124 A 
ATOM      2  C1  UNL d   1      -4.780   1.586   4.188  0.00  0.00     0.062 A 
ATOM      3  C2  UNL d   1      -3.686   1.597   3.327  0.00  0.00     0.162 A 
ATOM      4  C3  UNL d   1      -2.752   0.562   3.362  0.00  0.00    -0.034 A 
ATOM      5  C4  UNL d   1      -2.927  -0.483   4.271  0.00  0.00     0.162 A 
ATOM      6  C5  UNL d   1      -4.022  -0.489   5.130  0.00  0.00     0.062 A 
ATOM      7  F   UNL d   1      -4.182  -1.497   6.000  0.00  0.00    -0.097 F 
ATOM      8  F1  UNL d   1      -2.048  -1.494   4.331  0.00  0.00    -0.096 F 
ATOM      9  I   UNL d   1      -1.116   0.575   2.076  0.00  0.00    -0.060 I 
ATOM     10  F2  UNL d   1      -3.549   2.617   2.467  0.00  0.00    -0.096 F 
ATOM     11  F3  UNL d   1      -5.672   2.585   4.148  0.00  0.00    -0.097 F 
ATOM     12  F4  UNL d   1      -6.000   0.535   5.918  0.00  0.00    -0.092 F 
ENDROOT
TORSDOF 0
ENDMDL
