MODEL 1
REMARK minimizedAffinity 14.2291403
REMARK minimizedRMSD -1
REMARK  0 active torsions:
REMARK  status: ('A' for Active; 'I' for Inactive)
ROOT
ATOM      1  C   UNL d   1      -2.748  -2.164  -3.572  0.00  0.00     0.124 A 
ATOM      2  C1  UNL d   1      -1.777  -2.867  -4.271  0.00  0.00     0.062 A 
ATOM      3  C2  UNL d   1      -0.445  -2.464  -4.215  0.00  0.00     0.162 A 
ATOM      4  C3  UNL d   1      -0.077  -1.353  -3.457  0.00  0.00    -0.034 A 
ATOM      5  C4  UNL d   1      -1.060  -0.650  -2.758  0.00  0.00     0.162 A 
ATOM      6  C5  UNL d   1      -2.389  -1.056  -2.817  0.00  0.00     0.062 A 
ATOM      7  F   UNL d   1      -3.326  -0.375  -2.141  0.00  0.00    -0.097 F 
ATOM      8  F1  UNL d   1      -0.741   0.423  -2.020  0.00  0.00    -0.096 F 
ATOM      9  I   UNL d   1       1.912  -0.748  -3.372  0.00  0.00    -0.060 I 
ATOM     10  F2  UNL d   1       0.472  -3.163  -4.900  0.00  0.00    -0.096 F 
ATOM     11  F3  UNL d   1      -2.121  -3.937  -5.002  0.00  0.00    -0.097 F 
ATOM     12  F4  UNL d   1      -4.028  -2.553  -3.628  0.00  0.00    -0.092 F 
ENDROOT
TORSDOF 0
ENDMDL
