MODEL 1
REMARK minimizedAffinity 13.8342676
REMARK minimizedRMSD -1
REMARK  0 active torsions:
REMARK  status: ('A' for Active; 'I' for Inactive)
ROOT
ATOM      1  C   UNL d   1      -1.475  -4.623   3.283  0.00  0.00     0.124 A 
ATOM      2  C1  UNL d   1      -2.623  -4.924   2.563  0.00  0.00     0.062 A 
ATOM      3  C2  UNL d   1      -3.017  -4.113   1.503  0.00  0.00     0.162 A 
ATOM      4  C3  UNL d   1      -2.262  -2.993   1.155  0.00  0.00    -0.034 A 
ATOM      5  C4  UNL d   1      -1.109  -2.696   1.884  0.00  0.00     0.162 A 
ATOM      6  C5  UNL d   1      -0.719  -3.510   2.943  0.00  0.00     0.062 A 
ATOM      7  F   UNL d   1       0.390  -3.218   3.638  0.00  0.00    -0.097 F 
ATOM      8  F1  UNL d   1      -0.359  -1.627   1.577  0.00  0.00    -0.096 F 
ATOM      9  I   UNL d   1      -2.847  -1.777  -0.429  0.00  0.00    -0.060 I 
ATOM     10  F2  UNL d   1      -4.130  -4.427   0.824  0.00  0.00    -0.096 F 
ATOM     11  F3  UNL d   1      -3.355  -5.999   2.889  0.00  0.00    -0.097 F 
ATOM     12  F4  UNL d   1      -1.099  -5.405   4.303  0.00  0.00    -0.092 F 
ENDROOT
TORSDOF 0
ENDMDL
