MODEL 1
REMARK minimizedAffinity -2.55204916
REMARK minimizedRMSD -1
REMARK  1 active torsions:
REMARK  status: ('A' for Active; 'I' for Inactive)
REMARK    1  A    between atoms: C1_2  and  C2_3 
ROOT
ATOM      1  C2  UNL d   1       0.325   1.421   0.428  0.00  0.00    -0.076 A 
ATOM      2  C3  UNL d   1      -0.160   1.460   1.747  0.00  0.00     0.004 A 
ATOM      3  C4  UNL d   1       0.132   0.439   2.650  0.00  0.00    -0.003 A 
ATOM      4  C5  UNL d   1       0.915  -0.637   2.249  0.00  0.00     0.000 A 
ATOM      5  C6  UNL d   1       1.420  -0.684   0.950  0.00  0.00     0.000 A 
ATOM      6  C7  UNL d   1       1.148   0.345   0.032  0.00  0.00    -0.073 A 
ATOM      7  C8  UNL d   1       1.713   0.240  -1.358  0.00  0.00     0.078 C 
ENDROOT
BRANCH   1   8
ATOM      8  C1  UNL d   1      -0.047   2.543  -0.514  0.00  0.00     0.053 C 
ATOM      9  C   UNL d   1       0.366   3.908   0.013  0.00  0.00     0.018 C 
ENDBRANCH   1   8
TORSDOF 1
ENDMDL
