MODEL 1
REMARK minimizedAffinity 1.83240521
REMARK minimizedRMSD -1
REMARK  1 active torsions:
REMARK  status: ('A' for Active; 'I' for Inactive)
REMARK    1  A    between atoms: C1_2  and  C2_3 
ROOT
ATOM      1  C2  UNL d   1       0.692   2.165   1.604  0.00  0.00    -0.076 A 
ATOM      2  C3  UNL d   1      -0.125   1.623   0.597  0.00  0.00     0.004 A 
ATOM      3  C4  UNL d   1      -0.117   0.256   0.324  0.00  0.00    -0.003 A 
ATOM      4  C5  UNL d   1       0.709  -0.592   1.055  0.00  0.00     0.000 A 
ATOM      5  C6  UNL d   1       1.513  -0.074   2.070  0.00  0.00     0.000 A 
ATOM      6  C7  UNL d   1       1.504   1.300   2.368  0.00  0.00    -0.073 A 
ATOM      7  C8  UNL d   1       2.396   1.805   3.469  0.00  0.00     0.078 C 
ENDROOT
BRANCH   1   8
ATOM      8  C1  UNL d   1       0.661   3.658   1.836  0.00  0.00     0.053 C 
ATOM      9  C   UNL d   1       1.230   4.442   0.664  0.00  0.00     0.018 C 
ENDBRANCH   1   8
TORSDOF 1
ENDMDL
