MODEL 1
REMARK minimizedAffinity -0.657864749
REMARK minimizedRMSD -1
REMARK  1 active torsions:
REMARK  status: ('A' for Active; 'I' for Inactive)
REMARK    1  A    between atoms: C1_2  and  C2_3 
ROOT
ATOM      1  C2  UNL d   1       1.758  -0.244   2.022  0.00  0.00    -0.076 A 
ATOM      2  C3  UNL d   1       2.241  -0.743   0.800  0.00  0.00     0.004 A 
ATOM      3  C4  UNL d   1       1.723  -0.294  -0.413  0.00  0.00    -0.003 A 
ATOM      4  C5  UNL d   1       0.713   0.662  -0.425  0.00  0.00     0.000 A 
ATOM      5  C6  UNL d   1       0.234   1.181   0.778  0.00  0.00     0.000 A 
ATOM      6  C7  UNL d   1       0.756   0.750   2.009  0.00  0.00    -0.073 A 
ATOM      7  C8  UNL d   1       0.198   1.339   3.276  0.00  0.00     0.078 C 
ENDROOT
BRANCH   1   8
ATOM      8  C1  UNL d   1       2.339  -0.789   3.307  0.00  0.00     0.053 C 
ATOM      9  C   UNL d   1       3.780  -1.246   3.147  0.00  0.00     0.018 C 
ENDBRANCH   1   8
TORSDOF 1
ENDMDL
