MODEL 1
REMARK minimizedAffinity -2.18797779
REMARK minimizedRMSD -1
REMARK  1 active torsions:
REMARK  status: ('A' for Active; 'I' for Inactive)
REMARK    1  A    between atoms: C1_2  and  C2_3 
ROOT
ATOM      1  C2  UNL d   1       0.307   2.007   0.339  0.00  0.00    -0.076 A 
ATOM      2  C3  UNL d   1       0.811   1.069  -0.578  0.00  0.00     0.004 A 
ATOM      3  C4  UNL d   1       1.207  -0.201  -0.162  0.00  0.00    -0.003 A 
ATOM      4  C5  UNL d   1       1.105  -0.554   1.179  0.00  0.00     0.000 A 
ATOM      5  C6  UNL d   1       0.590   0.358   2.100  0.00  0.00     0.000 A 
ATOM      6  C7  UNL d   1       0.171   1.636   1.694  0.00  0.00    -0.073 A 
ATOM      7  C8  UNL d   1      -0.370   2.582   2.732  0.00  0.00     0.078 C 
ENDROOT
BRANCH   1   8
ATOM      8  C1  UNL d   1      -0.081   3.378  -0.166  0.00  0.00     0.053 C 
ATOM      9  C   UNL d   1       1.017   4.408   0.043  0.00  0.00     0.018 C 
ENDBRANCH   1   8
TORSDOF 1
ENDMDL
