MODEL 1
REMARK minimizedAffinity -4.05531359
REMARK minimizedRMSD -1
REMARK  1 active torsions:
REMARK  status: ('A' for Active; 'I' for Inactive)
REMARK    1  A    between atoms: C1_2  and  C2_3 
ROOT
ATOM      1  C2  UNL d   1       0.873   2.975   1.723  0.00  0.00    -0.076 A 
ATOM      2  C3  UNL d   1       0.281   3.377   0.513  0.00  0.00     0.004 A 
ATOM      3  C4  UNL d   1       0.691   4.541  -0.134  0.00  0.00    -0.003 A 
ATOM      4  C5  UNL d   1       1.700   5.322   0.417  0.00  0.00     0.000 A 
ATOM      5  C6  UNL d   1       2.311   4.930   1.608  0.00  0.00     0.000 A 
ATOM      6  C7  UNL d   1       1.921   3.750   2.265  0.00  0.00    -0.073 A 
ATOM      7  C8  UNL d   1       2.609   3.378   3.550  0.00  0.00     0.078 C 
ENDROOT
BRANCH   1   8
ATOM      8  C1  UNL d   1       0.368   1.718   2.394  0.00  0.00     0.053 C 
ATOM      9  C   UNL d   1       0.358   0.521   1.457  0.00  0.00     0.018 C 
ENDBRANCH   1   8
TORSDOF 1
ENDMDL
