MODEL 1
REMARK minimizedAffinity -2.97951579
REMARK minimizedRMSD -1
REMARK  1 active torsions:
REMARK  status: ('A' for Active; 'I' for Inactive)
REMARK    1  A    between atoms: C1_2  and  C2_3 
ROOT
ATOM      1  C2  UNL d   1       1.169   3.093   0.900  0.00  0.00    -0.076 A 
ATOM      2  C3  UNL d   1       0.098   2.565   0.158  0.00  0.00     0.004 A 
ATOM      3  C4  UNL d   1      -0.676   1.521   0.661  0.00  0.00    -0.003 A 
ATOM      4  C5  UNL d   1      -0.392   0.988   1.913  0.00  0.00     0.000 A 
ATOM      5  C6  UNL d   1       0.656   1.511   2.670  0.00  0.00     0.000 A 
ATOM      6  C7  UNL d   1       1.436   2.575   2.185  0.00  0.00    -0.073 A 
ATOM      7  C8  UNL d   1       2.557   3.096   3.041  0.00  0.00     0.078 C 
ENDROOT
BRANCH   1   8
ATOM      8  C1  UNL d   1       1.991   4.208   0.292  0.00  0.00     0.053 C 
ATOM      9  C   UNL d   1       1.189   5.061  -0.678  0.00  0.00     0.018 C 
ENDBRANCH   1   8
TORSDOF 1
ENDMDL
