MODEL 1
REMARK minimizedAffinity 2.01258969
REMARK minimizedRMSD -1
REMARK  1 active torsions:
REMARK  status: ('A' for Active; 'I' for Inactive)
REMARK    1  A    between atoms: C1_2  and  C2_3 
ROOT
ATOM      1  C2  UNL d   1       1.220  -0.164   0.684  0.00  0.00    -0.076 A 
ATOM      2  C3  UNL d   1       1.302  -0.396   2.068  0.00  0.00     0.004 A 
ATOM      3  C4  UNL d   1       0.921   0.585   2.983  0.00  0.00    -0.003 A 
ATOM      4  C5  UNL d   1       0.452   1.812   2.529  0.00  0.00     0.000 A 
ATOM      5  C6  UNL d   1       0.347   2.053   1.160  0.00  0.00     0.000 A 
ATOM      6  C7  UNL d   1       0.711   1.069   0.224  0.00  0.00    -0.073 A 
ATOM      7  C8  UNL d   1       0.584   1.385  -1.242  0.00  0.00     0.078 C 
ENDROOT
BRANCH   1   8
ATOM      8  C1  UNL d   1       1.672  -1.254  -0.261  0.00  0.00     0.053 C 
ATOM      9  C   UNL d   1       0.792  -2.492  -0.186  0.00  0.00     0.018 C 
ENDBRANCH   1   8
TORSDOF 1
ENDMDL
