MODEL 1
REMARK minimizedAffinity 8.27955914
REMARK minimizedRMSD -1
REMARK  0 active torsions:
REMARK  status: ('A' for Active; 'I' for Inactive)
ROOT
ATOM      1  C   UNL d   1       2.170   1.492   0.397  0.00  0.00     0.078 C 
ATOM      2  C1  UNL d   1       3.505   1.063   0.929  0.00  0.00    -0.077 A 
ATOM      3  C2  UNL d   1       3.881  -0.286   0.932  0.00  0.00    -0.001 A 
ATOM      4  C3  UNL d   1       5.122  -0.672   1.439  0.00  0.00     0.003 A 
ATOM      5  C4  UNL d   1       5.998   0.285   1.948  0.00  0.00    -0.005 A 
ATOM      6  C5  UNL d   1       5.632   1.629   1.952  0.00  0.00     0.003 A 
ATOM      7  C6  UNL d   1       4.391   2.017   1.445  0.00  0.00    -0.001 A 
ENDROOT
TORSDOF 0
ENDMDL
