MODEL 1
REMARK minimizedAffinity 5.00667953
REMARK minimizedRMSD -1
REMARK  0 active torsions:
REMARK  status: ('A' for Active; 'I' for Inactive)
ROOT
ATOM      1  C   UNL d   1       1.120   0.507   3.623  0.00  0.00     0.078 C 
ATOM      2  C1  UNL d   1       1.978   0.506   2.393  0.00  0.00    -0.077 A 
ATOM      3  C2  UNL d   1       1.608   1.232   1.255  0.00  0.00    -0.001 A 
ATOM      4  C3  UNL d   1       2.412   1.213   0.113  0.00  0.00     0.003 A 
ATOM      5  C4  UNL d   1       3.590   0.469   0.099  0.00  0.00    -0.005 A 
ATOM      6  C5  UNL d   1       3.965  -0.258   1.227  0.00  0.00     0.003 A 
ATOM      7  C6  UNL d   1       3.163  -0.241   2.369  0.00  0.00    -0.001 A 
ENDROOT
TORSDOF 0
ENDMDL
