MODEL 1
REMARK minimizedAffinity 1.74217355
REMARK minimizedRMSD -1
REMARK  0 active torsions:
REMARK  status: ('A' for Active; 'I' for Inactive)
ROOT
ATOM      1  C   UNL d   1       4.559  -0.687   1.306  0.00  0.00     0.078 C 
ATOM      2  C1  UNL d   1       3.395   0.240   1.120  0.00  0.00    -0.077 A 
ATOM      3  C2  UNL d   1       2.135  -0.070   1.645  0.00  0.00    -0.001 A 
ATOM      4  C3  UNL d   1       1.058   0.797   1.456  0.00  0.00     0.003 A 
ATOM      5  C4  UNL d   1       1.230   1.980   0.739  0.00  0.00    -0.005 A 
ATOM      6  C5  UNL d   1       2.480   2.296   0.210  0.00  0.00     0.003 A 
ATOM      7  C6  UNL d   1       3.558   1.430   0.399  0.00  0.00    -0.001 A 
ENDROOT
TORSDOF 0
ENDMDL
