MODEL 1
REMARK minimizedAffinity 4.21545076
REMARK minimizedRMSD -1
REMARK  0 active torsions:
REMARK  status: ('A' for Active; 'I' for Inactive)
ROOT
ATOM      1  C   UNL d   1      -4.973  -5.284  -2.932  0.00  0.00     0.078 C 
ATOM      2  C1  UNL d   1      -3.795  -4.365  -2.814  0.00  0.00    -0.077 A 
ATOM      3  C2  UNL d   1      -3.818  -3.271  -1.941  0.00  0.00    -0.001 A 
ATOM      4  C3  UNL d   1      -2.717  -2.418  -1.849  0.00  0.00     0.003 A 
ATOM      5  C4  UNL d   1      -1.585  -2.649  -2.629  0.00  0.00    -0.005 A 
ATOM      6  C5  UNL d   1      -1.554  -3.733  -3.503  0.00  0.00     0.003 A 
ATOM      7  C6  UNL d   1      -2.654  -4.588  -3.596  0.00  0.00    -0.001 A 
ENDROOT
TORSDOF 0
ENDMDL
