MODEL 1
REMARK minimizedAffinity 3.09412289
REMARK minimizedRMSD -1
REMARK  0 active torsions:
REMARK  status: ('A' for Active; 'I' for Inactive)
ROOT
ATOM      1  C   UNL d   1       4.129  -0.628   2.987  0.00  0.00     0.078 C 
ATOM      2  C1  UNL d   1       3.464  -0.093   1.754  0.00  0.00    -0.077 A 
ATOM      3  C2  UNL d   1       2.658   1.051   1.807  0.00  0.00    -0.001 A 
ATOM      4  C3  UNL d   1       2.037   1.532   0.653  0.00  0.00     0.003 A 
ATOM      5  C4  UNL d   1       2.215   0.874  -0.563  0.00  0.00    -0.005 A 
ATOM      6  C5  UNL d   1       3.013  -0.266  -0.625  0.00  0.00     0.003 A 
ATOM      7  C6  UNL d   1       3.634  -0.749   0.528  0.00  0.00    -0.001 A 
ENDROOT
TORSDOF 0
ENDMDL
