MODEL 1
REMARK minimizedAffinity 15.4155512
REMARK minimizedRMSD -1
REMARK  0 active torsions:
REMARK  status: ('A' for Active; 'I' for Inactive)
ROOT
ATOM      1  C   UNL d   1      -0.972  -2.980   0.243  0.00  0.00     0.078 C 
ATOM      2  C1  UNL d   1      -1.458  -2.979  -1.176  0.00  0.00    -0.077 A 
ATOM      3  C2  UNL d   1      -0.989  -3.922  -2.099  0.00  0.00    -0.001 A 
ATOM      4  C3  UNL d   1      -1.443  -3.903  -3.419  0.00  0.00     0.003 A 
ATOM      5  C4  UNL d   1      -2.368  -2.944  -3.828  0.00  0.00    -0.005 A 
ATOM      6  C5  UNL d   1      -2.838  -2.001  -2.916  0.00  0.00     0.003 A 
ATOM      7  C6  UNL d   1      -2.386  -2.017  -1.596  0.00  0.00    -0.001 A 
ENDROOT
TORSDOF 0
ENDMDL
