MODEL 1
REMARK minimizedAffinity 4.43686008
REMARK minimizedRMSD -1
REMARK  0 active torsions:
REMARK  status: ('A' for Active; 'I' for Inactive)
ROOT
ATOM      1  C   UNL d   1      -4.925   4.674   5.969  0.00  0.00     0.078 C 
ATOM      2  C1  UNL d   1      -4.951   3.292   5.388  0.00  0.00    -0.077 A 
ATOM      3  C2  UNL d   1      -4.229   2.983   4.229  0.00  0.00    -0.001 A 
ATOM      4  C3  UNL d   1      -4.270   1.695   3.694  0.00  0.00     0.003 A 
ATOM      5  C4  UNL d   1      -5.033   0.705   4.310  0.00  0.00    -0.005 A 
ATOM      6  C5  UNL d   1      -5.757   1.003   5.463  0.00  0.00     0.003 A 
ATOM      7  C6  UNL d   1      -5.717   2.291   6.000  0.00  0.00    -0.001 A 
ENDROOT
TORSDOF 0
ENDMDL
