MODEL 1
REMARK minimizedAffinity 3.87303352
REMARK minimizedRMSD -1
REMARK  0 active torsions:
REMARK  status: ('A' for Active; 'I' for Inactive)
ROOT
ATOM      1  C   UNL d   1       2.155   0.629   0.378  0.00  0.00     0.078 C 
ATOM      2  C1  UNL d   1       3.490   0.014   0.672  0.00  0.00    -0.077 A 
ATOM      3  C2  UNL d   1       3.917  -0.187   1.991  0.00  0.00    -0.001 A 
ATOM      4  C3  UNL d   1       5.166  -0.752   2.251  0.00  0.00     0.003 A 
ATOM      5  C4  UNL d   1       6.000  -1.121   1.197  0.00  0.00    -0.005 A 
ATOM      6  C5  UNL d   1       5.585  -0.923  -0.119  0.00  0.00     0.003 A 
ATOM      7  C6  UNL d   1       4.336  -0.358  -0.380  0.00  0.00    -0.001 A 
ENDROOT
TORSDOF 0
ENDMDL
