MODEL 1
REMARK minimizedAffinity -0.984619677
REMARK minimizedRMSD -1
REMARK  0 active torsions:
REMARK  status: ('A' for Active; 'I' for Inactive)
ROOT
ATOM      1  C   UNL d   1       0.879   0.473   4.045  0.00  0.00     0.078 C 
ATOM      2  C1  UNL d   1       1.633   0.573   2.752  0.00  0.00    -0.077 A 
ATOM      3  C2  UNL d   1       1.531   1.712   1.944  0.00  0.00    -0.001 A 
ATOM      4  C3  UNL d   1       2.230   1.787   0.739  0.00  0.00     0.003 A 
ATOM      5  C4  UNL d   1       3.036   0.726   0.330  0.00  0.00    -0.005 A 
ATOM      6  C5  UNL d   1       3.142  -0.412   1.126  0.00  0.00     0.003 A 
ATOM      7  C6  UNL d   1       2.443  -0.489   2.332  0.00  0.00    -0.001 A 
ENDROOT
TORSDOF 0
ENDMDL
