MODEL 1
REMARK minimizedAffinity -1.21307755
REMARK minimizedRMSD -1
REMARK  0 active torsions:
REMARK  status: ('A' for Active; 'I' for Inactive)
ROOT
ATOM      1  C   UNL d   1       4.081  -1.113   0.483  0.00  0.00     0.078 C 
ATOM      2  C1  UNL d   1       3.122  -0.376   1.369  0.00  0.00    -0.077 A 
ATOM      3  C2  UNL d   1       2.822  -0.844   2.654  0.00  0.00    -0.001 A 
ATOM      4  C3  UNL d   1       1.920  -0.153   3.464  0.00  0.00     0.003 A 
ATOM      5  C4  UNL d   1       1.308   1.009   2.998  0.00  0.00    -0.005 A 
ATOM      6  C5  UNL d   1       1.598   1.481   1.720  0.00  0.00     0.003 A 
ATOM      7  C6  UNL d   1       2.501   0.792   0.908  0.00  0.00    -0.001 A 
ENDROOT
TORSDOF 0
ENDMDL
