MODEL 1
REMARK minimizedAffinity 4.77134943
REMARK minimizedRMSD -1
REMARK  0 active torsions:
REMARK  status: ('A' for Active; 'I' for Inactive)
ROOT
ATOM      1  C   UNL d   1       4.533  -1.190   0.782  0.00  0.00     0.078 C 
ATOM      2  C1  UNL d   1       3.800   0.119   0.812  0.00  0.00    -0.077 A 
ATOM      3  C2  UNL d   1       2.439   0.176   1.137  0.00  0.00    -0.001 A 
ATOM      4  C3  UNL d   1       1.768   1.400   1.152  0.00  0.00     0.003 A 
ATOM      5  C4  UNL d   1       2.449   2.575   0.841  0.00  0.00    -0.005 A 
ATOM      6  C5  UNL d   1       3.803   2.528   0.513  0.00  0.00     0.003 A 
ATOM      7  C6  UNL d   1       4.476   1.305   0.498  0.00  0.00    -0.001 A 
ENDROOT
TORSDOF 0
ENDMDL
