MODEL 1
REMARK minimizedAffinity 6.94422388
REMARK minimizedRMSD -1
REMARK  0 active torsions:
REMARK  status: ('A' for Active; 'I' for Inactive)
ROOT
ATOM      1  C   UNL d   1      -3.847   2.312   2.999  0.00  0.00     0.078 C 
ATOM      2  C1  UNL d   1      -4.587   3.591   3.254  0.00  0.00    -0.077 A 
ATOM      3  C2  UNL d   1      -5.324   4.212   2.238  0.00  0.00    -0.001 A 
ATOM      4  C3  UNL d   1      -6.000   5.408   2.487  0.00  0.00     0.003 A 
ATOM      5  C4  UNL d   1      -5.944   5.993   3.751  0.00  0.00    -0.005 A 
ATOM      6  C5  UNL d   1      -5.211   5.384   4.767  0.00  0.00     0.003 A 
ATOM      7  C6  UNL d   1      -4.535   4.188   4.520  0.00  0.00    -0.001 A 
ENDROOT
TORSDOF 0
ENDMDL
