MODEL 1
REMARK minimizedAffinity 9.5205822
REMARK minimizedRMSD -1
REMARK  0 active torsions:
REMARK  status: ('A' for Active; 'I' for Inactive)
ROOT
ATOM      1  C   UNL d   1      -3.308  -2.571  -0.162  0.00  0.00     0.078 C 
ATOM      2  C1  UNL d   1      -2.797  -3.687   0.700  0.00  0.00    -0.077 A 
ATOM      3  C2  UNL d   1      -3.346  -4.973   0.615  0.00  0.00    -0.001 A 
ATOM      4  C3  UNL d   1      -2.868  -5.999   1.431  0.00  0.00     0.003 A 
ATOM      5  C4  UNL d   1      -1.839  -5.751   2.338  0.00  0.00    -0.005 A 
ATOM      6  C5  UNL d   1      -1.288  -4.475   2.430  0.00  0.00     0.003 A 
ATOM      7  C6  UNL d   1      -1.766  -3.447   1.615  0.00  0.00    -0.001 A 
ENDROOT
TORSDOF 0
ENDMDL
