MODEL 1
REMARK minimizedAffinity 13.7468605
REMARK minimizedRMSD -1
REMARK  0 active torsions:
REMARK  status: ('A' for Active; 'I' for Inactive)
ROOT
ATOM      1  C   UNL d   1      -1.775  -1.944  -2.542  0.00  0.00     0.078 C 
ATOM      2  C1  UNL d   1      -1.662  -2.360  -1.106  0.00  0.00    -0.077 A 
ATOM      3  C2  UNL d   1      -0.461  -2.864  -0.593  0.00  0.00    -0.001 A 
ATOM      4  C3  UNL d   1      -0.374  -3.257   0.744  0.00  0.00     0.003 A 
ATOM      5  C4  UNL d   1      -1.485  -3.152   1.578  0.00  0.00    -0.005 A 
ATOM      6  C5  UNL d   1      -2.686  -2.654   1.076  0.00  0.00     0.003 A 
ATOM      7  C6  UNL d   1      -2.775  -2.260  -0.260  0.00  0.00    -0.001 A 
ENDROOT
TORSDOF 0
ENDMDL
