MODEL 1
REMARK minimizedAffinity 2.7897222
REMARK minimizedRMSD -1
REMARK  0 active torsions:
REMARK  status: ('A' for Active; 'I' for Inactive)
ROOT
ATOM      1  C   UNL d   1      -1.104  -3.052  -0.041  0.00  0.00     0.078 C 
ATOM      2  C1  UNL d   1      -1.403  -3.360  -1.477  0.00  0.00    -0.077 A 
ATOM      3  C2  UNL d   1      -2.700  -3.230  -1.988  0.00  0.00    -0.001 A 
ATOM      4  C3  UNL d   1      -2.966  -3.530  -3.325  0.00  0.00     0.003 A 
ATOM      5  C4  UNL d   1      -1.940  -3.963  -4.162  0.00  0.00    -0.005 A 
ATOM      6  C5  UNL d   1      -0.646  -4.097  -3.663  0.00  0.00     0.003 A 
ATOM      7  C6  UNL d   1      -0.379  -3.798  -2.326  0.00  0.00    -0.001 A 
ENDROOT
TORSDOF 0
ENDMDL
