MODEL 1
REMARK minimizedAffinity 4.18343163
REMARK minimizedRMSD -1
REMARK  0 active torsions:
REMARK  status: ('A' for Active; 'I' for Inactive)
ROOT
ATOM      1  C   UNL d   1      -1.785  -5.123   1.582  0.00  0.00     0.078 C 
ATOM      2  C1  UNL d   1      -1.970  -4.088   0.512  0.00  0.00    -0.077 A 
ATOM      3  C2  UNL d   1      -1.401  -2.814   0.635  0.00  0.00    -0.001 A 
ATOM      4  C3  UNL d   1      -1.589  -1.858  -0.364  0.00  0.00     0.003 A 
ATOM      5  C4  UNL d   1      -2.347  -2.164  -1.492  0.00  0.00    -0.005 A 
ATOM      6  C5  UNL d   1      -2.920  -3.428  -1.622  0.00  0.00     0.003 A 
ATOM      7  C6  UNL d   1      -2.733  -4.386  -0.624  0.00  0.00    -0.001 A 
ENDROOT
TORSDOF 0
ENDMDL
