MODEL 1
REMARK minimizedAffinity 4.87959957
REMARK minimizedRMSD -1
REMARK  0 active torsions:
REMARK  status: ('A' for Active; 'I' for Inactive)
ROOT
ATOM      1  C   UNL d   1      -4.470   1.941   3.458  0.00  0.00     0.078 C 
ATOM      2  C1  UNL d   1      -4.880   3.353   3.752  0.00  0.00    -0.077 A 
ATOM      3  C2  UNL d   1      -5.630   4.092   2.829  0.00  0.00    -0.001 A 
ATOM      4  C3  UNL d   1      -5.997   5.409   3.112  0.00  0.00     0.003 A 
ATOM      5  C4  UNL d   1      -5.618   5.998   4.316  0.00  0.00    -0.005 A 
ATOM      6  C5  UNL d   1      -4.870   5.270   5.240  0.00  0.00     0.003 A 
ATOM      7  C6  UNL d   1      -4.502   3.954   4.959  0.00  0.00    -0.001 A 
ENDROOT
TORSDOF 0
ENDMDL
