MODEL 1
REMARK minimizedAffinity 4.67485905
REMARK minimizedRMSD -1
REMARK  0 active torsions:
REMARK  status: ('A' for Active; 'I' for Inactive)
ROOT
ATOM      1  C   UNL d   1       2.313  -1.683   3.325  0.00  0.00     0.023 A 
ATOM      2  C1  UNL d   1       1.474  -2.797   3.299  0.00  0.00     0.003 A 
ATOM      3  C2  UNL d   1       0.539  -2.944   2.273  0.00  0.00     0.048 A 
ATOM      4  C3  UNL d   1       0.449  -1.974   1.275  0.00  0.00     0.023 A 
ATOM      5  C4  UNL d   1       1.287  -0.858   1.296  0.00  0.00     0.048 A 
ATOM      6  C5  UNL d   1       2.220  -0.715   2.325  0.00  0.00     0.003 A 
ATOM      7  I   UNL d   1      -0.943  -2.191  -0.254  0.00  0.00    -0.146 I 
ENDROOT
TORSDOF 0
ENDMDL
