MODEL 1
REMARK minimizedAffinity 8.02759457
REMARK minimizedRMSD -1
REMARK  0 active torsions:
REMARK  status: ('A' for Active; 'I' for Inactive)
ROOT
ATOM      1  C   UNL d   1      -0.956  -2.610  -1.251  0.00  0.00     0.023 A 
ATOM      2  C1  UNL d   1      -1.410  -1.798  -0.212  0.00  0.00     0.003 A 
ATOM      3  C2  UNL d   1      -0.689  -1.720   0.981  0.00  0.00     0.048 A 
ATOM      4  C3  UNL d   1       0.487  -2.456   1.128  0.00  0.00     0.023 A 
ATOM      5  C4  UNL d   1       0.945  -3.269   0.090  0.00  0.00     0.048 A 
ATOM      6  C5  UNL d   1       0.220  -3.345  -1.101  0.00  0.00     0.003 A 
ATOM      7  I   UNL d   1       1.562  -2.342   2.902  0.00  0.00    -0.146 I 
ENDROOT
TORSDOF 0
ENDMDL
