MODEL 1
REMARK minimizedAffinity 1.90608919
REMARK minimizedRMSD -1
REMARK  0 active torsions:
REMARK  status: ('A' for Active; 'I' for Inactive)
ROOT
ATOM      1  C   UNL d   1       2.664   1.917   2.473  0.00  0.00     0.023 A 
ATOM      2  C1  UNL d   1       2.336   1.897   1.117  0.00  0.00     0.003 A 
ATOM      3  C2  UNL d   1       1.700   0.782   0.568  0.00  0.00     0.048 A 
ATOM      4  C3  UNL d   1       1.394  -0.309   1.380  0.00  0.00     0.023 A 
ATOM      5  C4  UNL d   1       1.719  -0.293   2.738  0.00  0.00     0.048 A 
ATOM      6  C5  UNL d   1       2.356   0.823   3.282  0.00  0.00     0.003 A 
ATOM      7  I   UNL d   1       0.447  -1.970   0.565  0.00  0.00    -0.146 I 
ENDROOT
TORSDOF 0
ENDMDL
