MODEL 1
REMARK minimizedAffinity 1.46675754
REMARK minimizedRMSD -1
REMARK  0 active torsions:
REMARK  status: ('A' for Active; 'I' for Inactive)
ROOT
ATOM      1  C   UNL d   1       0.486  -3.379  -0.079  0.00  0.00     0.023 A 
ATOM      2  C1  UNL d   1      -0.012  -2.158   0.377  0.00  0.00     0.003 A 
ATOM      3  C2  UNL d   1      -0.783  -1.357  -0.468  0.00  0.00     0.048 A 
ATOM      4  C3  UNL d   1      -1.052  -1.783  -1.768  0.00  0.00     0.023 A 
ATOM      5  C4  UNL d   1      -0.557  -3.004  -2.229  0.00  0.00     0.048 A 
ATOM      6  C5  UNL d   1       0.214  -3.801  -1.381  0.00  0.00     0.003 A 
ATOM      7  I   UNL d   1      -2.199  -0.593  -3.028  0.00  0.00    -0.146 I 
ENDROOT
TORSDOF 0
ENDMDL
