MODEL 1
REMARK minimizedAffinity 3.55065107
REMARK minimizedRMSD -1
REMARK  0 active torsions:
REMARK  status: ('A' for Active; 'I' for Inactive)
ROOT
ATOM      1  C   UNL d   1       3.027  -3.026  -6.000  0.00  0.00     0.023 A 
ATOM      2  C1  UNL d   1       4.410  -3.211  -6.000  0.00  0.00     0.003 A 
ATOM      3  C2  UNL d   1       5.263  -2.106  -5.999  0.00  0.00     0.048 A 
ATOM      4  C3  UNL d   1       4.727  -0.818  -5.997  0.00  0.00     0.023 A 
ATOM      5  C4  UNL d   1       3.344  -0.629  -5.996  0.00  0.00     0.048 A 
ATOM      6  C5  UNL d   1       2.495  -1.737  -5.998  0.00  0.00     0.003 A 
ATOM      7  I   UNL d   1       5.995   0.828  -5.995  0.00  0.00    -0.146 I 
ENDROOT
TORSDOF 0
ENDMDL
