MODEL 1
REMARK minimizedAffinity 2.84380484
REMARK minimizedRMSD -1
REMARK  0 active torsions:
REMARK  status: ('A' for Active; 'I' for Inactive)
ROOT
ATOM      1  C   UNL d   1      -1.606  -0.205  -0.191  0.00  0.00     0.023 A 
ATOM      2  C1  UNL d   1      -1.283   1.152  -0.188  0.00  0.00     0.003 A 
ATOM      3  C2  UNL d   1      -0.058   1.578   0.330  0.00  0.00     0.048 A 
ATOM      4  C3  UNL d   1       0.839   0.642   0.843  0.00  0.00     0.023 A 
ATOM      5  C4  UNL d   1       0.520  -0.717   0.842  0.00  0.00     0.048 A 
ATOM      6  C5  UNL d   1      -0.706  -1.138   0.324  0.00  0.00     0.003 A 
ATOM      7  I   UNL d   1       2.663   1.274   1.614  0.00  0.00    -0.146 I 
ENDROOT
TORSDOF 0
ENDMDL
