MODEL 1
REMARK minimizedAffinity 8.91111183
REMARK minimizedRMSD -1
REMARK  0 active torsions:
REMARK  status: ('A' for Active; 'I' for Inactive)
ROOT
ATOM      1  C   UNL d   1      -1.367   3.100  -1.824  0.00  0.00     0.020 A 
ATOM      2  C1  UNL d   1       0.007   2.869  -1.778  0.00  0.00     0.020 A 
ATOM      3  C2  UNL d   1       0.623   2.555  -0.564  0.00  0.00     0.034 A 
ATOM      4  C3  UNL d   1      -0.136   2.473   0.609  0.00  0.00     0.017 A 
ATOM      5  C4  UNL d   1      -1.516   2.706   0.562  0.00  0.00     0.017 A 
ATOM      6  C5  UNL d   1      -2.126   3.019  -0.656  0.00  0.00     0.034 A 
ATOM      7 Cl   UNL d   1      -2.518   2.622   1.967  0.00  0.00    -0.070 Cl
ATOM      8 Cl1  UNL d   1       0.690   2.081   2.075  0.00  0.00    -0.070 Cl
ENDROOT
TORSDOF 0
ENDMDL
