MODEL 1
REMARK minimizedAffinity 4.87876701
REMARK minimizedRMSD -1
REMARK  0 active torsions:
REMARK  status: ('A' for Active; 'I' for Inactive)
ROOT
ATOM      1  C   UNL d   1      -3.791  -5.600  -5.985  0.00  0.00     0.020 A 
ATOM      2  C1  UNL d   1      -5.138  -5.957  -5.930  0.00  0.00     0.020 A 
ATOM      3  C2  UNL d   1      -5.799  -6.000  -4.701  0.00  0.00     0.034 A 
ATOM      4  C3  UNL d   1      -5.115  -5.684  -3.522  0.00  0.00     0.017 A 
ATOM      5  C4  UNL d   1      -3.763  -5.325  -3.578  0.00  0.00     0.017 A 
ATOM      6  C5  UNL d   1      -3.106  -5.284  -4.812  0.00  0.00     0.034 A 
ATOM      7 Cl   UNL d   1      -2.851  -4.921  -2.166  0.00  0.00    -0.070 Cl
ATOM      8 Cl1  UNL d   1      -5.995  -5.756  -2.037  0.00  0.00    -0.070 Cl
ENDROOT
TORSDOF 0
ENDMDL
