MODEL 1
REMARK minimizedAffinity 13.2485523
REMARK minimizedRMSD -1
REMARK  0 active torsions:
REMARK  status: ('A' for Active; 'I' for Inactive)
ROOT
ATOM      1  C   UNL d   1      -4.174   0.624  -1.821  0.00  0.00     0.020 A 
ATOM      2  C1  UNL d   1      -3.127   0.292  -0.963  0.00  0.00     0.020 A 
ATOM      3  C2  UNL d   1      -1.893   0.936  -1.085  0.00  0.00     0.034 A 
ATOM      4  C3  UNL d   1      -1.705   1.916  -2.066  0.00  0.00     0.017 A 
ATOM      5  C4  UNL d   1      -2.758   2.249  -2.927  0.00  0.00     0.017 A 
ATOM      6  C5  UNL d   1      -3.990   1.601  -2.800  0.00  0.00     0.034 A 
ATOM      7 Cl   UNL d   1      -2.601   3.448  -4.162  0.00  0.00    -0.070 Cl
ATOM      8 Cl1  UNL d   1      -0.154   2.671  -2.160  0.00  0.00    -0.070 Cl
ENDROOT
TORSDOF 0
ENDMDL
