MODEL 1
REMARK minimizedAffinity 6.5509038
REMARK minimizedRMSD -1
REMARK  0 active torsions:
REMARK  status: ('A' for Active; 'I' for Inactive)
ROOT
ATOM      1  C   UNL d   1      -0.375   2.669  -0.231  0.00  0.00     0.020 A 
ATOM      2  C1  UNL d   1       0.189   3.914   0.046  0.00  0.00     0.020 A 
ATOM      3  C2  UNL d   1       0.805   4.143   1.278  0.00  0.00     0.034 A 
ATOM      4  C3  UNL d   1       0.858   3.126   2.239  0.00  0.00     0.017 A 
ATOM      5  C4  UNL d   1       0.292   1.877   1.960  0.00  0.00     0.017 A 
ATOM      6  C5  UNL d   1      -0.323   1.653   0.724  0.00  0.00     0.034 A 
ATOM      7 Cl   UNL d   1       0.318   0.573   3.094  0.00  0.00    -0.070 Cl
ATOM      8 Cl1  UNL d   1       1.636   3.479   3.741  0.00  0.00    -0.070 Cl
ENDROOT
TORSDOF 0
ENDMDL
