MODEL 1
REMARK minimizedAffinity 7.95602083
REMARK minimizedRMSD -1
REMARK  0 active torsions:
REMARK  status: ('A' for Active; 'I' for Inactive)
ROOT
ATOM      1  C   UNL d   1       0.205   3.738  -0.338  0.00  0.00     0.020 A 
ATOM      2  C1  UNL d   1      -0.602   2.603  -0.403  0.00  0.00     0.020 A 
ATOM      3  C2  UNL d   1      -0.651   1.718   0.676  0.00  0.00     0.034 A 
ATOM      4  C3  UNL d   1       0.107   1.967   1.826  0.00  0.00     0.017 A 
ATOM      5  C4  UNL d   1       0.917   3.107   1.891  0.00  0.00     0.017 A 
ATOM      6  C5  UNL d   1       0.962   3.990   0.807  0.00  0.00     0.034 A 
ATOM      7 Cl   UNL d   1       1.881   3.482   3.275  0.00  0.00    -0.070 Cl
ATOM      8 Cl1  UNL d   1      -0.002   0.831   3.123  0.00  0.00    -0.070 Cl
ENDROOT
TORSDOF 0
ENDMDL
