MODEL 1
REMARK minimizedAffinity 3.43100476
REMARK minimizedRMSD -1
REMARK  0 active torsions:
REMARK  status: ('A' for Active; 'I' for Inactive)
ROOT
ATOM      1  C   UNL d   1       0.430  -1.290  -1.586  0.00  0.00     0.020 A 
ATOM      2  C1  UNL d   1      -0.801  -1.900  -1.821  0.00  0.00     0.020 A 
ATOM      3  C2  UNL d   1      -1.980  -1.161  -1.700  0.00  0.00     0.034 A 
ATOM      4  C3  UNL d   1      -1.930   0.191  -1.342  0.00  0.00     0.017 A 
ATOM      5  C4  UNL d   1      -0.693   0.802  -1.106  0.00  0.00     0.017 A 
ATOM      6  C5  UNL d   1       0.484   0.058  -1.229  0.00  0.00     0.034 A 
ATOM      7 Cl   UNL d   1      -0.551   2.466  -0.661  0.00  0.00    -0.070 Cl
ATOM      8 Cl1  UNL d   1      -3.427   1.044  -1.211  0.00  0.00    -0.070 Cl
ENDROOT
TORSDOF 0
ENDMDL
