MODEL 1
REMARK minimizedAffinity 6.89334059
REMARK minimizedRMSD -1
REMARK  0 active torsions:
REMARK  status: ('A' for Active; 'I' for Inactive)
ROOT
ATOM      1  C   UNL d   1      -5.783  -3.428   4.987  0.00  0.00     0.020 A 
ATOM      2  C1  UNL d   1      -5.998  -2.487   5.993  0.00  0.00     0.020 A 
ATOM      3  C2  UNL d   1      -6.000  -1.124   5.686  0.00  0.00     0.034 A 
ATOM      4  C3  UNL d   1      -5.785  -0.699   4.371  0.00  0.00     0.017 A 
ATOM      5  C4  UNL d   1      -5.569  -1.644   3.361  0.00  0.00     0.017 A 
ATOM      6  C5  UNL d   1      -5.569  -3.007   3.674  0.00  0.00     0.034 A 
ATOM      7 Cl   UNL d   1      -5.297  -1.195   1.714  0.00  0.00    -0.070 Cl
ATOM      8 Cl1  UNL d   1      -5.800   1.001   4.063  0.00  0.00    -0.070 Cl
ENDROOT
TORSDOF 0
ENDMDL
