MODEL 1
REMARK minimizedAffinity 0.250462949
REMARK minimizedRMSD -1
REMARK  0 active torsions:
REMARK  status: ('A' for Active; 'I' for Inactive)
ROOT
ATOM      1  C   UNL d   1       0.845  -0.579  -0.392  0.00  0.00     0.020 A 
ATOM      2  C1  UNL d   1       1.321  -0.172   0.853  0.00  0.00     0.020 A 
ATOM      3  C2  UNL d   1       2.573   0.439   0.956  0.00  0.00     0.034 A 
ATOM      4  C3  UNL d   1       3.353   0.643  -0.188  0.00  0.00     0.017 A 
ATOM      5  C4  UNL d   1       2.874   0.234  -1.438  0.00  0.00     0.017 A 
ATOM      6  C5  UNL d   1       1.620  -0.376  -1.535  0.00  0.00     0.034 A 
ATOM      7 Cl   UNL d   1       3.778   0.453  -2.894  0.00  0.00    -0.070 Cl
ATOM      8 Cl1  UNL d   1       4.891   1.404   0.014  0.00  0.00    -0.070 Cl
ENDROOT
TORSDOF 0
ENDMDL
