MODEL 1
REMARK minimizedAffinity -0.956015229
REMARK minimizedRMSD -1
REMARK  0 active torsions:
REMARK  status: ('A' for Active; 'I' for Inactive)
ROOT
ATOM      1  C   UNL d   1       5.806   0.103  -3.869  0.00  0.00     0.020 A 
ATOM      2  C1  UNL d   1       4.559  -0.446  -4.169  0.00  0.00     0.020 A 
ATOM      3  C2  UNL d   1       3.506  -0.324  -3.260  0.00  0.00     0.034 A 
ATOM      4  C3  UNL d   1       3.697   0.348  -2.047  0.00  0.00     0.017 A 
ATOM      5  C4  UNL d   1       4.948   0.898  -1.747  0.00  0.00     0.017 A 
ATOM      6  C5  UNL d   1       6.000   0.773  -2.661  0.00  0.00     0.034 A 
ATOM      7 Cl   UNL d   1       5.260   1.741  -0.271  0.00  0.00    -0.070 Cl
ATOM      8 Cl1  UNL d   1       2.350   0.462  -0.971  0.00  0.00    -0.070 Cl
ENDROOT
TORSDOF 0
ENDMDL
