MODEL 1
REMARK minimizedAffinity 6.81106853
REMARK minimizedRMSD -1
REMARK  0 active torsions:
REMARK  status: ('A' for Active; 'I' for Inactive)
ROOT
ATOM      1  C   UNL d   1      -0.689   1.084  -1.824  0.00  0.00     0.020 A 
ATOM      2  C1  UNL d   1       0.206   0.051  -1.548  0.00  0.00     0.020 A 
ATOM      3  C2  UNL d   1       1.222   0.240  -0.608  0.00  0.00     0.034 A 
ATOM      4  C3  UNL d   1       1.346   1.465   0.057  0.00  0.00     0.017 A 
ATOM      5  C4  UNL d   1       0.448   2.501  -0.221  0.00  0.00     0.017 A 
ATOM      6  C5  UNL d   1      -0.567   2.307  -1.163  0.00  0.00     0.034 A 
ATOM      7 Cl   UNL d   1       0.538   4.041   0.560  0.00  0.00    -0.070 Cl
ATOM      8 Cl1  UNL d   1       2.626   1.628   1.206  0.00  0.00    -0.070 Cl
ENDROOT
TORSDOF 0
ENDMDL
