MODEL 1
REMARK minimizedAffinity 4.08809805
REMARK minimizedRMSD -1
REMARK  0 active torsions:
REMARK  status: ('A' for Active; 'I' for Inactive)
ROOT
ATOM      1  C   UNL d   1       0.854  -0.809  -1.120  0.00  0.00     0.020 A 
ATOM      2  C1  UNL d   1       1.220  -0.542   0.199  0.00  0.00     0.020 A 
ATOM      3  C2  UNL d   1       2.383   0.182   0.467  0.00  0.00     0.034 A 
ATOM      4  C3  UNL d   1       3.185   0.641  -0.584  0.00  0.00     0.017 A 
ATOM      5  C4  UNL d   1       2.818   0.372  -1.907  0.00  0.00     0.017 A 
ATOM      6  C5  UNL d   1       1.652  -0.353  -2.170  0.00  0.00     0.034 A 
ATOM      7 Cl   UNL d   1       3.756   0.905  -3.257  0.00  0.00    -0.070 Cl
ATOM      8 Cl1  UNL d   1       4.610   1.531  -0.178  0.00  0.00    -0.070 Cl
ENDROOT
TORSDOF 0
ENDMDL
