MODEL 1
REMARK minimizedAffinity 5.02630663
REMARK minimizedRMSD -1
REMARK  0 active torsions:
REMARK  status: ('A' for Active; 'I' for Inactive)
ROOT
ATOM      1  C   UNL d   1       1.896  -0.546  -1.501  0.00  0.00     0.020 A 
ATOM      2  C1  UNL d   1       2.759   0.400  -2.054  0.00  0.00     0.020 A 
ATOM      3  C2  UNL d   1       3.620   1.126  -1.229  0.00  0.00     0.034 A 
ATOM      4  C3  UNL d   1       3.621   0.908   0.154  0.00  0.00     0.017 A 
ATOM      5  C4  UNL d   1       2.755  -0.041   0.708  0.00  0.00     0.017 A 
ATOM      6  C5  UNL d   1       1.894  -0.766  -0.123  0.00  0.00     0.034 A 
ATOM      7 Cl   UNL d   1       2.698  -0.366   2.405  0.00  0.00    -0.070 Cl
ATOM      8 Cl1  UNL d   1       4.713   1.842   1.114  0.00  0.00    -0.070 Cl
ENDROOT
TORSDOF 0
ENDMDL
