MODEL 1
REMARK minimizedAffinity -1.1514014
REMARK minimizedRMSD -1
REMARK  0 active torsions:
REMARK  status: ('A' for Active; 'I' for Inactive)
ROOT
ATOM      1  C   UNL d   1       2.948  -3.587   3.920  0.00  0.00    -0.002 A 
ATOM      2  C1  UNL d   1       1.586  -3.840   3.835  0.00  0.00     0.010 A 
ATOM      3  C2  UNL d   1       0.780  -3.103   2.966  0.00  0.00     0.041 A 
ATOM      4  C3  UNL d   1       1.371  -2.100   2.173  0.00  0.00    -0.075 A 
ATOM      5  S   UNL d   1       0.581  -1.072   1.037  0.00  0.00     0.015 SA
ATOM      6  C4  UNL d   1       2.033  -0.274   0.636  0.00  0.00     0.022 A 
ATOM      7  C5  UNL d   1       3.104  -0.767   1.343  0.00  0.00     0.026 A 
ATOM      8  C6  UNL d   1       2.740  -1.827   2.240  0.00  0.00    -0.082 A 
ATOM      9  C7  UNL d   1       3.531  -2.591   3.133  0.00  0.00     0.045 A 
ENDROOT
TORSDOF 0
ENDMDL
