MODEL 1
REMARK minimizedAffinity 5.5451951
REMARK minimizedRMSD -1
REMARK  0 active torsions:
REMARK  status: ('A' for Active; 'I' for Inactive)
ROOT
ATOM      1  C   UNL d   1       2.526  -2.609   2.305  0.00  0.00    -0.002 A 
ATOM      2  C1  UNL d   1       1.153  -2.518   2.126  0.00  0.00     0.010 A 
ATOM      3  C2  UNL d   1       0.577  -1.345   1.634  0.00  0.00     0.041 A 
ATOM      4  C3  UNL d   1       1.413  -0.255   1.321  0.00  0.00    -0.075 A 
ATOM      5  S   UNL d   1       0.930   1.281   0.704  0.00  0.00     0.015 SA
ATOM      6  C4  UNL d   1       2.536   1.852   0.663  0.00  0.00     0.022 A 
ATOM      7  C5  UNL d   1       3.431   0.907   1.106  0.00  0.00     0.026 A 
ATOM      8  C6  UNL d   1       2.798  -0.323   1.492  0.00  0.00    -0.082 A 
ATOM      9  C7  UNL d   1       3.351  -1.526   1.993  0.00  0.00     0.045 A 
ENDROOT
TORSDOF 0
ENDMDL
