MODEL 1
REMARK minimizedAffinity 3.98449183
REMARK minimizedRMSD -1
REMARK  0 active torsions:
REMARK  status: ('A' for Active; 'I' for Inactive)
ROOT
ATOM      1  C   UNL d   1       1.294  -3.766   3.166  0.00  0.00    -0.002 A 
ATOM      2  C1  UNL d   1       0.185  -3.544   2.362  0.00  0.00     0.010 A 
ATOM      3  C2  UNL d   1       0.175  -2.497   1.439  0.00  0.00     0.041 A 
ATOM      4  C3  UNL d   1       1.310  -1.669   1.335  0.00  0.00    -0.075 A 
ATOM      5  S   UNL d   1       1.524  -0.327   0.274  0.00  0.00     0.015 SA
ATOM      6  C4  UNL d   1       3.094  -0.017   0.862  0.00  0.00     0.022 A 
ATOM      7  C5  UNL d   1       3.461  -0.907   1.844  0.00  0.00     0.026 A 
ATOM      8  C6  UNL d   1       2.440  -1.874   2.132  0.00  0.00    -0.082 A 
ATOM      9  C7  UNL d   1       2.418  -2.944   3.060  0.00  0.00     0.045 A 
ENDROOT
TORSDOF 0
ENDMDL
