MODEL 1
REMARK minimizedAffinity 3.54908204
REMARK minimizedRMSD -1
REMARK  0 active torsions:
REMARK  status: ('A' for Active; 'I' for Inactive)
ROOT
ATOM      1  C   UNL d   1       1.504  -2.366  -2.884  0.00  0.00    -0.002 A 
ATOM      2  C1  UNL d   1       0.136  -2.137  -2.887  0.00  0.00     0.010 A 
ATOM      3  C2  UNL d   1      -0.566  -2.017  -1.686  0.00  0.00     0.041 A 
ATOM      4  C3  UNL d   1       0.137  -2.132  -0.471  0.00  0.00    -0.075 A 
ATOM      5  S   UNL d   1      -0.513  -2.019   1.122  0.00  0.00     0.015 SA
ATOM      6  C4  UNL d   1       1.010  -2.272   1.843  0.00  0.00     0.022 A 
ATOM      7  C5  UNL d   1       2.002  -2.440   0.906  0.00  0.00     0.026 A 
ATOM      8  C6  UNL d   1       1.516  -2.361  -0.443  0.00  0.00    -0.082 A 
ATOM      9  C7  UNL d   1       2.199  -2.479  -1.677  0.00  0.00     0.045 A 
ENDROOT
TORSDOF 0
ENDMDL
