MODEL 1
REMARK minimizedAffinity 5.92824745
REMARK minimizedRMSD -1
REMARK  0 active torsions:
REMARK  status: ('A' for Active; 'I' for Inactive)
ROOT
ATOM      1  C   UNL d   1       3.197  -1.061   2.240  0.00  0.00    -0.002 A 
ATOM      2  C1  UNL d   1       2.695   0.196   1.933  0.00  0.00     0.010 A 
ATOM      3  C2  UNL d   1       1.331   0.379   1.700  0.00  0.00     0.041 A 
ATOM      4  C3  UNL d   1       0.470  -0.734   1.784  0.00  0.00    -0.075 A 
ATOM      5  S   UNL d   1      -1.236  -0.748   1.539  0.00  0.00     0.015 SA
ATOM      6  C4  UNL d   1      -1.340  -2.423   1.838  0.00  0.00     0.022 A 
ATOM      7  C5  UNL d   1      -0.112  -2.974   2.119  0.00  0.00     0.026 A 
ATOM      8  C6  UNL d   1       0.952  -2.009   2.093  0.00  0.00    -0.082 A 
ATOM      9  C7  UNL d   1       2.340  -2.162   2.323  0.00  0.00     0.045 A 
ENDROOT
TORSDOF 0
ENDMDL
