MODEL 1
REMARK minimizedAffinity 7.82423782
REMARK minimizedRMSD -1
REMARK  0 active torsions:
REMARK  status: ('A' for Active; 'I' for Inactive)
ROOT
ATOM      1  C   UNL d   1       1.708  -1.872  -3.533  0.00  0.00    -0.002 A 
ATOM      2  C1  UNL d   1       2.728  -2.755  -3.209  0.00  0.00     0.010 A 
ATOM      3  C2  UNL d   1       4.020  -2.559  -3.700  0.00  0.00     0.041 A 
ATOM      4  C3  UNL d   1       4.273  -1.449  -4.530  0.00  0.00    -0.075 A 
ATOM      5  S   UNL d   1       5.777  -1.008  -5.246  0.00  0.00     0.015 SA
ATOM      6  C4  UNL d   1       5.102   0.363  -6.000  0.00  0.00     0.022 A 
ATOM      7  C5  UNL d   1       3.762   0.497  -5.722  0.00  0.00     0.026 A 
ATOM      8  C6  UNL d   1       3.262  -0.545  -4.870  0.00  0.00    -0.082 A 
ATOM      9  C7  UNL d   1       1.962  -0.772  -4.357  0.00  0.00     0.045 A 
ENDROOT
TORSDOF 0
ENDMDL
