MODEL 1
REMARK minimizedAffinity -0.44450599
REMARK minimizedRMSD -1
REMARK  0 active torsions:
REMARK  status: ('A' for Active; 'I' for Inactive)
ROOT
ATOM      1  C   UNL d   1       3.930  -1.821   1.592  0.00  0.00    -0.002 A 
ATOM      2  C1  UNL d   1       3.429  -0.540   1.408  0.00  0.00     0.010 A 
ATOM      3  C2  UNL d   1       2.052  -0.310   1.404  0.00  0.00     0.041 A 
ATOM      4  C3  UNL d   1       1.178  -1.398   1.591  0.00  0.00    -0.075 A 
ATOM      5  S   UNL d   1      -0.545  -1.355   1.624  0.00  0.00     0.015 SA
ATOM      6  C4  UNL d   1      -0.657  -3.035   1.884  0.00  0.00     0.022 A 
ATOM      7  C5  UNL d   1       0.580  -3.631   1.947  0.00  0.00     0.026 A 
ATOM      8  C6  UNL d   1       1.658  -2.698   1.779  0.00  0.00    -0.082 A 
ATOM      9  C7  UNL d   1       3.060  -2.899   1.778  0.00  0.00     0.045 A 
ENDROOT
TORSDOF 0
ENDMDL
