MODEL 1
REMARK minimizedAffinity 6.95589209
REMARK minimizedRMSD -1
REMARK  0 active torsions:
REMARK  status: ('A' for Active; 'I' for Inactive)
ROOT
ATOM      1  C   UNL d   1       1.235  -1.704   2.478  0.00  0.00    -0.002 A 
ATOM      2  C1  UNL d   1       2.528  -1.838   1.993  0.00  0.00     0.010 A 
ATOM      3  C2  UNL d   1       2.759  -2.036   0.630  0.00  0.00     0.041 A 
ATOM      4  C3  UNL d   1       1.657  -2.096  -0.246  0.00  0.00    -0.075 A 
ATOM      5  S   UNL d   1       1.698  -2.330  -1.954  0.00  0.00     0.015 SA
ATOM      6  C4  UNL d   1      -0.000  -2.256  -2.080  0.00  0.00     0.022 A 
ATOM      7  C5  UNL d   1      -0.600  -2.059  -0.858  0.00  0.00     0.026 A 
ATOM      8  C6  UNL d   1       0.345  -1.963   0.219  0.00  0.00    -0.082 A 
ATOM      9  C7  UNL d   1       0.144  -1.764   1.606  0.00  0.00     0.045 A 
ENDROOT
TORSDOF 0
ENDMDL
