MODEL 1
REMARK minimizedAffinity -2.38178873
REMARK minimizedRMSD -1
REMARK  1 active torsions:
REMARK  status: ('A' for Active; 'I' for Inactive)
REMARK    1  A    between atoms: C1_2  and  C2_3 
ROOT
ATOM      1  C2  UNL d   1       1.360  -2.460   1.846  0.00  0.00    -0.073 A 
ATOM      2  C3  UNL d   1       0.232  -2.242   2.645  0.00  0.00    -0.002 A 
ATOM      3  C4  UNL d   1      -0.682  -1.240   2.317  0.00  0.00     0.004 A 
ATOM      4  C5  UNL d   1      -0.482  -0.452   1.183  0.00  0.00    -0.004 A 
ATOM      5  C6  UNL d   1       0.633  -0.663   0.365  0.00  0.00    -0.075 A 
ATOM      6  C7  UNL d   1       0.864   0.178  -0.856  0.00  0.00     0.076 C 
ATOM      7  C8  UNL d   1       1.547  -1.669   0.704  0.00  0.00     0.001 A 
ENDROOT
BRANCH   1   8
ATOM      8  C1  UNL d   1       2.346  -3.546   2.193  0.00  0.00     0.053 C 
ATOM      9  C   UNL d   1       2.729  -4.378   0.980  0.00  0.00     0.018 C 
ENDBRANCH   1   8
TORSDOF 1
ENDMDL
