MODEL 1
REMARK minimizedAffinity 0.988883555
REMARK minimizedRMSD -1
REMARK  1 active torsions:
REMARK  status: ('A' for Active; 'I' for Inactive)
REMARK    1  A    between atoms: C1_2  and  C2_3 
ROOT
ATOM      1  C2  UNL d   1      -0.517  -1.020   0.624  0.00  0.00    -0.073 A 
ATOM      2  C3  UNL d   1      -0.505  -1.788   1.795  0.00  0.00    -0.002 A 
ATOM      3  C4  UNL d   1       0.424  -1.523   2.802  0.00  0.00     0.004 A 
ATOM      4  C5  UNL d   1       1.344  -0.485   2.653  0.00  0.00    -0.004 A 
ATOM      5  C6  UNL d   1       1.340   0.301   1.496  0.00  0.00    -0.075 A 
ATOM      6  C7  UNL d   1       2.325   1.419   1.319  0.00  0.00     0.076 C 
ATOM      7  C8  UNL d   1       0.406   0.027   0.488  0.00  0.00     0.001 A 
ENDROOT
BRANCH   1   8
ATOM      8  C1  UNL d   1      -1.522  -1.299  -0.463  0.00  0.00     0.053 C 
ATOM      9  C   UNL d   1      -2.786  -1.945   0.081  0.00  0.00     0.018 C 
ENDBRANCH   1   8
TORSDOF 1
ENDMDL
