MODEL 1
REMARK minimizedAffinity -5.04453325
REMARK minimizedRMSD -1
REMARK  2 active torsions:
REMARK  status: ('A' for Active; 'I' for Inactive)
REMARK    1  A    between atoms: C1_2  and  C2_3 
REMARK    2  A    between atoms: C2_3  and  C3_4 
ROOT
ATOM      1  C3  UNL d   1      -0.109   0.116   0.035  0.00  0.00    -0.075 A 
ATOM      2  C4  UNL d   1       1.224   0.176   0.465  0.00  0.00     0.002 A 
ATOM      3  C5  UNL d   1       1.540   0.025   1.815  0.00  0.00     0.002 A 
ATOM      4  C6  UNL d   1       0.529  -0.177   2.752  0.00  0.00    -0.004 A 
ATOM      5  C7  UNL d   1      -0.800  -0.222   2.338  0.00  0.00     0.002 A 
ATOM      6  C8  UNL d   1      -1.119  -0.076   0.987  0.00  0.00     0.002 A 
ENDROOT
BRANCH   1   7
ATOM      7  C2  UNL d   1      -0.456   0.249  -1.429  0.00  0.00     0.056 C 
BRANCH   7   8
ATOM      8  C1  UNL d   1       0.719  -0.023  -2.375  0.00  0.00     0.007 C 
ATOM      9  C   UNL d   1       0.500  -1.234  -3.271  0.00  0.00     0.009 C 
ENDBRANCH   7   8
ENDBRANCH   1   7
TORSDOF 2
ENDMDL
