MODEL 1
REMARK minimizedAffinity -4.88540077
REMARK minimizedRMSD -1
REMARK  2 active torsions:
REMARK  status: ('A' for Active; 'I' for Inactive)
REMARK    1  A    between atoms: C1_2  and  C2_3 
REMARK    2  A    between atoms: C2_3  and  C3_4 
ROOT
ATOM      1  C3  UNL d   1       0.055   0.069   0.630  0.00  0.00    -0.075 A 
ATOM      2  C4  UNL d   1      -0.753  -1.017   0.995  0.00  0.00     0.002 A 
ATOM      3  C5  UNL d   1      -1.033  -1.273   2.337  0.00  0.00     0.002 A 
ATOM      4  C6  UNL d   1      -0.502  -0.454   3.331  0.00  0.00    -0.004 A 
ATOM      5  C7  UNL d   1       0.316   0.619   2.981  0.00  0.00     0.002 A 
ATOM      6  C8  UNL d   1       0.594   0.879   1.638  0.00  0.00     0.002 A 
ENDROOT
BRANCH   1   7
ATOM      7  C2  UNL d   1       0.338   0.369  -0.823  0.00  0.00     0.056 C 
BRANCH   7   8
ATOM      8  C1  UNL d   1       0.452  -0.879  -1.706  0.00  0.00     0.007 C 
ATOM      9  C   UNL d   1       1.171  -0.618  -3.023  0.00  0.00     0.009 C 
ENDBRANCH   7   8
ENDBRANCH   1   7
TORSDOF 2
ENDMDL
