MODEL 1
REMARK minimizedAffinity -6.21166801
REMARK minimizedRMSD -1
REMARK  2 active torsions:
REMARK  status: ('A' for Active; 'I' for Inactive)
REMARK    1  A    between atoms: C1_2  and  C2_3 
REMARK    2  A    between atoms: C2_3  and  C3_4 
ROOT
ATOM      1  C3  UNL d   1      -0.295   0.005   0.881  0.00  0.00    -0.075 A 
ATOM      2  C4  UNL d   1      -1.618   0.226   0.469  0.00  0.00     0.002 A 
ATOM      3  C5  UNL d   1      -2.632   0.407   1.411  0.00  0.00     0.002 A 
ATOM      4  C6  UNL d   1      -2.339   0.359   2.772  0.00  0.00    -0.004 A 
ATOM      5  C7  UNL d   1      -1.032   0.125   3.192  0.00  0.00     0.002 A 
ATOM      6  C8  UNL d   1      -0.015  -0.052   2.253  0.00  0.00     0.002 A 
ENDROOT
BRANCH   1   7
ATOM      7  C2  UNL d   1       0.811  -0.162  -0.133  0.00  0.00     0.056 C 
BRANCH   7   8
ATOM      8  C1  UNL d   1       0.497   0.442  -1.505  0.00  0.00     0.007 C 
ATOM      9  C   UNL d   1       0.844  -0.484  -2.663  0.00  0.00     0.009 C 
ENDBRANCH   7   8
ENDBRANCH   1   7
TORSDOF 2
ENDMDL
