MODEL 1
REMARK minimizedAffinity 0.966807306
REMARK minimizedRMSD -1
REMARK  2 active torsions:
REMARK  status: ('A' for Active; 'I' for Inactive)
REMARK    1  A    between atoms: C1_2  and  C2_3 
REMARK    2  A    between atoms: C2_3  and  C3_4 
ROOT
ATOM      1  C3  UNL d   1      -0.479  -0.698  -1.742  0.00  0.00    -0.075 A 
ATOM      2  C4  UNL d   1       0.451   0.077  -1.033  0.00  0.00     0.002 A 
ATOM      3  C5  UNL d   1       0.173   0.505   0.265  0.00  0.00     0.002 A 
ATOM      4  C6  UNL d   1      -1.039   0.174   0.867  0.00  0.00    -0.004 A 
ATOM      5  C7  UNL d   1      -1.977  -0.582   0.166  0.00  0.00     0.002 A 
ATOM      6  C8  UNL d   1      -1.699  -1.016  -1.131  0.00  0.00     0.002 A 
ENDROOT
BRANCH   1   7
ATOM      7  C2  UNL d   1      -0.171  -1.190  -3.136  0.00  0.00     0.056 C 
BRANCH   7   8
ATOM      8  C1  UNL d   1       1.185  -1.890  -3.266  0.00  0.00     0.007 C 
ATOM      9  C   UNL d   1       1.217  -2.939  -4.370  0.00  0.00     0.009 C 
ENDBRANCH   7   8
ENDBRANCH   1   7
TORSDOF 2
ENDMDL
