MODEL 1
REMARK minimizedAffinity -5.77413559
REMARK minimizedRMSD -1
REMARK  2 active torsions:
REMARK  status: ('A' for Active; 'I' for Inactive)
REMARK    1  A    between atoms: C1_2  and  C2_3 
REMARK    2  A    between atoms: C2_3  and  C3_4 
ROOT
ATOM      1  C3  UNL d   1      -0.340  -0.128   0.853  0.00  0.00    -0.075 A 
ATOM      2  C4  UNL d   1      -1.602   0.237   0.363  0.00  0.00     0.002 A 
ATOM      3  C5  UNL d   1      -2.686   0.378   1.231  0.00  0.00     0.002 A 
ATOM      4  C6  UNL d   1      -2.524   0.145   2.595  0.00  0.00    -0.004 A 
ATOM      5  C7  UNL d   1      -1.279  -0.235   3.090  0.00  0.00     0.002 A 
ATOM      6  C8  UNL d   1      -0.192  -0.372   2.225  0.00  0.00     0.002 A 
ENDROOT
BRANCH   1   7
ATOM      7  C2  UNL d   1       0.843  -0.253  -0.077  0.00  0.00     0.056 C 
BRANCH   7   8
ATOM      8  C1  UNL d   1       0.596   0.310  -1.481  0.00  0.00     0.007 C 
ATOM      9  C   UNL d   1       1.135  -0.584  -2.590  0.00  0.00     0.009 C 
ENDBRANCH   7   8
ENDBRANCH   1   7
TORSDOF 2
ENDMDL
