MODEL 1
REMARK minimizedAffinity -4.70781898
REMARK minimizedRMSD -1
REMARK  2 active torsions:
REMARK  status: ('A' for Active; 'I' for Inactive)
REMARK    1  A    between atoms: C1_2  and  C2_3 
REMARK    2  A    between atoms: C2_3  and  C3_4 
ROOT
ATOM      1  C3  UNL d   1      -0.090   0.363  -0.751  0.00  0.00    -0.075 A 
ATOM      2  C4  UNL d   1       0.930   0.581   0.187  0.00  0.00     0.002 A 
ATOM      3  C5  UNL d   1       0.669   0.482   1.554  0.00  0.00     0.002 A 
ATOM      4  C6  UNL d   1      -0.615   0.176   2.000  0.00  0.00    -0.004 A 
ATOM      5  C7  UNL d   1      -1.639  -0.027   1.078  0.00  0.00     0.002 A 
ATOM      6  C8  UNL d   1      -1.380   0.066  -0.290  0.00  0.00     0.002 A 
ENDROOT
BRANCH   1   7
ATOM      7  C2  UNL d   1       0.193   0.439  -2.232  0.00  0.00     0.056 C 
BRANCH   7   8
ATOM      8  C1  UNL d   1       1.477  -0.281  -2.659  0.00  0.00     0.007 C 
ATOM      9  C   UNL d   1       1.238  -1.368  -3.698  0.00  0.00     0.009 C 
ENDBRANCH   7   8
ENDBRANCH   1   7
TORSDOF 2
ENDMDL
