MODEL 1
REMARK minimizedAffinity -5.75121069
REMARK minimizedRMSD -1
REMARK  2 active torsions:
REMARK  status: ('A' for Active; 'I' for Inactive)
REMARK    1  A    between atoms: C1_2  and  C2_3 
REMARK    2  A    between atoms: C2_3  and  C3_4 
ROOT
ATOM      1  C3  UNL d   1       0.183  -0.051   0.097  0.00  0.00    -0.075 A 
ATOM      2  C4  UNL d   1      -0.901  -0.777   0.610  0.00  0.00     0.002 A 
ATOM      3  C5  UNL d   1      -1.082  -0.901   1.988  0.00  0.00     0.002 A 
ATOM      4  C6  UNL d   1      -0.177  -0.312   2.868  0.00  0.00    -0.004 A 
ATOM      5  C7  UNL d   1       0.913   0.397   2.369  0.00  0.00     0.002 A 
ATOM      6  C8  UNL d   1       1.094   0.527   0.991  0.00  0.00     0.002 A 
ENDROOT
BRANCH   1   7
ATOM      7  C2  UNL d   1       0.368   0.112  -1.393  0.00  0.00     0.056 C 
BRANCH   7   8
ATOM      8  C1  UNL d   1       0.175  -1.182  -2.191  0.00  0.00     0.007 C 
ATOM      9  C   UNL d   1       1.224  -1.380  -3.277  0.00  0.00     0.009 C 
ENDBRANCH   7   8
ENDBRANCH   1   7
TORSDOF 2
ENDMDL
