MODEL 1
REMARK minimizedAffinity 12.018054
REMARK minimizedRMSD -1
REMARK  0 active torsions:
REMARK  status: ('A' for Active; 'I' for Inactive)
ROOT
ATOM      1  C4' PXY d   1       3.176  -3.000   0.000  0.00  0.00     0.077 C 
ATOM      2  C1' PXY d   1       0.920   0.682  -3.842  0.00  0.00     0.077 C 
ATOM      3  C1  PXY d   1       1.520  -0.274  -2.830  0.00  0.00    -0.082 A 
ATOM      4  C2  PXY d   1       1.500  -1.575  -3.068  0.00  0.00     0.003 A 
ATOM      5  C3  PXY d   1       2.009  -2.456  -2.149  0.00  0.00     0.003 A 
ATOM      6  C4  PXY d   1       2.592  -1.997  -0.998  0.00  0.00    -0.082 A 
ATOM      7  C5  PXY d   1       2.625  -0.670  -0.753  0.00  0.00     0.003 A 
ATOM      8  C6  PXY d   1       2.066   0.205  -1.680  0.00  0.00     0.003 A 
ENDROOT
TORSDOF 0
ENDMDL
