MODEL 1
REMARK minimizedAffinity 5.8805871
REMARK minimizedRMSD -1
REMARK  0 active torsions:
REMARK  status: ('A' for Active; 'I' for Inactive)
ROOT
ATOM      1  C4' PXY d   1       4.207  -4.991  -1.880  0.00  0.00     0.077 C 
ATOM      2  C1' PXY d   1       0.714  -0.393  -1.605  0.00  0.00     0.077 C 
ATOM      3  C1  PXY d   1       1.621  -1.606  -1.684  0.00  0.00    -0.082 A 
ATOM      4  C2  PXY d   1       2.608  -1.741  -0.813  0.00  0.00     0.003 A 
ATOM      5  C3  PXY d   1       3.457  -2.815  -0.890  0.00  0.00     0.003 A 
ATOM      6  C4  PXY d   1       3.261  -3.788  -1.833  0.00  0.00    -0.082 A 
ATOM      7  C5  PXY d   1       2.249  -3.662  -2.718  0.00  0.00     0.003 A 
ATOM      8  C6  PXY d   1       1.424  -2.544  -2.649  0.00  0.00     0.003 A 
ENDROOT
TORSDOF 0
ENDMDL
