MODEL 1
REMARK minimizedAffinity 7.51423073
REMARK minimizedRMSD -1
REMARK  0 active torsions:
REMARK  status: ('A' for Active; 'I' for Inactive)
ROOT
ATOM      1  C4' PXY d   1       0.385  -4.304  -2.288  0.00  0.00     0.077 C 
ATOM      2  C1' PXY d   1       3.224   0.286  -0.216  0.00  0.00     0.077 C 
ATOM      3  C1  PXY d   1       2.490  -0.925  -0.757  0.00  0.00    -0.082 A 
ATOM      4  C2  PXY d   1       1.488  -0.758  -1.605  0.00  0.00     0.003 A 
ATOM      5  C3  PXY d   1       0.792  -1.841  -2.079  0.00  0.00     0.003 A 
ATOM      6  C4  PXY d   1       1.161  -3.111  -1.723  0.00  0.00    -0.082 A 
ATOM      7  C5  PXY d   1       2.189  -3.290  -0.867  0.00  0.00     0.003 A 
ATOM      8  C6  PXY d   1       2.855  -2.176  -0.365  0.00  0.00     0.003 A 
ENDROOT
TORSDOF 0
ENDMDL
