MODEL 1
REMARK minimizedAffinity 5.18147373
REMARK minimizedRMSD -1
REMARK  0 active torsions:
REMARK  status: ('A' for Active; 'I' for Inactive)
ROOT
ATOM      1  C4' PXY d   1       2.820  -4.598  -0.109  0.00  0.00     0.077 C 
ATOM      2  C1' PXY d   1       2.657   1.007  -1.514  0.00  0.00     0.077 C 
ATOM      3  C1  PXY d   1       2.713  -0.462  -1.144  0.00  0.00    -0.082 A 
ATOM      4  C2  PXY d   1       1.718  -1.262  -1.493  0.00  0.00     0.003 A 
ATOM      5  C3  PXY d   1       1.738  -2.587  -1.140  0.00  0.00     0.003 A 
ATOM      6  C4  PXY d   1       2.810  -3.109  -0.468  0.00  0.00    -0.082 A 
ATOM      7  C5  PXY d   1       3.834  -2.302  -0.118  0.00  0.00     0.003 A 
ATOM      8  C6  PXY d   1       3.776  -0.951  -0.451  0.00  0.00     0.003 A 
ENDROOT
TORSDOF 0
ENDMDL
