MODEL 1
REMARK minimizedAffinity 11.8056097
REMARK minimizedRMSD -1
REMARK  0 active torsions:
REMARK  status: ('A' for Active; 'I' for Inactive)
ROOT
ATOM      1  C4' PXY d   1      -0.946  -3.772  -2.175  0.00  0.00     0.077 C 
ATOM      2  C1' PXY d   1       3.657  -0.721  -0.468  0.00  0.00     0.077 C 
ATOM      3  C1  PXY d   1       2.458  -1.532  -0.917  0.00  0.00    -0.082 A 
ATOM      4  C2  PXY d   1       1.441  -0.924  -1.507  0.00  0.00     0.003 A 
ATOM      5  C3  PXY d   1       0.334  -1.637  -1.890  0.00  0.00     0.003 A 
ATOM      6  C4  PXY d   1       0.290  -2.995  -1.715  0.00  0.00    -0.082 A 
ATOM      7  C5  PXY d   1       1.328  -3.623  -1.123  0.00  0.00     0.003 A 
ATOM      8  C6  PXY d   1       2.424  -2.875  -0.704  0.00  0.00     0.003 A 
ENDROOT
TORSDOF 0
ENDMDL
