MODEL 1
REMARK minimizedAffinity 5.88068771
REMARK minimizedRMSD -1
REMARK  0 active torsions:
REMARK  status: ('A' for Active; 'I' for Inactive)
ROOT
ATOM      1  C4' PXY d   1       2.207  -5.275  -0.770  0.00  0.00     0.077 C 
ATOM      2  C1' PXY d   1       2.698   0.419  -1.635  0.00  0.00     0.077 C 
ATOM      3  C1  PXY d   1       2.557  -1.072  -1.403  0.00  0.00    -0.082 A 
ATOM      4  C2  PXY d   1       3.641  -1.825  -1.307  0.00  0.00     0.003 A 
ATOM      5  C3  PXY d   1       3.532  -3.180  -1.129  0.00  0.00     0.003 A 
ATOM      6  C4  PXY d   1       2.301  -3.764  -0.995  0.00  0.00    -0.082 A 
ATOM      7  C5  PXY d   1       1.190  -3.002  -1.081  0.00  0.00     0.003 A 
ATOM      8  C6  PXY d   1       1.322  -1.634  -1.303  0.00  0.00     0.003 A 
ENDROOT
TORSDOF 0
ENDMDL
