MODEL 1
REMARK minimizedAffinity 9.59517574
REMARK minimizedRMSD -1
REMARK  0 active torsions:
REMARK  status: ('A' for Active; 'I' for Inactive)
ROOT
ATOM      1  C4' PXY d   1       1.479   3.355  -0.620  0.00  0.00     0.077 C 
ATOM      2  C1' PXY d   1       2.214  -1.698  -3.328  0.00  0.00     0.077 C 
ATOM      3  C1  PXY d   1       2.028  -0.378  -2.607  0.00  0.00    -0.082 A 
ATOM      4  C2  PXY d   1       1.039   0.427  -2.962  0.00  0.00     0.003 A 
ATOM      5  C3  PXY d   1       0.876   1.639  -2.343  0.00  0.00     0.003 A 
ATOM      6  C4  PXY d   1       1.700   2.008  -1.313  0.00  0.00    -0.082 A 
ATOM      7  C5  PXY d   1       2.704   1.188  -0.938  0.00  0.00     0.003 A 
ATOM      8  C6  PXY d   1       2.878  -0.020  -1.607  0.00  0.00     0.003 A 
ENDROOT
TORSDOF 0
ENDMDL
