MODEL 1
REMARK minimizedAffinity 5.40862656
REMARK minimizedRMSD -1
REMARK  0 active torsions:
REMARK  status: ('A' for Active; 'I' for Inactive)
ROOT
ATOM      1  C4' PXY d   1       3.034  -3.663  -2.569  0.00  0.00     0.077 C 
ATOM      2  C1' PXY d   1      -0.779  -1.865   1.385  0.00  0.00     0.077 C 
ATOM      3  C1  PXY d   1       0.228  -2.341   0.358  0.00  0.00    -0.082 A 
ATOM      4  C2  PXY d   1       0.290  -1.746  -0.823  0.00  0.00     0.003 A 
ATOM      5  C3  PXY d   1       1.173  -2.185  -1.775  0.00  0.00     0.003 A 
ATOM      6  C4  PXY d   1       2.039  -3.209  -1.498  0.00  0.00    -0.082 A 
ATOM      7  C5  PXY d   1       1.990  -3.814  -0.292  0.00  0.00     0.003 A 
ATOM      8  C6  PXY d   1       1.058  -3.380   0.646  0.00  0.00     0.003 A 
ENDROOT
TORSDOF 0
ENDMDL
