MODEL 1
REMARK minimizedAffinity 1.87803423
REMARK minimizedRMSD -1
REMARK  0 active torsions:
REMARK  status: ('A' for Active; 'I' for Inactive)
ROOT
ATOM      1  C4' PXY d   1      -4.872  -1.520   2.005  0.00  0.00     0.077 C 
ATOM      2  C1' PXY d   1      -0.588   2.174   3.196  0.00  0.00     0.077 C 
ATOM      3  C1  PXY d   1      -1.705   1.201   2.873  0.00  0.00    -0.082 A 
ATOM      4  C2  PXY d   1      -2.929   1.441   3.313  0.00  0.00     0.003 A 
ATOM      5  C3  PXY d   1      -3.945   0.556   3.057  0.00  0.00     0.003 A 
ATOM      6  C4  PXY d   1      -3.716  -0.560   2.298  0.00  0.00    -0.082 A 
ATOM      7  C5  PXY d   1      -2.471  -0.807   1.837  0.00  0.00     0.003 A 
ATOM      8  C6  PXY d   1      -1.446   0.083   2.142  0.00  0.00     0.003 A 
ENDROOT
TORSDOF 0
ENDMDL
