MODEL 1
REMARK minimizedAffinity 11.3275652
REMARK minimizedRMSD -1
REMARK  0 active torsions:
REMARK  status: ('A' for Active; 'I' for Inactive)
ROOT
ATOM      1  C4' PXY d   1      -5.869  -5.993   0.507  0.00  0.00     0.077 C 
ATOM      2  C1' PXY d   1      -1.360  -5.382  -3.058  0.00  0.00     0.077 C 
ATOM      3  C1  PXY d   1      -2.550  -5.535  -2.132  0.00  0.00    -0.082 A 
ATOM      4  C2  PXY d   1      -2.351  -5.757  -0.843  0.00  0.00     0.003 A 
ATOM      5  C3  PXY d   1      -3.416  -5.930   0.004  0.00  0.00     0.003 A 
ATOM      6  C4  PXY d   1      -4.698  -5.823  -0.464  0.00  0.00    -0.082 A 
ATOM      7  C5  PXY d   1      -4.909  -5.587  -1.776  0.00  0.00     0.003 A 
ATOM      8  C6  PXY d   1      -3.815  -5.455  -2.627  0.00  0.00     0.003 A 
ENDROOT
TORSDOF 0
ENDMDL
