MODEL 1
REMARK minimizedAffinity 10.5026875
REMARK minimizedRMSD -1
REMARK  0 active torsions:
REMARK  status: ('A' for Active; 'I' for Inactive)
ROOT
ATOM      1  C4' PXY d   1       2.721  -3.231  -0.369  0.00  0.00     0.077 C 
ATOM      2  C1' PXY d   1       1.565   1.985  -2.576  0.00  0.00     0.077 C 
ATOM      3  C1  PXY d   1       1.879   0.622  -1.991  0.00  0.00    -0.082 A 
ATOM      4  C2  PXY d   1       1.420  -0.466  -2.587  0.00  0.00     0.003 A 
ATOM      5  C3  PXY d   1       1.668  -1.705  -2.054  0.00  0.00     0.003 A 
ATOM      6  C4  PXY d   1       2.437  -1.834  -0.929  0.00  0.00    -0.082 A 
ATOM      7  C5  PXY d   1       2.918  -0.729  -0.321  0.00  0.00     0.003 A 
ATOM      8  C6  PXY d   1       2.620   0.522  -0.855  0.00  0.00     0.003 A 
ENDROOT
TORSDOF 0
ENDMDL
