MODEL 1
REMARK minimizedAffinity 1.55625093
REMARK minimizedRMSD -1
REMARK  0 active torsions:
REMARK  status: ('A' for Active; 'I' for Inactive)
ROOT
ATOM      1  C4' PXY d   1      -5.990  -1.609  -5.861  0.00  0.00     0.077 C 
ATOM      2  C1' PXY d   1      -2.231  -5.999  -5.972  0.00  0.00     0.077 C 
ATOM      3  C1  PXY d   1      -3.226  -4.855  -5.949  0.00  0.00    -0.082 A 
ATOM      4  C2  PXY d   1      -2.788  -3.609  -5.870  0.00  0.00     0.003 A 
ATOM      5  C3  PXY d   1      -3.675  -2.565  -5.816  0.00  0.00     0.003 A 
ATOM      6  C4  PXY d   1      -5.022  -2.795  -5.896  0.00  0.00    -0.082 A 
ATOM      7  C5  PXY d   1      -5.476  -4.062  -5.988  0.00  0.00     0.003 A 
ATOM      8  C6  PXY d   1      -4.561  -5.111  -6.000  0.00  0.00     0.003 A 
ENDROOT
TORSDOF 0
ENDMDL
