MODEL 1
REMARK minimizedAffinity 8.07634354
REMARK minimizedRMSD -1
REMARK  0 active torsions:
REMARK  status: ('A' for Active; 'I' for Inactive)
ROOT
ATOM      1  C4' PXY d   1       2.523   0.984  -1.446  0.00  0.00     0.077 C 
ATOM      2  C1' PXY d   1       1.513  -4.614  -0.415  0.00  0.00     0.077 C 
ATOM      3  C1  PXY d   1       1.767  -3.145  -0.691  0.00  0.00    -0.082 A 
ATOM      4  C2  PXY d   1       3.009  -2.695  -0.751  0.00  0.00     0.003 A 
ATOM      5  C3  PXY d   1       3.256  -1.364  -0.968  0.00  0.00     0.003 A 
ATOM      6  C4  PXY d   1       2.220  -0.493  -1.179  0.00  0.00    -0.082 A 
ATOM      7  C5  PXY d   1       0.950  -0.946  -1.130  0.00  0.00     0.003 A 
ATOM      8  C6  PXY d   1       0.720  -2.293  -0.867  0.00  0.00     0.003 A 
ENDROOT
TORSDOF 0
ENDMDL
