MODEL 1
REMARK minimizedAffinity 4.81723642
REMARK minimizedRMSD -1
REMARK  0 active torsions:
REMARK  status: ('A' for Active; 'I' for Inactive)
ROOT
ATOM      1  C4' PXY d   1       2.913  -6.000  -0.338  0.00  0.00     0.077 C 
ATOM      2  C1' PXY d   1       1.351  -0.590  -1.645  0.00  0.00     0.077 C 
ATOM      3  C1  PXY d   1       1.773  -2.006  -1.306  0.00  0.00    -0.082 A 
ATOM      4  C2  PXY d   1       0.867  -2.969  -1.280  0.00  0.00     0.003 A 
ATOM      5  C3  PXY d   1       1.225  -4.250  -0.944  0.00  0.00     0.003 A 
ATOM      6  C4  PXY d   1       2.534  -4.557  -0.684  0.00  0.00    -0.082 A 
ATOM      7  C5  PXY d   1       3.466  -3.581  -0.719  0.00  0.00     0.003 A 
ATOM      8  C6  PXY d   1       3.075  -2.280  -1.022  0.00  0.00     0.003 A 
ENDROOT
TORSDOF 0
ENDMDL
