MODEL 1
REMARK minimizedAffinity 8.95367908
REMARK minimizedRMSD -1
REMARK  0 active torsions:
REMARK  status: ('A' for Active; 'I' for Inactive)
ROOT
ATOM      1  C4' PXY d   1       1.508  -1.893  -6.000  0.00  0.00     0.077 C 
ATOM      2  C1' PXY d   1       1.733  -1.373  -0.247  0.00  0.00     0.077 C 
ATOM      3  C1  PXY d   1       1.661  -1.506  -1.756  0.00  0.00    -0.082 A 
ATOM      4  C2  PXY d   1       2.556  -2.247  -2.390  0.00  0.00     0.003 A 
ATOM      5  C3  PXY d   1       2.525  -2.352  -3.757  0.00  0.00     0.003 A 
ATOM      6  C4  PXY d   1       1.536  -1.737  -4.477  0.00  0.00    -0.082 A 
ATOM      7  C5  PXY d   1       0.613  -0.989  -3.836  0.00  0.00     0.003 A 
ATOM      8  C6  PXY d   1       0.687  -0.861  -2.452  0.00  0.00     0.003 A 
ENDROOT
TORSDOF 0
ENDMDL
