MODEL 1
REMARK minimizedAffinity 7.54984426
REMARK minimizedRMSD -1
REMARK  0 active torsions:
REMARK  status: ('A' for Active; 'I' for Inactive)
ROOT
ATOM      1  C4' PXY d   1      -1.411  -3.695  -2.217  0.00  0.00     0.077 C 
ATOM      2  C1' PXY d   1       3.907  -2.764  -0.151  0.00  0.00     0.077 C 
ATOM      3  C1  PXY d   1       2.509  -2.995  -0.692  0.00  0.00    -0.082 A 
ATOM      4  C2  PXY d   1       1.971  -4.201  -0.617  0.00  0.00     0.003 A 
ATOM      5  C3  PXY d   1       0.720  -4.436  -1.129  0.00  0.00     0.003 A 
ATOM      6  C4  PXY d   1      -0.007  -3.413  -1.676  0.00  0.00    -0.082 A 
ATOM      7  C5  PXY d   1       0.531  -2.177  -1.747  0.00  0.00     0.003 A 
ATOM      8  C6  PXY d   1       1.818  -1.969  -1.258  0.00  0.00     0.003 A 
ENDROOT
TORSDOF 0
ENDMDL
