MODEL 1
REMARK minimizedAffinity 2.1285615
REMARK minimizedRMSD -1
REMARK  0 active torsions:
REMARK  status: ('A' for Active; 'I' for Inactive)
ROOT
ATOM      1  C4' PXY d   1      -1.705  -2.358  -2.685  0.00  0.00     0.077 C 
ATOM      2  C1' PXY d   1       3.541  -2.557  -0.266  0.00  0.00     0.077 C 
ATOM      3  C1  PXY d   1       2.169  -2.495  -0.908  0.00  0.00    -0.082 A 
ATOM      4  C2  PXY d   1       1.127  -3.007  -0.274  0.00  0.00     0.003 A 
ATOM      5  C3  PXY d   1      -0.116  -2.988  -0.854  0.00  0.00     0.003 A 
ATOM      6  C4  PXY d   1      -0.303  -2.390  -2.072  0.00  0.00    -0.082 A 
ATOM      7  C5  PXY d   1       0.754  -1.855  -2.719  0.00  0.00     0.003 A 
ATOM      8  C6  PXY d   1       2.014  -1.922  -2.132  0.00  0.00     0.003 A 
ENDROOT
TORSDOF 0
ENDMDL
