MODEL 1
REMARK minimizedAffinity 8.04433823
REMARK minimizedRMSD -1
REMARK  0 active torsions:
REMARK  status: ('A' for Active; 'I' for Inactive)
ROOT
ATOM      1  C4' PXY d   1       4.104  -2.601   0.223  0.00  0.00     0.077 C 
ATOM      2  C1' PXY d   1       1.891   1.569  -3.114  0.00  0.00     0.077 C 
ATOM      3  C1  PXY d   1       2.482   0.483  -2.236  0.00  0.00    -0.082 A 
ATOM      4  C2  PXY d   1       2.164  -0.782  -2.457  0.00  0.00     0.003 A 
ATOM      5  C3  PXY d   1       2.664  -1.774  -1.653  0.00  0.00     0.003 A 
ATOM      6  C4  PXY d   1       3.539  -1.472  -0.645  0.00  0.00    -0.082 A 
ATOM      7  C5  PXY d   1       3.877  -0.185  -0.419  0.00  0.00     0.003 A 
ATOM      8  C6  PXY d   1       3.326   0.811  -1.221  0.00  0.00     0.003 A 
ENDROOT
TORSDOF 0
ENDMDL
