MODEL 1
REMARK minimizedAffinity -6.04700327
REMARK minimizedRMSD -1
REMARK  0 active torsions:
REMARK  status: ('A' for Active; 'I' for Inactive)
ROOT
ATOM      1  O1  BZF d   1      -0.808  -3.644  -1.283  0.00  0.00    -0.204 OA
ATOM      2  C2  BZF d   1       0.259  -3.594  -2.160  0.00  0.00     0.174 A 
ATOM      3  C3  BZF d   1       0.936  -2.435  -2.024  0.00  0.00    -0.012 A 
ATOM      4  C3A BZF d   1       0.305  -1.756  -0.934  0.00  0.00    -0.107 A 
ATOM      5  C4  BZF d   1       0.535  -0.563  -0.311  0.00  0.00     0.055 A 
ATOM      6  C5  BZF d   1      -0.309  -0.158   0.674  0.00  0.00    -0.016 A 
ATOM      7  C6  BZF d   1      -1.394  -0.918   1.058  0.00  0.00     0.022 A 
ATOM      8  C7  BZF d   1      -1.661  -2.111   0.473  0.00  0.00     0.029 A 
ATOM      9  C7A BZF d   1      -0.791  -2.538  -0.500  0.00  0.00     0.058 A 
ENDROOT
TORSDOF 0
ENDMDL
