MODEL 1
REMARK minimizedAffinity -2.01443338
REMARK minimizedRMSD -1
REMARK  0 active torsions:
REMARK  status: ('A' for Active; 'I' for Inactive)
ROOT
ATOM      1  O1  BZF d   1       0.004  -2.035  -0.438  0.00  0.00    -0.204 OA
ATOM      2  C2  BZF d   1       1.229  -1.654  -0.950  0.00  0.00     0.174 A 
ATOM      3  C3  BZF d   1       1.545  -0.404  -0.554  0.00  0.00    -0.012 A 
ATOM      4  C3A BZF d   1       0.491  -0.012   0.331  0.00  0.00    -0.107 A 
ATOM      5  C4  BZF d   1       0.246   1.119   1.057  0.00  0.00     0.055 A 
ATOM      6  C5  BZF d   1      -0.911   1.213   1.763  0.00  0.00    -0.016 A 
ATOM      7  C6  BZF d   1      -1.847   0.199   1.761  0.00  0.00     0.022 A 
ATOM      8  C7  BZF d   1      -1.646  -0.943   1.060  0.00  0.00     0.029 A 
ATOM      9  C7A BZF d   1      -0.463  -1.055   0.372  0.00  0.00     0.058 A 
ENDROOT
TORSDOF 0
ENDMDL
