MODEL 1
REMARK minimizedAffinity -2.92263699
REMARK minimizedRMSD -1
REMARK  0 active torsions:
REMARK  status: ('A' for Active; 'I' for Inactive)
ROOT
ATOM      1  O1  BZF d   1       0.522  -0.043  -1.116  0.00  0.00    -0.204 OA
ATOM      2  C2  BZF d   1       0.245  -1.166  -0.361  0.00  0.00     0.174 A 
ATOM      3  C3  BZF d   1      -0.336  -0.826   0.808  0.00  0.00    -0.012 A 
ATOM      4  C3A BZF d   1      -0.513   0.592   0.741  0.00  0.00    -0.107 A 
ATOM      5  C4  BZF d   1      -1.052   1.512   1.595  0.00  0.00     0.055 A 
ATOM      6  C5  BZF d   1      -1.004   2.829   1.262  0.00  0.00    -0.016 A 
ATOM      7  C6  BZF d   1      -0.421   3.261   0.088  0.00  0.00     0.022 A 
ATOM      8  C7  BZF d   1       0.122   2.385  -0.792  0.00  0.00     0.029 A 
ATOM      9  C7A BZF d   1       0.046   1.051  -0.474  0.00  0.00     0.058 A 
ENDROOT
TORSDOF 0
ENDMDL
