MODEL 1
REMARK minimizedAffinity -3.99783444
REMARK minimizedRMSD -1
REMARK  0 active torsions:
REMARK  status: ('A' for Active; 'I' for Inactive)
ROOT
ATOM      1  O1  BZF d   1      -0.362  -0.052  -0.693  0.00  0.00    -0.204 OA
ATOM      2  C2  BZF d   1       0.120   0.144   0.587  0.00  0.00     0.174 A 
ATOM      3  C3  BZF d   1       0.946  -0.859   0.947  0.00  0.00    -0.012 A 
ATOM      4  C3A BZF d   1       1.056  -1.690  -0.213  0.00  0.00    -0.107 A 
ATOM      5  C4  BZF d   1       1.749  -2.835  -0.485  0.00  0.00     0.055 A 
ATOM      6  C5  BZF d   1       1.583  -3.436  -1.692  0.00  0.00    -0.016 A 
ATOM      7  C6  BZF d   1       0.729  -2.924  -2.647  0.00  0.00     0.022 A 
ATOM      8  C7  BZF d   1       0.024  -1.788  -2.425  0.00  0.00     0.029 A 
ATOM      9  C7A BZF d   1       0.215  -1.160  -1.218  0.00  0.00     0.058 A 
ENDROOT
TORSDOF 0
ENDMDL
