MODEL 1
REMARK minimizedAffinity -3.31726742
REMARK minimizedRMSD -1
REMARK  0 active torsions:
REMARK  status: ('A' for Active; 'I' for Inactive)
ROOT
ATOM      1  O1  BZF d   1      -0.571  -3.670  -0.666  0.00  0.00    -0.204 OA
ATOM      2  C2  BZF d   1       0.476  -3.675  -1.568  0.00  0.00     0.174 A 
ATOM      3  C3  BZF d   1       1.123  -2.492  -1.557  0.00  0.00    -0.012 A 
ATOM      4  C3A BZF d   1       0.496  -1.730  -0.521  0.00  0.00    -0.107 A 
ATOM      5  C4  BZF d   1       0.705  -0.477  -0.019  0.00  0.00     0.055 A 
ATOM      6  C5  BZF d   1      -0.129  -0.003   0.943  0.00  0.00    -0.016 A 
ATOM      7  C6  BZF d   1      -1.184  -0.751   1.422  0.00  0.00     0.022 A 
ATOM      8  C7  BZF d   1      -1.429  -2.001   0.958  0.00  0.00     0.029 A 
ATOM      9  C7A BZF d   1      -0.568  -2.495   0.009  0.00  0.00     0.058 A 
ENDROOT
TORSDOF 0
ENDMDL
