MODEL 1
REMARK minimizedAffinity -5.40281773
REMARK minimizedRMSD -1
REMARK  0 active torsions:
REMARK  status: ('A' for Active; 'I' for Inactive)
ROOT
ATOM      1  O1  BZF d   1       1.224   1.663  -1.115  0.00  0.00    -0.204 OA
ATOM      2  C2  BZF d   1       1.817   0.419  -1.021  0.00  0.00     0.174 A 
ATOM      3  C3  BZF d   1       1.196  -0.338  -0.093  0.00  0.00    -0.012 A 
ATOM      4  C3A BZF d   1       0.092   0.451   0.359  0.00  0.00    -0.107 A 
ATOM      5  C4  BZF d   1      -0.905   0.237   1.267  0.00  0.00     0.055 A 
ATOM      6  C5  BZF d   1      -1.785   1.239   1.530  0.00  0.00    -0.016 A 
ATOM      7  C6  BZF d   1      -1.693   2.467   0.909  0.00  0.00     0.022 A 
ATOM      8  C7  BZF d   1      -0.724   2.725  -0.002  0.00  0.00     0.029 A 
ATOM      9  C7A BZF d   1       0.146   1.704  -0.295  0.00  0.00     0.058 A 
ENDROOT
TORSDOF 0
ENDMDL
