MODEL 1
REMARK minimizedAffinity -3.44182014
REMARK minimizedRMSD -1
REMARK  0 active torsions:
REMARK  status: ('A' for Active; 'I' for Inactive)
ROOT
ATOM      1  O1  BZF d   1      -0.825  -3.516  -1.210  0.00  0.00    -0.204 OA
ATOM      2  C2  BZF d   1       0.093  -3.891  -2.172  0.00  0.00     0.174 A 
ATOM      3  C3  BZF d   1       1.037  -2.941  -2.329  0.00  0.00    -0.012 A 
ATOM      4  C3A BZF d   1       0.740  -1.948  -1.342  0.00  0.00    -0.107 A 
ATOM      5  C4  BZF d   1       1.329  -0.768  -0.990  0.00  0.00     0.055 A 
ATOM      6  C5  BZF d   1       0.748   0.001  -0.033  0.00  0.00    -0.016 A 
ATOM      7  C6  BZF d   1      -0.424  -0.377   0.590  0.00  0.00     0.022 A 
ATOM      8  C7  BZF d   1      -1.043  -1.542   0.278  0.00  0.00     0.029 A 
ATOM      9  C7A BZF d   1      -0.440  -2.337  -0.666  0.00  0.00     0.058 A 
ENDROOT
TORSDOF 0
ENDMDL
