MODEL 1
REMARK minimizedAffinity -3.12416887
REMARK minimizedRMSD -1
REMARK  0 active torsions:
REMARK  status: ('A' for Active; 'I' for Inactive)
ROOT
ATOM      1  O1  BZF d   1       0.967   0.210  -0.897  0.00  0.00    -0.204 OA
ATOM      2  C2  BZF d   1       1.034  -1.135  -1.209  0.00  0.00     0.174 A 
ATOM      3  C3  BZF d   1       0.221  -1.853  -0.408  0.00  0.00    -0.012 A 
ATOM      4  C3A BZF d   1      -0.463  -0.888   0.397  0.00  0.00    -0.107 A 
ATOM      5  C4  BZF d   1      -1.412  -0.983   1.374  0.00  0.00     0.055 A 
ATOM      6  C5  BZF d   1      -1.818   0.145   2.013  0.00  0.00    -0.016 A 
ATOM      7  C6  BZF d   1      -1.291   1.383   1.706  0.00  0.00     0.022 A 
ATOM      8  C7  BZF d   1      -0.350   1.528   0.742  0.00  0.00     0.029 A 
ATOM      9  C7A BZF d   1       0.037   0.394   0.070  0.00  0.00     0.058 A 
ENDROOT
TORSDOF 0
ENDMDL
