MODEL 1
REMARK minimizedAffinity -2.72886992
REMARK minimizedRMSD -1
REMARK  0 active torsions:
REMARK  status: ('A' for Active; 'I' for Inactive)
ROOT
ATOM      1  O1  BZF d   1       0.710   0.513  -0.748  0.00  0.00    -0.204 OA
ATOM      2  C2  BZF d   1       1.351  -0.646  -1.142  0.00  0.00     0.174 A 
ATOM      3  C3  BZF d   1       1.123  -1.641  -0.261  0.00  0.00    -0.012 A 
ATOM      4  C3A BZF d   1       0.213  -1.094   0.698  0.00  0.00    -0.107 A 
ATOM      5  C4  BZF d   1      -0.397  -1.602   1.809  0.00  0.00     0.055 A 
ATOM      6  C5  BZF d   1      -1.171  -0.784   2.569  0.00  0.00    -0.016 A 
ATOM      7  C6  BZF d   1      -1.353   0.546   2.251  0.00  0.00     0.022 A 
ATOM      8  C7  BZF d   1      -0.773   1.094   1.155  0.00  0.00     0.029 A 
ATOM      9  C7A BZF d   1      -0.016   0.261   0.367  0.00  0.00     0.058 A 
ENDROOT
TORSDOF 0
ENDMDL
