MODEL 1
REMARK minimizedAffinity -4.61104822
REMARK minimizedRMSD -1
REMARK  0 active torsions:
REMARK  status: ('A' for Active; 'I' for Inactive)
ROOT
ATOM      1  O1  BZF d   1       0.970   0.177  -0.923  0.00  0.00    -0.204 OA
ATOM      2  C2  BZF d   1       0.780  -0.925  -0.112  0.00  0.00     0.174 A 
ATOM      3  C3  BZF d   1       0.026  -0.607   0.960  0.00  0.00    -0.012 A 
ATOM      4  C3A BZF d   1      -0.351   0.759   0.762  0.00  0.00    -0.107 A 
ATOM      5  C4  BZF d   1      -1.114   1.636   1.479  0.00  0.00     0.055 A 
ATOM      6  C5  BZF d   1      -1.225   2.920   1.048  0.00  0.00    -0.016 A 
ATOM      7  C6  BZF d   1      -0.585   3.362  -0.091  0.00  0.00     0.022 A 
ATOM      8  C7  BZF d   1       0.179   2.528  -0.838  0.00  0.00     0.029 A 
ATOM      9  C7A BZF d   1       0.267   1.221  -0.423  0.00  0.00     0.058 A 
ENDROOT
TORSDOF 0
ENDMDL
