MODEL 1
REMARK minimizedAffinity -2.35360289
REMARK minimizedRMSD -1
REMARK  0 active torsions:
REMARK  status: ('A' for Active; 'I' for Inactive)
ROOT
ATOM      1  O1  BZF d   1       1.086   2.106  -1.033  0.00  0.00    -0.204 OA
ATOM      2  C2  BZF d   1       0.461   3.302  -0.738  0.00  0.00     0.174 A 
ATOM      3  C3  BZF d   1      -0.392   3.154   0.296  0.00  0.00    -0.012 A 
ATOM      4  C3A BZF d   1      -0.224   1.801   0.731  0.00  0.00    -0.107 A 
ATOM      5  C4  BZF d   1      -0.785   1.059   1.731  0.00  0.00     0.055 A 
ATOM      6  C5  BZF d   1      -0.459  -0.255   1.842  0.00  0.00    -0.016 A 
ATOM      7  C6  BZF d   1       0.420  -0.861   0.967  0.00  0.00     0.022 A 
ATOM      8  C7  BZF d   1       1.005  -0.166  -0.038  0.00  0.00     0.029 A 
ATOM      9  C7A BZF d   1       0.703   1.171  -0.132  0.00  0.00     0.058 A 
ENDROOT
TORSDOF 0
ENDMDL
