MODEL 1
REMARK minimizedAffinity -2.62403607
REMARK minimizedRMSD -1
REMARK  0 active torsions:
REMARK  status: ('A' for Active; 'I' for Inactive)
ROOT
ATOM      1  O1  BZF d   1      -0.946  -0.511  -0.654  0.00  0.00    -0.204 OA
ATOM      2  C2  BZF d   1      -0.194   0.027   0.372  0.00  0.00     0.174 A 
ATOM      3  C3  BZF d   1       1.017  -0.562   0.437  0.00  0.00    -0.012 A 
ATOM      4  C3A BZF d   1       1.057  -1.465  -0.672  0.00  0.00    -0.107 A 
ATOM      5  C4  BZF d   1       2.004  -2.325  -1.149  0.00  0.00     0.055 A 
ATOM      6  C5  BZF d   1       1.701  -3.118  -2.210  0.00  0.00    -0.016 A 
ATOM      7  C6  BZF d   1       0.461  -3.081  -2.814  0.00  0.00     0.022 A 
ATOM      8  C7  BZF d   1      -0.509  -2.240  -2.380  0.00  0.00     0.029 A 
ATOM      9  C7A BZF d   1      -0.195  -1.414  -1.328  0.00  0.00     0.058 A 
ENDROOT
TORSDOF 0
ENDMDL
