MODEL 1
REMARK minimizedAffinity -4.66779184
REMARK minimizedRMSD -1
REMARK  0 active torsions:
REMARK  status: ('A' for Active; 'I' for Inactive)
ROOT
ATOM      1  O1  BZF d   1       1.042  -1.640  -2.483  0.00  0.00    -0.204 OA
ATOM      2  C2  BZF d   1       0.945  -3.018  -2.510  0.00  0.00     0.174 A 
ATOM      3  C3  BZF d   1       0.441  -3.485  -1.350  0.00  0.00    -0.012 A 
ATOM      4  C3A BZF d   1       0.122  -2.320  -0.583  0.00  0.00    -0.107 A 
ATOM      5  C4  BZF d   1      -0.425  -2.132   0.654  0.00  0.00     0.055 A 
ATOM      6  C5  BZF d   1      -0.537  -0.868   1.142  0.00  0.00    -0.016 A 
ATOM      7  C6  BZF d   1      -0.107   0.228   0.422  0.00  0.00     0.022 A 
ATOM      8  C7  BZF d   1       0.437   0.091  -0.811  0.00  0.00     0.029 A 
ATOM      9  C7A BZF d   1       0.521  -1.182  -1.320  0.00  0.00     0.058 A 
ENDROOT
TORSDOF 0
ENDMDL
