MODEL 1
REMARK minimizedAffinity -5.29510403
REMARK minimizedRMSD -1
REMARK  0 active torsions:
REMARK  status: ('A' for Active; 'I' for Inactive)
ROOT
ATOM      1  O1  BZF d   1       1.082  -0.098  -0.409  0.00  0.00    -0.204 OA
ATOM      2  C2  BZF d   1       0.845  -1.155   0.447  0.00  0.00     0.174 A 
ATOM      3  C3  BZF d   1       0.071  -0.769   1.481  0.00  0.00    -0.012 A 
ATOM      4  C3A BZF d   1      -0.268   0.594   1.209  0.00  0.00    -0.107 A 
ATOM      5  C4  BZF d   1      -1.028   1.521   1.863  0.00  0.00     0.055 A 
ATOM      6  C5  BZF d   1      -1.098   2.785   1.369  0.00  0.00    -0.016 A 
ATOM      7  C6  BZF d   1      -0.417   3.158   0.228  0.00  0.00     0.022 A 
ATOM      8  C7  BZF d   1       0.346   2.272  -0.457  0.00  0.00     0.029 A 
ATOM      9  C7A BZF d   1       0.392   0.985   0.021  0.00  0.00     0.058 A 
ENDROOT
TORSDOF 0
ENDMDL
