MODEL 1
REMARK minimizedAffinity -0.800297558
REMARK minimizedRMSD -1
REMARK  0 active torsions:
REMARK  status: ('A' for Active; 'I' for Inactive)
ROOT
ATOM      1  O1  BZF d   1       0.483   2.468  -0.897  0.00  0.00    -0.204 OA
ATOM      2  C2  BZF d   1       0.107   3.733  -0.491  0.00  0.00     0.174 A 
ATOM      3  C3  BZF d   1      -0.804   3.666   0.502  0.00  0.00    -0.012 A 
ATOM      4  C3A BZF d   1      -0.941   2.272   0.793  0.00  0.00    -0.107 A 
ATOM      5  C4  BZF d   1      -1.688   1.570   1.696  0.00  0.00     0.055 A 
ATOM      6  C5  BZF d   1      -1.647   0.212   1.673  0.00  0.00    -0.016 A 
ATOM      7  C6  BZF d   1      -0.876  -0.476   0.760  0.00  0.00     0.022 A 
ATOM      8  C7  BZF d   1      -0.114   0.177  -0.152  0.00  0.00     0.029 A 
ATOM      9  C7A BZF d   1      -0.127   1.549  -0.110  0.00  0.00     0.058 A 
ENDROOT
TORSDOF 0
ENDMDL
