MODEL 1
REMARK minimizedAffinity -3.92901182
REMARK minimizedRMSD -1
REMARK  0 active torsions:
REMARK  status: ('A' for Active; 'I' for Inactive)
ROOT
ATOM      1  O1  BZF d   1       0.544   2.606  -0.749  0.00  0.00    -0.204 OA
ATOM      2  C2  BZF d   1       0.125   3.825  -0.251  0.00  0.00     0.174 A 
ATOM      3  C3  BZF d   1      -0.641   3.655   0.847  0.00  0.00    -0.012 A 
ATOM      4  C3A BZF d   1      -0.628   2.247   1.101  0.00  0.00    -0.107 A 
ATOM      5  C4  BZF d   1      -1.193   1.462   2.065  0.00  0.00     0.055 A 
ATOM      6  C5  BZF d   1      -1.048   0.113   1.986  0.00  0.00    -0.016 A 
ATOM      7  C6  BZF d   1      -0.349  -0.484   0.957  0.00  0.00     0.022 A 
ATOM      8  C7  BZF d   1       0.233   0.254  -0.019  0.00  0.00     0.029 A 
ATOM      9  C7A BZF d   1       0.116   1.619   0.075  0.00  0.00     0.058 A 
ENDROOT
TORSDOF 0
ENDMDL
