MODEL 1
REMARK minimizedAffinity -3.7332027
REMARK minimizedRMSD -1
REMARK  0 active torsions:
REMARK  status: ('A' for Active; 'I' for Inactive)
ROOT
ATOM      1  O1  BZF d   1      -0.238   0.174   1.585  0.00  0.00    -0.204 OA
ATOM      2  C2  BZF d   1      -0.013  -0.490   0.395  0.00  0.00     0.174 A 
ATOM      3  C3  BZF d   1      -0.025   0.371  -0.643  0.00  0.00    -0.012 A 
ATOM      4  C3A BZF d   1      -0.180   1.667  -0.055  0.00  0.00    -0.107 A 
ATOM      5  C4  BZF d   1      -0.247   2.930  -0.571  0.00  0.00     0.055 A 
ATOM      6  C5  BZF d   1      -0.476   3.974   0.268  0.00  0.00    -0.016 A 
ATOM      7  C6  BZF d   1      -0.648   3.791   1.625  0.00  0.00     0.022 A 
ATOM      8  C7  BZF d   1      -0.585   2.558   2.183  0.00  0.00     0.029 A 
ATOM      9  C7A BZF d   1      -0.321   1.504   1.342  0.00  0.00     0.058 A 
ENDROOT
TORSDOF 0
ENDMDL
