MODEL 1
REMARK minimizedAffinity -5.67828512
REMARK minimizedRMSD -1
REMARK  0 active torsions:
REMARK  status: ('A' for Active; 'I' for Inactive)
ROOT
ATOM      1  O1  BZF d   1       1.023   0.628  -0.727  0.00  0.00    -0.204 OA
ATOM      2  C2  BZF d   1       0.916  -0.567  -0.043  0.00  0.00     0.174 A 
ATOM      3  C3  BZF d   1       0.033  -0.461   0.971  0.00  0.00    -0.012 A 
ATOM      4  C3A BZF d   1      -0.511   0.858   0.860  0.00  0.00    -0.107 A 
ATOM      5  C4  BZF d   1      -1.448   1.550   1.572  0.00  0.00     0.055 A 
ATOM      6  C5  BZF d   1      -1.698   2.846   1.250  0.00  0.00    -0.016 A 
ATOM      7  C6  BZF d   1      -1.026   3.483   0.227  0.00  0.00     0.022 A 
ATOM      8  C7  BZF d   1      -0.091   2.836  -0.510  0.00  0.00     0.029 A 
ATOM      9  C7A BZF d   1       0.140   1.516  -0.209  0.00  0.00     0.058 A 
ENDROOT
TORSDOF 0
ENDMDL
