MODEL 1
REMARK minimizedAffinity 13.1722574
REMARK minimizedRMSD -1
REMARK  1 active torsions:
REMARK  status: ('A' for Active; 'I' for Inactive)
REMARK    1  A    between atoms: C1_2  and  C2_3 
ROOT
ATOM      1  C2  UNL d   1      -1.400  -2.683  -0.894  0.00  0.00    -0.076 A 
ATOM      2  C3  UNL d   1      -2.107  -2.055   0.146  0.00  0.00     0.004 A 
ATOM      3  C4  UNL d   1      -2.785  -0.856  -0.070  0.00  0.00    -0.003 A 
ATOM      4  C5  UNL d   1      -2.767  -0.266  -1.329  0.00  0.00     0.000 A 
ATOM      5  C6  UNL d   1      -2.084  -0.884  -2.376  0.00  0.00     0.000 A 
ATOM      6  C7  UNL d   1      -1.410  -2.101  -2.180  0.00  0.00    -0.073 A 
ATOM      7  C8  UNL d   1      -0.685  -2.721  -3.343  0.00  0.00     0.078 C 
ENDROOT
BRANCH   1   8
ATOM      8  C1  UNL d   1      -0.661  -3.967  -0.594  0.00  0.00     0.053 C 
ATOM      9  C   UNL d   1      -0.566  -4.251   0.897  0.00  0.00     0.018 C 
ENDBRANCH   1   8
TORSDOF 1
ENDMDL
