MODEL 1
REMARK minimizedAffinity 21.4381752
REMARK minimizedRMSD -1
REMARK  1 active torsions:
REMARK  status: ('A' for Active; 'I' for Inactive)
REMARK    1  A    between atoms: C1_2  and  C2_3 
ROOT
ATOM      1  C2  UNL d   1       0.029   1.044  -3.365  0.00  0.00    -0.076 A 
ATOM      2  C3  UNL d   1       0.422   2.243  -3.985  0.00  0.00     0.004 A 
ATOM      3  C4  UNL d   1      -0.525   3.150  -4.457  0.00  0.00    -0.003 A 
ATOM      4  C5  UNL d   1      -1.880   2.874  -4.315  0.00  0.00     0.000 A 
ATOM      5  C6  UNL d   1      -2.288   1.698  -3.687  0.00  0.00     0.000 A 
ATOM      6  C7  UNL d   1      -1.347   0.780  -3.191  0.00  0.00    -0.073 A 
ATOM      7  C8  UNL d   1      -1.842  -0.475  -2.527  0.00  0.00     0.078 C 
ENDROOT
BRANCH   1   8
ATOM      8  C1  UNL d   1       1.101   0.085  -2.898  0.00  0.00     0.053 C 
ATOM      9  C   UNL d   1       2.042   0.714  -1.883  0.00  0.00     0.018 C 
ENDBRANCH   1   8
TORSDOF 1
ENDMDL
