MODEL 1
REMARK minimizedAffinity 8.7616806
REMARK minimizedRMSD -1
REMARK  1 active torsions:
REMARK  status: ('A' for Active; 'I' for Inactive)
REMARK    1  A    between atoms: C1_2  and  C2_3 
ROOT
ATOM      1  C2  UNL d   1       4.596   4.034   1.680  0.00  0.00    -0.076 A 
ATOM      2  C3  UNL d   1       4.104   3.339   0.561  0.00  0.00     0.004 A 
ATOM      3  C4  UNL d   1       3.574   2.056   0.690  0.00  0.00    -0.003 A 
ATOM      4  C5  UNL d   1       3.528   1.448   1.940  0.00  0.00     0.000 A 
ATOM      5  C6  UNL d   1       3.995   2.130   3.063  0.00  0.00     0.000 A 
ATOM      6  C7  UNL d   1       4.517   3.430   2.953  0.00  0.00    -0.073 A 
ATOM      7  C8  UNL d   1       5.013   4.116   4.196  0.00  0.00     0.078 C 
ENDROOT
BRANCH   1   8
ATOM      8  C1  UNL d   1       5.184   5.412   1.475  0.00  0.00     0.053 C 
ATOM      9  C   UNL d   1       5.166   5.842   0.016  0.00  0.00     0.018 C 
ENDBRANCH   1   8
TORSDOF 1
ENDMDL
