MODEL 1
REMARK minimizedAffinity 19.6311569
REMARK minimizedRMSD -1
REMARK  1 active torsions:
REMARK  status: ('A' for Active; 'I' for Inactive)
REMARK    1  A    between atoms: C1_2  and  C2_3 
ROOT
ATOM      1  C2  UNL d   1      -0.976  -2.905  -0.984  0.00  0.00    -0.076 A 
ATOM      2  C3  UNL d   1      -0.665  -3.410  -2.259  0.00  0.00     0.004 A 
ATOM      3  C4  UNL d   1      -1.126  -2.780  -3.413  0.00  0.00    -0.003 A 
ATOM      4  C5  UNL d   1      -1.906  -1.633  -3.312  0.00  0.00     0.000 A 
ATOM      5  C6  UNL d   1      -2.210  -1.107  -2.057  0.00  0.00     0.000 A 
ATOM      6  C7  UNL d   1      -1.739  -1.721  -0.883  0.00  0.00    -0.073 A 
ATOM      7  C8  UNL d   1      -2.103  -1.115   0.444  0.00  0.00     0.078 C 
ENDROOT
BRANCH   1   8
ATOM      8  C1  UNL d   1      -0.471  -3.646   0.232  0.00  0.00     0.053 C 
ATOM      9  C   UNL d   1      -0.524  -5.156   0.058  0.00  0.00     0.018 C 
ENDBRANCH   1   8
TORSDOF 1
ENDMDL
