MODEL 1
REMARK minimizedAffinity 16.2671413
REMARK minimizedRMSD -1
REMARK  1 active torsions:
REMARK  status: ('A' for Active; 'I' for Inactive)
REMARK    1  A    between atoms: C1_2  and  C2_3 
ROOT
ATOM      1  C2  UNL d   1       0.017   1.234  -3.790  0.00  0.00    -0.076 A 
ATOM      2  C3  UNL d   1      -0.986   0.363  -3.329  0.00  0.00     0.004 A 
ATOM      3  C4  UNL d   1      -2.331   0.724  -3.385  0.00  0.00    -0.003 A 
ATOM      4  C5  UNL d   1      -2.696   1.962  -3.903  0.00  0.00     0.000 A 
ATOM      5  C6  UNL d   1      -1.716   2.831  -4.382  0.00  0.00     0.000 A 
ATOM      6  C7  UNL d   1      -0.356   2.476  -4.348  0.00  0.00    -0.073 A 
ATOM      7  C8  UNL d   1       0.659   3.454  -4.872  0.00  0.00     0.078 C 
ENDROOT
BRANCH   1   8
ATOM      8  C1  UNL d   1       1.461   0.800  -3.679  0.00  0.00     0.053 C 
ATOM      9  C   UNL d   1       1.608  -0.583  -3.063  0.00  0.00     0.018 C 
ENDBRANCH   1   8
TORSDOF 1
ENDMDL
