MODEL 1
REMARK minimizedAffinity 12.3525524
REMARK minimizedRMSD -1
REMARK  1 active torsions:
REMARK  status: ('A' for Active; 'I' for Inactive)
REMARK    1  A    between atoms: C1_2  and  C2_3 
ROOT
ATOM      1  C2  UNL d   1      -0.619  -4.748   0.400  0.00  0.00    -0.076 A 
ATOM      2  C3  UNL d   1      -0.871  -3.565   1.117  0.00  0.00     0.004 A 
ATOM      3  C4  UNL d   1      -1.302  -2.410   0.467  0.00  0.00    -0.003 A 
ATOM      4  C5  UNL d   1      -1.489  -2.420  -0.911  0.00  0.00     0.000 A 
ATOM      5  C6  UNL d   1      -1.261  -3.589  -1.636  0.00  0.00     0.000 A 
ATOM      6  C7  UNL d   1      -0.841  -4.766  -0.993  0.00  0.00    -0.073 A 
ATOM      7  C8  UNL d   1      -0.604  -5.997  -1.824  0.00  0.00     0.078 C 
ENDROOT
BRANCH   1   8
ATOM      8  C1  UNL d   1      -0.126  -5.962   1.156  0.00  0.00     0.053 C 
ATOM      9  C   UNL d   1      -0.611  -5.986   2.598  0.00  0.00     0.018 C 
ENDBRANCH   1   8
TORSDOF 1
ENDMDL
