MODEL 1
REMARK minimizedAffinity 11.6867723
REMARK minimizedRMSD -1
REMARK  1 active torsions:
REMARK  status: ('A' for Active; 'I' for Inactive)
REMARK    1  A    between atoms: C1_2  and  C2_3 
ROOT
ATOM      1  C2  UNL d   1       0.153   0.719  -3.772  0.00  0.00    -0.076 A 
ATOM      2  C3  UNL d   1       0.609   1.900  -4.383  0.00  0.00     0.004 A 
ATOM      3  C4  UNL d   1      -0.266   2.951  -4.657  0.00  0.00    -0.003 A 
ATOM      4  C5  UNL d   1      -1.611   2.837  -4.323  0.00  0.00     0.000 A 
ATOM      5  C6  UNL d   1      -2.077   1.680  -3.701  0.00  0.00     0.000 A 
ATOM      6  C7  UNL d   1      -1.206   0.618  -3.403  0.00  0.00    -0.073 A 
ATOM      7  C8  UNL d   1      -1.764  -0.609  -2.736  0.00  0.00     0.078 C 
ENDROOT
BRANCH   1   8
ATOM      8  C1  UNL d   1       1.142  -0.397  -3.525  0.00  0.00     0.053 C 
ATOM      9  C   UNL d   1       2.367   0.071  -2.753  0.00  0.00     0.018 C 
ENDBRANCH   1   8
TORSDOF 1
ENDMDL
