MODEL 1
REMARK minimizedAffinity 8.37819386
REMARK minimizedRMSD -1
REMARK  1 active torsions:
REMARK  status: ('A' for Active; 'I' for Inactive)
REMARK    1  A    between atoms: C1_2  and  C2_3 
ROOT
ATOM      1  C2  UNL d   1      -3.544   3.947  -4.515  0.00  0.00    -0.076 A 
ATOM      2  C3  UNL d   1      -3.682   5.214  -3.922  0.00  0.00     0.004 A 
ATOM      3  C4  UNL d   1      -4.807   6.000  -4.164  0.00  0.00    -0.003 A 
ATOM      4  C5  UNL d   1      -5.813   5.532  -5.003  0.00  0.00     0.000 A 
ATOM      5  C6  UNL d   1      -5.700   4.270  -5.585  0.00  0.00     0.000 A 
ATOM      6  C7  UNL d   1      -4.580   3.458  -5.339  0.00  0.00    -0.073 A 
ATOM      7  C8  UNL d   1      -4.508   2.108  -5.998  0.00  0.00     0.078 C 
ENDROOT
BRANCH   1   8
ATOM      8  C1  UNL d   1      -2.289   3.150  -4.237  0.00  0.00     0.053 C 
ATOM      9  C   UNL d   1      -1.216   3.367  -5.292  0.00  0.00     0.018 C 
ENDBRANCH   1   8
TORSDOF 1
ENDMDL
