MODEL 1
REMARK minimizedAffinity 3.36917329
REMARK minimizedRMSD -1
REMARK  1 active torsions:
REMARK  status: ('A' for Active; 'I' for Inactive)
REMARK    1  A    between atoms: C1_2  and  C2_3 
ROOT
ATOM      1  C2  UNL d   1      -1.636   2.415  -4.195  0.00  0.00    -0.076 A 
ATOM      2  C3  UNL d   1      -0.276   2.328  -3.852  0.00  0.00     0.004 A 
ATOM      3  C4  UNL d   1       0.692   3.023  -4.575  0.00  0.00    -0.003 A 
ATOM      4  C5  UNL d   1       0.315   3.817  -5.653  0.00  0.00     0.000 A 
ATOM      5  C6  UNL d   1      -1.032   3.928  -5.997  0.00  0.00     0.000 A 
ATOM      6  C7  UNL d   1      -2.022   3.247  -5.268  0.00  0.00    -0.073 A 
ATOM      7  C8  UNL d   1      -3.459   3.398  -5.686  0.00  0.00     0.078 C 
ENDROOT
BRANCH   1   8
ATOM      8  C1  UNL d   1      -2.638   1.617  -3.392  0.00  0.00     0.053 C 
ATOM      9  C   UNL d   1      -2.136   0.221  -3.056  0.00  0.00     0.018 C 
ENDBRANCH   1   8
TORSDOF 1
ENDMDL
