MODEL 1
REMARK minimizedAffinity 18.0320129
REMARK minimizedRMSD -1
REMARK  1 active torsions:
REMARK  status: ('A' for Active; 'I' for Inactive)
REMARK    1  A    between atoms: C1_2  and  C2_3 
ROOT
ATOM      1  C2  UNL d   1       3.790   3.726  -0.129  0.00  0.00    -0.076 A 
ATOM      2  C3  UNL d   1       4.010   3.648   1.257  0.00  0.00     0.004 A 
ATOM      3  C4  UNL d   1       3.434   2.634   2.020  0.00  0.00    -0.003 A 
ATOM      4  C5  UNL d   1       2.628   1.679   1.408  0.00  0.00     0.000 A 
ATOM      5  C6  UNL d   1       2.413   1.730   0.031  0.00  0.00     0.000 A 
ATOM      6  C7  UNL d   1       3.000   2.737  -0.754  0.00  0.00    -0.073 A 
ATOM      7  C8  UNL d   1       2.729   2.747  -2.234  0.00  0.00     0.078 C 
ENDROOT
BRANCH   1   8
ATOM      8  C1  UNL d   1       4.419   4.864  -0.900  0.00  0.00     0.053 C 
ATOM      9  C   UNL d   1       4.872   6.000   0.004  0.00  0.00     0.018 C 
ENDBRANCH   1   8
TORSDOF 1
ENDMDL
