MODEL 1
REMARK minimizedAffinity 8.52088451
REMARK minimizedRMSD -1
REMARK  1 active torsions:
REMARK  status: ('A' for Active; 'I' for Inactive)
REMARK    1  A    between atoms: C1_2  and  C2_3 
ROOT
ATOM      1  C2  UNL d   1      -1.735  -3.302   1.085  0.00  0.00    -0.076 A 
ATOM      2  C3  UNL d   1      -1.086  -4.270   0.298  0.00  0.00     0.004 A 
ATOM      3  C4  UNL d   1      -0.776  -5.526   0.817  0.00  0.00    -0.003 A 
ATOM      4  C5  UNL d   1      -1.110  -5.835   2.131  0.00  0.00     0.000 A 
ATOM      5  C6  UNL d   1      -1.770  -4.893   2.920  0.00  0.00     0.000 A 
ATOM      6  C7  UNL d   1      -2.105  -3.628   2.407  0.00  0.00    -0.073 A 
ATOM      7  C8  UNL d   1      -2.811  -2.649   3.305  0.00  0.00     0.078 C 
ENDROOT
BRANCH   1   8
ATOM      8  C1  UNL d   1      -2.022  -1.948   0.476  0.00  0.00     0.053 C 
ATOM      9  C   UNL d   1      -1.459  -1.810  -0.930  0.00  0.00     0.018 C 
ENDBRANCH   1   8
TORSDOF 1
ENDMDL
