MODEL 1
REMARK minimizedAffinity 9.65504456
REMARK minimizedRMSD -1
REMARK  1 active torsions:
REMARK  status: ('A' for Active; 'I' for Inactive)
REMARK    1  A    between atoms: C1_2  and  C2_3 
ROOT
ATOM      1  C2  UNL d   1      -1.964  -3.101   1.524  0.00  0.00    -0.076 A 
ATOM      2  C3  UNL d   1      -2.541  -1.920   1.025  0.00  0.00     0.004 A 
ATOM      3  C4  UNL d   1      -2.246  -1.464  -0.258  0.00  0.00    -0.003 A 
ATOM      4  C5  UNL d   1      -1.369  -2.181  -1.064  0.00  0.00     0.000 A 
ATOM      5  C6  UNL d   1      -0.801  -3.364  -0.592  0.00  0.00     0.000 A 
ATOM      6  C7  UNL d   1      -1.100  -3.847   0.693  0.00  0.00    -0.073 A 
ATOM      7  C8  UNL d   1      -0.454  -5.125   1.153  0.00  0.00     0.078 C 
ENDROOT
BRANCH   1   8
ATOM      8  C1  UNL d   1      -2.300  -3.533   2.933  0.00  0.00     0.053 C 
ATOM      9  C   UNL d   1      -2.588  -2.354   3.851  0.00  0.00     0.018 C 
ENDBRANCH   1   8
TORSDOF 1
ENDMDL
