MODEL 1
REMARK minimizedAffinity 4.81411743
REMARK minimizedRMSD -1
REMARK  0 active torsions:
REMARK  status: ('A' for Active; 'I' for Inactive)
ROOT
ATOM      1  C   UNL d   1       0.964   0.753   3.040  0.00  0.00     0.172 C 
ATOM      2  N   UNL d   1       1.824   0.780   1.880  0.00  0.00    -0.070 N 
ATOM      3  C1  UNL d   1       1.887   1.789   0.956  0.00  0.00    -0.004 A 
ATOM      4  C2  UNL d   1       2.825   1.437   0.010  0.00  0.00    -0.047 A 
ATOM      5  C3  UNL d   1       3.344   0.172   0.378  0.00  0.00    -0.047 A 
ATOM      6  C4  UNL d   1       2.706  -0.211   1.539  0.00  0.00    -0.004 A 
ENDROOT
TORSDOF 0
ENDMDL
