MODEL 1
REMARK minimizedAffinity 0.720382512
REMARK minimizedRMSD -1
REMARK  0 active torsions:
REMARK  status: ('A' for Active; 'I' for Inactive)
ROOT
ATOM      1  C   UNL d   1       3.557   1.557  -2.894  0.00  0.00     0.172 C 
ATOM      2  N   UNL d   1       3.348   1.081  -1.547  0.00  0.00    -0.070 N 
ATOM      3  C1  UNL d   1       4.141   0.182  -0.886  0.00  0.00    -0.004 A 
ATOM      4  C2  UNL d   1       3.607  -0.009   0.370  0.00  0.00    -0.047 A 
ATOM      5  C3  UNL d   1       2.452   0.802   0.467  0.00  0.00    -0.047 A 
ATOM      6  C4  UNL d   1       2.315   1.466  -0.734  0.00  0.00    -0.004 A 
ENDROOT
TORSDOF 0
ENDMDL
