MODEL 1
REMARK minimizedAffinity 8.26364803
REMARK minimizedRMSD -1
REMARK  0 active torsions:
REMARK  status: ('A' for Active; 'I' for Inactive)
ROOT
ATOM      1  C   UNL d   1       2.404   6.000  -5.632  0.00  0.00     0.172 C 
ATOM      2  N   UNL d   1       3.775   5.882  -5.196  0.00  0.00    -0.070 N 
ATOM      3  C1  UNL d   1       4.880   6.000  -5.996  0.00  0.00    -0.004 A 
ATOM      4  C2  UNL d   1       5.995   5.824  -5.204  0.00  0.00    -0.047 A 
ATOM      5  C3  UNL d   1       5.544   5.591  -3.883  0.00  0.00    -0.047 A 
ATOM      6  C4  UNL d   1       4.166   5.632  -3.906  0.00  0.00    -0.004 A 
ENDROOT
TORSDOF 0
ENDMDL
