MODEL 1
REMARK minimizedAffinity 7.25939512
REMARK minimizedRMSD -1
REMARK  0 active torsions:
REMARK  status: ('A' for Active; 'I' for Inactive)
ROOT
ATOM      1  C   UNL d   1      -3.001  -3.000  -2.005  0.00  0.00     0.172 C 
ATOM      2  N   UNL d   1      -4.143  -3.773  -2.433  0.00  0.00    -0.070 N 
ATOM      3  C1  UNL d   1      -4.483  -5.017  -1.971  0.00  0.00    -0.004 A 
ATOM      4  C2  UNL d   1      -5.632  -5.410  -2.624  0.00  0.00    -0.047 A 
ATOM      5  C3  UNL d   1      -5.993  -4.367  -3.510  0.00  0.00    -0.047 A 
ATOM      6  C4  UNL d   1      -5.055  -3.366  -3.371  0.00  0.00    -0.004 A 
ENDROOT
TORSDOF 0
ENDMDL
