MODEL 1
REMARK minimizedAffinity 3.19525123
REMARK minimizedRMSD -1
REMARK  0 active torsions:
REMARK  status: ('A' for Active; 'I' for Inactive)
ROOT
ATOM      1  C   UNL d   1       2.838   1.379  -2.380  0.00  0.00     0.172 C 
ATOM      2  N   UNL d   1       2.895   1.232  -0.944  0.00  0.00    -0.070 N 
ATOM      3  C1  UNL d   1       3.809   0.482  -0.254  0.00  0.00    -0.004 A 
ATOM      4  C2  UNL d   1       3.527   0.602   1.089  0.00  0.00    -0.047 A 
ATOM      5  C3  UNL d   1       2.403   1.454   1.211  0.00  0.00    -0.047 A 
ATOM      6  C4  UNL d   1       2.032   1.829  -0.063  0.00  0.00    -0.004 A 
ENDROOT
TORSDOF 0
ENDMDL
