MODEL 1
REMARK minimizedAffinity 9.49590969
REMARK minimizedRMSD -1
REMARK  0 active torsions:
REMARK  status: ('A' for Active; 'I' for Inactive)
ROOT
ATOM      1  C   UNL d   1      -2.868  -3.397  -2.916  0.00  0.00     0.172 C 
ATOM      2  N   UNL d   1      -3.968  -4.285  -2.620  0.00  0.00    -0.070 N 
ATOM      3  C1  UNL d   1      -5.260  -4.124  -3.044  0.00  0.00    -0.004 A 
ATOM      4  C2  UNL d   1      -6.000  -5.178  -2.552  0.00  0.00    -0.047 A 
ATOM      5  C3  UNL d   1      -5.122  -6.000  -1.806  0.00  0.00    -0.047 A 
ATOM      6  C4  UNL d   1      -3.871  -5.424  -1.865  0.00  0.00    -0.004 A 
ENDROOT
TORSDOF 0
ENDMDL
