MODEL 1
REMARK minimizedAffinity 3.0328126
REMARK minimizedRMSD -1
REMARK  0 active torsions:
REMARK  status: ('A' for Active; 'I' for Inactive)
ROOT
ATOM      1  C   UNL d   1      -1.100  -2.654   1.105  0.00  0.00     0.172 C 
ATOM      2  N   UNL d   1      -1.660  -3.944   1.434  0.00  0.00    -0.070 N 
ATOM      3  C1  UNL d   1      -1.030  -4.928   2.147  0.00  0.00    -0.004 A 
ATOM      4  C2  UNL d   1      -1.895  -5.997   2.245  0.00  0.00    -0.047 A 
ATOM      5  C3  UNL d   1      -3.085  -5.643   1.566  0.00  0.00    -0.047 A 
ATOM      6  C4  UNL d   1      -2.912  -4.366   1.074  0.00  0.00    -0.004 A 
ENDROOT
TORSDOF 0
ENDMDL
