MODEL 1
REMARK minimizedAffinity 9.93718815
REMARK minimizedRMSD -1
REMARK  0 active torsions:
REMARK  status: ('A' for Active; 'I' for Inactive)
ROOT
ATOM      1  C   UNL d   1      -5.999  -4.134  -2.796  0.00  0.00     0.172 C 
ATOM      2  N   UNL d   1      -4.677  -4.671  -2.572  0.00  0.00    -0.070 N 
ATOM      3  C1  UNL d   1      -3.506  -4.124  -3.025  0.00  0.00    -0.004 A 
ATOM      4  C2  UNL d   1      -2.472  -4.931  -2.602  0.00  0.00    -0.047 A 
ATOM      5  C3  UNL d   1      -3.041  -6.000  -1.869  0.00  0.00    -0.047 A 
ATOM      6  C4  UNL d   1      -4.407  -5.814  -1.866  0.00  0.00    -0.004 A 
ENDROOT
TORSDOF 0
ENDMDL
