MODEL 1
REMARK minimizedAffinity 12.7884808
REMARK minimizedRMSD -1
REMARK  0 active torsions:
REMARK  status: ('A' for Active; 'I' for Inactive)
ROOT
ATOM      1  C   UNL d   1      -1.264  -3.011  -5.983  0.00  0.00     0.172 C 
ATOM      2  N   UNL d   1      -1.711  -3.175  -4.620  0.00  0.00    -0.070 N 
ATOM      3  C1  UNL d   1      -1.935  -4.371  -3.992  0.00  0.00    -0.004 A 
ATOM      4  C2  UNL d   1      -2.350  -4.101  -2.706  0.00  0.00    -0.047 A 
ATOM      5  C3  UNL d   1      -2.377  -2.694  -2.556  0.00  0.00    -0.047 A 
ATOM      6  C4  UNL d   1      -1.977  -2.146  -3.756  0.00  0.00    -0.004 A 
ENDROOT
TORSDOF 0
ENDMDL
