MODEL 1
REMARK minimizedAffinity 7.78290796
REMARK minimizedRMSD -1
REMARK  0 active torsions:
REMARK  status: ('A' for Active; 'I' for Inactive)
ROOT
ATOM      1  C   UNL d   1      -4.866  -6.000   1.128  0.00  0.00     0.172 C 
ATOM      2  N   UNL d   1      -3.618  -5.321   1.391  0.00  0.00    -0.070 N 
ATOM      3  C1  UNL d   1      -3.370  -3.993   1.168  0.00  0.00    -0.004 A 
ATOM      4  C2  UNL d   1      -2.070  -3.737   1.547  0.00  0.00    -0.047 A 
ATOM      5  C3  UNL d   1      -1.517  -4.954   2.012  0.00  0.00    -0.047 A 
ATOM      6  C4  UNL d   1      -2.498  -5.918   1.904  0.00  0.00    -0.004 A 
ENDROOT
TORSDOF 0
ENDMDL
