MODEL 1
REMARK minimizedAffinity 1.0509274
REMARK minimizedRMSD -1
REMARK  0 active torsions:
REMARK  status: ('A' for Active; 'I' for Inactive)
ROOT
ATOM      1  C   UNL d   1      -2.637  -2.561  -1.857  0.00  0.00     0.172 C 
ATOM      2  N   UNL d   1      -2.456  -3.256  -0.604  0.00  0.00    -0.070 N 
ATOM      3  C1  UNL d   1      -1.540  -2.935   0.362  0.00  0.00    -0.004 A 
ATOM      4  C2  UNL d   1      -1.685  -3.833   1.397  0.00  0.00    -0.047 A 
ATOM      5  C3  UNL d   1      -2.723  -4.725   1.041  0.00  0.00    -0.047 A 
ATOM      6  C4  UNL d   1      -3.183  -4.345  -0.203  0.00  0.00    -0.004 A 
ENDROOT
TORSDOF 0
ENDMDL
