MODEL 1
REMARK minimizedAffinity -2.15152121
REMARK minimizedRMSD -1
REMARK  0 active torsions:
REMARK  status: ('A' for Active; 'I' for Inactive)
ROOT
ATOM      1  C   UNL d   1      -5.970   5.363  -0.381  0.00  0.00     0.172 C 
ATOM      2  N   UNL d   1      -4.824   5.525  -1.245  0.00  0.00    -0.070 N 
ATOM      3  C1  UNL d   1      -4.854   5.997  -2.530  0.00  0.00    -0.004 A 
ATOM      4  C2  UNL d   1      -3.562   6.000  -3.008  0.00  0.00    -0.047 A 
ATOM      5  C3  UNL d   1      -2.726   5.513  -1.975  0.00  0.00    -0.047 A 
ATOM      6  C4  UNL d   1      -3.534   5.227  -0.895  0.00  0.00    -0.004 A 
ENDROOT
TORSDOF 0
ENDMDL
