MODEL 1
REMARK minimizedAffinity 0.638538897
REMARK minimizedRMSD -1
REMARK  0 active torsions:
REMARK  status: ('A' for Active; 'I' for Inactive)
ROOT
ATOM      1  C   UNL d   1       3.908  -0.216   2.760  0.00  0.00     0.172 C 
ATOM      2  N   UNL d   1       3.743   0.126   1.367  0.00  0.00    -0.070 N 
ATOM      3  C1  UNL d   1       4.466  -0.393   0.326  0.00  0.00    -0.004 A 
ATOM      4  C2  UNL d   1       4.006   0.185  -0.837  0.00  0.00    -0.047 A 
ATOM      5  C3  UNL d   1       2.971   1.083  -0.483  0.00  0.00    -0.047 A 
ATOM      6  C4  UNL d   1       2.829   1.027   0.887  0.00  0.00    -0.004 A 
ENDROOT
TORSDOF 0
ENDMDL
