MODEL 1
REMARK minimizedAffinity 3.70546627
REMARK minimizedRMSD -1
REMARK  0 active torsions:
REMARK  status: ('A' for Active; 'I' for Inactive)
ROOT
ATOM      1  C   UNL d   1      -0.756  -5.065  -3.870  0.00  0.00     0.172 C 
ATOM      2  N   UNL d   1      -1.610  -4.010  -3.378  0.00  0.00    -0.070 N 
ATOM      3  C1  UNL d   1      -2.017  -2.914  -4.091  0.00  0.00    -0.004 A 
ATOM      4  C2  UNL d   1      -2.819  -2.150  -3.270  0.00  0.00    -0.047 A 
ATOM      5  C3  UNL d   1      -2.895  -2.809  -2.020  0.00  0.00    -0.047 A 
ATOM      6  C4  UNL d   1      -2.137  -3.958  -2.114  0.00  0.00    -0.004 A 
ENDROOT
TORSDOF 0
ENDMDL
