MODEL 1
REMARK minimizedAffinity 7.50579596
REMARK minimizedRMSD -1
REMARK  0 active torsions:
REMARK  status: ('A' for Active; 'I' for Inactive)
ROOT
ATOM      1  C   UNL d   1       2.047   5.793  -5.024  0.00  0.00     0.172 C 
ATOM      2  N   UNL d   1       3.466   5.527  -5.017  0.00  0.00    -0.070 N 
ATOM      3  C1  UNL d   1       4.372   6.000  -5.929  0.00  0.00    -0.004 A 
ATOM      4  C2  UNL d   1       5.615   5.523  -5.576  0.00  0.00    -0.047 A 
ATOM      5  C3  UNL d   1       5.452   4.736  -4.411  0.00  0.00    -0.047 A 
ATOM      6  C4  UNL d   1       4.111   4.755  -4.087  0.00  0.00    -0.004 A 
ENDROOT
TORSDOF 0
ENDMDL
