MODEL 1
REMARK minimizedAffinity 2.21553159
REMARK minimizedRMSD -1
REMARK  0 active torsions:
REMARK  status: ('A' for Active; 'I' for Inactive)
ROOT
ATOM      1  C   UNL d   1       2.044   1.198   1.175  0.00  0.00     0.172 C 
ATOM      2  N   UNL d   1       0.708   1.629   1.512  0.00  0.00    -0.070 N 
ATOM      3  C1  UNL d   1       0.315   2.925   1.713  0.00  0.00    -0.004 A 
ATOM      4  C2  UNL d   1      -1.030   2.916   2.014  0.00  0.00    -0.047 A 
ATOM      5  C3  UNL d   1      -1.460   1.568   1.994  0.00  0.00    -0.047 A 
ATOM      6  C4  UNL d   1      -0.363   0.792   1.681  0.00  0.00    -0.004 A 
ENDROOT
TORSDOF 0
ENDMDL
