MODEL 1
REMARK minimizedAffinity 0.842343807
REMARK minimizedRMSD -1
REMARK  0 active torsions:
REMARK  status: ('A' for Active; 'I' for Inactive)
ROOT
ATOM      1  C   UNL d   1      -4.538   2.251   4.667  0.00  0.00     0.172 C 
ATOM      2  N   UNL d   1      -3.378   1.997   3.845  0.00  0.00    -0.070 N 
ATOM      3  C1  UNL d   1      -2.932   0.764   3.451  0.00  0.00    -0.004 A 
ATOM      4  C2  UNL d   1      -1.804   0.949   2.681  0.00  0.00    -0.047 A 
ATOM      5  C3  UNL d   1      -1.563   2.341   2.611  0.00  0.00    -0.047 A 
ATOM      6  C4  UNL d   1      -2.552   2.967   3.340  0.00  0.00    -0.004 A 
ENDROOT
TORSDOF 0
ENDMDL
