MODEL 1
REMARK minimizedAffinity -1.46686077
REMARK minimizedRMSD -1
REMARK  3 active torsions:
REMARK  status: ('A' for Active; 'I' for Inactive)
REMARK    1  A    between atoms: C3'_2  and  C2'_3 
REMARK    2  A    between atoms: C2'_3  and  C1'_4 
REMARK    3  A    between atoms: C1'_4  and  C1_5 
ROOT
ATOM      1  C1  N4B d   1       0.834  -1.476  -1.079  0.00  0.00    -0.075 A 
ATOM      2  C2  N4B d   1       0.516  -1.494  -2.455  0.00  0.00     0.002 A 
ATOM      3  C3  N4B d   1       0.406  -2.692  -3.118  0.00  0.00     0.002 A 
ATOM      4  C4  N4B d   1       0.627  -3.878  -2.434  0.00  0.00    -0.004 A 
ATOM      5  C5  N4B d   1       0.908  -3.853  -1.100  0.00  0.00     0.002 A 
ATOM      6  C6  N4B d   1       1.018  -2.657  -0.419  0.00  0.00     0.002 A 
ENDROOT
BRANCH   1   7
ATOM      7  C1' N4B d   1       1.049  -0.189  -0.331  0.00  0.00     0.057 C 
BRANCH   7   8
ATOM      8  C2' N4B d   1      -0.303   0.459  -0.050  0.00  0.00     0.009 C 
BRANCH   8   9
ATOM      9  C3' N4B d   1      -0.767   0.212   1.375  0.00  0.00     0.004 C 
ATOM     10  C4' N4B d   1      -1.433   1.409   1.985  0.00  0.00     0.003 C 
ENDBRANCH   8   9
ENDBRANCH   7   8
ENDBRANCH   1   7
TORSDOF 3
ENDMDL
