MODEL 1
REMARK minimizedAffinity -6.29428673
REMARK minimizedRMSD -1
REMARK  3 active torsions:
REMARK  status: ('A' for Active; 'I' for Inactive)
REMARK    1  A    between atoms: C3'_2  and  C2'_3 
REMARK    2  A    between atoms: C2'_3  and  C1'_4 
REMARK    3  A    between atoms: C1'_4  and  C1_5 
ROOT
ATOM      1  C1  N4B d   1      -0.146   0.251   0.234  0.00  0.00    -0.075 A 
ATOM      2  C2  N4B d   1      -0.503  -0.155   1.539  0.00  0.00     0.002 A 
ATOM      3  C3  N4B d   1      -1.291   0.656   2.319  0.00  0.00     0.002 A 
ATOM      4  C4  N4B d   1      -1.717   1.879   1.825  0.00  0.00    -0.004 A 
ATOM      5  C5  N4B d   1      -1.389   2.253   0.554  0.00  0.00     0.002 A 
ATOM      6  C6  N4B d   1      -0.601   1.447  -0.242  0.00  0.00     0.002 A 
ENDROOT
BRANCH   1   7
ATOM      7  C1' N4B d   1       0.784  -0.562  -0.624  0.00  0.00     0.057 C 
BRANCH   7   8
ATOM      8  C2' N4B d   1      -0.039  -1.420  -1.580  0.00  0.00     0.009 C 
BRANCH   8   9
ATOM      9  C3' N4B d   1       0.688  -2.698  -1.965  0.00  0.00     0.004 C 
ATOM     10  C4' N4B d   1       0.216  -3.263  -3.272  0.00  0.00     0.003 C 
ENDBRANCH   8   9
ENDBRANCH   7   8
ENDBRANCH   1   7
TORSDOF 3
ENDMDL
