MODEL 1
REMARK minimizedAffinity -0.588212132
REMARK minimizedRMSD -1
REMARK  3 active torsions:
REMARK  status: ('A' for Active; 'I' for Inactive)
REMARK    1  A    between atoms: C3'_2  and  C2'_3 
REMARK    2  A    between atoms: C2'_3  and  C1'_4 
REMARK    3  A    between atoms: C1'_4  and  C1_5 
ROOT
ATOM      1  C1  N4B d   1      -0.284   0.311  -0.377  0.00  0.00    -0.075 A 
ATOM      2  C2  N4B d   1      -1.680   0.430  -0.556  0.00  0.00     0.002 A 
ATOM      3  C3  N4B d   1      -2.189   1.448  -1.324  0.00  0.00     0.002 A 
ATOM      4  C4  N4B d   1      -1.327   2.367  -1.903  0.00  0.00    -0.004 A 
ATOM      5  C5  N4B d   1       0.021   2.231  -1.746  0.00  0.00     0.002 A 
ATOM      6  C6  N4B d   1       0.547   1.210  -0.981  0.00  0.00     0.002 A 
ENDROOT
BRANCH   1   7
ATOM      7  C1' N4B d   1       0.315  -0.735   0.524  0.00  0.00     0.057 C 
BRANCH   7   8
ATOM      8  C2' N4B d   1       0.575  -0.124   1.897  0.00  0.00     0.009 C 
BRANCH   8   9
ATOM      9  C3' N4B d   1      -0.531   0.830   2.314  0.00  0.00     0.004 C 
ATOM     10  C4' N4B d   1      -0.076   1.844   3.320  0.00  0.00     0.003 C 
ENDBRANCH   8   9
ENDBRANCH   7   8
ENDBRANCH   1   7
TORSDOF 3
ENDMDL
