MODEL 1
REMARK minimizedAffinity -3.07447505
REMARK minimizedRMSD -1
REMARK  3 active torsions:
REMARK  status: ('A' for Active; 'I' for Inactive)
REMARK    1  A    between atoms: C3'_2  and  C2'_3 
REMARK    2  A    between atoms: C2'_3  and  C1'_4 
REMARK    3  A    between atoms: C1'_4  and  C1_5 
ROOT
ATOM      1  C1  N4B d   1       0.074   0.186   0.190  0.00  0.00    -0.075 A 
ATOM      2  C2  N4B d   1      -0.636  -0.147   1.364  0.00  0.00     0.002 A 
ATOM      3  C3  N4B d   1      -1.525   0.749   1.905  0.00  0.00     0.002 A 
ATOM      4  C4  N4B d   1      -1.706   1.985   1.303  0.00  0.00    -0.004 A 
ATOM      5  C5  N4B d   1      -1.035   2.288   0.154  0.00  0.00     0.002 A 
ATOM      6  C6  N4B d   1      -0.141   1.396  -0.403  0.00  0.00     0.002 A 
ENDROOT
BRANCH   1   7
ATOM      7  C1' N4B d   1       1.120  -0.727  -0.391  0.00  0.00     0.057 C 
BRANCH   7   8
ATOM      8  C2' N4B d   1       0.483  -1.596  -1.470  0.00  0.00     0.009 C 
BRANCH   8   9
ATOM      9  C3' N4B d   1       1.114  -2.977  -1.534  0.00  0.00     0.004 C 
ATOM     10  C4' N4B d   1       0.126  -4.052  -1.876  0.00  0.00     0.003 C 
ENDBRANCH   8   9
ENDBRANCH   7   8
ENDBRANCH   1   7
TORSDOF 3
ENDMDL
