MODEL 1
REMARK minimizedAffinity -0.592779577
REMARK minimizedRMSD -1
REMARK  3 active torsions:
REMARK  status: ('A' for Active; 'I' for Inactive)
REMARK    1  A    between atoms: C3'_2  and  C2'_3 
REMARK    2  A    between atoms: C2'_3  and  C1'_4 
REMARK    3  A    between atoms: C1'_4  and  C1_5 
ROOT
ATOM      1  C1  N4B d   1      -0.068   0.050   0.487  0.00  0.00    -0.075 A 
ATOM      2  C2  N4B d   1      -0.711   0.852  -0.482  0.00  0.00     0.002 A 
ATOM      3  C3  N4B d   1      -1.395   1.978  -0.097  0.00  0.00     0.002 A 
ATOM      4  C4  N4B d   1      -1.467   2.311   1.247  0.00  0.00    -0.004 A 
ATOM      5  C5  N4B d   1      -0.822   1.546   2.174  0.00  0.00     0.002 A 
ATOM      6  C6  N4B d   1      -0.126   0.414   1.801  0.00  0.00     0.002 A 
ENDROOT
BRANCH   1   7
ATOM      7  C1' N4B d   1       0.620  -1.237   0.123  0.00  0.00     0.057 C 
BRANCH   7   8
ATOM      8  C2' N4B d   1       1.364  -1.052  -1.196  0.00  0.00     0.009 C 
BRANCH   8   9
ATOM      9  C3' N4B d   1       1.684  -2.381  -1.859  0.00  0.00     0.004 C 
ATOM     10  C4' N4B d   1       0.856  -2.633  -3.083  0.00  0.00     0.003 C 
ENDBRANCH   8   9
ENDBRANCH   7   8
ENDBRANCH   1   7
TORSDOF 3
ENDMDL
