MODEL 1
REMARK minimizedAffinity -1.38580334
REMARK minimizedRMSD -1
REMARK  3 active torsions:
REMARK  status: ('A' for Active; 'I' for Inactive)
REMARK    1  A    between atoms: C3'_2  and  C2'_3 
REMARK    2  A    between atoms: C2'_3  and  C1'_4 
REMARK    3  A    between atoms: C1'_4  and  C1_5 
ROOT
ATOM      1  C1  N4B d   1       0.028  -0.110  -0.107  0.00  0.00    -0.075 A 
ATOM      2  C2  N4B d   1       0.151   1.239   0.291  0.00  0.00     0.002 A 
ATOM      3  C3  N4B d   1      -0.341   1.643   1.508  0.00  0.00     0.002 A 
ATOM      4  C4  N4B d   1      -0.975   0.724   2.331  0.00  0.00    -0.004 A 
ATOM      5  C5  N4B d   1      -1.067  -0.583   1.950  0.00  0.00     0.002 A 
ATOM      6  C6  N4B d   1      -0.573  -1.003   0.731  0.00  0.00     0.002 A 
ENDROOT
BRANCH   1   7
ATOM      7  C1' N4B d   1       0.473  -0.581  -1.465  0.00  0.00     0.057 C 
BRANCH   7   8
ATOM      8  C2' N4B d   1       0.329  -2.098  -1.541  0.00  0.00     0.009 C 
BRANCH   8   9
ATOM      9  C3' N4B d   1      -0.316  -2.542  -2.843  0.00  0.00     0.004 C 
ATOM     10  C4' N4B d   1      -0.909  -1.402  -3.616  0.00  0.00     0.003 C 
ENDBRANCH   8   9
ENDBRANCH   7   8
ENDBRANCH   1   7
TORSDOF 3
ENDMDL
