MODEL 1
REMARK minimizedAffinity -5.84750986
REMARK minimizedRMSD -1
REMARK  3 active torsions:
REMARK  status: ('A' for Active; 'I' for Inactive)
REMARK    1  A    between atoms: C3'_2  and  C2'_3 
REMARK    2  A    between atoms: C2'_3  and  C1'_4 
REMARK    3  A    between atoms: C1'_4  and  C1_5 
ROOT
ATOM      1  C1  N4B d   1       0.036   0.206   0.001  0.00  0.00    -0.075 A 
ATOM      2  C2  N4B d   1      -0.294  -0.176   1.320  0.00  0.00     0.002 A 
ATOM      3  C3  N4B d   1      -1.122   0.616   2.077  0.00  0.00     0.002 A 
ATOM      4  C4  N4B d   1      -1.615   1.798   1.545  0.00  0.00    -0.004 A 
ATOM      5  C5  N4B d   1      -1.312   2.147   0.261  0.00  0.00     0.002 A 
ATOM      6  C6  N4B d   1      -0.484   1.359  -0.512  0.00  0.00     0.002 A 
ENDROOT
BRANCH   1   7
ATOM      7  C1' N4B d   1       1.006  -0.583  -0.835  0.00  0.00     0.057 C 
BRANCH   7   8
ATOM      8  C2' N4B d   1       0.598  -2.053  -0.822  0.00  0.00     0.009 C 
BRANCH   8   9
ATOM      9  C3' N4B d   1       0.338  -2.583  -2.222  0.00  0.00     0.004 C 
ATOM     10  C4' N4B d   1      -0.442  -3.864  -2.222  0.00  0.00     0.003 C 
ENDBRANCH   8   9
ENDBRANCH   7   8
ENDBRANCH   1   7
TORSDOF 3
ENDMDL
