MODEL 1
REMARK minimizedAffinity -5.00283575
REMARK minimizedRMSD -1
REMARK  3 active torsions:
REMARK  status: ('A' for Active; 'I' for Inactive)
REMARK    1  A    between atoms: C3'_2  and  C2'_3 
REMARK    2  A    between atoms: C2'_3  and  C1'_4 
REMARK    3  A    between atoms: C1'_4  and  C1_5 
ROOT
ATOM      1  C1  N4B d   1       0.356   0.271  -0.279  0.00  0.00    -0.075 A 
ATOM      2  C2  N4B d   1      -0.516   1.359  -0.507  0.00  0.00     0.002 A 
ATOM      3  C3  N4B d   1      -1.426   1.722   0.455  0.00  0.00     0.002 A 
ATOM      4  C4  N4B d   1      -1.496   1.003   1.639  0.00  0.00    -0.004 A 
ATOM      5  C5  N4B d   1      -0.634  -0.031   1.861  0.00  0.00     0.002 A 
ATOM      6  C6  N4B d   1       0.289  -0.404   0.905  0.00  0.00     0.002 A 
ENDROOT
BRANCH   1   7
ATOM      7  C1' N4B d   1       1.309  -0.217  -1.336  0.00  0.00     0.057 C 
BRANCH   7   8
ATOM      8  C2' N4B d   1       1.285  -1.742  -1.366  0.00  0.00     0.009 C 
BRANCH   8   9
ATOM      9  C3' N4B d   1       0.585  -2.275  -2.604  0.00  0.00     0.004 C 
ATOM     10  C4' N4B d   1      -0.079  -3.600  -2.372  0.00  0.00     0.003 C 
ENDBRANCH   8   9
ENDBRANCH   7   8
ENDBRANCH   1   7
TORSDOF 3
ENDMDL
