MODEL 1
REMARK minimizedAffinity -3.03312278
REMARK minimizedRMSD -1
REMARK  3 active torsions:
REMARK  status: ('A' for Active; 'I' for Inactive)
REMARK    1  A    between atoms: C3'_2  and  C2'_3 
REMARK    2  A    between atoms: C2'_3  and  C1'_4 
REMARK    3  A    between atoms: C1'_4  and  C1_5 
ROOT
ATOM      1  C1  N4B d   1      -0.249  -0.189   0.310  0.00  0.00    -0.075 A 
ATOM      2  C2  N4B d   1      -0.984   0.755  -0.438  0.00  0.00     0.002 A 
ATOM      3  C3  N4B d   1      -1.778   1.674   0.205  0.00  0.00     0.002 A 
ATOM      4  C4  N4B d   1      -1.865   1.654   1.589  0.00  0.00    -0.004 A 
ATOM      5  C5  N4B d   1      -1.132   0.755   2.306  0.00  0.00     0.002 A 
ATOM      6  C6  N4B d   1      -0.327  -0.171   1.673  0.00  0.00     0.002 A 
ENDROOT
BRANCH   1   7
ATOM      7  C1' N4B d   1       0.565  -1.268  -0.352  0.00  0.00     0.057 C 
BRANCH   7   8
ATOM      8  C2' N4B d   1      -0.236  -1.860  -1.508  0.00  0.00     0.009 C 
BRANCH   8   9
ATOM      9  C3' N4B d   1      -0.187  -3.379  -1.513  0.00  0.00     0.004 C 
ATOM     10  C4' N4B d   1      -0.535  -3.966  -2.848  0.00  0.00     0.003 C 
ENDBRANCH   8   9
ENDBRANCH   7   8
ENDBRANCH   1   7
TORSDOF 3
ENDMDL
