MODEL 1
REMARK minimizedAffinity -6.21879005
REMARK minimizedRMSD -1
REMARK  3 active torsions:
REMARK  status: ('A' for Active; 'I' for Inactive)
REMARK    1  A    between atoms: C3'_2  and  C2'_3 
REMARK    2  A    between atoms: C2'_3  and  C1'_4 
REMARK    3  A    between atoms: C1'_4  and  C1_5 
ROOT
ATOM      1  C1  N4B d   1      -0.326  -0.010   0.737  0.00  0.00    -0.075 A 
ATOM      2  C2  N4B d   1      -1.078   0.122   1.925  0.00  0.00     0.002 A 
ATOM      3  C3  N4B d   1      -1.955   1.169   2.071  0.00  0.00     0.002 A 
ATOM      4  C4  N4B d   1      -2.081   2.104   1.055  0.00  0.00    -0.004 A 
ATOM      5  C5  N4B d   1      -1.370   1.956  -0.100  0.00  0.00     0.002 A 
ATOM      6  C6  N4B d   1      -0.489   0.906  -0.262  0.00  0.00     0.002 A 
ENDROOT
BRANCH   1   7
ATOM      7  C1' N4B d   1       0.707  -1.089   0.566  0.00  0.00     0.057 C 
BRANCH   7   8
ATOM      8  C2' N4B d   1       0.972  -1.298  -0.922  0.00  0.00     0.009 C 
BRANCH   8   9
ATOM      9  C3' N4B d   1       0.915  -2.766  -1.309  0.00  0.00     0.004 C 
ATOM     10  C4' N4B d   1       0.028  -3.020  -2.491  0.00  0.00     0.003 C 
ENDBRANCH   8   9
ENDBRANCH   7   8
ENDBRANCH   1   7
TORSDOF 3
ENDMDL
