MODEL 1
REMARK minimizedAffinity -5.01703501
REMARK minimizedRMSD -1
REMARK  3 active torsions:
REMARK  status: ('A' for Active; 'I' for Inactive)
REMARK    1  A    between atoms: C3'_2  and  C2'_3 
REMARK    2  A    between atoms: C2'_3  and  C1'_4 
REMARK    3  A    between atoms: C1'_4  and  C1_5 
ROOT
ATOM      1  C1  N4B d   1      -0.192   0.263   0.115  0.00  0.00    -0.075 A 
ATOM      2  C2  N4B d   1      -0.813   1.529   0.180  0.00  0.00     0.002 A 
ATOM      3  C3  N4B d   1      -1.671   1.820   1.213  0.00  0.00     0.002 A 
ATOM      4  C4  N4B d   1      -1.935   0.859   2.177  0.00  0.00    -0.004 A 
ATOM      5  C5  N4B d   1      -1.311  -0.352   2.120  0.00  0.00     0.002 A 
ATOM      6  C6  N4B d   1      -0.444  -0.658   1.091  0.00  0.00     0.002 A 
ENDROOT
BRANCH   1   7
ATOM      7  C1' N4B d   1       0.686  -0.132  -1.041  0.00  0.00     0.057 C 
BRANCH   7   8
ATOM      8  C2' N4B d   1       0.792  -1.654  -1.093  0.00  0.00     0.009 C 
BRANCH   8   9
ATOM      9  C3' N4B d   1       0.089  -2.231  -2.310  0.00  0.00     0.004 C 
ATOM     10  C4' N4B d   1      -0.276  -3.675  -2.139  0.00  0.00     0.003 C 
ENDBRANCH   8   9
ENDBRANCH   7   8
ENDBRANCH   1   7
TORSDOF 3
ENDMDL
