MODEL 1
REMARK minimizedAffinity -3.6954391
REMARK minimizedRMSD -1
REMARK  3 active torsions:
REMARK  status: ('A' for Active; 'I' for Inactive)
REMARK    1  A    between atoms: C3'_2  and  C2'_3 
REMARK    2  A    between atoms: C2'_3  and  C1'_4 
REMARK    3  A    between atoms: C1'_4  and  C1_5 
ROOT
ATOM      1  C1  N4B d   1       0.262   0.373  -0.557  0.00  0.00    -0.075 A 
ATOM      2  C2  N4B d   1      -0.920   0.887   0.022  0.00  0.00     0.002 A 
ATOM      3  C3  N4B d   1      -1.317   2.172  -0.256  0.00  0.00     0.002 A 
ATOM      4  C4  N4B d   1      -0.543   2.964  -1.091  0.00  0.00    -0.004 A 
ATOM      5  C5  N4B d   1       0.583   2.451  -1.666  0.00  0.00     0.002 A 
ATOM      6  C6  N4B d   1       0.992   1.160  -1.399  0.00  0.00     0.002 A 
ENDROOT
BRANCH   1   7
ATOM      7  C1' N4B d   1       0.782  -0.996  -0.215  0.00  0.00     0.057 C 
BRANCH   7   8
ATOM      8  C2' N4B d   1      -0.066  -1.589   0.907  0.00  0.00     0.009 C 
BRANCH   8   9
ATOM      9  C3' N4B d   1       0.316  -1.026   2.265  0.00  0.00     0.004 C 
ATOM     10  C4' N4B d   1       0.444  -2.087   3.318  0.00  0.00     0.003 C 
ENDBRANCH   8   9
ENDBRANCH   7   8
ENDBRANCH   1   7
TORSDOF 3
ENDMDL
