MODEL 1
REMARK minimizedAffinity -1.33238411
REMARK minimizedRMSD -1
REMARK  0 active torsions:
REMARK  status: ('A' for Active; 'I' for Inactive)
ROOT
ATOM      1  C   UNL d   1      -1.478   0.140   1.970  0.00  0.00     0.020 A 
ATOM      2  C1  UNL d   1      -0.915   1.412   1.866  0.00  0.00     0.020 A 
ATOM      3  C2  UNL d   1       0.022   1.681   0.866  0.00  0.00     0.034 A 
ATOM      4  C3  UNL d   1       0.400   0.677  -0.033  0.00  0.00     0.017 A 
ATOM      5  C4  UNL d   1      -0.166  -0.599   0.073  0.00  0.00     0.017 A 
ATOM      6  C5  UNL d   1      -1.104  -0.863   1.076  0.00  0.00     0.034 A 
ATOM      7 Cl   UNL d   1       0.251  -1.889  -1.000  0.00  0.00    -0.070 Cl
ATOM      8 Cl1  UNL d   1       1.564   1.079  -1.245  0.00  0.00    -0.070 Cl
ENDROOT
TORSDOF 0
ENDMDL
