MODEL 1
REMARK minimizedAffinity -2.99961042
REMARK minimizedRMSD -1
REMARK  0 active torsions:
REMARK  status: ('A' for Active; 'I' for Inactive)
ROOT
ATOM      1  C   UNL d   1      -0.521  -0.084   2.277  0.00  0.00     0.020 A 
ATOM      2  C1  UNL d   1       0.048  -0.793   1.219  0.00  0.00     0.020 A 
ATOM      3  C2  UNL d   1       0.558  -0.108   0.114  0.00  0.00     0.034 A 
ATOM      4  C3  UNL d   1       0.502   1.289   0.064  0.00  0.00     0.017 A 
ATOM      5  C4  UNL d   1      -0.069   2.000   1.126  0.00  0.00     0.017 A 
ATOM      6  C5  UNL d   1      -0.579   1.310   2.230  0.00  0.00     0.034 A 
ATOM      7 Cl   UNL d   1      -0.175   3.725   1.136  0.00  0.00    -0.070 Cl
ATOM      8 Cl1  UNL d   1       1.153   2.070  -1.333  0.00  0.00    -0.070 Cl
ENDROOT
TORSDOF 0
ENDMDL
