MODEL 1
REMARK minimizedAffinity -0.937291324
REMARK minimizedRMSD -1
REMARK  0 active torsions:
REMARK  status: ('A' for Active; 'I' for Inactive)
ROOT
ATOM      1  C   UNL d   1       0.550  -1.276  -0.031  0.00  0.00     0.020 A 
ATOM      2  C1  UNL d   1      -0.157  -1.402   1.165  0.00  0.00     0.020 A 
ATOM      3  C2  UNL d   1      -0.665  -0.266   1.799  0.00  0.00     0.034 A 
ATOM      4  C3  UNL d   1      -0.468   1.000   1.237  0.00  0.00     0.017 A 
ATOM      5  C4  UNL d   1       0.241   1.126   0.037  0.00  0.00     0.017 A 
ATOM      6  C5  UNL d   1       0.748  -0.015  -0.593  0.00  0.00     0.034 A 
ATOM      7 Cl   UNL d   1       0.525   2.655  -0.716  0.00  0.00    -0.070 Cl
ATOM      8 Cl1  UNL d   1      -1.124   2.362   2.075  0.00  0.00    -0.070 Cl
ENDROOT
TORSDOF 0
ENDMDL
