MODEL 1
REMARK minimizedAffinity -2.4109726
REMARK minimizedRMSD -1
REMARK  0 active torsions:
REMARK  status: ('A' for Active; 'I' for Inactive)
ROOT
ATOM      1  C   UNL d   1      -0.593  -0.191   1.130  0.00  0.00     0.020 A 
ATOM      2  C1  UNL d   1      -1.172  -1.398   0.742  0.00  0.00     0.020 A 
ATOM      3  C2  UNL d   1      -0.746  -2.033  -0.426  0.00  0.00     0.034 A 
ATOM      4  C3  UNL d   1       0.263  -1.461  -1.210  0.00  0.00     0.017 A 
ATOM      5  C4  UNL d   1       0.843  -0.249  -0.820  0.00  0.00     0.017 A 
ATOM      6  C5  UNL d   1       0.412   0.382   0.351  0.00  0.00     0.034 A 
ATOM      7 Cl   UNL d   1       2.092   0.518  -1.735  0.00  0.00    -0.070 Cl
ATOM      8 Cl1  UNL d   1       0.741  -2.301  -2.642  0.00  0.00    -0.070 Cl
ENDROOT
TORSDOF 0
ENDMDL
