MODEL 1
REMARK minimizedAffinity -2.897012
REMARK minimizedRMSD -1
REMARK  0 active torsions:
REMARK  status: ('A' for Active; 'I' for Inactive)
ROOT
ATOM      1  C   UNL d   1      -0.255  -0.848   0.552  0.00  0.00     0.020 A 
ATOM      2  C1  UNL d   1      -0.854  -0.487   1.759  0.00  0.00     0.020 A 
ATOM      3  C2  UNL d   1      -1.135   0.854   2.026  0.00  0.00     0.034 A 
ATOM      4  C3  UNL d   1      -0.817   1.841   1.085  0.00  0.00     0.017 A 
ATOM      5  C4  UNL d   1      -0.215   1.478  -0.126  0.00  0.00     0.017 A 
ATOM      6  C5  UNL d   1       0.063   0.133  -0.388  0.00  0.00     0.034 A 
ATOM      7 Cl   UNL d   1       0.207   2.638  -1.335  0.00  0.00    -0.070 Cl
ATOM      8 Cl1  UNL d   1      -1.192   3.480   1.481  0.00  0.00    -0.070 Cl
ENDROOT
TORSDOF 0
ENDMDL
