MODEL 1
REMARK minimizedAffinity 0.763145089
REMARK minimizedRMSD -1
REMARK  0 active torsions:
REMARK  status: ('A' for Active; 'I' for Inactive)
ROOT
ATOM      1  C   UNL d   1      -1.498  -0.512   1.466  0.00  0.00     0.020 A 
ATOM      2  C1  UNL d   1      -0.837   0.709   1.597  0.00  0.00     0.020 A 
ATOM      3  C2  UNL d   1       0.237   1.014   0.759  0.00  0.00     0.034 A 
ATOM      4  C3  UNL d   1       0.655   0.098  -0.214  0.00  0.00     0.017 A 
ATOM      5  C4  UNL d   1      -0.009  -1.127  -0.344  0.00  0.00     0.017 A 
ATOM      6  C5  UNL d   1      -1.084  -1.428   0.498  0.00  0.00     0.034 A 
ATOM      7 Cl   UNL d   1       0.448  -2.309  -1.520  0.00  0.00    -0.070 Cl
ATOM      8 Cl1  UNL d   1       1.990   0.542  -1.216  0.00  0.00    -0.070 Cl
ENDROOT
TORSDOF 0
ENDMDL
