MODEL 1
REMARK minimizedAffinity 0.924067676
REMARK minimizedRMSD -1
REMARK  0 active torsions:
REMARK  status: ('A' for Active; 'I' for Inactive)
ROOT
ATOM      1  C   UNL d   1       0.989  -1.215   0.038  0.00  0.00     0.020 A 
ATOM      2  C1  UNL d   1       0.097  -1.533   1.061  0.00  0.00     0.020 A 
ATOM      3  C2  UNL d   1      -0.738  -0.547   1.591  0.00  0.00     0.034 A 
ATOM      4  C3  UNL d   1      -0.683   0.761   1.098  0.00  0.00     0.017 A 
ATOM      5  C4  UNL d   1       0.213   1.080   0.071  0.00  0.00     0.017 A 
ATOM      6  C5  UNL d   1       1.047   0.088  -0.456  0.00  0.00     0.034 A 
ATOM      7 Cl   UNL d   1       0.339   2.672  -0.589  0.00  0.00    -0.070 Cl
ATOM      8 Cl1  UNL d   1      -1.745   1.930   1.800  0.00  0.00    -0.070 Cl
ENDROOT
TORSDOF 0
ENDMDL
