MODEL 1
REMARK minimizedAffinity -0.496492922
REMARK minimizedRMSD -1
REMARK  0 active torsions:
REMARK  status: ('A' for Active; 'I' for Inactive)
ROOT
ATOM      1  C   UNL d   1       1.073  -0.366  -0.894  0.00  0.00     0.020 A 
ATOM      2  C1  UNL d   1       0.496   0.889  -1.081  0.00  0.00     0.020 A 
ATOM      3  C2  UNL d   1      -0.120   1.541  -0.010  0.00  0.00     0.034 A 
ATOM      4  C3  UNL d   1      -0.161   0.937   1.252  0.00  0.00     0.017 A 
ATOM      5  C4  UNL d   1       0.418  -0.324   1.438  0.00  0.00     0.017 A 
ATOM      6  C5  UNL d   1       1.034  -0.971   0.363  0.00  0.00     0.034 A 
ATOM      7 Cl   UNL d   1       0.408  -1.132   2.966  0.00  0.00    -0.070 Cl
ATOM      8 Cl1  UNL d   1      -0.939   1.799   2.531  0.00  0.00    -0.070 Cl
ENDROOT
TORSDOF 0
ENDMDL
