MODEL 1
REMARK minimizedAffinity -2.31390285
REMARK minimizedRMSD -1
REMARK  0 active torsions:
REMARK  status: ('A' for Active; 'I' for Inactive)
ROOT
ATOM      1  C   UNL d   1      -1.179   2.927   2.167  0.00  0.00     0.020 A 
ATOM      2  C1  UNL d   1      -0.630   3.846   1.274  0.00  0.00     0.020 A 
ATOM      3  C2  UNL d   1       0.029   3.398   0.127  0.00  0.00     0.034 A 
ATOM      4  C3  UNL d   1       0.141   2.027  -0.130  0.00  0.00     0.017 A 
ATOM      5  C4  UNL d   1      -0.410   1.105   0.767  0.00  0.00     0.017 A 
ATOM      6  C5  UNL d   1      -1.069   1.559   1.914  0.00  0.00     0.034 A 
ATOM      7 Cl   UNL d   1      -0.312  -0.603   0.518  0.00  0.00    -0.070 Cl
ATOM      8 Cl1  UNL d   1       0.969   1.544  -1.567  0.00  0.00    -0.070 Cl
ENDROOT
TORSDOF 0
ENDMDL
