MODEL 1
REMARK minimizedAffinity -3.32953835
REMARK minimizedRMSD -1
REMARK  0 active torsions:
REMARK  status: ('A' for Active; 'I' for Inactive)
ROOT
ATOM      1  C   UNL d   1      -1.239   3.174   1.137  0.00  0.00     0.020 A 
ATOM      2  C1  UNL d   1      -0.611   3.328  -0.098  0.00  0.00     0.020 A 
ATOM      3  C2  UNL d   1       0.003   2.234  -0.711  0.00  0.00     0.034 A 
ATOM      4  C3  UNL d   1      -0.010   0.980  -0.089  0.00  0.00     0.017 A 
ATOM      5  C4  UNL d   1      -0.641   0.826   1.151  0.00  0.00     0.017 A 
ATOM      6  C5  UNL d   1      -1.255   1.925   1.760  0.00  0.00     0.034 A 
ATOM      7 Cl   UNL d   1      -0.699  -0.689   1.980  0.00  0.00    -0.070 Cl
ATOM      8 Cl1  UNL d   1       0.769  -0.329  -0.904  0.00  0.00    -0.070 Cl
ENDROOT
TORSDOF 0
ENDMDL
