MODEL 1
REMARK minimizedAffinity -1.76212776
REMARK minimizedRMSD -1
REMARK  0 active torsions:
REMARK  status: ('A' for Active; 'I' for Inactive)
ROOT
ATOM      1  C   UNL d   1       0.325  -0.490   0.411  0.00  0.00     0.020 A 
ATOM      2  C1  UNL d   1      -0.416  -0.308   1.578  0.00  0.00     0.020 A 
ATOM      3  C2  UNL d   1      -0.908   0.958   1.901  0.00  0.00     0.034 A 
ATOM      4  C3  UNL d   1      -0.661   2.047   1.057  0.00  0.00     0.017 A 
ATOM      5  C4  UNL d   1       0.083   1.862  -0.114  0.00  0.00     0.017 A 
ATOM      6  C5  UNL d   1       0.574   0.592  -0.433  0.00  0.00     0.034 A 
ATOM      7 Cl   UNL d   1       0.429   3.157  -1.206  0.00  0.00    -0.070 Cl
ATOM      8 Cl1  UNL d   1      -1.300   3.584   1.519  0.00  0.00    -0.070 Cl
ENDROOT
TORSDOF 0
ENDMDL
