MODEL 1
REMARK minimizedAffinity -4.37870073
REMARK minimizedRMSD -1
REMARK  0 active torsions:
REMARK  status: ('A' for Active; 'I' for Inactive)
ROOT
ATOM      1  C   UNL d   1      -1.100   2.143   1.753  0.00  0.00     0.020 A 
ATOM      2  C1  UNL d   1      -1.441   0.808   1.969  0.00  0.00     0.020 A 
ATOM      3  C2  UNL d   1      -0.925  -0.188   1.137  0.00  0.00     0.034 A 
ATOM      4  C3  UNL d   1      -0.066   0.149   0.085  0.00  0.00     0.017 A 
ATOM      5  C4  UNL d   1       0.275   1.489  -0.132  0.00  0.00     0.017 A 
ATOM      6  C5  UNL d   1      -0.244   2.482   0.705  0.00  0.00     0.034 A 
ATOM      7 Cl   UNL d   1       1.329   1.982  -1.410  0.00  0.00    -0.070 Cl
ATOM      8 Cl1  UNL d   1       0.534  -1.134  -0.905  0.00  0.00    -0.070 Cl
ENDROOT
TORSDOF 0
ENDMDL
