MODEL 1
REMARK minimizedAffinity -2.05733705
REMARK minimizedRMSD -1
REMARK  0 active torsions:
REMARK  status: ('A' for Active; 'I' for Inactive)
ROOT
ATOM      1  C   UNL d   1       0.677  -1.081  -0.565  0.00  0.00     0.020 A 
ATOM      2  C1  UNL d   1       0.070  -1.304   0.671  0.00  0.00     0.020 A 
ATOM      3  C2  UNL d   1      -0.291  -0.222   1.477  0.00  0.00     0.034 A 
ATOM      4  C3  UNL d   1      -0.046   1.088   1.048  0.00  0.00     0.017 A 
ATOM      5  C4  UNL d   1       0.563   1.310  -0.192  0.00  0.00     0.017 A 
ATOM      6  C5  UNL d   1       0.923   0.223  -0.995  0.00  0.00     0.034 A 
ATOM      7 Cl   UNL d   1       0.898   2.897  -0.789  0.00  0.00    -0.070 Cl
ATOM      8 Cl1  UNL d   1      -0.519   2.378   2.096  0.00  0.00    -0.070 Cl
ENDROOT
TORSDOF 0
ENDMDL
