MODEL 1
REMARK minimizedAffinity -4.38477278
REMARK minimizedRMSD -1
REMARK  0 active torsions:
REMARK  status: ('A' for Active; 'I' for Inactive)
ROOT
ATOM      1  C   UNL d   1      -0.319  -0.501   1.914  0.00  0.00     0.020 A 
ATOM      2  C1  UNL d   1      -1.041   0.671   2.135  0.00  0.00     0.020 A 
ATOM      3  C2  UNL d   1      -0.779   1.807   1.366  0.00  0.00     0.034 A 
ATOM      4  C3  UNL d   1       0.207   1.774   0.373  0.00  0.00     0.017 A 
ATOM      5  C4  UNL d   1       0.931   0.596   0.153  0.00  0.00     0.017 A 
ATOM      6  C5  UNL d   1       0.664  -0.538   0.925  0.00  0.00     0.034 A 
ATOM      7 Cl   UNL d   1       2.163   0.478  -1.054  0.00  0.00    -0.070 Cl
ATOM      8 Cl1  UNL d   1       0.477   3.215  -0.540  0.00  0.00    -0.070 Cl
ENDROOT
TORSDOF 0
ENDMDL
