MODEL 1
REMARK minimizedAffinity -1.61716139
REMARK minimizedRMSD -1
REMARK  1 active torsions:
REMARK  status: ('A' for Active; 'I' for Inactive)
REMARK    1  A    between atoms: C1_2  and  C2_3 
ROOT
ATOM      1  C2  UNL d   1       0.062   0.251   0.062  0.00  0.00    -0.076 A 
ATOM      2  C3  UNL d   1       0.966   0.885  -0.809  0.00  0.00     0.004 A 
ATOM      3  C4  UNL d   1       1.181   2.261  -0.742  0.00  0.00    -0.003 A 
ATOM      4  C5  UNL d   1       0.496   3.025   0.196  0.00  0.00     0.000 A 
ATOM      5  C6  UNL d   1      -0.391   2.410   1.079  0.00  0.00     0.000 A 
ATOM      6  C7  UNL d   1      -0.607   1.022   1.036  0.00  0.00    -0.073 A 
ATOM      7  C8  UNL d   1      -1.580   0.413   2.008  0.00  0.00     0.078 C 
ENDROOT
BRANCH   1   8
ATOM      8  C1  UNL d   1      -0.151  -1.239  -0.075  0.00  0.00     0.053 C 
ATOM      9  C   UNL d   1      -0.280  -1.679  -1.526  0.00  0.00     0.018 C 
ENDBRANCH   1   8
TORSDOF 1
ENDMDL
