MODEL 1
REMARK minimizedAffinity -5.38550758
REMARK minimizedRMSD -1
REMARK  1 active torsions:
REMARK  status: ('A' for Active; 'I' for Inactive)
REMARK    1  A    between atoms: C1_2  and  C2_3 
ROOT
ATOM      1  C2  UNL d   1       0.263   0.340  -0.085  0.00  0.00    -0.076 A 
ATOM      2  C3  UNL d   1       1.346   1.046  -0.636  0.00  0.00     0.004 A 
ATOM      3  C4  UNL d   1       1.332   2.438  -0.709  0.00  0.00    -0.003 A 
ATOM      4  C5  UNL d   1       0.235   3.147  -0.232  0.00  0.00     0.000 A 
ATOM      5  C6  UNL d   1      -0.841   2.463   0.334  0.00  0.00     0.000 A 
ATOM      6  C7  UNL d   1      -0.836   1.061   0.431  0.00  0.00    -0.073 A 
ATOM      7  C8  UNL d   1      -2.025   0.375   1.045  0.00  0.00     0.078 C 
ENDROOT
BRANCH   1   8
ATOM      8  C1  UNL d   1       0.322  -1.170  -0.056  0.00  0.00     0.053 C 
ATOM      9  C   UNL d   1      -0.212  -1.799  -1.335  0.00  0.00     0.018 C 
ENDBRANCH   1   8
TORSDOF 1
ENDMDL
