MODEL 1
REMARK minimizedAffinity -6.17528725
REMARK minimizedRMSD -1
REMARK  1 active torsions:
REMARK  status: ('A' for Active; 'I' for Inactive)
REMARK    1  A    between atoms: C1_2  and  C2_3 
ROOT
ATOM      1  C2  UNL d   1       0.796   0.740   0.626  0.00  0.00    -0.076 A 
ATOM      2  C3  UNL d   1       2.186   0.770   0.833  0.00  0.00     0.004 A 
ATOM      3  C4  UNL d   1       2.925   1.924   0.574  0.00  0.00    -0.003 A 
ATOM      4  C5  UNL d   1       2.285   3.066   0.105  0.00  0.00     0.000 A 
ATOM      5  C6  UNL d   1       0.904   3.058  -0.090  0.00  0.00     0.000 A 
ATOM      6  C7  UNL d   1       0.143   1.909   0.182  0.00  0.00    -0.073 A 
ATOM      7  C8  UNL d   1      -1.343   1.955  -0.051  0.00  0.00     0.078 C 
ENDROOT
BRANCH   1   8
ATOM      8  C1  UNL d   1       0.052  -0.548   0.898  0.00  0.00     0.053 C 
ATOM      9  C   UNL d   1       0.034  -1.476  -0.306  0.00  0.00     0.018 C 
ENDBRANCH   1   8
TORSDOF 1
ENDMDL
