MODEL 1
REMARK minimizedAffinity -5.05845451
REMARK minimizedRMSD -1
REMARK  1 active torsions:
REMARK  status: ('A' for Active; 'I' for Inactive)
REMARK    1  A    between atoms: C1_2  and  C2_3 
ROOT
ATOM      1  C2  UNL d   1       0.865   0.943   0.011  0.00  0.00    -0.076 A 
ATOM      2  C3  UNL d   1      -0.366   1.589  -0.197  0.00  0.00     0.004 A 
ATOM      3  C4  UNL d   1      -0.474   2.975  -0.108  0.00  0.00    -0.003 A 
ATOM      4  C5  UNL d   1       0.649   3.740   0.192  0.00  0.00     0.000 A 
ATOM      5  C6  UNL d   1       1.882   3.118   0.384  0.00  0.00     0.000 A 
ATOM      6  C7  UNL d   1       2.011   1.722   0.281  0.00  0.00    -0.073 A 
ATOM      7  C8  UNL d   1       3.364   1.104   0.505  0.00  0.00     0.078 C 
ENDROOT
BRANCH   1   8
ATOM      8  C1  UNL d   1       0.916  -0.565  -0.072  0.00  0.00     0.053 C 
ATOM      9  C   UNL d   1      -0.440  -1.177  -0.392  0.00  0.00     0.018 C 
ENDBRANCH   1   8
TORSDOF 1
ENDMDL
