MODEL 1
REMARK minimizedAffinity -6.22062302
REMARK minimizedRMSD -1
REMARK  1 active torsions:
REMARK  status: ('A' for Active; 'I' for Inactive)
REMARK    1  A    between atoms: C1_2  and  C2_3 
ROOT
ATOM      1  C2  UNL d   1       0.062   0.192   0.181  0.00  0.00    -0.076 A 
ATOM      2  C3  UNL d   1       1.293   0.645  -0.325  0.00  0.00     0.004 A 
ATOM      3  C4  UNL d   1       1.533   2.005  -0.514  0.00  0.00    -0.003 A 
ATOM      4  C5  UNL d   1       0.547   2.934  -0.200  0.00  0.00     0.000 A 
ATOM      5  C6  UNL d   1      -0.673   2.503   0.319  0.00  0.00     0.000 A 
ATOM      6  C7  UNL d   1      -0.926   1.137   0.531  0.00  0.00    -0.073 A 
ATOM      7  C8  UNL d   1      -2.262   0.728   1.088  0.00  0.00     0.078 C 
ENDROOT
BRANCH   1   8
ATOM      8  C1  UNL d   1      -0.152  -1.296   0.339  0.00  0.00     0.053 C 
ATOM      9  C   UNL d   1      -0.202  -2.023  -0.996  0.00  0.00     0.018 C 
ENDBRANCH   1   8
TORSDOF 1
ENDMDL
