MODEL 1
REMARK minimizedAffinity -2.11480522
REMARK minimizedRMSD -1
REMARK  1 active torsions:
REMARK  status: ('A' for Active; 'I' for Inactive)
REMARK    1  A    between atoms: C1_2  and  C2_3 
ROOT
ATOM      1  C2  UNL d   1       0.930   0.879  -0.014  0.00  0.00    -0.076 A 
ATOM      2  C3  UNL d   1       2.309   0.799   0.245  0.00  0.00     0.004 A 
ATOM      3  C4  UNL d   1       3.015   1.903   0.720  0.00  0.00    -0.003 A 
ATOM      4  C5  UNL d   1       2.353   3.105   0.944  0.00  0.00     0.000 A 
ATOM      5  C6  UNL d   1       0.982   3.198   0.708  0.00  0.00     0.000 A 
ATOM      6  C7  UNL d   1       0.252   2.089   0.245  0.00  0.00    -0.073 A 
ATOM      7  C8  UNL d   1      -1.224   2.247   0.002  0.00  0.00     0.078 C 
ENDROOT
BRANCH   1   8
ATOM      8  C1  UNL d   1       0.223  -0.343  -0.554  0.00  0.00     0.053 C 
ATOM      9  C   UNL d   1      -0.730  -0.959   0.458  0.00  0.00     0.018 C 
ENDBRANCH   1   8
TORSDOF 1
ENDMDL
