MODEL 1
REMARK minimizedAffinity -4.73387194
REMARK minimizedRMSD -1
REMARK  1 active torsions:
REMARK  status: ('A' for Active; 'I' for Inactive)
REMARK    1  A    between atoms: C1_2  and  C2_3 
ROOT
ATOM      1  C2  UNL d   1       0.061   0.424   0.318  0.00  0.00    -0.076 A 
ATOM      2  C3  UNL d   1      -1.255   0.909   0.409  0.00  0.00     0.004 A 
ATOM      3  C4  UNL d   1      -1.515   2.279   0.427  0.00  0.00    -0.003 A 
ATOM      4  C5  UNL d   1      -0.463   3.185   0.353  0.00  0.00     0.000 A 
ATOM      5  C6  UNL d   1       0.848   2.720   0.245  0.00  0.00     0.000 A 
ATOM      6  C7  UNL d   1       1.126   1.343   0.209  0.00  0.00    -0.073 A 
ATOM      7  C8  UNL d   1       2.558   0.898   0.097  0.00  0.00     0.078 C 
ENDROOT
BRANCH   1   8
ATOM      8  C1  UNL d   1       0.283  -1.072   0.330  0.00  0.00     0.053 C 
ATOM      9  C   UNL d   1      -0.244  -1.750  -0.925  0.00  0.00     0.018 C 
ENDBRANCH   1   8
TORSDOF 1
ENDMDL
