MODEL 1
REMARK minimizedAffinity -1.30948472
REMARK minimizedRMSD -1
REMARK  1 active torsions:
REMARK  status: ('A' for Active; 'I' for Inactive)
REMARK    1  A    between atoms: C1_2  and  C2_3 
ROOT
ATOM      1  C2  UNL d   1      -0.206  -0.979  -0.157  0.00  0.00    -0.076 A 
ATOM      2  C3  UNL d   1       1.147  -0.906   0.218  0.00  0.00     0.004 A 
ATOM      3  C4  UNL d   1       1.688   0.273   0.728  0.00  0.00    -0.003 A 
ATOM      4  C5  UNL d   1       0.884   1.399   0.872  0.00  0.00     0.000 A 
ATOM      5  C6  UNL d   1      -0.464   1.339   0.521  0.00  0.00     0.000 A 
ATOM      6  C7  UNL d   1      -1.029   0.153   0.021  0.00  0.00    -0.073 A 
ATOM      7  C8  UNL d   1      -2.488   0.147  -0.346  0.00  0.00     0.078 C 
ENDROOT
BRANCH   1   8
ATOM      8  C1  UNL d   1      -0.730  -2.277  -0.729  0.00  0.00     0.053 C 
ATOM      9  C   UNL d   1      -0.053  -2.652  -2.038  0.00  0.00     0.018 C 
ENDBRANCH   1   8
TORSDOF 1
ENDMDL
