MODEL 1
REMARK minimizedAffinity -4.5347538
REMARK minimizedRMSD -1
REMARK  1 active torsions:
REMARK  status: ('A' for Active; 'I' for Inactive)
REMARK    1  A    between atoms: C1_2  and  C2_3 
ROOT
ATOM      1  C2  UNL d   1       1.400   1.576   0.223  0.00  0.00    -0.076 A 
ATOM      2  C3  UNL d   1       1.330   2.919  -0.184  0.00  0.00     0.004 A 
ATOM      3  C4  UNL d   1       0.156   3.446  -0.721  0.00  0.00    -0.003 A 
ATOM      4  C5  UNL d   1      -0.966   2.637  -0.860  0.00  0.00     0.000 A 
ATOM      5  C6  UNL d   1      -0.920   1.307  -0.445  0.00  0.00     0.000 A 
ATOM      6  C7  UNL d   1       0.250   0.765   0.114  0.00  0.00    -0.073 A 
ATOM      7  C8  UNL d   1       0.246  -0.678   0.538  0.00  0.00     0.078 C 
ENDROOT
BRANCH   1   8
ATOM      8  C1  UNL d   1       2.707   1.053   0.774  0.00  0.00     0.053 C 
ATOM      9  C   UNL d   1       3.916   1.646   0.066  0.00  0.00     0.018 C 
ENDBRANCH   1   8
TORSDOF 1
ENDMDL
