MODEL 1
REMARK minimizedAffinity -6.12949085
REMARK minimizedRMSD -1
REMARK  1 active torsions:
REMARK  status: ('A' for Active; 'I' for Inactive)
REMARK    1  A    between atoms: C1_2  and  C2_3 
ROOT
ATOM      1  C2  UNL d   1       0.886   0.882   0.513  0.00  0.00    -0.076 A 
ATOM      2  C3  UNL d   1      -0.262   1.597   0.131  0.00  0.00     0.004 A 
ATOM      3  C4  UNL d   1      -0.212   2.973  -0.085  0.00  0.00    -0.003 A 
ATOM      4  C5  UNL d   1       0.989   3.657   0.075  0.00  0.00     0.000 A 
ATOM      5  C6  UNL d   1       2.142   2.961   0.436  0.00  0.00     0.000 A 
ATOM      6  C7  UNL d   1       2.112   1.571   0.643  0.00  0.00    -0.073 A 
ATOM      7  C8  UNL d   1       3.384   0.871   1.036  0.00  0.00     0.078 C 
ENDROOT
BRANCH   1   8
ATOM      8  C1  UNL d   1       0.765  -0.604   0.760  0.00  0.00     0.053 C 
ATOM      9  C   UNL d   1      -0.457  -1.209   0.087  0.00  0.00     0.018 C 
ENDBRANCH   1   8
TORSDOF 1
ENDMDL
