MODEL 1
REMARK minimizedAffinity -3.57469606
REMARK minimizedRMSD -1
REMARK  1 active torsions:
REMARK  status: ('A' for Active; 'I' for Inactive)
REMARK    1  A    between atoms: C1_2  and  C2_3 
ROOT
ATOM      1  C2  UNL d   1       0.105   0.568   0.186  0.00  0.00    -0.076 A 
ATOM      2  C3  UNL d   1       1.337   1.194  -0.071  0.00  0.00     0.004 A 
ATOM      3  C4  UNL d   1       1.432   2.581  -0.161  0.00  0.00    -0.003 A 
ATOM      4  C5  UNL d   1       0.297   3.366   0.006  0.00  0.00     0.000 A 
ATOM      5  C6  UNL d   1      -0.931   2.764   0.279  0.00  0.00     0.000 A 
ATOM      6  C7  UNL d   1      -1.041   1.367   0.389  0.00  0.00    -0.073 A 
ATOM      7  C8  UNL d   1      -2.391   0.770   0.679  0.00  0.00     0.078 C 
ENDROOT
BRANCH   1   8
ATOM      8  C1  UNL d   1       0.057  -0.942   0.246  0.00  0.00     0.053 C 
ATOM      9  C   UNL d   1      -0.249  -1.569  -1.105  0.00  0.00     0.018 C 
ENDBRANCH   1   8
TORSDOF 1
ENDMDL
