MODEL 1
REMARK minimizedAffinity -3.94955826
REMARK minimizedRMSD -1
REMARK  1 active torsions:
REMARK  status: ('A' for Active; 'I' for Inactive)
REMARK    1  A    between atoms: C1_2  and  C2_3 
ROOT
ATOM      1  C2  UNL d   1       0.806   1.113  -0.196  0.00  0.00    -0.076 A 
ATOM      2  C3  UNL d   1       0.564   2.461   0.118  0.00  0.00     0.004 A 
ATOM      3  C4  UNL d   1      -0.702   2.890   0.515  0.00  0.00    -0.003 A 
ATOM      4  C5  UNL d   1      -1.746   1.976   0.605  0.00  0.00     0.000 A 
ATOM      5  C6  UNL d   1      -1.520   0.631   0.314  0.00  0.00     0.000 A 
ATOM      6  C7  UNL d   1      -0.246   0.180  -0.071  0.00  0.00    -0.073 A 
ATOM      7  C8  UNL d   1      -0.059  -1.281  -0.378  0.00  0.00     0.078 C 
ENDROOT
BRANCH   1   8
ATOM      8  C1  UNL d   1       2.193   0.711  -0.646  0.00  0.00     0.053 C 
ATOM      9  C   UNL d   1       3.000   0.059   0.465  0.00  0.00     0.018 C 
ENDBRANCH   1   8
TORSDOF 1
ENDMDL
