MODEL 1
REMARK minimizedAffinity 4.58077383
REMARK minimizedRMSD -1
REMARK  1 active torsions:
REMARK  status: ('A' for Active; 'I' for Inactive)
REMARK    1  A    between atoms: C3_4  and  O_7 
ROOT
ATOM      1  C   UNL d   1       5.379  -0.869   5.034  0.00  0.00    -0.033 A 
ATOM      2  C1  UNL d   1       4.562  -0.282   4.066  0.00  0.00     0.039 A 
ATOM      3  C2  UNL d   1       4.360   1.100   4.065  0.00  0.00    -0.080 A 
ATOM      4  C3  UNL d   1       4.981   1.881   5.035  0.00  0.00     0.150 A 
ATOM      5  C4  UNL d   1       5.799   1.304   6.000  0.00  0.00    -0.007 A 
ATOM      6  C5  UNL d   1       5.999  -0.076   6.000  0.00  0.00     0.039 A 
ENDROOT
BRANCH   4   7
ATOM      7  O   UNL d   1       4.810   3.233   5.078  0.00  0.00    -0.526 OA
ATOM      8  H5  UNL d   1       4.196   3.488   4.368  0.00  0.00     0.418 HD
ENDBRANCH   4   7
TORSDOF 1
ENDMDL
