MODEL 1
REMARK minimizedAffinity 5.32307291
REMARK minimizedRMSD -1
REMARK  1 active torsions:
REMARK  status: ('A' for Active; 'I' for Inactive)
REMARK    1  A    between atoms: C3_4  and  O_7 
ROOT
ATOM      1  C   UNL d   1       1.563   3.263   0.182  0.00  0.00    -0.033 A 
ATOM      2  C1  UNL d   1       1.718   2.420  -0.919  0.00  0.00     0.039 A 
ATOM      3  C2  UNL d   1       0.732   1.478  -1.224  0.00  0.00    -0.080 A 
ATOM      4  C3  UNL d   1      -0.402   1.392  -0.421  0.00  0.00     0.150 A 
ATOM      5  C4  UNL d   1      -0.564   2.232   0.676  0.00  0.00    -0.007 A 
ATOM      6  C5  UNL d   1       0.421   3.170   0.979  0.00  0.00     0.039 A 
ENDROOT
BRANCH   4   7
ATOM      7  O   UNL d   1      -1.388   0.486  -0.676  0.00  0.00    -0.526 OA
ATOM      8  H5  UNL d   1      -1.126  -0.045  -1.447  0.00  0.00     0.418 HD
ENDBRANCH   4   7
TORSDOF 1
ENDMDL
