MODEL 1
REMARK minimizedAffinity 6.14193821
REMARK minimizedRMSD -1
REMARK  1 active torsions:
REMARK  status: ('A' for Active; 'I' for Inactive)
REMARK    1  A    between atoms: C3_4  and  O_7 
ROOT
ATOM      1  C   UNL d   1      -1.864   0.387   3.132  0.00  0.00    -0.033 A 
ATOM      2  C1  UNL d   1      -2.949   1.116   3.623  0.00  0.00     0.039 A 
ATOM      3  C2  UNL d   1      -4.185   0.493   3.806  0.00  0.00    -0.080 A 
ATOM      4  C3  UNL d   1      -4.323  -0.857   3.496  0.00  0.00     0.150 A 
ATOM      5  C4  UNL d   1      -3.245  -1.590   3.009  0.00  0.00    -0.007 A 
ATOM      6  C5  UNL d   1      -2.012  -0.966   2.826  0.00  0.00     0.039 A 
ENDROOT
BRANCH   4   7
ATOM      7  O   UNL d   1      -5.511  -1.507   3.653  0.00  0.00    -0.526 OA
ATOM      8  H5  UNL d   1      -6.171  -0.868   3.969  0.00  0.00     0.418 HD
ENDBRANCH   4   7
TORSDOF 1
ENDMDL
