MODEL 1
REMARK minimizedAffinity -1.20242774
REMARK minimizedRMSD -1
REMARK  1 active torsions:
REMARK  status: ('A' for Active; 'I' for Inactive)
REMARK    1  A    between atoms: C3_4  and  O_7 
ROOT
ATOM      1  C   UNL d   1       5.605   4.155   4.851  0.00  0.00    -0.033 A 
ATOM      2  C1  UNL d   1       5.227   3.457   3.702  0.00  0.00     0.039 A 
ATOM      3  C2  UNL d   1       5.230   2.061   3.699  0.00  0.00    -0.080 A 
ATOM      4  C3  UNL d   1       5.610   1.376   4.850  0.00  0.00     0.150 A 
ATOM      5  C4  UNL d   1       5.984   2.065   5.999  0.00  0.00    -0.007 A 
ATOM      6  C5  UNL d   1       5.982   3.459   6.000  0.00  0.00     0.039 A 
ENDROOT
BRANCH   4   7
ATOM      7  O   UNL d   1       5.633   0.013   4.894  0.00  0.00    -0.526 OA
ATOM      8  H5  UNL d   1       5.379  -0.327   4.020  0.00  0.00     0.418 HD
ENDBRANCH   4   7
TORSDOF 1
ENDMDL
