MODEL 1
REMARK minimizedAffinity 3.73418331
REMARK minimizedRMSD -1
REMARK  1 active torsions:
REMARK  status: ('A' for Active; 'I' for Inactive)
REMARK    1  A    between atoms: C3_4  and  O_7 
ROOT
ATOM      1  C   UNL d   1       4.846   0.079   5.817  0.00  0.00    -0.033 A 
ATOM      2  C1  UNL d   1       5.999   0.857   5.699  0.00  0.00     0.039 A 
ATOM      3  C2  UNL d   1       5.897   2.238   5.519  0.00  0.00    -0.080 A 
ATOM      4  C3  UNL d   1       4.637   2.827   5.460  0.00  0.00     0.150 A 
ATOM      5  C4  UNL d   1       3.484   2.059   5.581  0.00  0.00    -0.007 A 
ATOM      6  C5  UNL d   1       3.588   0.680   5.759  0.00  0.00     0.039 A 
ENDROOT
BRANCH   4   7
ATOM      7  O   UNL d   1       4.487   4.170   5.281  0.00  0.00    -0.526 OA
ATOM      8  H5  UNL d   1       5.368   4.569   5.185  0.00  0.00     0.418 HD
ENDBRANCH   4   7
TORSDOF 1
ENDMDL
