MODEL 1
REMARK minimizedAffinity -0.937265813
REMARK minimizedRMSD -1
REMARK  1 active torsions:
REMARK  status: ('A' for Active; 'I' for Inactive)
REMARK    1  A    between atoms: C3_4  and  O_7 
ROOT
ATOM      1  C   UNL d   1       0.577  -2.613  -0.369  0.00  0.00    -0.033 A 
ATOM      2  C1  UNL d   1       1.662  -1.879  -0.854  0.00  0.00     0.039 A 
ATOM      3  C2  UNL d   1       1.532  -0.508  -1.084  0.00  0.00    -0.080 A 
ATOM      4  C3  UNL d   1       0.315   0.116  -0.826  0.00  0.00     0.150 A 
ATOM      5  C4  UNL d   1      -0.768  -0.607  -0.340  0.00  0.00    -0.007 A 
ATOM      6  C5  UNL d   1      -0.638  -1.976  -0.111  0.00  0.00     0.039 A 
ENDROOT
BRANCH   4   7
ATOM      7  O   UNL d   1       0.140   1.451  -1.040  0.00  0.00    -0.526 OA
ATOM      8  H5  UNL d   1       0.964   1.816  -1.404  0.00  0.00     0.418 HD
ENDBRANCH   4   7
TORSDOF 1
ENDMDL
