MODEL 1
REMARK minimizedAffinity 2.12318349
REMARK minimizedRMSD -1
REMARK  1 active torsions:
REMARK  status: ('A' for Active; 'I' for Inactive)
REMARK    1  A    between atoms: C3_4  and  O_7 
ROOT
ATOM      1  C   UNL d   1      -0.211   3.085   0.474  0.00  0.00    -0.033 A 
ATOM      2  C1  UNL d   1       0.378   2.410  -0.598  0.00  0.00     0.039 A 
ATOM      3  C2  UNL d   1       1.675   2.734  -1.001  0.00  0.00    -0.080 A 
ATOM      4  C3  UNL d   1       2.371   3.732  -0.325  0.00  0.00     0.150 A 
ATOM      5  C4  UNL d   1       1.792   4.406   0.745  0.00  0.00    -0.007 A 
ATOM      6  C5  UNL d   1       0.497   4.082   1.146  0.00  0.00     0.039 A 
ENDROOT
BRANCH   4   7
ATOM      7  O   UNL d   1       3.638   4.087  -0.686  0.00  0.00    -0.526 OA
ATOM      8  H5  UNL d   1       3.897   3.558  -1.458  0.00  0.00     0.418 HD
ENDBRANCH   4   7
TORSDOF 1
ENDMDL
