MODEL 1
REMARK minimizedAffinity 1.34169161
REMARK minimizedRMSD -1
REMARK  1 active torsions:
REMARK  status: ('A' for Active; 'I' for Inactive)
REMARK    1  A    between atoms: C3_4  and  O_7 
ROOT
ATOM      1  C   UNL d   1       5.377   3.651   4.900  0.00  0.00    -0.033 A 
ATOM      2  C1  UNL d   1       4.901   2.926   3.806  0.00  0.00     0.039 A 
ATOM      3  C2  UNL d   1       4.973   1.532   3.806  0.00  0.00    -0.080 A 
ATOM      4  C3  UNL d   1       5.521   0.876   4.904  0.00  0.00     0.150 A 
ATOM      5  C4  UNL d   1       5.994   1.591   5.999  0.00  0.00    -0.007 A 
ATOM      6  C5  UNL d   1       5.922   2.984   5.998  0.00  0.00     0.039 A 
ENDROOT
BRANCH   4   7
ATOM      7  O   UNL d   1       5.617  -0.484   4.948  0.00  0.00    -0.526 OA
ATOM      8  H5  UNL d   1       5.278  -0.843   4.111  0.00  0.00     0.418 HD
ENDBRANCH   4   7
TORSDOF 1
ENDMDL
