MODEL 1
REMARK minimizedAffinity 3.29423332
REMARK minimizedRMSD -1
REMARK  1 active torsions:
REMARK  status: ('A' for Active; 'I' for Inactive)
REMARK    1  A    between atoms: C3_4  and  O_7 
ROOT
ATOM      1  C   UNL d   1      -1.076  -1.318   0.120  0.00  0.00    -0.033 A 
ATOM      2  C1  UNL d   1      -0.472  -2.577   0.120  0.00  0.00     0.039 A 
ATOM      3  C2  UNL d   1       0.848  -2.720  -0.312  0.00  0.00    -0.080 A 
ATOM      4  C3  UNL d   1       1.552  -1.599  -0.741  0.00  0.00     0.150 A 
ATOM      5  C4  UNL d   1       0.958  -0.341  -0.740  0.00  0.00    -0.007 A 
ATOM      6  C5  UNL d   1      -0.360  -0.200  -0.309  0.00  0.00     0.039 A 
ENDROOT
BRANCH   4   7
ATOM      7  O   UNL d   1       2.841  -1.690  -1.177  0.00  0.00    -0.526 OA
ATOM      8  H5  UNL d   1       3.110  -2.623  -1.149  0.00  0.00     0.418 HD
ENDBRANCH   4   7
TORSDOF 1
ENDMDL
