MODEL 1
REMARK minimizedAffinity -1.70560181
REMARK minimizedRMSD -1
REMARK  1 active torsions:
REMARK  status: ('A' for Active; 'I' for Inactive)
REMARK    1  A    between atoms: C3_4  and  O_7 
ROOT
ATOM      1  C   UNL d   1       5.433  -2.252   4.922  0.00  0.00    -0.033 A 
ATOM      2  C1  UNL d   1       4.882  -1.551   5.997  0.00  0.00     0.039 A 
ATOM      3  C2  UNL d   1       4.891  -0.154   6.000  0.00  0.00    -0.080 A 
ATOM      4  C3  UNL d   1       5.453   0.528   4.924  0.00  0.00     0.150 A 
ATOM      5  C4  UNL d   1       6.000  -0.164   3.848  0.00  0.00    -0.007 A 
ATOM      6  C5  UNL d   1       5.991  -1.558   3.847  0.00  0.00     0.039 A 
ENDROOT
BRANCH   4   7
ATOM      7  O   UNL d   1       5.489   1.890   4.884  0.00  0.00    -0.526 OA
ATOM      8  H5  UNL d   1       5.101   2.232   5.707  0.00  0.00     0.418 HD
ENDBRANCH   4   7
TORSDOF 1
ENDMDL
