MODEL 1
REMARK minimizedAffinity 3.41399837
REMARK minimizedRMSD -1
REMARK  1 active torsions:
REMARK  status: ('A' for Active; 'I' for Inactive)
REMARK    1  A    between atoms: C3_4  and  O_7 
ROOT
ATOM      1  C   UNL d   1       5.003   3.185   4.766  0.00  0.00    -0.033 A 
ATOM      2  C1  UNL d   1       3.977   2.347   4.324  0.00  0.00     0.039 A 
ATOM      3  C2  UNL d   1       3.949   1.007   4.718  0.00  0.00    -0.080 A 
ATOM      4  C3  UNL d   1       4.950   0.520   5.553  0.00  0.00     0.150 A 
ATOM      5  C4  UNL d   1       5.973   1.350   6.000  0.00  0.00    -0.007 A 
ATOM      6  C5  UNL d   1       6.000   2.687   5.605  0.00  0.00     0.039 A 
ENDROOT
BRANCH   4   7
ATOM      7  O   UNL d   1       4.968  -0.781   5.960  0.00  0.00    -0.526 OA
ATOM      8  H5  UNL d   1       4.217  -1.242   5.550  0.00  0.00     0.418 HD
ENDBRANCH   4   7
TORSDOF 1
ENDMDL
