MODEL 1
REMARK minimizedAffinity -1.84316158
REMARK minimizedRMSD -1
REMARK  1 active torsions:
REMARK  status: ('A' for Active; 'I' for Inactive)
REMARK    1  A    between atoms: C3_4  and  O_7 
ROOT
ATOM      1  C   UNL d   1       1.451  -1.189  -0.792  0.00  0.00    -0.033 A 
ATOM      2  C1  UNL d   1       2.099  -1.686  -1.924  0.00  0.00     0.039 A 
ATOM      3  C2  UNL d   1       2.128  -0.934  -3.100  0.00  0.00    -0.080 A 
ATOM      4  C3  UNL d   1       1.507   0.312  -3.130  0.00  0.00     0.150 A 
ATOM      5  C4  UNL d   1       0.863   0.814  -2.004  0.00  0.00    -0.007 A 
ATOM      6  C5  UNL d   1       0.835   0.062  -0.831  0.00  0.00     0.039 A 
ENDROOT
BRANCH   4   7
ATOM      7  O   UNL d   1       1.505   1.080  -4.257  0.00  0.00    -0.526 OA
ATOM      8  H5  UNL d   1       1.962   0.592  -4.962  0.00  0.00     0.418 HD
ENDBRANCH   4   7
TORSDOF 1
ENDMDL
