MODEL 1
REMARK minimizedAffinity -4.60725832
REMARK minimizedRMSD -1
REMARK  1 active torsions:
REMARK  status: ('A' for Active; 'I' for Inactive)
REMARK    1  A    between atoms: C3_4  and  O_7 
ROOT
ATOM      1  C   UNL d   1       0.943  -1.789  -0.265  0.00  0.00    -0.033 A 
ATOM      2  C1  UNL d   1       1.687  -2.224  -1.364  0.00  0.00     0.039 A 
ATOM      3  C2  UNL d   1       1.758  -1.439  -2.516  0.00  0.00    -0.080 A 
ATOM      4  C3  UNL d   1       1.083  -0.222  -2.556  0.00  0.00     0.150 A 
ATOM      5  C4  UNL d   1       0.343   0.220  -1.464  0.00  0.00    -0.007 A 
ATOM      6  C5  UNL d   1       0.273  -0.566  -0.314  0.00  0.00     0.039 A 
ENDROOT
BRANCH   4   7
ATOM      7  O   UNL d   1       1.118   0.577  -3.660  0.00  0.00    -0.526 OA
ATOM      8  H5  UNL d   1       1.643   0.131  -4.346  0.00  0.00     0.418 HD
ENDBRANCH   4   7
TORSDOF 1
ENDMDL
