MODEL 1
REMARK minimizedAffinity -5.31922817
REMARK minimizedRMSD -1
REMARK  1 active torsions:
REMARK  status: ('A' for Active; 'I' for Inactive)
REMARK    1  A    between atoms: C3_4  and  O_7 
ROOT
ATOM      1  C   UNL d   1      -0.283  -1.025   1.338  0.00  0.00    -0.033 A 
ATOM      2  C1  UNL d   1      -0.532  -0.330   0.152  0.00  0.00     0.039 A 
ATOM      3  C2  UNL d   1      -1.815  -0.324  -0.399  0.00  0.00    -0.080 A 
ATOM      4  C3  UNL d   1      -2.839  -1.013   0.244  0.00  0.00     0.150 A 
ATOM      5  C4  UNL d   1      -2.599  -1.704   1.428  0.00  0.00    -0.007 A 
ATOM      6  C5  UNL d   1      -1.317  -1.710   1.977  0.00  0.00     0.039 A 
ENDROOT
BRANCH   4   7
ATOM      7  O   UNL d   1      -4.106  -1.040  -0.258  0.00  0.00    -0.526 OA
ATOM      8  H5  UNL d   1      -4.115  -0.544  -1.094  0.00  0.00     0.418 HD
ENDBRANCH   4   7
TORSDOF 1
ENDMDL
