MODEL 1
REMARK minimizedAffinity -5.00696421
REMARK minimizedRMSD -1
REMARK  1 active torsions:
REMARK  status: ('A' for Active; 'I' for Inactive)
REMARK    1  A    between atoms: C3_4  and  O_7 
ROOT
ATOM      1  C   UNL d   1      -3.001  -2.630   0.900  0.00  0.00    -0.033 A 
ATOM      2  C1  UNL d   1      -1.746  -2.658   1.513  0.00  0.00     0.039 A 
ATOM      3  C2  UNL d   1      -0.800  -1.675   1.216  0.00  0.00    -0.080 A 
ATOM      4  C3  UNL d   1      -1.121  -0.670   0.308  0.00  0.00     0.150 A 
ATOM      5  C4  UNL d   1      -2.371  -0.633  -0.303  0.00  0.00    -0.007 A 
ATOM      6  C5  UNL d   1      -3.314  -1.617  -0.006  0.00  0.00     0.039 A 
ENDROOT
BRANCH   4   7
ATOM      7  O   UNL d   1      -0.230   0.309  -0.017  0.00  0.00    -0.526 OA
ATOM      8  H5  UNL d   1       0.600   0.139   0.460  0.00  0.00     0.418 HD
ENDBRANCH   4   7
TORSDOF 1
ENDMDL
