MODEL 1
REMARK minimizedAffinity -3.8387084
REMARK minimizedRMSD -1
REMARK  1 active torsions:
REMARK  status: ('A' for Active; 'I' for Inactive)
REMARK    1  A    between atoms: C3_4  and  O_7 
ROOT
ATOM      1  C   UNL d   1      -3.106  -2.171  -0.251  0.00  0.00    -0.033 A 
ATOM      2  C1  UNL d   1      -2.786  -1.042  -1.006  0.00  0.00     0.039 A 
ATOM      3  C2  UNL d   1      -1.629  -0.314  -0.721  0.00  0.00    -0.080 A 
ATOM      4  C3  UNL d   1      -0.802  -0.726   0.320  0.00  0.00     0.150 A 
ATOM      5  C4  UNL d   1      -1.113  -1.852   1.075  0.00  0.00    -0.007 A 
ATOM      6  C5  UNL d   1      -2.269  -2.578   0.789  0.00  0.00     0.039 A 
ENDROOT
BRANCH   4   7
ATOM      7  O   UNL d   1       0.335  -0.044   0.640  0.00  0.00    -0.526 OA
ATOM      8  H5  UNL d   1       0.406   0.727   0.053  0.00  0.00     0.418 HD
ENDBRANCH   4   7
TORSDOF 1
ENDMDL
