MODEL 1
REMARK minimizedAffinity -3.78201747
REMARK minimizedRMSD -1
REMARK  1 active torsions:
REMARK  status: ('A' for Active; 'I' for Inactive)
REMARK    1  A    between atoms: C3_4  and  O_7 
ROOT
ATOM      1  C   UNL d   1      -2.767  -2.114  -0.162  0.00  0.00    -0.033 A 
ATOM      2  C1  UNL d   1      -1.818  -2.368   0.831  0.00  0.00     0.039 A 
ATOM      3  C2  UNL d   1      -0.659  -1.594   0.906  0.00  0.00    -0.080 A 
ATOM      4  C3  UNL d   1      -0.461  -0.569  -0.015  0.00  0.00     0.150 A 
ATOM      5  C4  UNL d   1      -1.403  -0.308  -1.004  0.00  0.00    -0.007 A 
ATOM      6  C5  UNL d   1      -2.560  -1.083  -1.078  0.00  0.00     0.039 A 
ENDROOT
BRANCH   4   7
ATOM      7  O   UNL d   1       0.658   0.210   0.016  0.00  0.00    -0.526 OA
ATOM      8  H5  UNL d   1       1.232  -0.104   0.734  0.00  0.00     0.418 HD
ENDBRANCH   4   7
TORSDOF 1
ENDMDL
