MODEL 1
REMARK minimizedAffinity -4.97418308
REMARK minimizedRMSD -1
REMARK  1 active torsions:
REMARK  status: ('A' for Active; 'I' for Inactive)
REMARK    1  A    between atoms: C3_4  and  O_7 
ROOT
ATOM      1  C   UNL d   1      -3.307  -1.158   0.581  0.00  0.00    -0.033 A 
ATOM      2  C1  UNL d   1      -2.733  -0.446  -0.474  0.00  0.00     0.039 A 
ATOM      3  C2  UNL d   1      -1.363  -0.177  -0.473  0.00  0.00    -0.080 A 
ATOM      4  C3  UNL d   1      -0.579  -0.625   0.586  0.00  0.00     0.150 A 
ATOM      5  C4  UNL d   1      -1.144  -1.339   1.639  0.00  0.00    -0.007 A 
ATOM      6  C5  UNL d   1      -2.512  -1.606   1.637  0.00  0.00     0.039 A 
ENDROOT
BRANCH   4   7
ATOM      7  O   UNL d   1       0.761  -0.383   0.633  0.00  0.00    -0.526 OA
ATOM      8  H5  UNL d   1       1.006   0.144  -0.146  0.00  0.00     0.418 HD
ENDBRANCH   4   7
TORSDOF 1
ENDMDL
