MODEL 1
REMARK minimizedAffinity -1.05888438
REMARK minimizedRMSD -1
REMARK  1 active torsions:
REMARK  status: ('A' for Active; 'I' for Inactive)
REMARK    1  A    between atoms: C3_4  and  O_7 
ROOT
ATOM      1  C   UNL d   1      -0.131   0.922  -1.815  0.00  0.00    -0.033 A 
ATOM      2  C1  UNL d   1      -0.776  -0.304  -1.989  0.00  0.00     0.039 A 
ATOM      3  C2  UNL d   1      -0.561  -1.343  -1.081  0.00  0.00    -0.080 A 
ATOM      4  C3  UNL d   1       0.300  -1.143  -0.005  0.00  0.00     0.150 A 
ATOM      5  C4  UNL d   1       0.943   0.077   0.176  0.00  0.00    -0.007 A 
ATOM      6  C5  UNL d   1       0.727   1.113  -0.732  0.00  0.00     0.039 A 
ENDROOT
BRANCH   4   7
ATOM      7  O   UNL d   1       0.545  -2.129   0.904  0.00  0.00    -0.526 OA
ATOM      8  H5  UNL d   1       0.056  -2.924   0.635  0.00  0.00     0.418 HD
ENDBRANCH   4   7
TORSDOF 1
ENDMDL
