MODEL 1
REMARK minimizedAffinity 0.442905247
REMARK minimizedRMSD -1
REMARK  1 active torsions:
REMARK  status: ('A' for Active; 'I' for Inactive)
REMARK    1  A    between atoms: C3_4  and  O_7 
ROOT
ATOM      1  C   UNL d   1       2.770   3.584   1.329  0.00  0.00    -0.033 A 
ATOM      2  C1  UNL d   1       1.780   3.090   2.181  0.00  0.00     0.039 A 
ATOM      3  C2  UNL d   1       1.064   1.944   1.832  0.00  0.00    -0.080 A 
ATOM      4  C3  UNL d   1       1.346   1.302   0.629  0.00  0.00     0.150 A 
ATOM      5  C4  UNL d   1       2.333   1.786  -0.223  0.00  0.00    -0.007 A 
ATOM      6  C5  UNL d   1       3.047   2.931   0.128  0.00  0.00     0.039 A 
ENDROOT
BRANCH   4   7
ATOM      7  O   UNL d   1       0.670   0.183   0.243  0.00  0.00    -0.526 OA
ATOM      8  H5  UNL d   1      -0.001  -0.019   0.916  0.00  0.00     0.418 HD
ENDBRANCH   4   7
TORSDOF 1
ENDMDL
