MODEL 1
REMARK minimizedAffinity -2.19913578
REMARK minimizedRMSD -1
REMARK  1 active torsions:
REMARK  status: ('A' for Active; 'I' for Inactive)
REMARK    1  A    between atoms: C3_4  and  O_7 
ROOT
ATOM      1  C   UNL d   1      -0.636   0.496  -1.575  0.00  0.00    -0.033 A 
ATOM      2  C1  UNL d   1       0.474   0.655  -0.743  0.00  0.00     0.039 A 
ATOM      3  C2  UNL d   1       0.707  -0.252   0.293  0.00  0.00    -0.080 A 
ATOM      4  C3  UNL d   1      -0.175  -1.312   0.484  0.00  0.00     0.150 A 
ATOM      5  C4  UNL d   1      -1.280  -1.478  -0.344  0.00  0.00    -0.007 A 
ATOM      6  C5  UNL d   1      -1.512  -0.571  -1.377  0.00  0.00     0.039 A 
ENDROOT
BRANCH   4   7
ATOM      7  O   UNL d   1       0.008  -2.220   1.485  0.00  0.00    -0.526 OA
ATOM      8  H5  UNL d   1       0.795  -1.963   1.994  0.00  0.00     0.418 HD
ENDBRANCH   4   7
TORSDOF 1
ENDMDL
