MODEL 1
REMARK minimizedAffinity -3.9720726
REMARK minimizedRMSD -1
REMARK  1 active torsions:
REMARK  status: ('A' for Active; 'I' for Inactive)
REMARK    1  A    between atoms: C3_4  and  O_7 
ROOT
ATOM      1  C   UNL d   1      -0.115  -1.050   1.023  0.00  0.00    -0.033 A 
ATOM      2  C1  UNL d   1      -0.385  -0.174  -0.030  0.00  0.00     0.039 A 
ATOM      3  C2  UNL d   1      -1.641  -0.177  -0.639  0.00  0.00    -0.080 A 
ATOM      4  C3  UNL d   1      -2.618  -1.059  -0.185  0.00  0.00     0.150 A 
ATOM      5  C4  UNL d   1      -2.358  -1.932   0.866  0.00  0.00    -0.007 A 
ATOM      6  C5  UNL d   1      -1.102  -1.928   1.472  0.00  0.00     0.039 A 
ENDROOT
BRANCH   4   7
ATOM      7  O   UNL d   1      -3.858  -1.102  -0.751  0.00  0.00    -0.526 OA
ATOM      8  H5  UNL d   1      -3.884  -0.464  -1.484  0.00  0.00     0.418 HD
ENDBRANCH   4   7
TORSDOF 1
ENDMDL
