MODEL 1
REMARK minimizedAffinity -5.45411634
REMARK minimizedRMSD -1
REMARK  1 active torsions:
REMARK  status: ('A' for Active; 'I' for Inactive)
REMARK    1  A    between atoms: C3_4  and  O_7 
ROOT
ATOM      1  C   UNL d   1      -0.471  -2.311   0.884  0.00  0.00    -0.033 A 
ATOM      2  C1  UNL d   1      -1.680  -2.894   1.267  0.00  0.00     0.039 A 
ATOM      3  C2  UNL d   1      -2.884  -2.223   1.040  0.00  0.00    -0.080 A 
ATOM      4  C3  UNL d   1      -2.864  -0.972   0.429  0.00  0.00     0.150 A 
ATOM      5  C4  UNL d   1      -1.663  -0.387   0.041  0.00  0.00    -0.007 A 
ATOM      6  C5  UNL d   1      -0.462  -1.058   0.269  0.00  0.00     0.039 A 
ENDROOT
BRANCH   4   7
ATOM      7  O   UNL d   1      -4.012  -0.277   0.191  0.00  0.00    -0.526 OA
ATOM      8  H5  UNL d   1      -4.760  -0.791   0.538  0.00  0.00     0.418 HD
ENDBRANCH   4   7
TORSDOF 1
ENDMDL
