MODEL 1
REMARK minimizedAffinity -5.12289906
REMARK minimizedRMSD -1
REMARK  1 active torsions:
REMARK  status: ('A' for Active; 'I' for Inactive)
REMARK    1  A    between atoms: C3_4  and  O_7 
ROOT
ATOM      1  C   UNL d   1      -3.335  -1.120  -0.895  0.00  0.00    -0.033 A 
ATOM      2  C1  UNL d   1      -2.786  -1.821   0.181  0.00  0.00     0.039 A 
ATOM      3  C2  UNL d   1      -1.519  -1.483   0.663  0.00  0.00    -0.080 A 
ATOM      4  C3  UNL d   1      -0.814  -0.445   0.061  0.00  0.00     0.150 A 
ATOM      5  C4  UNL d   1      -1.356   0.259  -1.009  0.00  0.00    -0.007 A 
ATOM      6  C5  UNL d   1      -2.620  -0.080  -1.489  0.00  0.00     0.039 A 
ENDROOT
BRANCH   4   7
ATOM      7  O   UNL d   1       0.428  -0.083   0.493  0.00  0.00    -0.526 OA
ATOM      8  H5  UNL d   1       0.686  -0.675   1.219  0.00  0.00     0.418 HD
ENDBRANCH   4   7
TORSDOF 1
ENDMDL
