MODEL 1
REMARK minimizedAffinity -2.99640107
REMARK minimizedRMSD -1
REMARK  1 active torsions:
REMARK  status: ('A' for Active; 'I' for Inactive)
REMARK    1  A    between atoms: C3_4  and  O_7 
ROOT
ATOM      1  C   UNL d   1       1.245   0.584   0.408  0.00  0.00    -0.033 A 
ATOM      2  C1  UNL d   1       0.005   1.185   0.632  0.00  0.00     0.039 A 
ATOM      3  C2  UNL d   1      -1.057   0.947  -0.243  0.00  0.00    -0.080 A 
ATOM      4  C3  UNL d   1      -0.866   0.105  -1.335  0.00  0.00     0.150 A 
ATOM      5  C4  UNL d   1       0.365  -0.500  -1.563  0.00  0.00    -0.007 A 
ATOM      6  C5  UNL d   1       1.425  -0.260  -0.689  0.00  0.00     0.039 A 
ENDROOT
BRANCH   4   7
ATOM      7  O   UNL d   1      -1.871  -0.154  -2.219  0.00  0.00    -0.526 OA
ATOM      8  H5  UNL d   1      -2.655   0.355  -1.952  0.00  0.00     0.418 HD
ENDBRANCH   4   7
TORSDOF 1
ENDMDL
