MODEL 1
REMARK minimizedAffinity -3.90993619
REMARK minimizedRMSD -1
REMARK  1 active torsions:
REMARK  status: ('A' for Active; 'I' for Inactive)
REMARK    1  A    between atoms: C3_4  and  O_7 
ROOT
ATOM      1  C   UNL d   1      -1.152  -1.340  -0.074  0.00  0.00    -0.033 A 
ATOM      2  C1  UNL d   1      -1.870  -1.475  -1.264  0.00  0.00     0.039 A 
ATOM      3  C2  UNL d   1      -3.225  -1.809  -1.229  0.00  0.00    -0.080 A 
ATOM      4  C3  UNL d   1      -3.850  -2.004  -0.000  0.00  0.00     0.150 A 
ATOM      5  C4  UNL d   1      -3.141  -1.867   1.189  0.00  0.00    -0.007 A 
ATOM      6  C5  UNL d   1      -1.788  -1.535   1.153  0.00  0.00     0.039 A 
ENDROOT
BRANCH   4   7
ATOM      7  O   UNL d   1      -5.169  -2.335   0.084  0.00  0.00    -0.526 OA
ATOM      8  H5  UNL d   1      -5.522  -2.423  -0.817  0.00  0.00     0.418 HD
ENDBRANCH   4   7
TORSDOF 1
ENDMDL
