MODEL 1
REMARK minimizedAffinity -1.78006649
REMARK minimizedRMSD -1
REMARK  1 active torsions:
REMARK  status: ('A' for Active; 'I' for Inactive)
REMARK    1  A    between atoms: C3_4  and  O_7 
ROOT
ATOM      1  C   UNL d   1       1.187   0.324   0.041  0.00  0.00    -0.033 A 
ATOM      2  C1  UNL d   1       0.646  -0.367   1.127  0.00  0.00     0.039 A 
ATOM      3  C2  UNL d   1      -0.681  -0.800   1.091  0.00  0.00    -0.080 A 
ATOM      4  C3  UNL d   1      -1.455  -0.536  -0.036  0.00  0.00     0.150 A 
ATOM      5  C4  UNL d   1      -0.922   0.148  -1.123  0.00  0.00    -0.007 A 
ATOM      6  C5  UNL d   1       0.404   0.580  -1.084  0.00  0.00     0.039 A 
ENDROOT
BRANCH   4   7
ATOM      7  O   UNL d   1      -2.757  -0.934  -0.115  0.00  0.00    -0.526 OA
ATOM      8  H5  UNL d   1      -2.997  -1.369   0.720  0.00  0.00     0.418 HD
ENDBRANCH   4   7
TORSDOF 1
ENDMDL
