MODEL 1
REMARK minimizedAffinity 2.56428576
REMARK minimizedRMSD -1
REMARK  0 active torsions:
REMARK  status: ('A' for Active; 'I' for Inactive)
ROOT
ATOM      1  C   UNL d   1      -3.453   2.348   5.890  0.00  0.00     0.172 C 
ATOM      2  N   UNL d   1      -3.504   3.791   5.933  0.00  0.00    -0.070 N 
ATOM      3  C1  UNL d   1      -2.420   4.627   5.952  0.00  0.00    -0.004 A 
ATOM      4  C2  UNL d   1      -2.888   5.923   5.992  0.00  0.00    -0.047 A 
ATOM      5  C3  UNL d   1      -4.302   5.863   6.000  0.00  0.00    -0.047 A 
ATOM      6  C4  UNL d   1      -4.656   4.531   5.963  0.00  0.00    -0.004 A 
ENDROOT
TORSDOF 0
ENDMDL
