MODEL 1
REMARK minimizedAffinity 9.47235107
REMARK minimizedRMSD -1
REMARK  0 active torsions:
REMARK  status: ('A' for Active; 'I' for Inactive)
ROOT
ATOM      1  C   UNL d   1       5.667   2.944   0.905  0.00  0.00     0.172 C 
ATOM      2  N   UNL d   1       5.802   1.872  -0.053  0.00  0.00    -0.070 N 
ATOM      3  C1  UNL d   1       5.875   2.021  -1.412  0.00  0.00    -0.004 A 
ATOM      4  C2  UNL d   1       5.999   0.766  -1.968  0.00  0.00    -0.047 A 
ATOM      5  C3  UNL d   1       6.000  -0.169  -0.907  0.00  0.00    -0.047 A 
ATOM      6  C4  UNL d   1       5.877   0.542   0.268  0.00  0.00    -0.004 A 
ENDROOT
TORSDOF 0
ENDMDL
