MODEL 1
REMARK minimizedAffinity 1.99979365
REMARK minimizedRMSD -1
REMARK  0 active torsions:
REMARK  status: ('A' for Active; 'I' for Inactive)
ROOT
ATOM      1  C   UNL d   1       3.635  -2.355   4.656  0.00  0.00     0.172 C 
ATOM      2  N   UNL d   1       2.481  -1.917   3.907  0.00  0.00    -0.070 N 
ATOM      3  C1  UNL d   1       1.894  -2.597   2.873  0.00  0.00    -0.004 A 
ATOM      4  C2  UNL d   1       0.826  -1.849   2.428  0.00  0.00    -0.047 A 
ATOM      5  C3  UNL d   1       0.770  -0.678   3.220  0.00  0.00    -0.047 A 
ATOM      6  C4  UNL d   1       1.806  -0.745   4.127  0.00  0.00    -0.004 A 
ENDROOT
TORSDOF 0
ENDMDL
