MODEL 1
REMARK minimizedAffinity -0.643694222
REMARK minimizedRMSD -1
REMARK  0 active torsions:
REMARK  status: ('A' for Active; 'I' for Inactive)
ROOT
ATOM      1  C   UNL d   1       2.638   5.999   5.682  0.00  0.00     0.172 C 
ATOM      2  N   UNL d   1       1.277   5.999   5.200  0.00  0.00    -0.070 N 
ATOM      3  C1  UNL d   1       0.897   5.998   3.884  0.00  0.00    -0.004 A 
ATOM      4  C2  UNL d   1      -0.481   5.997   3.844  0.00  0.00    -0.047 A 
ATOM      5  C3  UNL d   1      -0.944   5.998   5.181  0.00  0.00    -0.047 A 
ATOM      6  C4  UNL d   1       0.165   6.000   6.000  0.00  0.00    -0.004 A 
ENDROOT
TORSDOF 0
ENDMDL
