MODEL 1
REMARK minimizedAffinity 5.96015787
REMARK minimizedRMSD -1
REMARK  0 active torsions:
REMARK  status: ('A' for Active; 'I' for Inactive)
ROOT
ATOM      1  C   UNL d   1       4.841  -2.235   0.200  0.00  0.00     0.172 C 
ATOM      2  N   UNL d   1       3.451  -2.554   0.424  0.00  0.00    -0.070 N 
ATOM      3  C1  UNL d   1       2.767  -3.591  -0.153  0.00  0.00    -0.004 A 
ATOM      4  C2  UNL d   1       1.472  -3.555   0.317  0.00  0.00    -0.047 A 
ATOM      5  C3  UNL d   1       1.374  -2.459   1.206  0.00  0.00    -0.047 A 
ATOM      6  C4  UNL d   1       2.613  -1.857   1.254  0.00  0.00    -0.004 A 
ENDROOT
TORSDOF 0
ENDMDL
