MODEL 1
REMARK minimizedAffinity 4.76791096
REMARK minimizedRMSD -1
REMARK  0 active torsions:
REMARK  status: ('A' for Active; 'I' for Inactive)
ROOT
ATOM      1  C   UNL d   1       3.042  -4.658   0.663  0.00  0.00     0.172 C 
ATOM      2  N   UNL d   1       2.430  -3.420   1.086  0.00  0.00    -0.070 N 
ATOM      3  C1  UNL d   1       2.601  -2.820   2.304  0.00  0.00    -0.004 A 
ATOM      4  C2  UNL d   1       1.852  -1.663   2.314  0.00  0.00    -0.047 A 
ATOM      5  C3  UNL d   1       1.207  -1.566   1.059  0.00  0.00    -0.047 A 
ATOM      6  C4  UNL d   1       1.582  -2.667   0.318  0.00  0.00    -0.004 A 
ENDROOT
TORSDOF 0
ENDMDL
