MODEL 1
REMARK minimizedAffinity 1.85566914
REMARK minimizedRMSD -1
REMARK  0 active torsions:
REMARK  status: ('A' for Active; 'I' for Inactive)
ROOT
ATOM      1  C   UNL d   1      -3.428   2.086  -5.012  0.00  0.00     0.172 C 
ATOM      2  N   UNL d   1      -2.154   2.134  -4.333  0.00  0.00    -0.070 N 
ATOM      3  C1  UNL d   1      -0.949   2.425  -4.915  0.00  0.00    -0.004 A 
ATOM      4  C2  UNL d   1       0.017   2.369  -3.934  0.00  0.00    -0.047 A 
ATOM      5  C3  UNL d   1      -0.628   2.032  -2.721  0.00  0.00    -0.047 A 
ATOM      6  C4  UNL d   1      -1.972   1.892  -2.997  0.00  0.00    -0.004 A 
ENDROOT
TORSDOF 0
ENDMDL
