MODEL 1
REMARK minimizedAffinity -3.86292243
REMARK minimizedRMSD -1
REMARK  1 active torsions:
REMARK  status: ('A' for Active; 'I' for Inactive)
REMARK    1  A    between atoms: C1_2  and  C2_3 
ROOT
ATOM      1  C2  UNL d   1       0.043  -0.014  -0.986  0.00  0.00    -0.081 A 
ATOM      2  C3  UNL d   1       1.181  -0.047  -0.170  0.00  0.00     0.006 A 
ATOM      3  C4  UNL d   1       1.054  -0.068   1.221  0.00  0.00     0.002 A 
ATOM      4  C5  UNL d   1      -0.211  -0.063   1.819  0.00  0.00    -0.080 A 
ATOM      5  C6  UNL d   1      -0.361  -0.115   3.310  0.00  0.00     0.076 C 
ATOM      6  C7  UNL d   1      -1.347  -0.012   1.004  0.00  0.00     0.002 A 
ATOM      7  C8  UNL d   1      -1.221   0.009  -0.386  0.00  0.00     0.006 A 
ENDROOT
BRANCH   1   8
ATOM      8  C1  UNL d   1       0.175  -0.057  -2.487  0.00  0.00     0.054 C 
ATOM      9  C   UNL d   1       1.599  -0.392  -2.908  0.00  0.00     0.018 C 
ENDBRANCH   1   8
TORSDOF 1
ENDMDL
