MODEL 1
REMARK minimizedAffinity -3.49403834
REMARK minimizedRMSD -1
REMARK  1 active torsions:
REMARK  status: ('A' for Active; 'I' for Inactive)
REMARK    1  A    between atoms: C1_2  and  C2_3 
ROOT
ATOM      1  C2  UNL d   1      -1.195   0.239   1.627  0.00  0.00    -0.081 A 
ATOM      2  C3  UNL d   1      -0.116   0.240   2.519  0.00  0.00     0.006 A 
ATOM      3  C4  UNL d   1       1.139   0.699   2.112  0.00  0.00     0.002 A 
ATOM      4  C5  UNL d   1       1.334   1.172   0.810  0.00  0.00    -0.080 A 
ATOM      5  C6  UNL d   1       2.669   1.696   0.369  0.00  0.00     0.076 C 
ATOM      6  C7  UNL d   1       0.261   1.155  -0.087  0.00  0.00     0.002 A 
ATOM      7  C8  UNL d   1      -0.994   0.695   0.320  0.00  0.00     0.006 A 
ENDROOT
BRANCH   1   8
ATOM      8  C1  UNL d   1      -2.565  -0.194   2.082  0.00  0.00     0.054 C 
ATOM      9  C   UNL d   1      -3.628   0.161   1.052  0.00  0.00     0.018 C 
ENDBRANCH   1   8
TORSDOF 1
ENDMDL
