MODEL 1
REMARK minimizedAffinity -2.0858736
REMARK minimizedRMSD -1
REMARK  1 active torsions:
REMARK  status: ('A' for Active; 'I' for Inactive)
REMARK    1  A    between atoms: C1_2  and  C2_3 
ROOT
ATOM      1  C2  UNL d   1       0.416   0.015  -1.636  0.00  0.00    -0.081 A 
ATOM      2  C3  UNL d   1      -0.709   0.756  -1.255  0.00  0.00     0.006 A 
ATOM      3  C4  UNL d   1      -1.080   0.840   0.089  0.00  0.00     0.002 A 
ATOM      4  C5  UNL d   1      -0.328   0.193   1.075  0.00  0.00    -0.080 A 
ATOM      5  C6  UNL d   1      -0.697   0.300   2.525  0.00  0.00     0.076 C 
ATOM      6  C7  UNL d   1       0.786  -0.562   0.693  0.00  0.00     0.002 A 
ATOM      7  C8  UNL d   1       1.157  -0.648  -0.651  0.00  0.00     0.006 A 
ENDROOT
BRANCH   1   8
ATOM      8  C1  UNL d   1       0.855  -0.026  -3.077  0.00  0.00     0.054 C 
ATOM      9  C   UNL d   1       0.478  -1.346  -3.734  0.00  0.00     0.018 C 
ENDBRANCH   1   8
TORSDOF 1
ENDMDL
