MODEL 1
REMARK minimizedAffinity -3.51405978
REMARK minimizedRMSD -1
REMARK  1 active torsions:
REMARK  status: ('A' for Active; 'I' for Inactive)
REMARK    1  A    between atoms: C1_2  and  C2_3 
ROOT
ATOM      1  C2  UNL d   1       0.019   0.210  -0.341  0.00  0.00    -0.081 A 
ATOM      2  C3  UNL d   1       0.854   0.247   0.782  0.00  0.00     0.006 A 
ATOM      3  C4  UNL d   1       0.352  -0.065   2.048  0.00  0.00     0.002 A 
ATOM      4  C5  UNL d   1      -0.989  -0.426   2.211  0.00  0.00    -0.080 A 
ATOM      5  C6  UNL d   1      -1.533  -0.792   3.560  0.00  0.00     0.076 C 
ATOM      6  C7  UNL d   1      -1.828  -0.445   1.091  0.00  0.00     0.002 A 
ATOM      7  C8  UNL d   1      -1.328  -0.133  -0.175  0.00  0.00     0.006 A 
ENDROOT
BRANCH   1   8
ATOM      8  C1  UNL d   1       0.571   0.483  -1.717  0.00  0.00     0.054 C 
ATOM      9  C   UNL d   1       0.757  -0.806  -2.504  0.00  0.00     0.018 C 
ENDBRANCH   1   8
TORSDOF 1
ENDMDL
