MODEL 1
REMARK minimizedAffinity -4.83210993
REMARK minimizedRMSD -1
REMARK  1 active torsions:
REMARK  status: ('A' for Active; 'I' for Inactive)
REMARK    1  A    between atoms: C1_2  and  C2_3 
ROOT
ATOM      1  C2  UNL d   1       0.302   0.023  -1.161  0.00  0.00    -0.081 A 
ATOM      2  C3  UNL d   1       1.354  -0.016  -0.238  0.00  0.00     0.006 A 
ATOM      3  C4  UNL d   1       1.096  -0.186   1.124  0.00  0.00     0.002 A 
ATOM      4  C5  UNL d   1      -0.217  -0.328   1.585  0.00  0.00    -0.080 A 
ATOM      5  C6  UNL d   1      -0.505  -0.541   3.042  0.00  0.00     0.076 C 
ATOM      6  C7  UNL d   1      -1.270  -0.271   0.666  0.00  0.00     0.002 A 
ATOM      7  C8  UNL d   1      -1.012  -0.100  -0.696  0.00  0.00     0.006 A 
ENDROOT
BRANCH   1   8
ATOM      8  C1  UNL d   1       0.580   0.142  -2.637  0.00  0.00     0.054 C 
ATOM      9  C   UNL d   1       0.598  -1.224  -3.308  0.00  0.00     0.018 C 
ENDBRANCH   1   8
TORSDOF 1
ENDMDL
