MODEL 1
REMARK minimizedAffinity -2.74712348
REMARK minimizedRMSD -1
REMARK  1 active torsions:
REMARK  status: ('A' for Active; 'I' for Inactive)
REMARK    1  A    between atoms: C1_2  and  C2_3 
ROOT
ATOM      1  C2  UNL d   1       0.134  -0.177  -1.581  0.00  0.00    -0.081 A 
ATOM      2  C3  UNL d   1       1.292  -0.300  -0.803  0.00  0.00     0.006 A 
ATOM      3  C4  UNL d   1       1.274   0.042   0.551  0.00  0.00     0.002 A 
ATOM      4  C5  UNL d   1       0.099   0.505   1.152  0.00  0.00    -0.080 A 
ATOM      5  C6  UNL d   1       0.059   0.846   2.612  0.00  0.00     0.076 C 
ATOM      6  C7  UNL d   1      -1.054   0.644   0.371  0.00  0.00     0.002 A 
ATOM      7  C8  UNL d   1      -1.037   0.303  -0.983  0.00  0.00     0.006 A 
ENDROOT
BRANCH   1   8
ATOM      8  C1  UNL d   1       0.132  -0.606  -3.026  0.00  0.00     0.054 C 
ATOM      9  C   UNL d   1       1.523  -1.023  -3.480  0.00  0.00     0.018 C 
ENDBRANCH   1   8
TORSDOF 1
ENDMDL
