MODEL 1
REMARK minimizedAffinity -1.27303076
REMARK minimizedRMSD -1
REMARK  1 active torsions:
REMARK  status: ('A' for Active; 'I' for Inactive)
REMARK    1  A    between atoms: C1_2  and  C2_3 
ROOT
ATOM      1  C2  UNL d   1       0.597  -0.666  -0.418  0.00  0.00    -0.081 A 
ATOM      2  C3  UNL d   1      -0.690  -1.158  -0.171  0.00  0.00     0.006 A 
ATOM      3  C4  UNL d   1      -1.235  -1.104   1.114  0.00  0.00     0.002 A 
ATOM      4  C5  UNL d   1      -0.506  -0.551   2.171  0.00  0.00    -0.080 A 
ATOM      5  C6  UNL d   1      -1.091  -0.459   3.549  0.00  0.00     0.076 C 
ATOM      6  C7  UNL d   1       0.787  -0.075   1.929  0.00  0.00     0.002 A 
ATOM      7  C8  UNL d   1       1.333  -0.129   0.645  0.00  0.00     0.006 A 
ENDROOT
BRANCH   1   8
ATOM      8  C1  UNL d   1       1.163  -0.663  -1.815  0.00  0.00     0.054 C 
ATOM      9  C   UNL d   1       0.441  -1.665  -2.705  0.00  0.00     0.018 C 
ENDBRANCH   1   8
TORSDOF 1
ENDMDL
