MODEL 1
REMARK minimizedAffinity -5.5564003
REMARK minimizedRMSD -1
REMARK  1 active torsions:
REMARK  status: ('A' for Active; 'I' for Inactive)
REMARK    1  A    between atoms: C1_2  and  C2_3 
ROOT
ATOM      1  C2  UNL d   1       0.619  -0.036  -0.833  0.00  0.00    -0.081 A 
ATOM      2  C3  UNL d   1       1.461  -0.282   0.259  0.00  0.00     0.006 A 
ATOM      3  C4  UNL d   1       0.930  -0.443   1.541  0.00  0.00     0.002 A 
ATOM      4  C5  UNL d   1      -0.451  -0.370   1.751  0.00  0.00    -0.080 A 
ATOM      5  C6  UNL d   1      -1.037  -0.572   3.117  0.00  0.00     0.076 C 
ATOM      6  C7  UNL d   1      -1.291  -0.107   0.664  0.00  0.00     0.002 A 
ATOM      7  C8  UNL d   1      -0.761   0.055  -0.618  0.00  0.00     0.006 A 
ENDROOT
BRANCH   1   8
ATOM      8  C1  UNL d   1       1.183   0.075  -2.226  0.00  0.00     0.054 C 
ATOM      9  C   UNL d   1       1.102  -1.255  -2.963  0.00  0.00     0.018 C 
ENDBRANCH   1   8
TORSDOF 1
ENDMDL
