MODEL 1
REMARK minimizedAffinity -2.98737454
REMARK minimizedRMSD -1
REMARK  1 active torsions:
REMARK  status: ('A' for Active; 'I' for Inactive)
REMARK    1  A    between atoms: C1_2  and  C2_3 
ROOT
ATOM      1  C2  UNL d   1       0.398   0.228  -1.236  0.00  0.00    -0.081 A 
ATOM      2  C3  UNL d   1      -0.942   0.491  -0.925  0.00  0.00     0.006 A 
ATOM      3  C4  UNL d   1      -1.354   0.590   0.406  0.00  0.00     0.002 A 
ATOM      4  C5  UNL d   1      -0.433   0.437   1.448  0.00  0.00    -0.080 A 
ATOM      5  C6  UNL d   1      -0.856   0.571   2.880  0.00  0.00     0.076 C 
ATOM      6  C7  UNL d   1       0.903   0.157   1.138  0.00  0.00     0.002 A 
ATOM      7  C8  UNL d   1       1.315   0.057  -0.193  0.00  0.00     0.006 A 
ENDROOT
BRANCH   1   8
ATOM      8  C1  UNL d   1       0.857   0.185  -2.671  0.00  0.00     0.054 C 
ATOM      9  C   UNL d   1       1.120  -1.244  -3.125  0.00  0.00     0.018 C 
ENDBRANCH   1   8
TORSDOF 1
ENDMDL
