MODEL 1
REMARK minimizedAffinity -3.38945031
REMARK minimizedRMSD -1
REMARK  1 active torsions:
REMARK  status: ('A' for Active; 'I' for Inactive)
REMARK    1  A    between atoms: C1_2  and  C2_3 
ROOT
ATOM      1  C2  UNL d   1       0.307   0.133  -1.169  0.00  0.00    -0.081 A 
ATOM      2  C3  UNL d   1       1.227   0.317  -0.129  0.00  0.00     0.006 A 
ATOM      3  C4  UNL d   1       0.848   0.103   1.198  0.00  0.00     0.002 A 
ATOM      4  C5  UNL d   1      -0.454  -0.305   1.507  0.00  0.00    -0.080 A 
ATOM      5  C6  UNL d   1      -0.865  -0.567   2.926  0.00  0.00     0.076 C 
ATOM      6  C7  UNL d   1      -1.378  -0.471   0.471  0.00  0.00     0.002 A 
ATOM      7  C8  UNL d   1      -1.000  -0.257  -0.857  0.00  0.00     0.006 A 
ENDROOT
BRANCH   1   8
ATOM      8  C1  UNL d   1       0.730   0.301  -2.606  0.00  0.00     0.054 C 
ATOM      9  C   UNL d   1       1.195  -1.020  -3.203  0.00  0.00     0.018 C 
ENDBRANCH   1   8
TORSDOF 1
ENDMDL
