MODEL 1
REMARK minimizedAffinity -0.779821396
REMARK minimizedRMSD -1
REMARK  1 active torsions:
REMARK  status: ('A' for Active; 'I' for Inactive)
REMARK    1  A    between atoms: C1_2  and  C2_3 
ROOT
ATOM      1  C2  UNL d   1       0.498  -0.263  -1.595  0.00  0.00    -0.081 A 
ATOM      2  C3  UNL d   1       1.669  -0.327  -0.830  0.00  0.00     0.006 A 
ATOM      3  C4  UNL d   1       1.634  -0.069   0.542  0.00  0.00     0.002 A 
ATOM      4  C5  UNL d   1       0.427   0.249   1.174  0.00  0.00    -0.080 A 
ATOM      5  C6  UNL d   1       0.370   0.499   2.652  0.00  0.00     0.076 C 
ATOM      6  C7  UNL d   1      -0.740   0.331   0.407  0.00  0.00     0.002 A 
ATOM      7  C8  UNL d   1      -0.706   0.074  -0.965  0.00  0.00     0.006 A 
ENDROOT
BRANCH   1   8
ATOM      8  C1  UNL d   1       0.521  -0.604  -3.063  0.00  0.00     0.054 C 
ATOM      9  C   UNL d   1       1.944  -0.627  -3.603  0.00  0.00     0.018 C 
ENDBRANCH   1   8
TORSDOF 1
ENDMDL
