MODEL 1
REMARK minimizedAffinity -4.91855526
REMARK minimizedRMSD -1
REMARK  1 active torsions:
REMARK  status: ('A' for Active; 'I' for Inactive)
REMARK    1  A    between atoms: C1_2  and  C2_3 
ROOT
ATOM      1  C2  UNL d   1       0.249  -0.165  -1.252  0.00  0.00    -0.081 A 
ATOM      2  C3  UNL d   1      -0.589  -1.003  -0.507  0.00  0.00     0.006 A 
ATOM      3  C4  UNL d   1      -0.658  -0.881   0.883  0.00  0.00     0.002 A 
ATOM      4  C5  UNL d   1       0.104   0.085   1.549  0.00  0.00    -0.080 A 
ATOM      5  C6  UNL d   1       0.016   0.246   3.038  0.00  0.00     0.076 C 
ATOM      6  C7  UNL d   1       0.954   0.910   0.807  0.00  0.00     0.002 A 
ATOM      7  C8  UNL d   1       1.024   0.788  -0.583  0.00  0.00     0.006 A 
ENDROOT
BRANCH   1   8
ATOM      8  C1  UNL d   1       0.277  -0.251  -2.757  0.00  0.00     0.054 C 
ATOM      9  C   UNL d   1       0.460  -1.687  -3.226  0.00  0.00     0.018 C 
ENDBRANCH   1   8
TORSDOF 1
ENDMDL
