MODEL 1
REMARK minimizedAffinity -5.70752525
REMARK minimizedRMSD -1
REMARK  0 active torsions:
REMARK  status: ('A' for Active; 'I' for Inactive)
ROOT
ATOM      1  N1  IND d   1       0.393   0.028  -0.673  0.00  0.00    -0.196 N 
ATOM      2  C2  IND d   1      -0.742   0.414  -0.017  0.00  0.00     0.054 A 
ATOM      3  C3  IND d   1      -0.665   0.081   1.291  0.00  0.00    -0.031 A 
ATOM      4  C4  IND d   1       1.272  -1.008   2.591  0.00  0.00     0.051 A 
ATOM      5  C5  IND d   1       2.504  -1.573   2.414  0.00  0.00    -0.031 A 
ATOM      6  C6  IND d   1       3.109  -1.631   1.175  0.00  0.00     0.015 A 
ATOM      7  C7  IND d   1       2.506  -1.115   0.063  0.00  0.00    -0.016 A 
ATOM      8  C8  IND d   1       1.252  -0.547   0.237  0.00  0.00    -0.047 A 
ATOM      9  C9  IND d   1       0.615  -0.523   1.485  0.00  0.00    -0.096 A 
ATOM     10  HN1 IND d   1       0.545   0.128  -1.514  0.00  0.00     0.298 HD
ENDROOT
TORSDOF 0
ENDMDL
