MODEL 1
REMARK minimizedAffinity -4.23067904
REMARK minimizedRMSD -1
REMARK  0 active torsions:
REMARK  status: ('A' for Active; 'I' for Inactive)
ROOT
ATOM      1  N1  IND d   1       0.790  -0.850  -2.084  0.00  0.00    -0.196 N 
ATOM      2  C2  IND d   1      -0.398  -0.218  -2.323  0.00  0.00     0.054 A 
ATOM      3  C3  IND d   1      -0.852   0.374  -1.196  0.00  0.00    -0.031 A 
ATOM      4  C4  IND d   1       0.244   0.519   1.129  0.00  0.00     0.051 A 
ATOM      5  C5  IND d   1       1.316   0.066   1.845  0.00  0.00    -0.031 A 
ATOM      6  C6  IND d   1       2.289  -0.730   1.276  0.00  0.00     0.015 A 
ATOM      7  C7  IND d   1       2.231  -1.094  -0.040  0.00  0.00    -0.016 A 
ATOM      8  C8  IND d   1       1.140  -0.641  -0.768  0.00  0.00    -0.047 A 
ATOM      9  C9  IND d   1       0.128   0.131  -0.184  0.00  0.00    -0.096 A 
ATOM     10  HN1 IND d   1       1.242  -1.302  -2.658  0.00  0.00     0.298 HD
ENDROOT
TORSDOF 0
ENDMDL
