MODEL 1
REMARK minimizedAffinity -2.22003055
REMARK minimizedRMSD -1
REMARK  0 active torsions:
REMARK  status: ('A' for Active; 'I' for Inactive)
ROOT
ATOM      1  N1  IND d   1       2.479  -0.191   0.073  0.00  0.00    -0.196 N 
ATOM      2  C2  IND d   1       2.600  -0.178   1.435  0.00  0.00     0.054 A 
ATOM      3  C3  IND d   1       1.379  -0.204   2.015  0.00  0.00    -0.031 A 
ATOM      4  C4  IND d   1      -0.947  -0.373   0.925  0.00  0.00     0.051 A 
ATOM      5  C5  IND d   1      -1.568  -0.375  -0.292  0.00  0.00    -0.031 A 
ATOM      6  C6  IND d   1      -0.858  -0.317  -1.474  0.00  0.00     0.015 A 
ATOM      7  C7  IND d   1       0.507  -0.267  -1.482  0.00  0.00    -0.016 A 
ATOM      8  C8  IND d   1       1.141  -0.257  -0.248  0.00  0.00    -0.047 A 
ATOM      9  C9  IND d   1       0.424  -0.273   0.955  0.00  0.00    -0.096 A 
ATOM     10  HN1 IND d   1       3.130  -0.162  -0.488  0.00  0.00     0.298 HD
ENDROOT
TORSDOF 0
ENDMDL
