MODEL 1
REMARK minimizedAffinity -3.33747339
REMARK minimizedRMSD -1
REMARK  0 active torsions:
REMARK  status: ('A' for Active; 'I' for Inactive)
ROOT
ATOM      1  N1  IND d   1       0.246   1.415  -0.510  0.00  0.00    -0.196 N 
ATOM      2  C2  IND d   1      -0.413   0.683  -1.458  0.00  0.00     0.054 A 
ATOM      3  C3  IND d   1      -0.587  -0.589  -1.032  0.00  0.00    -0.031 A 
ATOM      4  C4  IND d   1       0.040  -1.659   1.224  0.00  0.00     0.051 A 
ATOM      5  C5  IND d   1       0.691  -1.397   2.396  0.00  0.00    -0.031 A 
ATOM      6  C6  IND d   1       1.236  -0.159   2.667  0.00  0.00     0.015 A 
ATOM      7  C7  IND d   1       1.139   0.872   1.775  0.00  0.00    -0.016 A 
ATOM      8  C8  IND d   1       0.485   0.608   0.580  0.00  0.00    -0.047 A 
ATOM      9  C9  IND d   1      -0.033  -0.659   0.283  0.00  0.00    -0.096 A 
ATOM     10  HN1 IND d   1       0.472   2.241  -0.583  0.00  0.00     0.298 HD
ENDROOT
TORSDOF 0
ENDMDL
