MODEL 1
REMARK minimizedAffinity -5.71855116
REMARK minimizedRMSD -1
REMARK  0 active torsions:
REMARK  status: ('A' for Active; 'I' for Inactive)
ROOT
ATOM      1  N1  IND d   1       0.252  -0.823  -1.022  0.00  0.00    -0.196 N 
ATOM      2  C2  IND d   1      -0.785  -0.008  -0.661  0.00  0.00     0.054 A 
ATOM      3  C3  IND d   1      -0.817   0.146   0.681  0.00  0.00    -0.031 A 
ATOM      4  C4  IND d   1       0.793  -0.766   2.471  0.00  0.00     0.051 A 
ATOM      5  C5  IND d   1       1.871  -1.590   2.631  0.00  0.00    -0.031 A 
ATOM      6  C6  IND d   1       2.479  -2.211   1.559  0.00  0.00     0.015 A 
ATOM      7  C7  IND d   1       2.036  -2.021   0.281  0.00  0.00    -0.016 A 
ATOM      8  C8  IND d   1       0.937  -1.191   0.116  0.00  0.00    -0.047 A 
ATOM      9  C9  IND d   1       0.290  -0.591   1.204  0.00  0.00    -0.096 A 
ATOM     10  HN1 IND d   1       0.444  -1.066  -1.824  0.00  0.00     0.298 HD
ENDROOT
TORSDOF 0
ENDMDL
