MODEL 1
REMARK minimizedAffinity -4.29719782
REMARK minimizedRMSD -1
REMARK  0 active torsions:
REMARK  status: ('A' for Active; 'I' for Inactive)
ROOT
ATOM      1  N1  IND d   1       0.299  -0.662  -0.884  0.00  0.00    -0.196 N 
ATOM      2  C2  IND d   1      -0.781  -0.073  -0.286  0.00  0.00     0.054 A 
ATOM      3  C3  IND d   1      -0.825  -0.394   1.026  0.00  0.00    -0.031 A 
ATOM      4  C4  IND d   1       0.826  -1.787   2.426  0.00  0.00     0.051 A 
ATOM      5  C5  IND d   1       1.946  -2.562   2.314  0.00  0.00    -0.031 A 
ATOM      6  C6  IND d   1       2.589  -2.745   1.107  0.00  0.00     0.015 A 
ATOM      7  C7  IND d   1       2.140  -2.147  -0.037  0.00  0.00    -0.016 A 
ATOM      8  C8  IND d   1       0.999  -1.365   0.072  0.00  0.00    -0.047 A 
ATOM      9  C9  IND d   1       0.318  -1.211   1.286  0.00  0.00    -0.096 A 
ATOM     10  HN1 IND d   1       0.505  -0.603  -1.716  0.00  0.00     0.298 HD
ENDROOT
TORSDOF 0
ENDMDL
