MODEL 1
REMARK minimizedAffinity 9.7135067
REMARK minimizedRMSD -1
REMARK  0 active torsions:
REMARK  status: ('A' for Active; 'I' for Inactive)
ROOT
ATOM      1  C   UNL d   1      -2.788   0.037   2.286  0.00  0.00    -0.002 A 
ATOM      2  C1  UNL d   1      -2.281   1.307   2.517  0.00  0.00     0.010 A 
ATOM      3  C2  UNL d   1      -0.986   1.476   3.011  0.00  0.00     0.041 A 
ATOM      4  C3  UNL d   1      -0.200   0.335   3.268  0.00  0.00    -0.075 A 
ATOM      5  S   UNL d   1       1.414   0.299   3.873  0.00  0.00     0.015 SA
ATOM      6  C4  UNL d   1       1.468  -1.404   3.837  0.00  0.00     0.022 A 
ATOM      7  C5  UNL d   1       0.292  -1.948   3.378  0.00  0.00     0.026 A 
ATOM      8  C6  UNL d   1      -0.689  -0.955   3.041  0.00  0.00    -0.082 A 
ATOM      9  C7  UNL d   1      -2.006  -1.093   2.542  0.00  0.00     0.045 A 
ENDROOT
TORSDOF 0
ENDMDL
