MODEL 1
REMARK minimizedAffinity 14.8402824
REMARK minimizedRMSD -1
REMARK  0 active torsions:
REMARK  status: ('A' for Active; 'I' for Inactive)
ROOT
ATOM      1  C   UNL d   1       0.546  -0.063   2.246  0.00  0.00    -0.002 A 
ATOM      2  C1  UNL d   1       1.631   0.635   2.756  0.00  0.00     0.010 A 
ATOM      3  C2  UNL d   1       2.359   0.128   3.833  0.00  0.00     0.041 A 
ATOM      4  C3  UNL d   1       1.976  -1.107   4.394  0.00  0.00    -0.075 A 
ATOM      5  S   UNL d   1       2.721  -1.923   5.718  0.00  0.00     0.015 SA
ATOM      6  C4  UNL d   1       1.617  -3.219   5.636  0.00  0.00     0.022 A 
ATOM      7  C5  UNL d   1       0.695  -3.049   4.630  0.00  0.00     0.026 A 
ATOM      8  C6  UNL d   1       0.888  -1.829   3.897  0.00  0.00    -0.082 A 
ATOM      9  C7  UNL d   1       0.169  -1.287   2.805  0.00  0.00     0.045 A 
ENDROOT
TORSDOF 0
ENDMDL
