MODEL 1
REMARK minimizedAffinity 21.5492001
REMARK minimizedRMSD -1
REMARK  0 active torsions:
REMARK  status: ('A' for Active; 'I' for Inactive)
ROOT
ATOM      1  C   UNL d   1       0.376  -0.844  -3.742  0.00  0.00    -0.002 A 
ATOM      2  C1  UNL d   1      -0.810  -1.083  -3.062  0.00  0.00     0.010 A 
ATOM      3  C2  UNL d   1      -1.579  -2.212  -3.351  0.00  0.00     0.041 A 
ATOM      4  C3  UNL d   1      -1.131  -3.107  -4.343  0.00  0.00    -0.075 A 
ATOM      5  S   UNL d   1      -1.908  -4.556  -4.863  0.00  0.00     0.015 SA
ATOM      6  C4  UNL d   1      -0.683  -4.892  -6.000  0.00  0.00     0.022 A 
ATOM      7  C5  UNL d   1       0.302  -3.933  -5.996  0.00  0.00     0.026 A 
ATOM      8  C6  UNL d   1       0.060  -2.888  -5.040  0.00  0.00    -0.082 A 
ATOM      9  C7  UNL d   1       0.817  -1.734  -4.725  0.00  0.00     0.045 A 
ENDROOT
TORSDOF 0
ENDMDL
