MODEL 1
REMARK minimizedAffinity 15.5391216
REMARK minimizedRMSD -1
REMARK  0 active torsions:
REMARK  status: ('A' for Active; 'I' for Inactive)
ROOT
ATOM      1  C   UNL d   1       1.387   0.156   2.711  0.00  0.00    -0.002 A 
ATOM      2  C1  UNL d   1       1.442  -1.179   3.086  0.00  0.00     0.010 A 
ATOM      3  C2  UNL d   1       0.269  -1.914   3.269  0.00  0.00     0.041 A 
ATOM      4  C3  UNL d   1      -0.972  -1.279   3.065  0.00  0.00    -0.075 A 
ATOM      5  S   UNL d   1      -2.538  -1.981   3.230  0.00  0.00     0.015 SA
ATOM      6  C4  UNL d   1      -3.317  -0.526   2.805  0.00  0.00     0.022 A 
ATOM      7  C5  UNL d   1      -2.419   0.481   2.542  0.00  0.00     0.026 A 
ATOM      8  C6  UNL d   1      -1.053   0.064   2.686  0.00  0.00    -0.082 A 
ATOM      9  C7  UNL d   1       0.154   0.783   2.510  0.00  0.00     0.045 A 
ENDROOT
TORSDOF 0
ENDMDL
