MODEL 1
REMARK minimizedAffinity 16.1499271
REMARK minimizedRMSD -1
REMARK  0 active torsions:
REMARK  status: ('A' for Active; 'I' for Inactive)
ROOT
ATOM      1  C   UNL d   1       1.981   2.178   1.827  0.00  0.00     0.124 A 
ATOM      2  C1  UNL d   1       2.919   3.163   1.550  0.00  0.00     0.062 A 
ATOM      3  C2  UNL d   1       4.068   2.852   0.828  0.00  0.00     0.162 A 
ATOM      4  C3  UNL d   1       4.284   1.550   0.376  0.00  0.00    -0.034 A 
ATOM      5  C4  UNL d   1       3.336   0.565   0.659  0.00  0.00     0.162 A 
ATOM      6  C5  UNL d   1       2.190   0.881   1.381  0.00  0.00     0.062 A 
ATOM      7  F   UNL d   1       1.284  -0.072   1.648  0.00  0.00    -0.097 F 
ATOM      8  F1  UNL d   1       3.512  -0.697   0.240  0.00  0.00    -0.096 F 
ATOM      9  I   UNL d   1       6.000   1.080  -0.704  0.00  0.00    -0.060 I 
ATOM     10  F2  UNL d   1       4.958   3.823   0.575  0.00  0.00    -0.096 F 
ATOM     11  F3  UNL d   1       2.720   4.417   1.980  0.00  0.00    -0.097 F 
ATOM     12  F4  UNL d   1       0.877   2.480   2.523  0.00  0.00    -0.092 F 
ENDROOT
TORSDOF 0
ENDMDL
