MODEL 1
REMARK minimizedAffinity 21.0913391
REMARK minimizedRMSD -1
REMARK  0 active torsions:
REMARK  status: ('A' for Active; 'I' for Inactive)
ROOT
ATOM      1  C   UNL d   1      -3.787  -4.489  -1.617  0.00  0.00     0.124 A 
ATOM      2  C1  UNL d   1      -3.421  -3.259  -2.148  0.00  0.00     0.062 A 
ATOM      3  C2  UNL d   1      -2.741  -2.332  -1.363  0.00  0.00     0.162 A 
ATOM      4  C3  UNL d   1      -2.420  -2.632  -0.039  0.00  0.00    -0.034 A 
ATOM      5  C4  UNL d   1      -2.792  -3.870   0.488  0.00  0.00     0.162 A 
ATOM      6  C5  UNL d   1      -3.471  -4.793  -0.301  0.00  0.00     0.062 A 
ATOM      7  F   UNL d   1      -3.824  -5.980   0.214  0.00  0.00    -0.097 F 
ATOM      8  F1  UNL d   1      -2.499  -4.191   1.757  0.00  0.00    -0.096 F 
ATOM      9  I   UNL d   1      -1.403  -1.249   1.137  0.00  0.00    -0.060 I 
ATOM     10  F2  UNL d   1      -2.401  -1.152  -1.902  0.00  0.00    -0.096 F 
ATOM     11  F3  UNL d   1      -3.726  -2.962  -3.420  0.00  0.00    -0.097 F 
ATOM     12  F4  UNL d   1      -4.442  -5.378  -2.374  0.00  0.00    -0.092 F 
ENDROOT
TORSDOF 0
ENDMDL
