MODEL 1
REMARK minimizedAffinity 23.4287128
REMARK minimizedRMSD -1
REMARK  0 active torsions:
REMARK  status: ('A' for Active; 'I' for Inactive)
ROOT
ATOM      1  C   UNL d   1       2.459  -0.003   3.548  0.00  0.00     0.124 A 
ATOM      2  C1  UNL d   1       1.599   0.716   2.729  0.00  0.00     0.062 A 
ATOM      3  C2  UNL d   1       1.942   0.967   1.404  0.00  0.00     0.162 A 
ATOM      4  C3  UNL d   1       3.151   0.499   0.889  0.00  0.00    -0.034 A 
ATOM      5  C4  UNL d   1       4.011  -0.222   1.719  0.00  0.00     0.162 A 
ATOM      6  C5  UNL d   1       3.663  -0.471   3.043  0.00  0.00     0.062 A 
ATOM      7  F   UNL d   1       4.495  -1.165   3.833  0.00  0.00    -0.097 F 
ATOM      8  F1  UNL d   1       5.180  -0.687   1.256  0.00  0.00    -0.096 F 
ATOM      9  I   UNL d   1       3.667   0.872  -1.093  0.00  0.00    -0.060 I 
ATOM     10  F2  UNL d   1       1.092   1.664   0.635  0.00  0.00    -0.096 F 
ATOM     11  F3  UNL d   1       0.435   1.170   3.215  0.00  0.00    -0.097 F 
ATOM     12  F4  UNL d   1       2.127  -0.242   4.824  0.00  0.00    -0.092 F 
ENDROOT
TORSDOF 0
ENDMDL
