MODEL 1
REMARK minimizedAffinity 23.4587593
REMARK minimizedRMSD -1
REMARK  0 active torsions:
REMARK  status: ('A' for Active; 'I' for Inactive)
ROOT
ATOM      1  C   UNL d   1       3.378   0.201   1.753  0.00  0.00     0.124 A 
ATOM      2  C1  UNL d   1       2.254   0.935   1.398  0.00  0.00     0.062 A 
ATOM      3  C2  UNL d   1       2.230   1.640   0.198  0.00  0.00     0.162 A 
ATOM      4  C3  UNL d   1       3.332   1.615  -0.656  0.00  0.00    -0.034 A 
ATOM      5  C4  UNL d   1       4.459   0.876  -0.291  0.00  0.00     0.162 A 
ATOM      6  C5  UNL d   1       4.479   0.173   0.909  0.00  0.00     0.062 A 
ATOM      7  F   UNL d   1       5.565  -0.535   1.251  0.00  0.00    -0.097 F 
ATOM      8  F1  UNL d   1       5.536   0.830  -1.089  0.00  0.00    -0.096 F 
ATOM      9  I   UNL d   1       3.299   2.668  -2.451  0.00  0.00    -0.060 I 
ATOM     10  F2  UNL d   1       1.130   2.340  -0.120  0.00  0.00    -0.096 F 
ATOM     11  F3  UNL d   1       1.190   0.965   2.212  0.00  0.00    -0.097 F 
ATOM     12  F4  UNL d   1       3.400  -0.476   2.909  0.00  0.00    -0.092 F 
ENDROOT
TORSDOF 0
ENDMDL
