MODEL 1
REMARK minimizedAffinity 14.2616491
REMARK minimizedRMSD -1
REMARK  0 active torsions:
REMARK  status: ('A' for Active; 'I' for Inactive)
ROOT
ATOM      1  C   UNL d   1      -4.997   2.540   2.490  0.00  0.00     0.124 A 
ATOM      2  C1  UNL d   1      -5.313   2.977   3.769  0.00  0.00     0.062 A 
ATOM      3  C2  UNL d   1      -5.600   2.056   4.773  0.00  0.00     0.162 A 
ATOM      4  C3  UNL d   1      -5.571   0.688   4.502  0.00  0.00    -0.034 A 
ATOM      5  C4  UNL d   1      -5.254   0.256   3.213  0.00  0.00     0.162 A 
ATOM      6  C5  UNL d   1      -4.968   1.180   2.213  0.00  0.00     0.062 A 
ATOM      7  F   UNL d   1      -4.663   0.756   0.978  0.00  0.00    -0.097 F 
ATOM      8  F1  UNL d   1      -5.217  -1.052   2.918  0.00  0.00    -0.096 F 
ATOM      9  I   UNL d   1      -5.999  -0.692   6.000  0.00  0.00    -0.060 I 
ATOM     10  F2  UNL d   1      -5.902   2.507   5.999  0.00  0.00    -0.096 F 
ATOM     11  F3  UNL d   1      -5.343   4.290   4.039  0.00  0.00    -0.097 F 
ATOM     12  F4  UNL d   1      -4.723   3.428   1.526  0.00  0.00    -0.092 F 
ENDROOT
TORSDOF 0
ENDMDL
