MODEL 1
REMARK minimizedAffinity 28.6703854
REMARK minimizedRMSD -1
REMARK  0 active torsions:
REMARK  status: ('A' for Active; 'I' for Inactive)
ROOT
ATOM      1  C   UNL d   1      -2.978   2.143   3.452  0.00  0.00     0.124 A 
ATOM      2  C1  UNL d   1      -4.120   2.412   2.711  0.00  0.00     0.062 A 
ATOM      3  C2  UNL d   1      -4.101   3.398   1.728  0.00  0.00     0.162 A 
ATOM      4  C3  UNL d   1      -2.935   4.122   1.481  0.00  0.00    -0.034 A 
ATOM      5  C4  UNL d   1      -1.790   3.847   2.232  0.00  0.00     0.162 A 
ATOM      6  C5  UNL d   1      -1.815   2.860   3.213  0.00  0.00     0.062 A 
ATOM      7  F   UNL d   1      -0.711   2.602   3.928  0.00  0.00    -0.097 F 
ATOM      8  F1  UNL d   1      -0.652   4.524   2.020  0.00  0.00    -0.096 F 
ATOM      9  I   UNL d   1      -2.902   5.597   0.013  0.00  0.00    -0.060 I 
ATOM     10  F2  UNL d   1      -5.219   3.636   1.027  0.00  0.00    -0.096 F 
ATOM     11  F3  UNL d   1      -5.246   1.721   2.941  0.00  0.00    -0.097 F 
ATOM     12  F4  UNL d   1      -3.000   1.194   4.398  0.00  0.00    -0.092 F 
ENDROOT
TORSDOF 0
ENDMDL
