MODEL 1
REMARK minimizedAffinity 16.7347622
REMARK minimizedRMSD -1
REMARK  0 active torsions:
REMARK  status: ('A' for Active; 'I' for Inactive)
ROOT
ATOM      1  C   UNL d   1       0.433   2.716  -0.224  0.00  0.00     0.124 A 
ATOM      2  C1  UNL d   1      -0.372   2.662  -1.354  0.00  0.00     0.062 A 
ATOM      3  C2  UNL d   1      -1.536   3.421  -1.421  0.00  0.00     0.162 A 
ATOM      4  C3  UNL d   1      -1.904   4.241  -0.355  0.00  0.00    -0.034 A 
ATOM      5  C4  UNL d   1      -1.091   4.290   0.779  0.00  0.00     0.162 A 
ATOM      6  C5  UNL d   1       0.073   3.529   0.841  0.00  0.00     0.062 A 
ATOM      7  F   UNL d   1       0.848   3.583   1.933  0.00  0.00    -0.097 F 
ATOM      8  F1  UNL d   1      -1.414   5.068   1.822  0.00  0.00    -0.096 F 
ATOM      9  I   UNL d   1      -3.645   5.377  -0.451  0.00  0.00    -0.060 I 
ATOM     10  F2  UNL d   1      -2.295   3.349  -2.525  0.00  0.00    -0.096 F 
ATOM     11  F3  UNL d   1      -0.026   1.876  -2.384  0.00  0.00    -0.097 F 
ATOM     12  F4  UNL d   1       1.553   1.984  -0.162  0.00  0.00    -0.092 F 
ENDROOT
TORSDOF 0
ENDMDL
