MODEL 1
REMARK minimizedAffinity 29.6979084
REMARK minimizedRMSD -1
REMARK  0 active torsions:
REMARK  status: ('A' for Active; 'I' for Inactive)
ROOT
ATOM      1  C   UNL d   1       1.420   1.039   2.977  0.00  0.00     0.124 A 
ATOM      2  C1  UNL d   1       0.777   2.115   2.379  0.00  0.00     0.062 A 
ATOM      3  C2  UNL d   1      -0.577   2.337   2.610  0.00  0.00     0.162 A 
ATOM      4  C3  UNL d   1      -1.299   1.482   3.443  0.00  0.00    -0.034 A 
ATOM      5  C4  UNL d   1      -0.646   0.402   4.040  0.00  0.00     0.162 A 
ATOM      6  C5  UNL d   1       0.708   0.184   3.807  0.00  0.00     0.062 A 
ATOM      7  F   UNL d   1       1.327  -0.855   4.385  0.00  0.00    -0.097 F 
ATOM      8  F1  UNL d   1      -1.309  -0.439   4.847  0.00  0.00    -0.096 F 
ATOM      9  I   UNL d   1      -3.324   1.810   3.790  0.00  0.00    -0.060 I 
ATOM     10  F2  UNL d   1      -1.173   3.383   2.019  0.00  0.00    -0.096 F 
ATOM     11  F3  UNL d   1       1.463   2.942   1.577  0.00  0.00    -0.097 F 
ATOM     12  F4  UNL d   1       2.723   0.828   2.753  0.00  0.00    -0.092 F 
ENDROOT
TORSDOF 0
ENDMDL
