MODEL 1
REMARK minimizedAffinity 33.7221451
REMARK minimizedRMSD -1
REMARK  0 active torsions:
REMARK  status: ('A' for Active; 'I' for Inactive)
ROOT
ATOM      1  C   UNL d   1       2.951   4.753   0.394  0.00  0.00     0.124 A 
ATOM      2  C1  UNL d   1       3.059   3.807  -0.617  0.00  0.00     0.062 A 
ATOM      3  C2  UNL d   1       2.598   2.510  -0.414  0.00  0.00     0.162 A 
ATOM      4  C3  UNL d   1       2.023   2.150   0.805  0.00  0.00    -0.034 A 
ATOM      5  C4  UNL d   1       1.918   3.106   1.817  0.00  0.00     0.162 A 
ATOM      6  C5  UNL d   1       2.381   4.401   1.609  0.00  0.00     0.062 A 
ATOM      7  F   UNL d   1       2.275   5.313   2.587  0.00  0.00    -0.097 F 
ATOM      8  F1  UNL d   1       1.370   2.793   3.001  0.00  0.00    -0.096 F 
ATOM      9  I   UNL d   1       1.332   0.211   1.112  0.00  0.00    -0.060 I 
ATOM     10  F2  UNL d   1       2.715   1.617  -1.408  0.00  0.00    -0.096 F 
ATOM     11  F3  UNL d   1       3.611   4.144  -1.791  0.00  0.00    -0.097 F 
ATOM     12  F4  UNL d   1       3.397   6.000   0.197  0.00  0.00    -0.092 F 
ENDROOT
TORSDOF 0
ENDMDL
