MODEL 1
REMARK minimizedAffinity 29.1748371
REMARK minimizedRMSD -1
REMARK  0 active torsions:
REMARK  status: ('A' for Active; 'I' for Inactive)
ROOT
ATOM      1  C   UNL d   1       0.133   3.788   2.159  0.00  0.00     0.124 A 
ATOM      2  C1  UNL d   1      -0.598   2.768   2.752  0.00  0.00     0.062 A 
ATOM      3  C2  UNL d   1       0.047   1.630   3.228  0.00  0.00     0.162 A 
ATOM      4  C3  UNL d   1       1.431   1.505   3.112  0.00  0.00    -0.034 A 
ATOM      5  C4  UNL d   1       2.159   2.535   2.513  0.00  0.00     0.162 A 
ATOM      6  C5  UNL d   1       1.510   3.670   2.040  0.00  0.00     0.062 A 
ATOM      7  F   UNL d   1       2.218   4.654   1.466  0.00  0.00    -0.097 F 
ATOM      8  F1  UNL d   1       3.492   2.447   2.386  0.00  0.00    -0.096 F 
ATOM      9  I   UNL d   1       2.399  -0.195   3.822  0.00  0.00    -0.060 I 
ATOM     10  F2  UNL d   1      -0.685   0.660   3.797  0.00  0.00    -0.096 F 
ATOM     11  F3  UNL d   1      -1.929   2.879   2.868  0.00  0.00    -0.097 F 
ATOM     12  F4  UNL d   1      -0.490   4.881   1.701  0.00  0.00    -0.092 F 
ENDROOT
TORSDOF 0
ENDMDL
