MODEL 1
REMARK minimizedAffinity 36.7330132
REMARK minimizedRMSD -1
REMARK  0 active torsions:
REMARK  status: ('A' for Active; 'I' for Inactive)
ROOT
ATOM      1  C   UNL d   1      -3.513   0.050   3.026  0.00  0.00     0.124 A 
ATOM      2  C1  UNL d   1      -2.792  -1.049   2.579  0.00  0.00     0.062 A 
ATOM      3  C2  UNL d   1      -1.400  -1.018   2.574  0.00  0.00     0.162 A 
ATOM      4  C3  UNL d   1      -0.720   0.116   3.017  0.00  0.00    -0.034 A 
ATOM      5  C4  UNL d   1      -1.452   1.218   3.464  0.00  0.00     0.162 A 
ATOM      6  C5  UNL d   1      -2.843   1.182   3.467  0.00  0.00     0.062 A 
ATOM      7  F   UNL d   1      -3.537   2.244   3.899  0.00  0.00    -0.097 F 
ATOM      8  F1  UNL d   1      -0.830   2.324   3.897  0.00  0.00    -0.096 F 
ATOM      9  I   UNL d   1       1.361   0.166   3.011  0.00  0.00    -0.060 I 
ATOM     10  F2  UNL d   1      -0.730  -2.094   2.137  0.00  0.00    -0.096 F 
ATOM     11  F3  UNL d   1      -3.437  -2.144   2.151  0.00  0.00    -0.097 F 
ATOM     12  F4  UNL d   1      -4.852   0.018   3.029  0.00  0.00    -0.092 F 
ENDROOT
TORSDOF 0
ENDMDL
