MODEL 1
REMARK minimizedAffinity 27.9114342
REMARK minimizedRMSD -1
REMARK  0 active torsions:
REMARK  status: ('A' for Active; 'I' for Inactive)
ROOT
ATOM      1  C   UNL d   1      -2.416   4.895  -0.584  0.00  0.00     0.124 A 
ATOM      2  C1  UNL d   1      -1.739   5.117   0.607  0.00  0.00     0.062 A 
ATOM      3  C2  UNL d   1      -0.561   4.428   0.882  0.00  0.00     0.162 A 
ATOM      4  C3  UNL d   1      -0.052   3.510  -0.036  0.00  0.00    -0.034 A 
ATOM      5  C4  UNL d   1      -0.739   3.291  -1.232  0.00  0.00     0.162 A 
ATOM      6  C5  UNL d   1      -1.916   3.982  -1.502  0.00  0.00     0.062 A 
ATOM      7  F   UNL d   1      -2.568   3.766  -2.653  0.00  0.00    -0.097 F 
ATOM      8  F1  UNL d   1      -0.278   2.415  -2.137  0.00  0.00    -0.096 F 
ATOM      9  I   UNL d   1       1.708   2.477   0.372  0.00  0.00    -0.060 I 
ATOM     10  F2  UNL d   1       0.072   4.663   2.041  0.00  0.00    -0.096 F 
ATOM     11  F3  UNL d   1      -2.220   5.998   1.496  0.00  0.00    -0.097 F 
ATOM     12  F4  UNL d   1      -3.549   5.559  -0.846  0.00  0.00    -0.092 F 
ENDROOT
TORSDOF 0
ENDMDL
