MODEL 1
REMARK minimizedAffinity 40.5723419
REMARK minimizedRMSD -1
REMARK  0 active torsions:
REMARK  status: ('A' for Active; 'I' for Inactive)
ROOT
ATOM      1  C   UNL d   1      -3.185  -2.884  -3.766  0.00  0.00     0.124 A 
ATOM      2  C1  UNL d   1      -2.306  -2.411  -4.731  0.00  0.00     0.062 A 
ATOM      3  C2  UNL d   1      -1.172  -3.145  -5.064  0.00  0.00     0.162 A 
ATOM      4  C3  UNL d   1      -0.910  -4.361  -4.432  0.00  0.00    -0.034 A 
ATOM      5  C4  UNL d   1      -1.798  -4.829  -3.462  0.00  0.00     0.162 A 
ATOM      6  C5  UNL d   1      -2.930  -4.092  -3.133  0.00  0.00     0.062 A 
ATOM      7  F   UNL d   1      -3.779  -4.550  -2.201  0.00  0.00    -0.097 F 
ATOM      8  F1  UNL d   1      -1.576  -5.994  -2.835  0.00  0.00    -0.096 F 
ATOM      9  I   UNL d   1       0.786  -5.462  -4.927  0.00  0.00    -0.060 I 
ATOM     10  F2  UNL d   1      -0.340  -2.664  -6.000  0.00  0.00    -0.096 F 
ATOM     11  F3  UNL d   1      -2.550  -1.243  -5.343  0.00  0.00    -0.097 F 
ATOM     12  F4  UNL d   1      -4.276  -2.175  -3.447  0.00  0.00    -0.092 F 
ENDROOT
TORSDOF 0
ENDMDL
