MODEL 1
REMARK minimizedAffinity 32.4304123
REMARK minimizedRMSD -1
REMARK  0 active torsions:
REMARK  status: ('A' for Active; 'I' for Inactive)
ROOT
ATOM      1  C   UNL d   1      -4.014   1.191   3.441  0.00  0.00     0.124 A 
ATOM      2  C1  UNL d   1      -3.087   2.114   3.905  0.00  0.00     0.062 A 
ATOM      3  C2  UNL d   1      -1.735   1.788   3.944  0.00  0.00     0.162 A 
ATOM      4  C3  UNL d   1      -1.300   0.534   3.515  0.00  0.00    -0.034 A 
ATOM      5  C4  UNL d   1      -2.239  -0.389   3.050  0.00  0.00     0.162 A 
ATOM      6  C5  UNL d   1      -3.589  -0.059   3.014  0.00  0.00     0.062 A 
ATOM      7  F   UNL d   1      -4.484  -0.952   2.565  0.00  0.00    -0.097 F 
ATOM      8  F1  UNL d   1      -1.855  -1.604   2.631  0.00  0.00    -0.096 F 
ATOM      9  I   UNL d   1       0.722   0.043   3.571  0.00  0.00    -0.060 I 
ATOM     10  F2  UNL d   1      -0.861   2.699   4.398  0.00  0.00    -0.096 F 
ATOM     11  F3  UNL d   1      -3.495   3.322   4.319  0.00  0.00    -0.097 F 
ATOM     12  F4  UNL d   1      -5.315   1.507   3.406  0.00  0.00    -0.092 F 
ENDROOT
TORSDOF 0
ENDMDL
