MODEL 1
REMARK minimizedAffinity 27.0995903
REMARK minimizedRMSD -1
REMARK  0 active torsions:
REMARK  status: ('A' for Active; 'I' for Inactive)
ROOT
ATOM      1  C   UNL d   1      -0.644  -1.306   2.584  0.00  0.00     0.124 A 
ATOM      2  C1  UNL d   1      -0.868  -2.181   3.639  0.00  0.00     0.062 A 
ATOM      3  C2  UNL d   1      -1.343  -3.466   3.394  0.00  0.00     0.162 A 
ATOM      4  C3  UNL d   1      -1.598  -3.885   2.088  0.00  0.00    -0.034 A 
ATOM      5  C4  UNL d   1      -1.372  -2.999   1.032  0.00  0.00     0.162 A 
ATOM      6  C5  UNL d   1      -0.897  -1.716   1.282  0.00  0.00     0.062 A 
ATOM      7  F   UNL d   1      -0.682  -0.873   0.262  0.00  0.00    -0.097 F 
ATOM      8  F1  UNL d   1      -1.607  -3.370  -0.235  0.00  0.00    -0.096 F 
ATOM      9  I   UNL d   1      -2.309  -5.805   1.717  0.00  0.00    -0.060 I 
ATOM     10  F2  UNL d   1      -1.550  -4.289   4.432  0.00  0.00    -0.096 F 
ATOM     11  F3  UNL d   1      -0.626  -1.787   4.897  0.00  0.00    -0.097 F 
ATOM     12  F4  UNL d   1      -0.188  -0.070   2.823  0.00  0.00    -0.092 F 
ENDROOT
TORSDOF 0
ENDMDL
