MODEL 1
REMARK minimizedAffinity -3.62371993
REMARK minimizedRMSD -1
REMARK  0 active torsions:
REMARK  status: ('A' for Active; 'I' for Inactive)
ROOT
ATOM      1  C1  BNZ d   1       0.011   0.688  -0.573  0.00  0.00     0.000 A 
ATOM      2  C2  BNZ d   1       1.239   0.821  -1.164  0.00  0.00     0.000 A 
ATOM      3  C3  BNZ d   1       2.071  -0.256  -1.299  0.00  0.00     0.000 A 
ATOM      4  C4  BNZ d   1       1.691  -1.453  -0.808  0.00  0.00     0.000 A 
ATOM      5  C5  BNZ d   1       0.460  -1.601  -0.201  0.00  0.00     0.000 A 
ATOM      6  C6  BNZ d   1      -0.390  -0.524  -0.101  0.00  0.00     0.000 A 
ENDROOT
TORSDOF 0
ENDMDL
