MODEL 1
REMARK minimizedAffinity -2.58929396
REMARK minimizedRMSD -1
REMARK  0 active torsions:
REMARK  status: ('A' for Active; 'I' for Inactive)
ROOT
ATOM      1  C1  BNZ d   1       0.902   0.090   0.463  0.00  0.00     0.000 A 
ATOM      2  C2  BNZ d   1       0.140  -0.935  -0.033  0.00  0.00     0.000 A 
ATOM      3  C3  BNZ d   1       0.639  -1.781  -0.984  0.00  0.00     0.000 A 
ATOM      4  C4  BNZ d   1       1.882  -1.579  -1.465  0.00  0.00     0.000 A 
ATOM      5  C5  BNZ d   1       2.659  -0.544  -0.982  0.00  0.00     0.000 A 
ATOM      6  C6  BNZ d   1       2.168   0.282   0.002  0.00  0.00     0.000 A 
ENDROOT
TORSDOF 0
ENDMDL
