MODEL 1
REMARK minimizedAffinity -3.41291738
REMARK minimizedRMSD -1
REMARK  0 active torsions:
REMARK  status: ('A' for Active; 'I' for Inactive)
ROOT
ATOM      1  C1  BNZ d   1       2.250   0.534  -1.251  0.00  0.00     0.000 A 
ATOM      2  C2  BNZ d   1       1.209   0.375  -0.375  0.00  0.00     0.000 A 
ATOM      3  C3  BNZ d   1       0.701  -0.866  -0.110  0.00  0.00     0.000 A 
ATOM      4  C4  BNZ d   1       1.206  -1.940  -0.750  0.00  0.00     0.000 A 
ATOM      5  C5  BNZ d   1       2.250  -1.795  -1.642  0.00  0.00     0.000 A 
ATOM      6  C6  BNZ d   1       2.785  -0.550  -1.877  0.00  0.00     0.000 A 
ENDROOT
TORSDOF 0
ENDMDL
