MODEL 1
REMARK minimizedAffinity -3.9876318
REMARK minimizedRMSD -1
REMARK  0 active torsions:
REMARK  status: ('A' for Active; 'I' for Inactive)
ROOT
ATOM      1  C1  BNZ d   1       1.884   1.079  -0.634  0.00  0.00     0.000 A 
ATOM      2  C2  BNZ d   1       2.995   0.315  -0.868  0.00  0.00     0.000 A 
ATOM      3  C3  BNZ d   1       2.905  -1.047  -0.941  0.00  0.00     0.000 A 
ATOM      4  C4  BNZ d   1       1.713  -1.644  -0.740  0.00  0.00     0.000 A 
ATOM      5  C5  BNZ d   1       0.585  -0.888  -0.494  0.00  0.00     0.000 A 
ATOM      6  C6  BNZ d   1       0.672   0.485  -0.460  0.00  0.00     0.000 A 
ENDROOT
TORSDOF 0
ENDMDL
