MODEL 1
REMARK minimizedAffinity -4.30833149
REMARK minimizedRMSD -1
REMARK  0 active torsions:
REMARK  status: ('A' for Active; 'I' for Inactive)
ROOT
ATOM      1  C1  BNZ d   1      -0.060  -0.818  -0.076  0.00  0.00     0.000 A 
ATOM      2  C2  BNZ d   1       0.983  -1.619  -0.460  0.00  0.00     0.000 A 
ATOM      3  C3  BNZ d   1       2.121  -1.080  -0.992  0.00  0.00     0.000 A 
ATOM      4  C4  BNZ d   1       2.200   0.254  -1.176  0.00  0.00     0.000 A 
ATOM      5  C5  BNZ d   1       1.154   1.074  -0.803  0.00  0.00     0.000 A 
ATOM      6  C6  BNZ d   1       0.025   0.532  -0.232  0.00  0.00     0.000 A 
ENDROOT
TORSDOF 0
ENDMDL
