MODEL 1
REMARK minimizedAffinity -4.10476112
REMARK minimizedRMSD -1
REMARK  0 active torsions:
REMARK  status: ('A' for Active; 'I' for Inactive)
ROOT
ATOM      1  C1  BNZ d   1       0.392  -1.617  -0.451  0.00  0.00     0.000 A 
ATOM      2  C2  BNZ d   1       1.472  -1.699  -1.290  0.00  0.00     0.000 A 
ATOM      3  C3  BNZ d   1       2.348  -0.657  -1.406  0.00  0.00     0.000 A 
ATOM      4  C4  BNZ d   1       2.123   0.479  -0.715  0.00  0.00     0.000 A 
ATOM      5  C5  BNZ d   1       1.034   0.581   0.127  0.00  0.00     0.000 A 
ATOM      6  C6  BNZ d   1       0.175  -0.485   0.271  0.00  0.00     0.000 A 
ENDROOT
TORSDOF 0
ENDMDL
