MODEL 1
REMARK minimizedAffinity -2.17703819
REMARK minimizedRMSD -1
REMARK  0 active torsions:
REMARK  status: ('A' for Active; 'I' for Inactive)
ROOT
ATOM      1  C1  BNZ d   1      -1.128   0.322   2.423  0.00  0.00     0.000 A 
ATOM      2  C2  BNZ d   1       0.071  -0.211   2.030  0.00  0.00     0.000 A 
ATOM      3  C3  BNZ d   1       0.281  -0.581   0.731  0.00  0.00     0.000 A 
ATOM      4  C4  BNZ d   1      -0.720  -0.454  -0.164  0.00  0.00     0.000 A 
ATOM      5  C5  BNZ d   1      -1.937   0.073   0.218  0.00  0.00     0.000 A 
ATOM      6  C6  BNZ d   1      -2.132   0.480   1.518  0.00  0.00     0.000 A 
ENDROOT
TORSDOF 0
ENDMDL
