MODEL 1
REMARK minimizedAffinity -3.16415024
REMARK minimizedRMSD -1
REMARK  0 active torsions:
REMARK  status: ('A' for Active; 'I' for Inactive)
ROOT
ATOM      1  C1  BNZ d   1      -1.295  -1.064   0.055  0.00  0.00     0.000 A 
ATOM      2  C2  BNZ d   1      -1.687   0.114   0.632  0.00  0.00     0.000 A 
ATOM      3  C3  BNZ d   1      -2.647   0.131   1.605  0.00  0.00     0.000 A 
ATOM      4  C4  BNZ d   1      -3.242  -1.023   1.970  0.00  0.00     0.000 A 
ATOM      5  C5  BNZ d   1      -2.863  -2.218   1.391  0.00  0.00     0.000 A 
ATOM      6  C6  BNZ d   1      -1.869  -2.236   0.440  0.00  0.00     0.000 A 
ENDROOT
TORSDOF 0
ENDMDL
