MODEL 1
REMARK minimizedAffinity -3.41905355
REMARK minimizedRMSD -1
REMARK  0 active torsions:
REMARK  status: ('A' for Active; 'I' for Inactive)
ROOT
ATOM      1  C1  BNZ d   1       0.734  -1.543   0.375  0.00  0.00     0.000 A 
ATOM      2  C2  BNZ d   1      -0.107  -0.465   0.441  0.00  0.00     0.000 A 
ATOM      3  C3  BNZ d   1      -0.153   0.450  -0.574  0.00  0.00     0.000 A 
ATOM      4  C4  BNZ d   1       0.669   0.307  -1.633  0.00  0.00     0.000 A 
ATOM      5  C5  BNZ d   1       1.530  -0.770  -1.710  0.00  0.00     0.000 A 
ATOM      6  C6  BNZ d   1       1.546  -1.710  -0.704  0.00  0.00     0.000 A 
ENDROOT
TORSDOF 0
ENDMDL
