MODEL 1
REMARK minimizedAffinity -3.19705629
REMARK minimizedRMSD -1
REMARK  0 active torsions:
REMARK  status: ('A' for Active; 'I' for Inactive)
ROOT
ATOM      1  C1  BNZ d   1       0.122   0.525  -0.854  0.00  0.00     0.000 A 
ATOM      2  C2  BNZ d   1       1.063   0.297  -1.823  0.00  0.00     0.000 A 
ATOM      3  C3  BNZ d   1       1.840  -0.827  -1.793  0.00  0.00     0.000 A 
ATOM      4  C4  BNZ d   1       1.704  -1.701  -0.774  0.00  0.00     0.000 A 
ATOM      5  C5  BNZ d   1       0.766  -1.480   0.215  0.00  0.00     0.000 A 
ATOM      6  C6  BNZ d   1      -0.041  -0.367   0.161  0.00  0.00     0.000 A 
ENDROOT
TORSDOF 0
ENDMDL
