MODEL 1
REMARK minimizedAffinity -3.82227755
REMARK minimizedRMSD -1
REMARK  0 active torsions:
REMARK  status: ('A' for Active; 'I' for Inactive)
ROOT
ATOM      1  C1  BNZ d   1       2.666   0.324  -0.670  0.00  0.00     0.000 A 
ATOM      2  C2  BNZ d   1       1.511   0.617   0.004  0.00  0.00     0.000 A 
ATOM      3  C3  BNZ d   1       0.462  -0.260   0.007  0.00  0.00     0.000 A 
ATOM      4  C4  BNZ d   1       0.554  -1.407  -0.696  0.00  0.00     0.000 A 
ATOM      5  C5  BNZ d   1       1.710  -1.712  -1.388  0.00  0.00     0.000 A 
ATOM      6  C6  BNZ d   1       2.778  -0.845  -1.356  0.00  0.00     0.000 A 
ENDROOT
TORSDOF 0
ENDMDL
