MODEL 1
REMARK minimizedAffinity -4.05870867
REMARK minimizedRMSD -1
REMARK  0 active torsions:
REMARK  status: ('A' for Active; 'I' for Inactive)
ROOT
ATOM      1  C1  BNZ d   1       3.147  -0.111  -2.024  0.00  0.00     0.000 A 
ATOM      2  C2  BNZ d   1       2.731  -0.924  -1.003  0.00  0.00     0.000 A 
ATOM      3  C3  BNZ d   1       1.467  -0.817  -0.494  0.00  0.00     0.000 A 
ATOM      4  C4  BNZ d   1       0.634   0.127  -0.978  0.00  0.00     0.000 A 
ATOM      5  C5  BNZ d   1       1.042   0.960  -2.001  0.00  0.00     0.000 A 
ATOM      6  C6  BNZ d   1       2.302   0.824  -2.537  0.00  0.00     0.000 A 
ENDROOT
TORSDOF 0
ENDMDL
