MODEL 1
REMARK minimizedAffinity -3.64832973
REMARK minimizedRMSD -1
REMARK  0 active torsions:
REMARK  status: ('A' for Active; 'I' for Inactive)
ROOT
ATOM      1  C1  BNZ d   1      -1.491   1.119   1.485  0.00  0.00     0.000 A 
ATOM      2  C2  BNZ d   1      -1.229   1.647   0.248  0.00  0.00     0.000 A 
ATOM      3  C3  BNZ d   1      -0.418   0.990  -0.635  0.00  0.00     0.000 A 
ATOM      4  C4  BNZ d   1       0.160  -0.172  -0.267  0.00  0.00     0.000 A 
ATOM      5  C5  BNZ d   1      -0.087  -0.711   0.980  0.00  0.00     0.000 A 
ATOM      6  C6  BNZ d   1      -0.934  -0.067   1.852  0.00  0.00     0.000 A 
ENDROOT
TORSDOF 0
ENDMDL
