MODEL 1
REMARK minimizedAffinity -2.95471787
REMARK minimizedRMSD -1
REMARK  0 active torsions:
REMARK  status: ('A' for Active; 'I' for Inactive)
ROOT
ATOM      1  C1  BNZ d   1       5.259  -1.371   3.790  0.00  0.00     0.000 A 
ATOM      2  C2  BNZ d   1       5.256  -0.083   3.323  0.00  0.00     0.000 A 
ATOM      3  C3  BNZ d   1       5.407   0.972   4.178  0.00  0.00     0.000 A 
ATOM      4  C4  BNZ d   1       5.520   0.741   5.502  0.00  0.00     0.000 A 
ATOM      5  C5  BNZ d   1       5.515  -0.551   5.990  0.00  0.00     0.000 A 
ATOM      6  C6  BNZ d   1       5.402  -1.612   5.121  0.00  0.00     0.000 A 
ENDROOT
TORSDOF 0
ENDMDL
