MODEL 1
REMARK minimizedAffinity -1.79867852
REMARK minimizedRMSD -1
REMARK  0 active torsions:
REMARK  status: ('A' for Active; 'I' for Inactive)
ROOT
ATOM      1  C   UNL d   1      -2.355   1.284   0.766  0.00  0.00     0.077 C 
ATOM      2  C1  UNL d   1      -0.965   1.375   0.208  0.00  0.00    -0.074 A 
ATOM      3  C2  UNL d   1      -0.572   2.472  -0.566  0.00  0.00    -0.005 A 
ATOM      4  C3  UNL d   1       0.726   2.547  -1.070  0.00  0.00     0.006 A 
ATOM      5  C4  UNL d   1       1.643   1.529  -0.805  0.00  0.00    -0.005 A 
ATOM      6  C5  UNL d   1       1.268   0.426  -0.032  0.00  0.00    -0.074 A 
ATOM      7  C6  UNL d   1       2.244  -0.672   0.270  0.00  0.00     0.077 C 
ATOM      8  C7  UNL d   1      -0.036   0.360   0.477  0.00  0.00    -0.001 A 
ENDROOT
TORSDOF 0
ENDMDL
