MODEL 1
REMARK minimizedAffinity -0.867042184
REMARK minimizedRMSD -1
REMARK  0 active torsions:
REMARK  status: ('A' for Active; 'I' for Inactive)
ROOT
ATOM      1  C   UNL d   1       0.708   4.446   0.221  0.00  0.00     0.077 C 
ATOM      2  C1  UNL d   1       0.514   2.970   0.040  0.00  0.00    -0.074 A 
ATOM      3  C2  UNL d   1       1.463   2.199  -0.640  0.00  0.00    -0.005 A 
ATOM      4  C3  UNL d   1       1.273   0.825  -0.793  0.00  0.00     0.006 A 
ATOM      5  C4  UNL d   1       0.136   0.211  -0.269  0.00  0.00    -0.005 A 
ATOM      6  C5  UNL d   1      -0.823   0.965   0.414  0.00  0.00    -0.074 A 
ATOM      7  C6  UNL d   1      -2.047   0.319   0.991  0.00  0.00     0.077 C 
ATOM      8  C7  UNL d   1      -0.622   2.344   0.570  0.00  0.00    -0.001 A 
ENDROOT
TORSDOF 0
ENDMDL
