MODEL 1
REMARK minimizedAffinity -4.3398571
REMARK minimizedRMSD -1
REMARK  0 active torsions:
REMARK  status: ('A' for Active; 'I' for Inactive)
ROOT
ATOM      1  C   UNL d   1       1.769  -1.187   0.811  0.00  0.00     0.077 C 
ATOM      2  C1  UNL d   1       0.892  -0.029   0.435  0.00  0.00    -0.074 A 
ATOM      3  C2  UNL d   1       1.417   1.083  -0.232  0.00  0.00    -0.005 A 
ATOM      4  C3  UNL d   1       0.587   2.148  -0.583  0.00  0.00     0.006 A 
ATOM      5  C4  UNL d   1      -0.773   2.111  -0.273  0.00  0.00    -0.005 A 
ATOM      6  C5  UNL d   1      -1.315   1.007   0.392  0.00  0.00    -0.074 A 
ATOM      7  C6  UNL d   1      -2.777   0.948   0.725  0.00  0.00     0.077 C 
ATOM      8  C7  UNL d   1      -0.477  -0.062   0.736  0.00  0.00    -0.001 A 
ENDROOT
TORSDOF 0
ENDMDL
