MODEL 1
REMARK minimizedAffinity -5.51625109
REMARK minimizedRMSD -1
REMARK  0 active torsions:
REMARK  status: ('A' for Active; 'I' for Inactive)
ROOT
ATOM      1  C   UNL d   1       0.746   3.846  -0.332  0.00  0.00     0.077 C 
ATOM      2  C1  UNL d   1       1.303   2.518   0.090  0.00  0.00    -0.074 A 
ATOM      3  C2  UNL d   1       2.656   2.376   0.414  0.00  0.00    -0.005 A 
ATOM      4  C3  UNL d   1       3.157   1.137   0.814  0.00  0.00     0.006 A 
ATOM      5  C4  UNL d   1       2.311   0.030   0.894  0.00  0.00    -0.005 A 
ATOM      6  C5  UNL d   1       0.955   0.153   0.576  0.00  0.00    -0.074 A 
ATOM      7  C6  UNL d   1       0.030  -1.024   0.667  0.00  0.00     0.077 C 
ATOM      8  C7  UNL d   1       0.458   1.403   0.181  0.00  0.00    -0.001 A 
ENDROOT
TORSDOF 0
ENDMDL
