MODEL 1
REMARK minimizedAffinity -2.60721087
REMARK minimizedRMSD -1
REMARK  0 active torsions:
REMARK  status: ('A' for Active; 'I' for Inactive)
ROOT
ATOM      1  C   UNL d   1       0.148   3.928  -0.191  0.00  0.00     0.077 C 
ATOM      2  C1  UNL d   1      -0.264   2.582   0.326  0.00  0.00    -0.074 A 
ATOM      3  C2  UNL d   1      -1.292   2.457   1.266  0.00  0.00    -0.005 A 
ATOM      4  C3  UNL d   1      -1.671   1.198   1.731  0.00  0.00     0.006 A 
ATOM      5  C4  UNL d   1      -1.027   0.053   1.262  0.00  0.00    -0.005 A 
ATOM      6  C5  UNL d   1       0.002   0.158   0.321  0.00  0.00    -0.074 A 
ATOM      7  C6  UNL d   1       0.698  -1.064  -0.201  0.00  0.00     0.077 C 
ATOM      8  C7  UNL d   1       0.373   1.426  -0.146  0.00  0.00    -0.001 A 
ENDROOT
TORSDOF 0
ENDMDL
