MODEL 1
REMARK minimizedAffinity -4.86837435
REMARK minimizedRMSD -1
REMARK  0 active torsions:
REMARK  status: ('A' for Active; 'I' for Inactive)
ROOT
ATOM      1  C   UNL d   1      -0.564  -1.493  -0.170  0.00  0.00     0.077 C 
ATOM      2  C1  UNL d   1      -0.326  -0.040   0.116  0.00  0.00    -0.074 A 
ATOM      3  C2  UNL d   1      -1.365   0.892   0.017  0.00  0.00    -0.005 A 
ATOM      4  C3  UNL d   1      -1.131   2.238   0.296  0.00  0.00     0.006 A 
ATOM      5  C4  UNL d   1       0.142   2.666   0.676  0.00  0.00    -0.005 A 
ATOM      6  C5  UNL d   1       1.193   1.749   0.781  0.00  0.00    -0.074 A 
ATOM      7  C6  UNL d   1       2.564   2.191   1.197  0.00  0.00     0.077 C 
ATOM      8  C7  UNL d   1       0.948   0.397   0.506  0.00  0.00    -0.001 A 
ENDROOT
TORSDOF 0
ENDMDL
