MODEL 1
REMARK minimizedAffinity -4.39270782
REMARK minimizedRMSD -1
REMARK  0 active torsions:
REMARK  status: ('A' for Active; 'I' for Inactive)
ROOT
ATOM      1  C   UNL d   1      -1.078  -0.421   1.170  0.00  0.00     0.077 C 
ATOM      2  C1  UNL d   1      -0.304   0.709   0.557  0.00  0.00    -0.074 A 
ATOM      3  C2  UNL d   1      -0.940   1.899   0.188  0.00  0.00    -0.005 A 
ATOM      4  C3  UNL d   1      -0.206   2.944  -0.373  0.00  0.00     0.006 A 
ATOM      5  C4  UNL d   1       1.169   2.810  -0.570  0.00  0.00    -0.005 A 
ATOM      6  C5  UNL d   1       1.822   1.628  -0.206  0.00  0.00    -0.074 A 
ATOM      7  C6  UNL d   1       3.301   1.471  -0.402  0.00  0.00     0.077 C 
ATOM      8  C7  UNL d   1       1.079   0.585   0.363  0.00  0.00    -0.001 A 
ENDROOT
TORSDOF 0
ENDMDL
