MODEL 1
REMARK minimizedAffinity -3.83632636
REMARK minimizedRMSD -1
REMARK  0 active torsions:
REMARK  status: ('A' for Active; 'I' for Inactive)
ROOT
ATOM      1  C   UNL d   1       0.300  -1.694   0.530  0.00  0.00     0.077 C 
ATOM      2  C1  UNL d   1      -0.227  -2.360  -0.706  0.00  0.00    -0.074 A 
ATOM      3  C2  UNL d   1       0.566  -2.480  -1.852  0.00  0.00    -0.005 A 
ATOM      4  C3  UNL d   1       0.065  -3.111  -2.991  0.00  0.00     0.006 A 
ATOM      5  C4  UNL d   1      -1.231  -3.628  -2.995  0.00  0.00    -0.005 A 
ATOM      6  C5  UNL d   1      -2.038  -3.518  -1.858  0.00  0.00    -0.074 A 
ATOM      7  C6  UNL d   1      -3.430  -4.077  -1.843  0.00  0.00     0.077 C 
ATOM      8  C7  UNL d   1      -1.526  -2.889  -0.716  0.00  0.00    -0.001 A 
ENDROOT
TORSDOF 0
ENDMDL
