MODEL 1
REMARK minimizedAffinity -3.53118801
REMARK minimizedRMSD -1
REMARK  0 active torsions:
REMARK  status: ('A' for Active; 'I' for Inactive)
ROOT
ATOM      1  C   UNL d   1       0.069  -1.782  -0.730  0.00  0.00     0.077 C 
ATOM      2  C1  UNL d   1      -0.182  -0.420  -0.154  0.00  0.00    -0.074 A 
ATOM      3  C2  UNL d   1      -0.924  -0.263   1.022  0.00  0.00    -0.005 A 
ATOM      4  C3  UNL d   1      -1.141   1.009   1.551  0.00  0.00     0.006 A 
ATOM      5  C4  UNL d   1      -0.621   2.134   0.912  0.00  0.00    -0.005 A 
ATOM      6  C5  UNL d   1       0.123   1.997  -0.264  0.00  0.00    -0.074 A 
ATOM      7  C6  UNL d   1       0.698   3.196  -0.959  0.00  0.00     0.077 C 
ATOM      8  C7  UNL d   1       0.344   0.715  -0.786  0.00  0.00    -0.001 A 
ENDROOT
TORSDOF 0
ENDMDL
