MODEL 1
REMARK minimizedAffinity -4.96169806
REMARK minimizedRMSD -1
REMARK  0 active torsions:
REMARK  status: ('A' for Active; 'I' for Inactive)
ROOT
ATOM      1  C   UNL d   1       0.264   3.213  -0.655  0.00  0.00     0.077 C 
ATOM      2  C1  UNL d   1       0.398   1.793  -0.189  0.00  0.00    -0.074 A 
ATOM      3  C2  UNL d   1      -0.728   0.979  -0.031  0.00  0.00    -0.005 A 
ATOM      4  C3  UNL d   1      -0.587  -0.342   0.394  0.00  0.00     0.006 A 
ATOM      5  C4  UNL d   1       0.679  -0.861   0.664  0.00  0.00    -0.005 A 
ATOM      6  C5  UNL d   1       1.817  -0.063   0.510  0.00  0.00    -0.074 A 
ATOM      7  C6  UNL d   1       3.186  -0.608   0.787  0.00  0.00     0.077 C 
ATOM      8  C7  UNL d   1       1.668   1.262   0.077  0.00  0.00    -0.001 A 
ENDROOT
TORSDOF 0
ENDMDL
