MODEL 1
REMARK minimizedAffinity -2.61221004
REMARK minimizedRMSD -1
REMARK  0 active torsions:
REMARK  status: ('A' for Active; 'I' for Inactive)
ROOT
ATOM      1  C   UNL d   1       2.569  -1.000   0.150  0.00  0.00     0.077 C 
ATOM      2  C1  UNL d   1       1.213  -0.372   0.280  0.00  0.00    -0.074 A 
ATOM      3  C2  UNL d   1       0.053  -1.152   0.246  0.00  0.00    -0.005 A 
ATOM      4  C3  UNL d   1      -1.201  -0.554   0.378  0.00  0.00     0.006 A 
ATOM      5  C4  UNL d   1      -1.306   0.827   0.545  0.00  0.00    -0.005 A 
ATOM      6  C5  UNL d   1      -0.157   1.623   0.583  0.00  0.00    -0.074 A 
ATOM      7  C6  UNL d   1      -0.252   3.108   0.772  0.00  0.00     0.077 C 
ATOM      8  C7  UNL d   1       1.099   1.014   0.456  0.00  0.00    -0.001 A 
ENDROOT
TORSDOF 0
ENDMDL
