MODEL 1
REMARK minimizedAffinity -4.93569422
REMARK minimizedRMSD -1
REMARK  0 active torsions:
REMARK  status: ('A' for Active; 'I' for Inactive)
ROOT
ATOM      1  C   UNL d   1       2.880  -0.276   0.520  0.00  0.00     0.077 C 
ATOM      2  C1  UNL d   1       1.496   0.270   0.334  0.00  0.00    -0.074 A 
ATOM      3  C2  UNL d   1       0.378  -0.569   0.399  0.00  0.00    -0.005 A 
ATOM      4  C3  UNL d   1      -0.904  -0.046   0.234  0.00  0.00     0.006 A 
ATOM      5  C4  UNL d   1      -1.082   1.318   0.003  0.00  0.00    -0.005 A 
ATOM      6  C5  UNL d   1       0.023   2.173  -0.064  0.00  0.00    -0.074 A 
ATOM      7  C6  UNL d   1      -0.151   3.643  -0.302  0.00  0.00     0.077 C 
ATOM      8  C7  UNL d   1       1.308   1.641   0.109  0.00  0.00    -0.001 A 
ENDROOT
TORSDOF 0
ENDMDL
