MODEL 1
REMARK minimizedAffinity -1.42068088
REMARK minimizedRMSD -1
REMARK  0 active torsions:
REMARK  status: ('A' for Active; 'I' for Inactive)
ROOT
ATOM      1  C   UNL d   1       3.012   0.565   0.941  0.00  0.00     0.077 C 
ATOM      2  C1  UNL d   1       1.530   0.760   0.827  0.00  0.00    -0.074 A 
ATOM      3  C2  UNL d   1       0.942   1.993   1.130  0.00  0.00    -0.005 A 
ATOM      4  C3  UNL d   1      -0.437   2.162   1.010  0.00  0.00     0.006 A 
ATOM      5  C4  UNL d   1      -1.242   1.103   0.587  0.00  0.00    -0.005 A 
ATOM      6  C5  UNL d   1      -0.671  -0.136   0.280  0.00  0.00    -0.074 A 
ATOM      7  C6  UNL d   1      -1.520  -1.282  -0.185  0.00  0.00     0.077 C 
ATOM      8  C7  UNL d   1       0.716  -0.297   0.396  0.00  0.00    -0.001 A 
ENDROOT
TORSDOF 0
ENDMDL
