MODEL 1
REMARK minimizedAffinity -3.84322762
REMARK minimizedRMSD -1
REMARK  0 active torsions:
REMARK  status: ('A' for Active; 'I' for Inactive)
ROOT
ATOM      1  C   UNL d   1       0.859   2.530  -0.932  0.00  0.00     0.077 C 
ATOM      2  C1  UNL d   1       1.016   1.142  -0.386  0.00  0.00    -0.074 A 
ATOM      3  C2  UNL d   1       2.167   0.772   0.317  0.00  0.00    -0.005 A 
ATOM      4  C3  UNL d   1       2.295  -0.520   0.827  0.00  0.00     0.006 A 
ATOM      5  C4  UNL d   1       1.275  -1.453   0.639  0.00  0.00    -0.005 A 
ATOM      6  C5  UNL d   1       0.116  -1.101  -0.060  0.00  0.00    -0.074 A 
ATOM      7  C6  UNL d   1      -0.994  -2.089  -0.262  0.00  0.00     0.077 C 
ATOM      8  C7  UNL d   1      -0.008   0.201  -0.563  0.00  0.00    -0.001 A 
ENDROOT
TORSDOF 0
ENDMDL
