MODEL 1
REMARK minimizedAffinity -4.8311162
REMARK minimizedRMSD -1
REMARK  0 active torsions:
REMARK  status: ('A' for Active; 'I' for Inactive)
ROOT
ATOM      1  C   UNL d   1      -0.444  -1.880  -0.734  0.00  0.00     0.077 C 
ATOM      2  C1  UNL d   1       0.315  -0.622  -0.436  0.00  0.00    -0.074 A 
ATOM      3  C2  UNL d   1       1.588  -0.671   0.143  0.00  0.00    -0.005 A 
ATOM      4  C3  UNL d   1       2.286   0.507   0.406  0.00  0.00     0.006 A 
ATOM      5  C4  UNL d   1       1.721   1.744   0.093  0.00  0.00    -0.005 A 
ATOM      6  C5  UNL d   1       0.450   1.813  -0.487  0.00  0.00    -0.074 A 
ATOM      7  C6  UNL d   1      -0.168   3.133  -0.838  0.00  0.00     0.077 C 
ATOM      8  C7  UNL d   1      -0.243   0.624  -0.754  0.00  0.00    -0.001 A 
ENDROOT
TORSDOF 0
ENDMDL
