MODEL 1
REMARK minimizedAffinity 24.3774395
REMARK minimizedRMSD -1
REMARK  0 active torsions:
REMARK  status: ('A' for Active; 'I' for Inactive)
ROOT
ATOM      1  C   UNL d   1      -4.528  -0.582   0.709  0.00  0.00     0.124 A 
ATOM      2  C1  UNL d   1      -4.619   0.800   0.800  0.00  0.00     0.062 A 
ATOM      3  C2  UNL d   1      -4.137   1.602  -0.230  0.00  0.00     0.162 A 
ATOM      4  C3  UNL d   1      -3.560   1.025  -1.361  0.00  0.00    -0.034 A 
ATOM      5  C4  UNL d   1      -3.471  -0.366  -1.445  0.00  0.00     0.162 A 
ATOM      6  C5  UNL d   1      -3.954  -1.164  -0.412  0.00  0.00     0.062 A 
ATOM      7  F   UNL d   1      -3.865  -2.499  -0.502  0.00  0.00    -0.097 F 
ATOM      8  F1  UNL d   1      -2.922  -0.954  -2.518  0.00  0.00    -0.096 F 
ATOM      9  I   UNL d   1      -2.839   2.221  -2.904  0.00  0.00    -0.060 I 
ATOM     10  F2  UNL d   1      -4.239   2.935  -0.116  0.00  0.00    -0.096 F 
ATOM     11  F3  UNL d   1      -5.172   1.364   1.883  0.00  0.00    -0.097 F 
ATOM     12  F4  UNL d   1      -4.991  -1.352   1.703  0.00  0.00    -0.092 F 
ENDROOT
TORSDOF 0
ENDMDL
