MODEL 1
REMARK minimizedAffinity 23.0460262
REMARK minimizedRMSD -1
REMARK  0 active torsions:
REMARK  status: ('A' for Active; 'I' for Inactive)
ROOT
ATOM      1  C   UNL d   1       3.027  -3.738   0.400  0.00  0.00     0.124 A 
ATOM      2  C1  UNL d   1       2.935  -2.398   0.749  0.00  0.00     0.062 A 
ATOM      3  C2  UNL d   1       1.703  -1.843   1.082  0.00  0.00     0.162 A 
ATOM      4  C3  UNL d   1       0.551  -2.630   1.068  0.00  0.00    -0.034 A 
ATOM      5  C4  UNL d   1       0.650  -3.977   0.715  0.00  0.00     0.162 A 
ATOM      6  C5  UNL d   1       1.884  -4.526   0.383  0.00  0.00     0.062 A 
ATOM      7  F   UNL d   1       1.971  -5.821   0.045  0.00  0.00    -0.097 F 
ATOM      8  F1  UNL d   1      -0.437  -4.761   0.691  0.00  0.00    -0.096 F 
ATOM      9  I   UNL d   1      -1.294  -1.805   1.566  0.00  0.00    -0.060 I 
ATOM     10  F2  UNL d   1       1.644  -0.546   1.416  0.00  0.00    -0.096 F 
ATOM     11  F3  UNL d   1       4.037  -1.634   0.766  0.00  0.00    -0.097 F 
ATOM     12  F4  UNL d   1       4.214  -4.268   0.079  0.00  0.00    -0.092 F 
ENDROOT
TORSDOF 0
ENDMDL
