MODEL 1
REMARK minimizedAffinity 8.54111481
REMARK minimizedRMSD -1
REMARK  0 active torsions:
REMARK  status: ('A' for Active; 'I' for Inactive)
ROOT
ATOM      1  C   UNL d   1       2.077  -2.311   1.170  0.00  0.00     0.124 A 
ATOM      2  C1  UNL d   1       1.663  -3.632   1.073  0.00  0.00     0.062 A 
ATOM      3  C2  UNL d   1       0.524  -4.060   1.750  0.00  0.00     0.162 A 
ATOM      4  C3  UNL d   1      -0.209  -3.165   2.529  0.00  0.00    -0.034 A 
ATOM      5  C4  UNL d   1       0.214  -1.838   2.622  0.00  0.00     0.162 A 
ATOM      6  C5  UNL d   1       1.353  -1.415   1.944  0.00  0.00     0.062 A 
ATOM      7  F   UNL d   1       1.752  -0.139   2.039  0.00  0.00    -0.097 F 
ATOM      8  F1  UNL d   1      -0.467  -0.952   3.363  0.00  0.00    -0.096 F 
ATOM      9  I   UNL d   1      -1.912  -3.801   3.542  0.00  0.00    -0.060 I 
ATOM     10  F2  UNL d   1       0.147  -5.342   1.638  0.00  0.00    -0.096 F 
ATOM     11  F3  UNL d   1       2.362  -4.499   0.326  0.00  0.00    -0.097 F 
ATOM     12  F4  UNL d   1       3.174  -1.902   0.519  0.00  0.00    -0.092 F 
ENDROOT
TORSDOF 0
ENDMDL
