MODEL 1
REMARK minimizedAffinity 25.8392601
REMARK minimizedRMSD -1
REMARK  0 active torsions:
REMARK  status: ('A' for Active; 'I' for Inactive)
ROOT
ATOM      1  C   UNL d   1      -1.009   4.012   4.549  0.00  0.00     0.124 A 
ATOM      2  C1  UNL d   1      -1.043   2.645   4.310  0.00  0.00     0.062 A 
ATOM      3  C2  UNL d   1      -2.240   1.944   4.425  0.00  0.00     0.162 A 
ATOM      4  C3  UNL d   1      -3.414   2.609   4.780  0.00  0.00    -0.034 A 
ATOM      5  C4  UNL d   1      -3.372   3.983   5.019  0.00  0.00     0.162 A 
ATOM      6  C5  UNL d   1      -2.173   4.679   4.903  0.00  0.00     0.062 A 
ATOM      7  F   UNL d   1      -2.142   6.000   5.135  0.00  0.00    -0.097 F 
ATOM      8  F1  UNL d   1      -4.482   4.653   5.363  0.00  0.00    -0.096 F 
ATOM      9  I   UNL d   1      -5.206   1.564   4.953  0.00  0.00    -0.060 I 
ATOM     10  F2  UNL d   1      -2.244   0.624   4.188  0.00  0.00    -0.096 F 
ATOM     11  F3  UNL d   1       0.080   1.998   3.968  0.00  0.00    -0.097 F 
ATOM     12  F4  UNL d   1       0.144   4.684   4.438  0.00  0.00    -0.092 F 
ENDROOT
TORSDOF 0
ENDMDL
