MODEL 1
REMARK minimizedAffinity 10.8809452
REMARK minimizedRMSD -1
REMARK  0 active torsions:
REMARK  status: ('A' for Active; 'I' for Inactive)
ROOT
ATOM      1  C   UNL d   1       2.335  -1.578   0.894  0.00  0.00     0.124 A 
ATOM      2  C1  UNL d   1       1.458  -2.645   0.755  0.00  0.00     0.062 A 
ATOM      3  C2  UNL d   1       1.938  -3.905   0.408  0.00  0.00     0.162 A 
ATOM      4  C3  UNL d   1       3.302  -4.105   0.198  0.00  0.00    -0.034 A 
ATOM      5  C4  UNL d   1       4.178  -3.027   0.340  0.00  0.00     0.162 A 
ATOM      6  C5  UNL d   1       3.694  -1.770   0.687  0.00  0.00     0.062 A 
ATOM      7  F   UNL d   1       4.543  -0.741   0.821  0.00  0.00    -0.097 F 
ATOM      8  F1  UNL d   1       5.496  -3.185   0.146  0.00  0.00    -0.096 F 
ATOM      9  I   UNL d   1       4.024  -5.987  -0.321  0.00  0.00    -0.060 I 
ATOM     10  F2  UNL d   1       1.068  -4.918   0.280  0.00  0.00    -0.096 F 
ATOM     11  F3  UNL d   1       0.145  -2.462   0.954  0.00  0.00    -0.097 F 
ATOM     12  F4  UNL d   1       1.871  -0.367   1.227  0.00  0.00    -0.092 F 
ENDROOT
TORSDOF 0
ENDMDL
