MODEL 1
REMARK minimizedAffinity 14.9716473
REMARK minimizedRMSD -1
REMARK  0 active torsions:
REMARK  status: ('A' for Active; 'I' for Inactive)
ROOT
ATOM      1  C   UNL d   1      -2.124   1.473  -2.280  0.00  0.00     0.124 A 
ATOM      2  C1  UNL d   1      -2.391   0.155  -1.937  0.00  0.00     0.062 A 
ATOM      3  C2  UNL d   1      -3.497  -0.498  -2.473  0.00  0.00     0.162 A 
ATOM      4  C3  UNL d   1      -4.345   0.167  -3.359  0.00  0.00    -0.034 A 
ATOM      5  C4  UNL d   1      -4.070   1.492  -3.700  0.00  0.00     0.162 A 
ATOM      6  C5  UNL d   1      -2.963   2.140  -3.161  0.00  0.00     0.062 A 
ATOM      7  F   UNL d   1      -2.707   3.414  -3.494  0.00  0.00    -0.097 F 
ATOM      8  F1  UNL d   1      -4.864   2.161  -4.549  0.00  0.00    -0.096 F 
ATOM      9  I   UNL d   1      -6.000  -0.806  -4.163  0.00  0.00    -0.060 I 
ATOM     10  F2  UNL d   1      -3.731  -1.771  -2.123  0.00  0.00    -0.096 F 
ATOM     11  F3  UNL d   1      -1.582  -0.491  -1.085  0.00  0.00    -0.097 F 
ATOM     12  F4  UNL d   1      -1.059   2.099  -1.762  0.00  0.00    -0.092 F 
ENDROOT
TORSDOF 0
ENDMDL
