MODEL 1
REMARK minimizedAffinity 26.7749939
REMARK minimizedRMSD -1
REMARK  0 active torsions:
REMARK  status: ('A' for Active; 'I' for Inactive)
ROOT
ATOM      1  C   UNL d   1      -4.141   0.622  -3.185  0.00  0.00     0.124 A 
ATOM      2  C1  UNL d   1      -3.148   1.330  -2.521  0.00  0.00     0.062 A 
ATOM      3  C2  UNL d   1      -2.988   2.694  -2.752  0.00  0.00     0.162 A 
ATOM      4  C3  UNL d   1      -3.824   3.358  -3.651  0.00  0.00    -0.034 A 
ATOM      5  C4  UNL d   1      -4.819   2.638  -4.315  0.00  0.00     0.162 A 
ATOM      6  C5  UNL d   1      -4.975   1.276  -4.080  0.00  0.00     0.062 A 
ATOM      7  F   UNL d   1      -5.934   0.593  -4.722  0.00  0.00    -0.097 F 
ATOM      8  F1  UNL d   1      -5.639   3.246  -5.185  0.00  0.00    -0.096 F 
ATOM      9  I   UNL d   1      -3.587   5.396  -3.999  0.00  0.00    -0.060 I 
ATOM     10  F2  UNL d   1      -2.021   3.353  -2.097  0.00  0.00    -0.096 F 
ATOM     11  F3  UNL d   1      -2.341   0.700  -1.656  0.00  0.00    -0.097 F 
ATOM     12  F4  UNL d   1      -4.292  -0.690  -2.961  0.00  0.00    -0.092 F 
ENDROOT
TORSDOF 0
ENDMDL
