MODEL 1
REMARK minimizedAffinity 21.9606915
REMARK minimizedRMSD -1
REMARK  0 active torsions:
REMARK  status: ('A' for Active; 'I' for Inactive)
ROOT
ATOM      1  C   UNL d   1      -4.878  -2.203  -2.408  0.00  0.00     0.124 A 
ATOM      2  C1  UNL d   1      -5.442  -2.166  -3.676  0.00  0.00     0.062 A 
ATOM      3  C2  UNL d   1      -5.442  -0.982  -4.408  0.00  0.00     0.162 A 
ATOM      4  C3  UNL d   1      -4.874   0.175  -3.874  0.00  0.00    -0.034 A 
ATOM      5  C4  UNL d   1      -4.309   0.130  -2.599  0.00  0.00     0.162 A 
ATOM      6  C5  UNL d   1      -4.312  -1.055  -1.871  0.00  0.00     0.062 A 
ATOM      7  F   UNL d   1      -3.766  -1.089  -0.647  0.00  0.00    -0.097 F 
ATOM      8  F1  UNL d   1      -3.755   1.224  -2.056  0.00  0.00    -0.096 F 
ATOM      9  I   UNL d   1      -4.872   1.947  -4.966  0.00  0.00    -0.060 I 
ATOM     10  F2  UNL d   1      -5.995  -0.975  -5.630  0.00  0.00    -0.096 F 
ATOM     11  F3  UNL d   1      -5.990  -3.273  -4.197  0.00  0.00    -0.097 F 
ATOM     12  F4  UNL d   1      -4.880  -3.343  -1.706  0.00  0.00    -0.092 F 
ENDROOT
TORSDOF 0
ENDMDL
