MODEL 1
REMARK minimizedAffinity 21.4043407
REMARK minimizedRMSD -1
REMARK  0 active torsions:
REMARK  status: ('A' for Active; 'I' for Inactive)
ROOT
ATOM      1  C   UNL d   1      -0.295  -0.798   2.331  0.00  0.00     0.124 A 
ATOM      2  C1  UNL d   1      -0.287  -1.637   1.225  0.00  0.00     0.062 A 
ATOM      3  C2  UNL d   1       0.916  -2.132   0.730  0.00  0.00     0.162 A 
ATOM      4  C3  UNL d   1       2.123  -1.789   1.342  0.00  0.00    -0.034 A 
ATOM      5  C4  UNL d   1       2.107  -0.944   2.453  0.00  0.00     0.162 A 
ATOM      6  C5  UNL d   1       0.901  -0.453   2.943  0.00  0.00     0.062 A 
ATOM      7  F   UNL d   1       0.896   0.358   4.012  0.00  0.00    -0.097 F 
ATOM      8  F1  UNL d   1       3.248  -0.595   3.064  0.00  0.00    -0.096 F 
ATOM      9  I   UNL d   1       3.924  -2.526   0.605  0.00  0.00    -0.060 I 
ATOM     10  F2  UNL d   1       0.894  -2.940  -0.339  0.00  0.00    -0.096 F 
ATOM     11  F3  UNL d   1      -1.441  -1.972   0.631  0.00  0.00    -0.097 F 
ATOM     12  F4  UNL d   1      -1.454  -0.323   2.804  0.00  0.00    -0.092 F 
ENDROOT
TORSDOF 0
ENDMDL
