MODEL 1
REMARK minimizedAffinity 13.5843372
REMARK minimizedRMSD -1
REMARK  0 active torsions:
REMARK  status: ('A' for Active; 'I' for Inactive)
ROOT
ATOM      1  C   UNL d   1      -0.787  -1.467   1.216  0.00  0.00     0.124 A 
ATOM      2  C1  UNL d   1       0.014  -1.470   2.349  0.00  0.00     0.062 A 
ATOM      3  C2  UNL d   1       1.366  -1.785   2.250  0.00  0.00     0.162 A 
ATOM      4  C3  UNL d   1       1.927  -2.098   1.012  0.00  0.00    -0.034 A 
ATOM      5  C4  UNL d   1       1.115  -2.094  -0.124  0.00  0.00     0.162 A 
ATOM      6  C5  UNL d   1      -0.236  -1.779  -0.019  0.00  0.00     0.062 A 
ATOM      7  F   UNL d   1      -1.008  -1.776  -1.116  0.00  0.00    -0.097 F 
ATOM      8  F1  UNL d   1       1.621  -2.390  -1.330  0.00  0.00    -0.096 F 
ATOM      9  I   UNL d   1       3.949  -2.569   0.859  0.00  0.00    -0.060 I 
ATOM     10  F2  UNL d   1       2.117  -1.780   3.362  0.00  0.00    -0.096 F 
ATOM     11  F3  UNL d   1      -0.516  -1.170   3.544  0.00  0.00    -0.097 F 
ATOM     12  F4  UNL d   1      -2.088  -1.165   1.314  0.00  0.00    -0.092 F 
ENDROOT
TORSDOF 0
ENDMDL
