MODEL 1
REMARK minimizedAffinity 15.9986086
REMARK minimizedRMSD -1
REMARK  0 active torsions:
REMARK  status: ('A' for Active; 'I' for Inactive)
ROOT
ATOM      1  C   UNL d   1       4.001  -1.232   1.299  0.00  0.00     0.124 A 
ATOM      2  C1  UNL d   1       3.631  -1.179   2.636  0.00  0.00     0.062 A 
ATOM      3  C2  UNL d   1       2.288  -1.255   2.994  0.00  0.00     0.162 A 
ATOM      4  C3  UNL d   1       1.305  -1.387   2.014  0.00  0.00    -0.034 A 
ATOM      5  C4  UNL d   1       1.684  -1.439   0.672  0.00  0.00     0.162 A 
ATOM      6  C5  UNL d   1       3.028  -1.362   0.319  0.00  0.00     0.062 A 
ATOM      7  F   UNL d   1       3.383  -1.414  -0.973  0.00  0.00    -0.097 F 
ATOM      8  F1  UNL d   1       0.764  -1.565  -0.296  0.00  0.00    -0.096 F 
ATOM      9  I   UNL d   1      -0.704  -1.502   2.546  0.00  0.00    -0.060 I 
ATOM     10  F2  UNL d   1       1.960  -1.201   4.294  0.00  0.00    -0.096 F 
ATOM     11  F3  UNL d   1       4.569  -1.052   3.585  0.00  0.00    -0.097 F 
ATOM     12  F4  UNL d   1       5.293  -1.157   0.957  0.00  0.00    -0.092 F 
ENDROOT
TORSDOF 0
ENDMDL
