MODEL 1
REMARK minimizedAffinity 26.8363419
REMARK minimizedRMSD -1
REMARK  0 active torsions:
REMARK  status: ('A' for Active; 'I' for Inactive)
ROOT
ATOM      1  C   UNL d   1      -2.835   1.359  -3.301  0.00  0.00     0.124 A 
ATOM      2  C1  UNL d   1      -1.516   1.700  -3.039  0.00  0.00     0.062 A 
ATOM      3  C2  UNL d   1      -0.743   0.909  -2.194  0.00  0.00     0.162 A 
ATOM      4  C3  UNL d   1      -1.287  -0.233  -1.606  0.00  0.00    -0.034 A 
ATOM      5  C4  UNL d   1      -2.616  -0.569  -1.873  0.00  0.00     0.162 A 
ATOM      6  C5  UNL d   1      -3.384   0.226  -2.718  0.00  0.00     0.062 A 
ATOM      7  F   UNL d   1      -4.659  -0.105  -2.970  0.00  0.00    -0.097 F 
ATOM      8  F1  UNL d   1      -3.171  -1.659  -1.324  0.00  0.00    -0.096 F 
ATOM      9  I   UNL d   1      -0.135  -1.418  -0.342  0.00  0.00    -0.060 I 
ATOM     10  F2  UNL d   1       0.530   1.262  -1.959  0.00  0.00    -0.096 F 
ATOM     11  F3  UNL d   1      -0.983   2.795  -3.600  0.00  0.00    -0.097 F 
ATOM     12  F4  UNL d   1      -3.577   2.123  -4.114  0.00  0.00    -0.092 F 
ENDROOT
TORSDOF 0
ENDMDL
