MODEL 1
REMARK minimizedAffinity 28.324625
REMARK minimizedRMSD -1
REMARK  0 active torsions:
REMARK  status: ('A' for Active; 'I' for Inactive)
ROOT
ATOM      1  C   UNL d   1       0.123  -1.830  -0.288  0.00  0.00     0.124 A 
ATOM      2  C1  UNL d   1       0.797  -1.598   0.903  0.00  0.00     0.062 A 
ATOM      3  C2  UNL d   1       2.183  -1.713   0.957  0.00  0.00     0.162 A 
ATOM      4  C3  UNL d   1       2.905  -2.062  -0.184  0.00  0.00    -0.034 A 
ATOM      5  C4  UNL d   1       2.220  -2.295  -1.378  0.00  0.00     0.162 A 
ATOM      6  C5  UNL d   1       0.835  -2.178  -1.427  0.00  0.00     0.062 A 
ATOM      7  F   UNL d   1       0.186  -2.403  -2.579  0.00  0.00    -0.097 F 
ATOM      8  F1  UNL d   1       2.884  -2.632  -2.494  0.00  0.00    -0.096 F 
ATOM      9  I   UNL d   1       4.978  -2.235  -0.107  0.00  0.00    -0.060 I 
ATOM     10  F2  UNL d   1       2.808  -1.483   2.122  0.00  0.00    -0.096 F 
ATOM     11  F3  UNL d   1       0.111  -1.262   2.005  0.00  0.00    -0.097 F 
ATOM     12  F4  UNL d   1      -1.211  -1.719  -0.337  0.00  0.00    -0.092 F 
ENDROOT
TORSDOF 0
ENDMDL
