MODEL 1
REMARK minimizedAffinity -2.86176705
REMARK minimizedRMSD -1
REMARK  0 active torsions:
REMARK  status: ('A' for Active; 'I' for Inactive)
ROOT
ATOM      1  C   UNL d   1       5.709  -2.652   2.481  0.00  0.00     0.023 A 
ATOM      2  C1  UNL d   1       5.876  -3.998   2.151  0.00  0.00     0.003 A 
ATOM      3  C2  UNL d   1       5.960  -4.959   3.160  0.00  0.00     0.048 A 
ATOM      4  C3  UNL d   1       5.875  -4.569   4.496  0.00  0.00     0.023 A 
ATOM      5  C4  UNL d   1       5.707  -3.224   4.830  0.00  0.00     0.048 A 
ATOM      6  C5  UNL d   1       5.625  -2.266   3.818  0.00  0.00     0.003 A 
ATOM      7  I   UNL d   1       5.999  -5.999   6.000  0.00  0.00    -0.146 I 
ENDROOT
TORSDOF 0
ENDMDL
