MODEL 1
REMARK minimizedAffinity -3.21060967
REMARK minimizedRMSD -1
REMARK  0 active torsions:
REMARK  status: ('A' for Active; 'I' for Inactive)
ROOT
ATOM      1  C   UNL d   1       5.927  -2.251   3.000  0.00  0.00     0.023 A 
ATOM      2  C1  UNL d   1       5.996  -2.065   4.381  0.00  0.00     0.003 A 
ATOM      3  C2  UNL d   1       5.766  -3.139   5.243  0.00  0.00     0.048 A 
ATOM      4  C3  UNL d   1       5.468  -4.396   4.718  0.00  0.00     0.023 A 
ATOM      5  C4  UNL d   1       5.399  -4.586   3.337  0.00  0.00     0.048 A 
ATOM      6  C5  UNL d   1       5.629  -3.510   2.479  0.00  0.00     0.003 A 
ATOM      7  I   UNL d   1       5.125  -5.996   6.000  0.00  0.00    -0.146 I 
ENDROOT
TORSDOF 0
ENDMDL
