MODEL 1
REMARK minimizedAffinity -1.42632008
REMARK minimizedRMSD -1
REMARK  0 active torsions:
REMARK  status: ('A' for Active; 'I' for Inactive)
ROOT
ATOM      1  C   UNL d   1       5.073  -3.623   5.999  0.00  0.00     0.023 A 
ATOM      2  C1  UNL d   1       5.550  -4.869   5.593  0.00  0.00     0.003 A 
ATOM      3  C2  UNL d   1       5.816  -5.110   4.243  0.00  0.00     0.048 A 
ATOM      4  C3  UNL d   1       5.604  -4.100   3.306  0.00  0.00     0.023 A 
ATOM      5  C4  UNL d   1       5.128  -2.851   3.708  0.00  0.00     0.048 A 
ATOM      6  C5  UNL d   1       4.862  -2.615   5.058  0.00  0.00     0.003 A 
ATOM      7  I   UNL d   1       6.000  -4.456   1.297  0.00  0.00    -0.146 I 
ENDROOT
TORSDOF 0
ENDMDL
