MODEL 1
REMARK minimizedAffinity -1.51590359
REMARK minimizedRMSD -1
REMARK  0 active torsions:
REMARK  status: ('A' for Active; 'I' for Inactive)
ROOT
ATOM      1  C   UNL d   1       5.641  -5.340   5.873  0.00  0.00     0.023 A 
ATOM      2  C1  UNL d   1       5.872  -5.990   4.660  0.00  0.00     0.003 A 
ATOM      3  C2  UNL d   1       5.975  -5.252   3.479  0.00  0.00     0.048 A 
ATOM      4  C3  UNL d   1       5.847  -3.864   3.518  0.00  0.00     0.023 A 
ATOM      5  C4  UNL d   1       5.616  -3.209   4.729  0.00  0.00     0.048 A 
ATOM      6  C5  UNL d   1       5.513  -3.951   5.907  0.00  0.00     0.003 A 
ATOM      7  I   UNL d   1       6.000  -2.763   1.762  0.00  0.00    -0.146 I 
ENDROOT
TORSDOF 0
ENDMDL
