MODEL 1
REMARK minimizedAffinity -0.0605647825
REMARK minimizedRMSD -1
REMARK  0 active torsions:
REMARK  status: ('A' for Active; 'I' for Inactive)
ROOT
ATOM      1  C   UNL d   1       4.096  -5.988   5.999  0.00  0.00     0.023 A 
ATOM      2  C1  UNL d   1       5.452  -5.661   5.999  0.00  0.00     0.003 A 
ATOM      3  C2  UNL d   1       6.000  -4.948   4.931  0.00  0.00     0.048 A 
ATOM      4  C3  UNL d   1       5.186  -4.565   3.865  0.00  0.00     0.023 A 
ATOM      5  C4  UNL d   1       3.828  -4.890   3.861  0.00  0.00     0.048 A 
ATOM      6  C5  UNL d   1       3.285  -5.603   4.931  0.00  0.00     0.003 A 
ATOM      7  I   UNL d   1       5.999  -3.504   2.274  0.00  0.00    -0.146 I 
ENDROOT
TORSDOF 0
ENDMDL
