MODEL 1
REMARK minimizedAffinity -3.50353694
REMARK minimizedRMSD -1
REMARK  0 active torsions:
REMARK  status: ('A' for Active; 'I' for Inactive)
ROOT
ATOM      1  C   UNL d   1       5.973  -2.704   2.524  0.00  0.00     0.023 A 
ATOM      2  C1  UNL d   1       6.000  -4.071   2.250  0.00  0.00     0.003 A 
ATOM      3  C2  UNL d   1       5.667  -4.991   3.247  0.00  0.00     0.048 A 
ATOM      4  C3  UNL d   1       5.308  -4.537   4.515  0.00  0.00     0.023 A 
ATOM      5  C4  UNL d   1       5.279  -3.170   4.794  0.00  0.00     0.048 A 
ATOM      6  C5  UNL d   1       5.613  -2.254   3.794  0.00  0.00     0.003 A 
ATOM      7  I   UNL d   1       4.813  -5.904   6.000  0.00  0.00    -0.146 I 
ENDROOT
TORSDOF 0
ENDMDL
