MODEL 1
REMARK minimizedAffinity -2.70512962
REMARK minimizedRMSD -1
REMARK  0 active torsions:
REMARK  status: ('A' for Active; 'I' for Inactive)
ROOT
ATOM      1  C   UNL d   1       6.000  -2.204   3.865  0.00  0.00     0.023 A 
ATOM      2  C1  UNL d   1       5.642  -2.136   5.212  0.00  0.00     0.003 A 
ATOM      3  C2  UNL d   1       5.018  -3.225   5.826  0.00  0.00     0.048 A 
ATOM      4  C3  UNL d   1       4.757  -4.378   5.087  0.00  0.00     0.023 A 
ATOM      5  C4  UNL d   1       5.115  -4.452   3.740  0.00  0.00     0.048 A 
ATOM      6  C5  UNL d   1       5.737  -3.360   3.130  0.00  0.00     0.003 A 
ATOM      7  I   UNL d   1       3.830  -6.000   5.999  0.00  0.00    -0.146 I 
ENDROOT
TORSDOF 0
ENDMDL
