MODEL 1
REMARK minimizedAffinity -1.72205591
REMARK minimizedRMSD -1
REMARK  0 active torsions:
REMARK  status: ('A' for Active; 'I' for Inactive)
ROOT
ATOM      1  C   UNL d   1       5.960  -2.392   3.241  0.00  0.00     0.023 A 
ATOM      2  C1  UNL d   1       5.998  -3.706   2.775  0.00  0.00     0.003 A 
ATOM      3  C2  UNL d   1       5.498  -4.743   3.566  0.00  0.00     0.048 A 
ATOM      4  C3  UNL d   1       4.961  -4.458   4.821  0.00  0.00     0.023 A 
ATOM      5  C4  UNL d   1       4.921  -3.144   5.291  0.00  0.00     0.048 A 
ATOM      6  C5  UNL d   1       5.423  -2.111   4.497  0.00  0.00     0.003 A 
ATOM      7  I   UNL d   1       4.217  -6.000   6.000  0.00  0.00    -0.146 I 
ENDROOT
TORSDOF 0
ENDMDL
