MODEL 1
REMARK minimizedAffinity -3.08208513
REMARK minimizedRMSD -1
REMARK  0 active torsions:
REMARK  status: ('A' for Active; 'I' for Inactive)
ROOT
ATOM      1  C   UNL d   1       5.959  -5.310   2.100  0.00  0.00     0.023 A 
ATOM      2  C1  UNL d   1       5.905  -5.862   3.380  0.00  0.00     0.003 A 
ATOM      3  C2  UNL d   1       5.890  -5.028   4.501  0.00  0.00     0.048 A 
ATOM      4  C3  UNL d   1       5.929  -3.645   4.334  0.00  0.00     0.023 A 
ATOM      5  C4  UNL d   1       5.983  -3.088   3.055  0.00  0.00     0.048 A 
ATOM      6  C5  UNL d   1       5.998  -3.925   1.937  0.00  0.00     0.003 A 
ATOM      7  I   UNL d   1       5.906  -2.402   6.000  0.00  0.00    -0.146 I 
ENDROOT
TORSDOF 0
ENDMDL
