MODEL 1
REMARK minimizedAffinity -2.50686145
REMARK minimizedRMSD -1
REMARK  0 active torsions:
REMARK  status: ('A' for Active; 'I' for Inactive)
ROOT
ATOM      1  C   UNL d   1       5.990  -2.302   2.932  0.00  0.00     0.023 A 
ATOM      2  C1  UNL d   1       6.000  -3.614   2.458  0.00  0.00     0.003 A 
ATOM      3  C2  UNL d   1       5.772  -4.676   3.336  0.00  0.00     0.048 A 
ATOM      4  C3  UNL d   1       5.534  -4.419   4.686  0.00  0.00     0.023 A 
ATOM      5  C4  UNL d   1       5.522  -3.108   5.164  0.00  0.00     0.048 A 
ATOM      6  C5  UNL d   1       5.751  -2.049   4.283  0.00  0.00     0.003 A 
ATOM      7  I   UNL d   1       5.195  -5.998   5.994  0.00  0.00    -0.146 I 
ENDROOT
TORSDOF 0
ENDMDL
