MODEL 1
REMARK minimizedAffinity -0.959889889
REMARK minimizedRMSD -1
REMARK  0 active torsions:
REMARK  status: ('A' for Active; 'I' for Inactive)
ROOT
ATOM      1  C   UNL d   1       5.975  -2.005   3.474  0.00  0.00     0.023 A 
ATOM      2  C1  UNL d   1       5.999  -3.259   2.864  0.00  0.00     0.003 A 
ATOM      3  C2  UNL d   1       5.635  -4.396   3.587  0.00  0.00     0.048 A 
ATOM      4  C3  UNL d   1       5.246  -4.272   4.921  0.00  0.00     0.023 A 
ATOM      5  C4  UNL d   1       5.219  -3.019   5.535  0.00  0.00     0.048 A 
ATOM      6  C5  UNL d   1       5.585  -1.885   4.808  0.00  0.00     0.003 A 
ATOM      7  I   UNL d   1       4.703  -5.963   6.000  0.00  0.00    -0.146 I 
ENDROOT
TORSDOF 0
ENDMDL
