MODEL 1
REMARK minimizedAffinity -2.88725471
REMARK minimizedRMSD -1
REMARK  0 active torsions:
REMARK  status: ('A' for Active; 'I' for Inactive)
ROOT
ATOM      1  C   UNL d   1       5.999  -4.015   1.672  0.00  0.00     0.023 A 
ATOM      2  C1  UNL d   1       5.994  -5.402   1.819  0.00  0.00     0.003 A 
ATOM      3  C2  UNL d   1       5.679  -5.973   3.053  0.00  0.00     0.048 A 
ATOM      4  C3  UNL d   1       5.371  -5.152   4.137  0.00  0.00     0.023 A 
ATOM      5  C4  UNL d   1       5.375  -3.763   3.995  0.00  0.00     0.048 A 
ATOM      6  C5  UNL d   1       5.690  -3.196   2.759  0.00  0.00     0.003 A 
ATOM      7  I   UNL d   1       4.902  -6.000   5.976  0.00  0.00    -0.146 I 
ENDROOT
TORSDOF 0
ENDMDL
