MODEL 1
REMARK minimizedAffinity -3.02060795
REMARK minimizedRMSD -1
REMARK  0 active torsions:
REMARK  status: ('A' for Active; 'I' for Inactive)
ROOT
ATOM      1  C   UNL d   1       5.926  -2.078   3.572  0.00  0.00     0.023 A 
ATOM      2  C1  UNL d   1       5.398  -1.936   4.855  0.00  0.00     0.003 A 
ATOM      3  C2  UNL d   1       4.940  -3.057   5.551  0.00  0.00     0.048 A 
ATOM      4  C3  UNL d   1       5.015  -4.317   4.958  0.00  0.00     0.023 A 
ATOM      5  C4  UNL d   1       5.544  -4.464   3.674  0.00  0.00     0.048 A 
ATOM      6  C5  UNL d   1       5.999  -3.340   2.983  0.00  0.00     0.003 A 
ATOM      7  I   UNL d   1       4.334  -5.987   5.991  0.00  0.00    -0.146 I 
ENDROOT
TORSDOF 0
ENDMDL
