MODEL 1
REMARK minimizedAffinity -2.14966941
REMARK minimizedRMSD -1
REMARK  0 active torsions:
REMARK  status: ('A' for Active; 'I' for Inactive)
ROOT
ATOM      1  C   UNL d   1       5.554  -3.087   6.000  0.00  0.00     0.023 A 
ATOM      2  C1  UNL d   1       5.870  -2.314   4.883  0.00  0.00     0.003 A 
ATOM      3  C2  UNL d   1       5.998  -2.915   3.629  0.00  0.00     0.048 A 
ATOM      4  C3  UNL d   1       5.808  -4.290   3.500  0.00  0.00     0.023 A 
ATOM      5  C4  UNL d   1       5.490  -5.068   4.614  0.00  0.00     0.048 A 
ATOM      6  C5  UNL d   1       5.364  -4.462   5.866  0.00  0.00     0.003 A 
ATOM      7  I   UNL d   1       5.998  -5.188   1.635  0.00  0.00    -0.146 I 
ENDROOT
TORSDOF 0
ENDMDL
