MODEL 1
REMARK minimizedAffinity -3.0108192
REMARK minimizedRMSD -1
REMARK  0 active torsions:
REMARK  status: ('A' for Active; 'I' for Inactive)
ROOT
ATOM      1  C   UNL d   1       5.150  -2.695   2.389  0.00  0.00     0.023 A 
ATOM      2  C1  UNL d   1       4.800  -2.366   3.698  0.00  0.00     0.003 A 
ATOM      3  C2  UNL d   1       5.042  -3.270   4.735  0.00  0.00     0.048 A 
ATOM      4  C3  UNL d   1       5.635  -4.501   4.455  0.00  0.00     0.023 A 
ATOM      5  C4  UNL d   1       5.987  -4.834   3.146  0.00  0.00     0.048 A 
ATOM      6  C5  UNL d   1       5.742  -3.927   2.113  0.00  0.00     0.003 A 
ATOM      7  I   UNL d   1       5.996  -5.847   5.996  0.00  0.00    -0.146 I 
ENDROOT
TORSDOF 0
ENDMDL
