MODEL 1
REMARK minimizedAffinity -3.41169739
REMARK minimizedRMSD -1
REMARK  0 active torsions:
REMARK  status: ('A' for Active; 'I' for Inactive)
ROOT
ATOM      1  C   UNL d   1       5.842  -2.180   2.062  0.00  0.00     0.023 A 
ATOM      2  C1  UNL d   1       6.000  -1.693   3.359  0.00  0.00     0.003 A 
ATOM      3  C2  UNL d   1       5.949  -2.568   4.446  0.00  0.00     0.048 A 
ATOM      4  C3  UNL d   1       5.740  -3.929   4.229  0.00  0.00     0.023 A 
ATOM      5  C4  UNL d   1       5.583  -4.422   2.932  0.00  0.00     0.048 A 
ATOM      6  C5  UNL d   1       5.634  -3.543   1.848  0.00  0.00     0.003 A 
ATOM      7  I   UNL d   1       5.664  -5.233   5.845  0.00  0.00    -0.146 I 
ENDROOT
TORSDOF 0
ENDMDL
