MODEL 1
REMARK minimizedAffinity 0.230100051
REMARK minimizedRMSD -1
REMARK  0 active torsions:
REMARK  status: ('A' for Active; 'I' for Inactive)
ROOT
ATOM      1  C   UNL d   1       4.135  -5.617   4.129  0.00  0.00     0.023 A 
ATOM      2  C1  UNL d   1       4.954  -4.798   3.351  0.00  0.00     0.003 A 
ATOM      3  C2  UNL d   1       5.472  -3.617   3.886  0.00  0.00     0.048 A 
ATOM      4  C3  UNL d   1       5.169  -3.261   5.199  0.00  0.00     0.023 A 
ATOM      5  C4  UNL d   1       4.351  -4.078   5.982  0.00  0.00     0.048 A 
ATOM      6  C5  UNL d   1       3.834  -5.258   5.442  0.00  0.00     0.003 A 
ATOM      7  I   UNL d   1       5.939  -1.504   5.998  0.00  0.00    -0.146 I 
ENDROOT
TORSDOF 0
ENDMDL
