MODEL 1
REMARK minimizedAffinity 5.85190105
REMARK minimizedRMSD -1
REMARK  0 active torsions:
REMARK  status: ('A' for Active; 'I' for Inactive)
ROOT
ATOM      1  C1  DEN d   1       1.340   0.551   3.521  0.00  0.00     0.130 A 
ATOM      2  C2  DEN d   1       1.438  -0.884   3.777  0.00  0.00    -0.031 A 
ATOM      3  C3  DEN d   1       0.567  -1.581   2.810  0.00  0.00     0.027 A 
ATOM      4  C4  DEN d   1      -0.912  -0.586   0.947  0.00  0.00     0.027 A 
ATOM      5  C5  DEN d   1      -1.332   0.583   0.351  0.00  0.00    -0.003 A 
ATOM      6  C6  DEN d   1      -0.921   1.814   0.788  0.00  0.00     0.001 A 
ATOM      7  C7  DEN d   1      -0.028   1.904   1.823  0.00  0.00     0.017 A 
ATOM      8  C8  DEN d   1       0.394   0.730   2.434  0.00  0.00    -0.094 A 
ATOM      9  C9  DEN d   1      -0.024  -0.506   1.969  0.00  0.00    -0.072 A 
ENDROOT
TORSDOF 0
ENDMDL
