MODEL 1
REMARK minimizedAffinity 0.767888606
REMARK minimizedRMSD -1
REMARK  0 active torsions:
REMARK  status: ('A' for Active; 'I' for Inactive)
ROOT
ATOM      1  C1  DEN d   1      -2.239   2.332   3.139  0.00  0.00     0.130 A 
ATOM      2  C2  DEN d   1      -2.366   3.689   2.613  0.00  0.00    -0.031 A 
ATOM      3  C3  DEN d   1      -1.325   3.878   1.583  0.00  0.00     0.027 A 
ATOM      4  C4  DEN d   1       0.458   2.211   0.751  0.00  0.00     0.027 A 
ATOM      5  C5  DEN d   1       0.966   0.940   0.907  0.00  0.00    -0.003 A 
ATOM      6  C6  DEN d   1       0.468   0.063   1.834  0.00  0.00     0.001 A 
ATOM      7  C7  DEN d   1      -0.600   0.430   2.610  0.00  0.00     0.017 A 
ATOM      8  C8  DEN d   1      -1.113   1.712   2.464  0.00  0.00    -0.094 A 
ATOM      9  C9  DEN d   1      -0.603   2.580   1.512  0.00  0.00    -0.072 A 
ENDROOT
TORSDOF 0
ENDMDL
