MODEL 1
REMARK minimizedAffinity -1.27496433
REMARK minimizedRMSD -1
REMARK  0 active torsions:
REMARK  status: ('A' for Active; 'I' for Inactive)
ROOT
ATOM      1  C1  DEN d   1      -0.083  -0.843   1.769  0.00  0.00     0.130 A 
ATOM      2  C2  DEN d   1       0.945   0.011   1.180  0.00  0.00    -0.031 A 
ATOM      3  C3  DEN d   1       0.418   1.389   1.127  0.00  0.00     0.027 A 
ATOM      4  C4  DEN d   1      -1.876   2.281   1.900  0.00  0.00     0.027 A 
ATOM      5  C5  DEN d   1      -3.087   1.931   2.454  0.00  0.00    -0.003 A 
ATOM      6  C6  DEN d   1      -3.393   0.637   2.784  0.00  0.00     0.001 A 
ATOM      7  C7  DEN d   1      -2.458  -0.348   2.605  0.00  0.00     0.017 A 
ATOM      8  C8  DEN d   1      -1.237  -0.004   2.041  0.00  0.00    -0.094 A 
ATOM      9  C9  DEN d   1      -0.942   1.311   1.725  0.00  0.00    -0.072 A 
ENDROOT
TORSDOF 0
ENDMDL
