MODEL 1
REMARK minimizedAffinity 4.69662428
REMARK minimizedRMSD -1
REMARK  0 active torsions:
REMARK  status: ('A' for Active; 'I' for Inactive)
ROOT
ATOM      1  C1  DEN d   1      -2.288   1.962   2.571  0.00  0.00     0.130 A 
ATOM      2  C2  DEN d   1      -2.569   3.183   1.821  0.00  0.00    -0.031 A 
ATOM      3  C3  DEN d   1      -1.428   3.437   0.917  0.00  0.00     0.027 A 
ATOM      4  C4  DEN d   1       0.731   2.061   0.605  0.00  0.00     0.027 A 
ATOM      5  C5  DEN d   1       1.425   0.949   1.030  0.00  0.00    -0.003 A 
ATOM      6  C6  DEN d   1       0.949   0.123   2.013  0.00  0.00     0.001 A 
ATOM      7  C7  DEN d   1      -0.276   0.371   2.574  0.00  0.00     0.017 A 
ATOM      8  C8  DEN d   1      -0.978   1.494   2.157  0.00  0.00    -0.094 A 
ATOM      9  C9  DEN d   1      -0.486   2.310   1.152  0.00  0.00    -0.072 A 
ENDROOT
TORSDOF 0
ENDMDL
