MODEL 1
REMARK minimizedAffinity 1.48362625
REMARK minimizedRMSD -1
REMARK  0 active torsions:
REMARK  status: ('A' for Active; 'I' for Inactive)
ROOT
ATOM      1  C1  DEN d   1      -3.099   1.535   3.685  0.00  0.00     0.130 A 
ATOM      2  C2  DEN d   1      -4.136   0.555   3.376  0.00  0.00    -0.031 A 
ATOM      3  C3  DEN d   1      -3.508  -0.555   2.631  0.00  0.00     0.027 A 
ATOM      4  C4  DEN d   1      -1.042  -0.851   1.936  0.00  0.00     0.027 A 
ATOM      5  C5  DEN d   1       0.210  -0.276   1.965  0.00  0.00    -0.003 A 
ATOM      6  C6  DEN d   1       0.437   0.949   2.534  0.00  0.00     0.001 A 
ATOM      7  C7  DEN d   1      -0.593   1.619   3.139  0.00  0.00     0.017 A 
ATOM      8  C8  DEN d   1      -1.859   1.049   3.108  0.00  0.00    -0.094 A 
ATOM      9  C9  DEN d   1      -2.067  -0.196   2.538  0.00  0.00    -0.072 A 
ENDROOT
TORSDOF 0
ENDMDL
