MODEL 1
REMARK minimizedAffinity 1.82819581
REMARK minimizedRMSD -1
REMARK  0 active torsions:
REMARK  status: ('A' for Active; 'I' for Inactive)
ROOT
ATOM      1  C1  DEN d   1       0.417  -0.281   2.713  0.00  0.00     0.130 A 
ATOM      2  C2  DEN d   1       1.712  -0.539   2.089  0.00  0.00    -0.031 A 
ATOM      3  C3  DEN d   1       1.948   0.510   1.077  0.00  0.00     0.027 A 
ATOM      4  C4  DEN d   1       0.445   2.501   0.422  0.00  0.00     0.027 A 
ATOM      5  C5  DEN d   1      -0.757   3.128   0.666  0.00  0.00    -0.003 A 
ATOM      6  C6  DEN d   1      -1.659   2.648   1.578  0.00  0.00     0.001 A 
ATOM      7  C7  DEN d   1      -1.354   1.532   2.312  0.00  0.00     0.017 A 
ATOM      8  C8  DEN d   1      -0.147   0.890   2.066  0.00  0.00    -0.094 A 
ATOM      9  C9  DEN d   1       0.757   1.398   1.149  0.00  0.00    -0.072 A 
ENDROOT
TORSDOF 0
ENDMDL
