MODEL 1
REMARK minimizedAffinity 0.372423649
REMARK minimizedRMSD -1
REMARK  0 active torsions:
REMARK  status: ('A' for Active; 'I' for Inactive)
ROOT
ATOM      1  C1  DEN d   1      -0.321  -1.981   3.505  0.00  0.00     0.130 A 
ATOM      2  C2  DEN d   1      -1.725  -2.068   3.897  0.00  0.00    -0.031 A 
ATOM      3  C3  DEN d   1      -2.448  -0.951   3.257  0.00  0.00     0.027 A 
ATOM      4  C4  DEN d   1      -1.535   0.893   1.701  0.00  0.00     0.027 A 
ATOM      5  C5  DEN d   1      -0.405   1.389   1.091  0.00  0.00    -0.003 A 
ATOM      6  C6  DEN d   1       0.829   0.821   1.268  0.00  0.00     0.001 A 
ATOM      7  C7  DEN d   1       0.954  -0.304   2.039  0.00  0.00     0.017 A 
ATOM      8  C8  DEN d   1      -0.180  -0.805   2.664  0.00  0.00    -0.094 A 
ATOM      9  C9  DEN d   1      -1.421  -0.224   2.463  0.00  0.00    -0.072 A 
ENDROOT
TORSDOF 0
ENDMDL
