MODEL 1
REMARK minimizedAffinity 0.457214564
REMARK minimizedRMSD -1
REMARK  0 active torsions:
REMARK  status: ('A' for Active; 'I' for Inactive)
ROOT
ATOM      1  C1  DEN d   1      -1.797   2.047   3.832  0.00  0.00     0.130 A 
ATOM      2  C2  DEN d   1      -1.800   1.076   2.741  0.00  0.00    -0.031 A 
ATOM      3  C3  DEN d   1      -3.124   0.422   2.717  0.00  0.00     0.027 A 
ATOM      4  C4  DEN d   1      -5.159   0.819   4.251  0.00  0.00     0.027 A 
ATOM      5  C5  DEN d   1      -5.629   1.537   5.329  0.00  0.00    -0.003 A 
ATOM      6  C6  DEN d   1      -4.850   2.443   5.999  0.00  0.00     0.001 A 
ATOM      7  C7  DEN d   1      -3.572   2.688   5.570  0.00  0.00     0.017 A 
ATOM      8  C8  DEN d   1      -3.089   1.963   4.488  0.00  0.00    -0.094 A 
ATOM      9  C9  DEN d   1      -3.896   1.061   3.817  0.00  0.00    -0.072 A 
ENDROOT
TORSDOF 0
ENDMDL
