MODEL 1
REMARK minimizedAffinity -0.630565226
REMARK minimizedRMSD -1
REMARK  0 active torsions:
REMARK  status: ('A' for Active; 'I' for Inactive)
ROOT
ATOM      1  C1  DEN d   1      -0.562   3.025   1.715  0.00  0.00     0.130 A 
ATOM      2  C2  DEN d   1       0.402   2.302   0.890  0.00  0.00    -0.031 A 
ATOM      3  C3  DEN d   1       0.040   0.871   0.912  0.00  0.00     0.027 A 
ATOM      4  C4  DEN d   1      -1.912  -0.290   2.134  0.00  0.00     0.027 A 
ATOM      5  C5  DEN d   1      -2.990  -0.093   2.968  0.00  0.00    -0.003 A 
ATOM      6  C6  DEN d   1      -3.311   1.142   3.467  0.00  0.00     0.001 A 
ATOM      7  C7  DEN d   1      -2.573   2.235   3.099  0.00  0.00     0.017 A 
ATOM      8  C8  DEN d   1      -1.480   2.043   2.264  0.00  0.00    -0.094 A 
ATOM      9  C9  DEN d   1      -1.179   0.789   1.761  0.00  0.00    -0.072 A 
ENDROOT
TORSDOF 0
ENDMDL
