MODEL 1
REMARK minimizedAffinity -2.25251818
REMARK minimizedRMSD -1
REMARK  0 active torsions:
REMARK  status: ('A' for Active; 'I' for Inactive)
ROOT
ATOM      1  C1  DEN d   1      -1.975  -1.172   2.177  0.00  0.00     0.130 A 
ATOM      2  C2  DEN d   1      -3.139  -0.720   2.934  0.00  0.00    -0.031 A 
ATOM      3  C3  DEN d   1      -3.005   0.734   3.152  0.00  0.00     0.027 A 
ATOM      4  C4  DEN d   1      -1.122   2.322   2.389  0.00  0.00     0.027 A 
ATOM      5  C5  DEN d   1       0.084   2.398   1.727  0.00  0.00    -0.003 A 
ATOM      6  C6  DEN d   1       0.699   1.292   1.203  0.00  0.00     0.001 A 
ATOM      7  C7  DEN d   1       0.088   0.069   1.292  0.00  0.00     0.017 A 
ATOM      8  C8  DEN d   1      -1.124  -0.016   1.964  0.00  0.00    -0.094 A 
ATOM      9  C9  DEN d   1      -1.736   1.115   2.477  0.00  0.00    -0.072 A 
ENDROOT
TORSDOF 0
ENDMDL
