MODEL 1
REMARK minimizedAffinity -2.37464833
REMARK minimizedRMSD -1
REMARK  0 active torsions:
REMARK  status: ('A' for Active; 'I' for Inactive)
ROOT
ATOM      1  C1  DEN d   1      -0.379  -1.234   1.939  0.00  0.00     0.130 A 
ATOM      2  C2  DEN d   1      -1.284  -2.156   2.619  0.00  0.00    -0.031 A 
ATOM      3  C3  DEN d   1      -2.402  -1.370   3.178  0.00  0.00     0.027 A 
ATOM      4  C4  DEN d   1      -2.820   1.172   3.052  0.00  0.00     0.027 A 
ATOM      5  C5  DEN d   1      -2.322   2.370   2.589  0.00  0.00    -0.003 A 
ATOM      6  C6  DEN d   1      -1.135   2.454   1.913  0.00  0.00     0.001 A 
ATOM      7  C7  DEN d   1      -0.426   1.314   1.640  0.00  0.00     0.017 A 
ATOM      8  C8  DEN d   1      -0.918   0.103   2.109  0.00  0.00    -0.094 A 
ATOM      9  C9  DEN d   1      -2.127   0.037   2.781  0.00  0.00    -0.072 A 
ENDROOT
TORSDOF 0
ENDMDL
