MODEL 1
REMARK minimizedAffinity -0.993818402
REMARK minimizedRMSD -1
REMARK  0 active torsions:
REMARK  status: ('A' for Active; 'I' for Inactive)
ROOT
ATOM      1  C1  DEN d   1       0.563   1.222   0.907  0.00  0.00     0.130 A 
ATOM      2  C2  DEN d   1       0.678  -0.227   0.765  0.00  0.00    -0.031 A 
ATOM      3  C3  DEN d   1      -0.503  -0.843   1.402  0.00  0.00     0.027 A 
ATOM      4  C4  DEN d   1      -2.490   0.299   2.585  0.00  0.00     0.027 A 
ATOM      5  C5  DEN d   1      -3.025   1.510   2.965  0.00  0.00    -0.003 A 
ATOM      6  C6  DEN d   1      -2.389   2.699   2.718  0.00  0.00     0.001 A 
ATOM      7  C7  DEN d   1      -1.204   2.705   2.032  0.00  0.00     0.017 A 
ATOM      8  C8  DEN d   1      -0.655   1.487   1.652  0.00  0.00    -0.094 A 
ATOM      9  C9  DEN d   1      -1.318   0.297   1.901  0.00  0.00    -0.072 A 
ENDROOT
TORSDOF 0
ENDMDL
