MODEL 1
REMARK minimizedAffinity -3.31883144
REMARK minimizedRMSD -1
REMARK  0 active torsions:
REMARK  status: ('A' for Active; 'I' for Inactive)
ROOT
ATOM      1  C1  DEN d   1      -2.465   1.267   2.727  0.00  0.00     0.130 A 
ATOM      2  C2  DEN d   1      -2.120   2.683   2.634  0.00  0.00    -0.031 A 
ATOM      3  C3  DEN d   1      -0.842   2.794   1.902  0.00  0.00     0.027 A 
ATOM      4  C4  DEN d   1       0.626   0.921   0.906  0.00  0.00     0.027 A 
ATOM      5  C5  DEN d   1       0.751  -0.441   0.745  0.00  0.00    -0.003 A 
ATOM      6  C6  DEN d   1      -0.162  -1.324   1.258  0.00  0.00     0.001 A 
ATOM      7  C7  DEN d   1      -1.266  -0.852   1.919  0.00  0.00     0.017 A 
ATOM      8  C8  DEN d   1      -1.395   0.519   2.092  0.00  0.00    -0.094 A 
ATOM      9  C9  DEN d   1      -0.467   1.396   1.555  0.00  0.00    -0.072 A 
ENDROOT
TORSDOF 0
ENDMDL
