MODEL 1
REMARK minimizedAffinity 5.89494562
REMARK minimizedRMSD -1
REMARK  0 active torsions:
REMARK  status: ('A' for Active; 'I' for Inactive)
ROOT
ATOM      1  C1  DEN d   1      -5.197   1.332   5.433  0.00  0.00     0.130 A 
ATOM      2  C2  DEN d   1      -5.191   2.678   6.000  0.00  0.00    -0.031 A 
ATOM      3  C3  DEN d   1      -4.112   3.444   5.344  0.00  0.00     0.027 A 
ATOM      4  C4  DEN d   1      -2.462   2.683   3.514  0.00  0.00     0.027 A 
ATOM      5  C5  DEN d   1      -2.072   1.623   2.725  0.00  0.00    -0.003 A 
ATOM      6  C6  DEN d   1      -2.669   0.393   2.806  0.00  0.00     0.001 A 
ATOM      7  C7  DEN d   1      -3.719   0.204   3.665  0.00  0.00     0.017 A 
ATOM      8  C8  DEN d   1      -4.113   1.265   4.469  0.00  0.00    -0.094 A 
ATOM      9  C9  DEN d   1      -3.505   2.505   4.363  0.00  0.00    -0.072 A 
ENDROOT
TORSDOF 0
ENDMDL
