MODEL 1
REMARK minimizedAffinity 2.94977808
REMARK minimizedRMSD -1
REMARK  0 active torsions:
REMARK  status: ('A' for Active; 'I' for Inactive)
ROOT
ATOM      1  C1  DEN d   1      -4.383  -2.235   3.718  0.00  0.00     0.130 A 
ATOM      2  C2  DEN d   1      -4.271  -3.472   4.486  0.00  0.00    -0.031 A 
ATOM      3  C3  DEN d   1      -2.855  -3.893   4.471  0.00  0.00     0.027 A 
ATOM      4  C4  DEN d   1      -0.836  -2.751   3.343  0.00  0.00     0.027 A 
ATOM      5  C5  DEN d   1      -0.438  -1.684   2.569  0.00  0.00    -0.003 A 
ATOM      6  C6  DEN d   1      -1.324  -0.752   2.098  0.00  0.00     0.001 A 
ATOM      7  C7  DEN d   1      -2.649  -0.844   2.436  0.00  0.00     0.017 A 
ATOM      8  C8  DEN d   1      -3.059  -1.922   3.210  0.00  0.00    -0.094 A 
ATOM      9  C9  DEN d   1      -2.145  -2.847   3.686  0.00  0.00    -0.072 A 
ENDROOT
TORSDOF 0
ENDMDL
