MODEL 1
REMARK minimizedAffinity -3.89463592
REMARK minimizedRMSD -1
REMARK  0 active torsions:
REMARK  status: ('A' for Active; 'I' for Inactive)
ROOT
ATOM      1  C   UNL d   1      -0.034   0.374   0.142  0.00  0.00     0.020 A 
ATOM      2  C1  UNL d   1      -0.034   1.768   0.165  0.00  0.00     0.020 A 
ATOM      3  C2  UNL d   1      -1.214   2.462   0.443  0.00  0.00     0.034 A 
ATOM      4  C3  UNL d   1      -2.399   1.762   0.698  0.00  0.00     0.017 A 
ATOM      5  C4  UNL d   1      -2.398   0.362   0.674  0.00  0.00     0.017 A 
ATOM      6  C5  UNL d   1      -1.214  -0.327   0.395  0.00  0.00     0.034 A 
ATOM      7 Cl   UNL d   1      -3.821  -0.571   0.978  0.00  0.00    -0.070 Cl
ATOM      8 Cl1  UNL d   1      -3.821   2.684   1.034  0.00  0.00    -0.070 Cl
ENDROOT
TORSDOF 0
ENDMDL
