MODEL 1
REMARK minimizedAffinity 6.97915077
REMARK minimizedRMSD -1
REMARK  0 active torsions:
REMARK  status: ('A' for Active; 'I' for Inactive)
ROOT
ATOM      1  C   UNL d   1      -3.857  -3.509  -0.395  0.00  0.00     0.020 A 
ATOM      2  C1  UNL d   1      -3.323  -4.787  -0.553  0.00  0.00     0.020 A 
ATOM      3  C2  UNL d   1      -2.529  -5.080  -1.664  0.00  0.00     0.034 A 
ATOM      4  C3  UNL d   1      -2.267  -4.093  -2.621  0.00  0.00     0.017 A 
ATOM      5  C4  UNL d   1      -2.804  -2.810  -2.462  0.00  0.00     0.017 A 
ATOM      6  C5  UNL d   1      -3.598  -2.523  -1.347  0.00  0.00     0.034 A 
ATOM      7 Cl   UNL d   1      -2.525  -1.540  -3.601  0.00  0.00    -0.070 Cl
ATOM      8 Cl1  UNL d   1      -1.277  -4.524  -3.970  0.00  0.00    -0.070 Cl
ENDROOT
TORSDOF 0
ENDMDL
