MODEL 1
REMARK minimizedAffinity 1.77123308
REMARK minimizedRMSD -1
REMARK  0 active torsions:
REMARK  status: ('A' for Active; 'I' for Inactive)
ROOT
ATOM      1  C   UNL d   1      -1.692   2.342  -0.192  0.00  0.00     0.020 A 
ATOM      2  C1  UNL d   1      -1.384   1.043   0.214  0.00  0.00     0.020 A 
ATOM      3  C2  UNL d   1      -2.367   0.244   0.802  0.00  0.00     0.034 A 
ATOM      4  C3  UNL d   1      -3.662   0.742   0.986  0.00  0.00     0.017 A 
ATOM      5  C4  UNL d   1      -3.970   2.045   0.578  0.00  0.00     0.017 A 
ATOM      6  C5  UNL d   1      -2.982   2.841  -0.010  0.00  0.00     0.034 A 
ATOM      7 Cl   UNL d   1      -5.545   2.730   0.772  0.00  0.00    -0.070 Cl
ATOM      8 Cl1  UNL d   1      -4.828  -0.301   1.719  0.00  0.00    -0.070 Cl
ENDROOT
TORSDOF 0
ENDMDL
