MODEL 1
REMARK minimizedAffinity -1.03031778
REMARK minimizedRMSD -1
REMARK  0 active torsions:
REMARK  status: ('A' for Active; 'I' for Inactive)
ROOT
ATOM      1  C   UNL d   1      -0.792   0.860   1.324  0.00  0.00     0.020 A 
ATOM      2  C1  UNL d   1      -0.830   1.441   0.057  0.00  0.00     0.020 A 
ATOM      3  C2  UNL d   1       0.359   1.797  -0.584  0.00  0.00     0.034 A 
ATOM      4  C3  UNL d   1       1.590   1.573   0.042  0.00  0.00     0.017 A 
ATOM      5  C4  UNL d   1       1.627   0.990   1.314  0.00  0.00     0.017 A 
ATOM      6  C5  UNL d   1       0.434   0.635   1.951  0.00  0.00     0.034 A 
ATOM      7 Cl   UNL d   1       3.108   0.682   2.150  0.00  0.00    -0.070 Cl
ATOM      8 Cl1  UNL d   1       3.020   2.037  -0.808  0.00  0.00    -0.070 Cl
ENDROOT
TORSDOF 0
ENDMDL
