MODEL 1
REMARK minimizedAffinity 2.01173735
REMARK minimizedRMSD -1
REMARK  0 active torsions:
REMARK  status: ('A' for Active; 'I' for Inactive)
ROOT
ATOM      1  C   UNL d   1      -3.866   1.616   0.404  0.00  0.00     0.020 A 
ATOM      2  C1  UNL d   1      -3.369   2.232  -0.744  0.00  0.00     0.020 A 
ATOM      3  C2  UNL d   1      -2.007   2.523  -0.846  0.00  0.00     0.034 A 
ATOM      4  C3  UNL d   1      -1.137   2.197   0.201  0.00  0.00     0.017 A 
ATOM      5  C4  UNL d   1      -1.637   1.579   1.352  0.00  0.00     0.017 A 
ATOM      6  C5  UNL d   1      -3.002   1.290   1.450  0.00  0.00     0.034 A 
ATOM      7 Cl   UNL d   1      -0.626   1.147   2.686  0.00  0.00    -0.070 Cl
ATOM      8 Cl1  UNL d   1       0.535   2.585   0.006  0.00  0.00    -0.070 Cl
ENDROOT
TORSDOF 0
ENDMDL
