MODEL 1
REMARK minimizedAffinity -3.27437568
REMARK minimizedRMSD -1
REMARK  0 active torsions:
REMARK  status: ('A' for Active; 'I' for Inactive)
ROOT
ATOM      1  C   UNL d   1      -3.215   2.323   0.169  0.00  0.00     0.020 A 
ATOM      2  C1  UNL d   1      -3.967   1.226   0.586  0.00  0.00     0.020 A 
ATOM      3  C2  UNL d   1      -3.326   0.044   0.964  0.00  0.00     0.034 A 
ATOM      4  C3  UNL d   1      -1.930  -0.044   0.924  0.00  0.00     0.017 A 
ATOM      5  C4  UNL d   1      -1.176   1.058   0.504  0.00  0.00     0.017 A 
ATOM      6  C5  UNL d   1      -1.822   2.239   0.128  0.00  0.00     0.034 A 
ATOM      7 Cl   UNL d   1       0.550   1.025   0.429  0.00  0.00    -0.070 Cl
ATOM      8 Cl1  UNL d   1      -1.205  -1.537   1.405  0.00  0.00    -0.070 Cl
ENDROOT
TORSDOF 0
ENDMDL
