MODEL 1
REMARK minimizedAffinity -1.97338545
REMARK minimizedRMSD -1
REMARK  0 active torsions:
REMARK  status: ('A' for Active; 'I' for Inactive)
ROOT
ATOM      1  C   UNL d   1      -2.547   0.233   1.572  0.00  0.00     0.020 A 
ATOM      2  C1  UNL d   1      -3.188   1.088   0.676  0.00  0.00     0.020 A 
ATOM      3  C2  UNL d   1      -2.462   2.083   0.019  0.00  0.00     0.034 A 
ATOM      4  C3  UNL d   1      -1.090   2.225   0.255  0.00  0.00     0.017 A 
ATOM      5  C4  UNL d   1      -0.447   1.367   1.154  0.00  0.00     0.017 A 
ATOM      6  C5  UNL d   1      -1.179   0.372   1.810  0.00  0.00     0.034 A 
ATOM      7 Cl   UNL d   1       1.243   1.481   1.498  0.00  0.00    -0.070 Cl
ATOM      8 Cl1  UNL d   1      -0.254   3.477  -0.593  0.00  0.00    -0.070 Cl
ENDROOT
TORSDOF 0
ENDMDL
