MODEL 1
REMARK minimizedAffinity -3.20554066
REMARK minimizedRMSD -1
REMARK  0 active torsions:
REMARK  status: ('A' for Active; 'I' for Inactive)
ROOT
ATOM      1  C   UNL d   1      -0.935   2.806  -0.423  0.00  0.00     0.020 A 
ATOM      2  C1  UNL d   1      -0.330   1.644   0.053  0.00  0.00     0.020 A 
ATOM      3  C2  UNL d   1      -1.085   0.699   0.751  0.00  0.00     0.034 A 
ATOM      4  C3  UNL d   1      -2.450   0.914   0.973  0.00  0.00     0.017 A 
ATOM      5  C4  UNL d   1      -3.057   2.081   0.494  0.00  0.00     0.017 A 
ATOM      6  C5  UNL d   1      -2.296   3.024  -0.203  0.00  0.00     0.034 A 
ATOM      7 Cl   UNL d   1      -4.736   2.417   0.730  0.00  0.00    -0.070 Cl
ATOM      8 Cl1  UNL d   1      -3.324  -0.297   1.843  0.00  0.00    -0.070 Cl
ENDROOT
TORSDOF 0
ENDMDL
