MODEL 1
REMARK minimizedAffinity -0.696971297
REMARK minimizedRMSD -1
REMARK  0 active torsions:
REMARK  status: ('A' for Active; 'I' for Inactive)
ROOT
ATOM      1  C   UNL d   1      -0.205   1.846   0.388  0.00  0.00     0.020 A 
ATOM      2  C1  UNL d   1      -0.752   3.092   0.083  0.00  0.00     0.020 A 
ATOM      3  C2  UNL d   1      -2.137   3.272   0.109  0.00  0.00     0.034 A 
ATOM      4  C3  UNL d   1      -2.979   2.204   0.441  0.00  0.00     0.017 A 
ATOM      5  C4  UNL d   1      -2.428   0.954   0.747  0.00  0.00     0.017 A 
ATOM      6  C5  UNL d   1      -1.041   0.780   0.719  0.00  0.00     0.034 A 
ATOM      7 Cl   UNL d   1      -3.403  -0.411   1.165  0.00  0.00    -0.070 Cl
ATOM      8 Cl1  UNL d   1      -4.681   2.497   0.454  0.00  0.00    -0.070 Cl
ENDROOT
TORSDOF 0
ENDMDL
