MODEL 1
REMARK minimizedAffinity -1.12381661
REMARK minimizedRMSD -1
REMARK  0 active torsions:
REMARK  status: ('A' for Active; 'I' for Inactive)
ROOT
ATOM      1  C   UNL d   1       2.619   0.781   0.395  0.00  0.00     0.020 A 
ATOM      2  C1  UNL d   1       3.019   0.723   1.730  0.00  0.00     0.020 A 
ATOM      3  C2  UNL d   1       2.148   1.139   2.739  0.00  0.00     0.034 A 
ATOM      4  C3  UNL d   1       0.872   1.615   2.415  0.00  0.00     0.017 A 
ATOM      5  C4  UNL d   1       0.471   1.673   1.075  0.00  0.00     0.017 A 
ATOM      6  C5  UNL d   1       1.348   1.255   0.069  0.00  0.00     0.034 A 
ATOM      7 Cl   UNL d   1      -1.087   2.248   0.597  0.00  0.00    -0.070 Cl
ATOM      8 Cl1  UNL d   1      -0.154   2.112   3.713  0.00  0.00    -0.070 Cl
ENDROOT
TORSDOF 0
ENDMDL
