MODEL 1
REMARK minimizedAffinity -3.049052
REMARK minimizedRMSD -1
REMARK  0 active torsions:
REMARK  status: ('A' for Active; 'I' for Inactive)
ROOT
ATOM      1  C   UNL d   1      -3.871   2.648  -0.255  0.00  0.00     0.020 A 
ATOM      2  C1  UNL d   1      -4.503   1.665   0.505  0.00  0.00     0.020 A 
ATOM      3  C2  UNL d   1      -3.754   0.636   1.079  0.00  0.00     0.034 A 
ATOM      4  C3  UNL d   1      -2.367   0.588   0.894  0.00  0.00     0.017 A 
ATOM      5  C4  UNL d   1      -1.733   1.576   0.131  0.00  0.00     0.017 A 
ATOM      6  C5  UNL d   1      -2.489   2.604  -0.441  0.00  0.00     0.034 A 
ATOM      7 Cl   UNL d   1      -0.026   1.584  -0.141  0.00  0.00    -0.070 Cl
ATOM      8 Cl1  UNL d   1      -1.502  -0.712   1.634  0.00  0.00    -0.070 Cl
ENDROOT
TORSDOF 0
ENDMDL
