MODEL 1
REMARK minimizedAffinity -1.64762127
REMARK minimizedRMSD -1
REMARK  0 active torsions:
REMARK  status: ('A' for Active; 'I' for Inactive)
ROOT
ATOM      1  C   UNL d   1      -3.844   1.050   0.708  0.00  0.00     0.020 A 
ATOM      2  C1  UNL d   1      -3.240   2.065  -0.034  0.00  0.00     0.020 A 
ATOM      3  C2  UNL d   1      -1.851   2.100  -0.166  0.00  0.00     0.034 A 
ATOM      4  C3  UNL d   1      -1.060   1.120   0.444  0.00  0.00     0.017 A 
ATOM      5  C4  UNL d   1      -1.667   0.102   1.189  0.00  0.00     0.017 A 
ATOM      6  C5  UNL d   1      -3.059   0.071   1.318  0.00  0.00     0.034 A 
ATOM      7 Cl   UNL d   1      -0.758  -1.143   1.971  0.00  0.00    -0.070 Cl
ATOM      8 Cl1  UNL d   1       0.652   1.225   0.239  0.00  0.00    -0.070 Cl
ENDROOT
TORSDOF 0
ENDMDL
