MODEL 1
REMARK minimizedAffinity 3.73434114
REMARK minimizedRMSD -1
REMARK  0 active torsions:
REMARK  status: ('A' for Active; 'I' for Inactive)
ROOT
ATOM      1  C   UNL d   1       0.884   0.899   0.802  0.00  0.00     0.020 A 
ATOM      2  C1  UNL d   1       0.655   2.095   0.124  0.00  0.00     0.020 A 
ATOM      3  C2  UNL d   1      -0.626   2.653   0.105  0.00  0.00     0.034 A 
ATOM      4  C3  UNL d   1      -1.681   2.014   0.765  0.00  0.00     0.017 A 
ATOM      5  C4  UNL d   1      -1.450   0.813   1.445  0.00  0.00     0.017 A 
ATOM      6  C5  UNL d   1      -0.166   0.259   1.461  0.00  0.00     0.034 A 
ATOM      7 Cl   UNL d   1      -2.703  -0.034   2.283  0.00  0.00    -0.070 Cl
ATOM      8 Cl1  UNL d   1      -3.239   2.760   0.700  0.00  0.00    -0.070 Cl
ENDROOT
TORSDOF 0
ENDMDL
