MODEL 1
REMARK minimizedAffinity -2.3365798
REMARK minimizedRMSD -1
REMARK  0 active torsions:
REMARK  status: ('A' for Active; 'I' for Inactive)
ROOT
ATOM      1  C   UNL d   1      -3.422   2.071  -0.547  0.00  0.00     0.020 A 
ATOM      2  C1  UNL d   1      -3.853   1.220   0.470  0.00  0.00     0.020 A 
ATOM      3  C2  UNL d   1      -2.919   0.564   1.274  0.00  0.00     0.034 A 
ATOM      4  C3  UNL d   1      -1.549   0.757   1.063  0.00  0.00     0.017 A 
ATOM      5  C4  UNL d   1      -1.117   1.611   0.042  0.00  0.00     0.017 A 
ATOM      6  C5  UNL d   1      -2.057   2.266  -0.760  0.00  0.00     0.034 A 
ATOM      7 Cl   UNL d   1       0.556   1.900  -0.279  0.00  0.00    -0.070 Cl
ATOM      8 Cl1  UNL d   1      -0.450  -0.087   2.095  0.00  0.00    -0.070 Cl
ENDROOT
TORSDOF 0
ENDMDL
