MODEL 1
REMARK minimizedAffinity -0.0342625417
REMARK minimizedRMSD -1
REMARK  0 active torsions:
REMARK  status: ('A' for Active; 'I' for Inactive)
ROOT
ATOM      1  C   UNL d   1      -3.250   0.086   0.630  0.00  0.00     0.020 A 
ATOM      2  C1  UNL d   1      -3.612   1.302   0.052  0.00  0.00     0.020 A 
ATOM      3  C2  UNL d   1      -2.649   2.292  -0.152  0.00  0.00     0.034 A 
ATOM      4  C3  UNL d   1      -1.319   2.069   0.224  0.00  0.00     0.017 A 
ATOM      5  C4  UNL d   1      -0.957   0.848   0.805  0.00  0.00     0.017 A 
ATOM      6  C5  UNL d   1      -1.925  -0.140   1.006  0.00  0.00     0.034 A 
ATOM      7 Cl   UNL d   1       0.664   0.499   1.294  0.00  0.00    -0.070 Cl
ATOM      8 Cl1  UNL d   1      -0.181   3.338  -0.057  0.00  0.00    -0.070 Cl
ENDROOT
TORSDOF 0
ENDMDL
