MODEL 1
REMARK minimizedAffinity -1.20123577
REMARK minimizedRMSD -1
REMARK  0 active torsions:
REMARK  status: ('A' for Active; 'I' for Inactive)
ROOT
ATOM      1  C   UNL d   1      -0.607   2.598   0.479  0.00  0.00     0.020 A 
ATOM      2  C1  UNL d   1      -0.185   1.333   0.889  0.00  0.00     0.020 A 
ATOM      3  C2  UNL d   1      -1.118   0.400   1.344  0.00  0.00     0.034 A 
ATOM      4  C3  UNL d   1      -2.478   0.728   1.390  0.00  0.00     0.017 A 
ATOM      5  C4  UNL d   1      -2.900   1.997   0.978  0.00  0.00     0.017 A 
ATOM      6  C5  UNL d   1      -1.961   2.929   0.523  0.00  0.00     0.034 A 
ATOM      7 Cl   UNL d   1      -4.561   2.476   1.005  0.00  0.00    -0.070 Cl
ATOM      8 Cl1  UNL d   1      -3.577  -0.476   1.963  0.00  0.00    -0.070 Cl
ENDROOT
TORSDOF 0
ENDMDL
