MODEL 1
REMARK minimizedAffinity 5.82817268
REMARK minimizedRMSD -1
REMARK  0 active torsions:
REMARK  status: ('A' for Active; 'I' for Inactive)
ROOT
ATOM      1  C   UNL d   1       2.185  -0.813   0.431  0.00  0.00     0.023 A 
ATOM      2  C1  UNL d   1       2.066   0.365   1.168  0.00  0.00     0.003 A 
ATOM      3  C2  UNL d   1       1.511   1.505   0.581  0.00  0.00     0.048 A 
ATOM      4  C3  UNL d   1       1.076   1.458  -0.743  0.00  0.00     0.023 A 
ATOM      5  C4  UNL d   1       1.192   0.280  -1.484  0.00  0.00     0.048 A 
ATOM      6  C5  UNL d   1       1.748  -0.856  -0.893  0.00  0.00     0.003 A 
ATOM      7  I   UNL d   1       0.250   3.152  -1.619  0.00  0.00    -0.146 I 
ENDROOT
TORSDOF 0
ENDMDL
