MODEL 1
REMARK minimizedAffinity -3.46522307
REMARK minimizedRMSD -1
REMARK  0 active torsions:
REMARK  status: ('A' for Active; 'I' for Inactive)
ROOT
ATOM      1  C   UNL d   1       0.736   4.409  -0.567  0.00  0.00     0.023 A 
ATOM      2  C1  UNL d   1       0.970   3.775  -1.787  0.00  0.00     0.003 A 
ATOM      3  C2  UNL d   1       1.171   2.394  -1.832  0.00  0.00     0.048 A 
ATOM      4  C3  UNL d   1       1.136   1.652  -0.652  0.00  0.00     0.023 A 
ATOM      5  C4  UNL d   1       0.901   2.281   0.572  0.00  0.00     0.048 A 
ATOM      6  C5  UNL d   1       0.701   3.663   0.612  0.00  0.00     0.003 A 
ATOM      7  I   UNL d   1       1.435  -0.404  -0.715  0.00  0.00    -0.146 I 
ENDROOT
TORSDOF 0
ENDMDL
