MODEL 1
REMARK minimizedAffinity 3.6665256
REMARK minimizedRMSD -1
REMARK  0 active torsions:
REMARK  status: ('A' for Active; 'I' for Inactive)
ROOT
ATOM      1  C   UNL d   1      -4.364   1.497   1.863  0.00  0.00     0.023 A 
ATOM      2  C1  UNL d   1      -4.227   2.557   0.967  0.00  0.00     0.003 A 
ATOM      3  C2  UNL d   1      -3.563   3.722   1.358  0.00  0.00     0.048 A 
ATOM      4  C3  UNL d   1      -3.038   3.820   2.646  0.00  0.00     0.023 A 
ATOM      5  C4  UNL d   1      -3.172   2.761   3.546  0.00  0.00     0.048 A 
ATOM      6  C5  UNL d   1      -3.837   1.599   3.151  0.00  0.00     0.003 A 
ATOM      7  I   UNL d   1      -2.050   5.552   3.230  0.00  0.00    -0.146 I 
ENDROOT
TORSDOF 0
ENDMDL
