MODEL 1
REMARK minimizedAffinity 0.322693139
REMARK minimizedRMSD -1
REMARK  0 active torsions:
REMARK  status: ('A' for Active; 'I' for Inactive)
ROOT
ATOM      1  C   UNL d   1       1.485  -1.923  -0.039  0.00  0.00     0.023 A 
ATOM      2  C1  UNL d   1       1.751  -0.731   0.634  0.00  0.00     0.003 A 
ATOM      3  C2  UNL d   1       1.398   0.492   0.059  0.00  0.00     0.048 A 
ATOM      4  C3  UNL d   1       0.778   0.515  -1.189  0.00  0.00     0.023 A 
ATOM      5  C4  UNL d   1       0.508  -0.675  -1.867  0.00  0.00     0.048 A 
ATOM      6  C5  UNL d   1       0.864  -1.895  -1.288  0.00  0.00     0.003 A 
ATOM      7  I   UNL d   1       0.251   2.333  -2.047  0.00  0.00    -0.146 I 
ENDROOT
TORSDOF 0
ENDMDL
