MODEL 1
REMARK minimizedAffinity -1.95056307
REMARK minimizedRMSD -1
REMARK  0 active torsions:
REMARK  status: ('A' for Active; 'I' for Inactive)
ROOT
ATOM      1  C   UNL d   1       1.335   2.977  -0.043  0.00  0.00     0.023 A 
ATOM      2  C1  UNL d   1       1.284   2.725  -1.414  0.00  0.00     0.003 A 
ATOM      3  C2  UNL d   1       1.097   1.422  -1.879  0.00  0.00     0.048 A 
ATOM      4  C3  UNL d   1       0.961   0.375  -0.968  0.00  0.00     0.023 A 
ATOM      5  C4  UNL d   1       1.011   0.623   0.405  0.00  0.00     0.048 A 
ATOM      6  C5  UNL d   1       1.199   1.927   0.865  0.00  0.00     0.003 A 
ATOM      7  I   UNL d   1       0.682  -1.566  -1.657  0.00  0.00    -0.146 I 
ENDROOT
TORSDOF 0
ENDMDL
