MODEL 1
REMARK minimizedAffinity -2.26927662
REMARK minimizedRMSD -1
REMARK  0 active torsions:
REMARK  status: ('A' for Active; 'I' for Inactive)
ROOT
ATOM      1  C   UNL d   1       0.899   3.622  -0.520  0.00  0.00     0.023 A 
ATOM      2  C1  UNL d   1       0.867   3.046  -1.790  0.00  0.00     0.003 A 
ATOM      3  C2  UNL d   1       0.954   1.660  -1.932  0.00  0.00     0.048 A 
ATOM      4  C3  UNL d   1       1.071   0.855  -0.799  0.00  0.00     0.023 A 
ATOM      5  C4  UNL d   1       1.102   1.427   0.474  0.00  0.00     0.048 A 
ATOM      6  C5  UNL d   1       1.016   2.813   0.610  0.00  0.00     0.003 A 
ATOM      7  I   UNL d   1       1.200  -1.209  -1.008  0.00  0.00    -0.146 I 
ENDROOT
TORSDOF 0
ENDMDL
