MODEL 1
REMARK minimizedAffinity 1.54715157
REMARK minimizedRMSD -1
REMARK  0 active torsions:
REMARK  status: ('A' for Active; 'I' for Inactive)
ROOT
ATOM      1  C   UNL d   1       1.164   2.895  -0.054  0.00  0.00     0.023 A 
ATOM      2  C1  UNL d   1       0.843   2.422  -1.326  0.00  0.00     0.003 A 
ATOM      3  C2  UNL d   1       0.830   1.049  -1.580  0.00  0.00     0.048 A 
ATOM      4  C3  UNL d   1       1.138   0.154  -0.556  0.00  0.00     0.023 A 
ATOM      5  C4  UNL d   1       1.459   0.622   0.719  0.00  0.00     0.048 A 
ATOM      6  C5  UNL d   1       1.472   1.996   0.968  0.00  0.00     0.003 A 
ATOM      7  I   UNL d   1       1.119  -1.890  -0.931  0.00  0.00    -0.146 I 
ENDROOT
TORSDOF 0
ENDMDL
