MODEL 1
REMARK minimizedAffinity 7.44846439
REMARK minimizedRMSD -1
REMARK  0 active torsions:
REMARK  status: ('A' for Active; 'I' for Inactive)
ROOT
ATOM      1  C   UNL d   1       1.251   0.854  -2.432  0.00  0.00     0.023 A 
ATOM      2  C1  UNL d   1       1.771  -0.021  -1.478  0.00  0.00     0.003 A 
ATOM      3  C2  UNL d   1       2.041   0.433  -0.186  0.00  0.00     0.048 A 
ATOM      4  C3  UNL d   1       1.788   1.763   0.147  0.00  0.00     0.023 A 
ATOM      5  C4  UNL d   1       1.267   2.642  -0.804  0.00  0.00     0.048 A 
ATOM      6  C5  UNL d   1       0.999   2.184  -2.095  0.00  0.00     0.003 A 
ATOM      7  I   UNL d   1       2.189   2.442   2.070  0.00  0.00    -0.146 I 
ENDROOT
TORSDOF 0
ENDMDL
