MODEL 1
REMARK minimizedAffinity 4.43559742
REMARK minimizedRMSD -1
REMARK  0 active torsions:
REMARK  status: ('A' for Active; 'I' for Inactive)
ROOT
ATOM      1  C   UNL d   1       0.751   1.878  -0.470  0.00  0.00     0.023 A 
ATOM      2  C1  UNL d   1       1.059   1.441   0.818  0.00  0.00     0.003 A 
ATOM      3  C2  UNL d   1       1.293   0.086   1.060  0.00  0.00     0.048 A 
ATOM      4  C3  UNL d   1       1.218  -0.827   0.009  0.00  0.00     0.023 A 
ATOM      5  C4  UNL d   1       0.912  -0.395  -1.282  0.00  0.00     0.048 A 
ATOM      6  C5  UNL d   1       0.678   0.961  -1.519  0.00  0.00     0.003 A 
ATOM      7  I   UNL d   1       1.566  -2.845   0.367  0.00  0.00    -0.146 I 
ENDROOT
TORSDOF 0
ENDMDL
