MODEL 1
REMARK minimizedAffinity 4.62611055
REMARK minimizedRMSD -1
REMARK  0 active torsions:
REMARK  status: ('A' for Active; 'I' for Inactive)
ROOT
ATOM      1  C   UNL d   1       0.732   2.900  -1.979  0.00  0.00     0.023 A 
ATOM      2  C1  UNL d   1       1.429   1.829  -2.539  0.00  0.00     0.003 A 
ATOM      3  C2  UNL d   1       1.636   0.664  -1.798  0.00  0.00     0.048 A 
ATOM      4  C3  UNL d   1       1.142   0.575  -0.497  0.00  0.00     0.023 A 
ATOM      5  C4  UNL d   1       0.443   1.643   0.068  0.00  0.00     0.048 A 
ATOM      6  C5  UNL d   1       0.240   2.807  -0.677  0.00  0.00     0.003 A 
ATOM      7  I   UNL d   1       1.449  -1.158   0.608  0.00  0.00    -0.146 I 
ENDROOT
TORSDOF 0
ENDMDL
