MODEL 1
REMARK minimizedAffinity 4.80026245
REMARK minimizedRMSD -1
REMARK  0 active torsions:
REMARK  status: ('A' for Active; 'I' for Inactive)
ROOT
ATOM      1  C   UNL d   1       0.999   2.309  -0.168  0.00  0.00     0.023 A 
ATOM      2  C1  UNL d   1       0.831   1.543  -1.321  0.00  0.00     0.003 A 
ATOM      3  C2  UNL d   1       0.887   0.150  -1.250  0.00  0.00     0.048 A 
ATOM      4  C3  UNL d   1       1.111  -0.471  -0.022  0.00  0.00     0.023 A 
ATOM      5  C4  UNL d   1       1.278   0.291   1.135  0.00  0.00     0.048 A 
ATOM      6  C5  UNL d   1       1.222   1.684   1.059  0.00  0.00     0.003 A 
ATOM      7  I   UNL d   1       1.194  -2.545   0.087  0.00  0.00    -0.146 I 
ENDROOT
TORSDOF 0
ENDMDL
