MODEL 1
REMARK minimizedAffinity 2.53845906
REMARK minimizedRMSD -1
REMARK  0 active torsions:
REMARK  status: ('A' for Active; 'I' for Inactive)
ROOT
ATOM      1  C   UNL d   1       0.898  -2.692  -1.205  0.00  0.00     0.023 A 
ATOM      2  C1  UNL d   1       1.456  -2.831   0.066  0.00  0.00     0.003 A 
ATOM      3  C2  UNL d   1       0.710  -3.403   1.099  0.00  0.00     0.048 A 
ATOM      4  C3  UNL d   1      -0.593  -3.835   0.854  0.00  0.00     0.023 A 
ATOM      5  C4  UNL d   1      -1.155  -3.699  -0.416  0.00  0.00     0.048 A 
ATOM      6  C5  UNL d   1      -0.406  -3.125  -1.446  0.00  0.00     0.003 A 
ATOM      7  I   UNL d   1      -1.704  -4.687   2.389  0.00  0.00    -0.146 I 
ENDROOT
TORSDOF 0
ENDMDL
