MODEL 1
REMARK minimizedAffinity -2.09268165
REMARK minimizedRMSD -1
REMARK  0 active torsions:
REMARK  status: ('A' for Active; 'I' for Inactive)
ROOT
ATOM      1  C   UNL d   1       0.513   0.006   0.119  0.00  0.00     0.023 A 
ATOM      2  C1  UNL d   1       0.642   0.381  -1.218  0.00  0.00     0.003 A 
ATOM      3  C2  UNL d   1       0.975   1.697  -1.547  0.00  0.00     0.048 A 
ATOM      4  C3  UNL d   1       1.178   2.632  -0.533  0.00  0.00     0.023 A 
ATOM      5  C4  UNL d   1       1.050   2.261   0.807  0.00  0.00     0.048 A 
ATOM      6  C5  UNL d   1       0.717   0.945   1.130  0.00  0.00     0.003 A 
ATOM      7  I   UNL d   1       1.673   4.591  -1.019  0.00  0.00    -0.146 I 
ENDROOT
TORSDOF 0
ENDMDL
