MODEL 1
REMARK minimizedAffinity 9.68535042
REMARK minimizedRMSD -1
REMARK  0 active torsions:
REMARK  status: ('A' for Active; 'I' for Inactive)
ROOT
ATOM      1  C   UNL d   1       0.703   1.341  -1.855  0.00  0.00     0.023 A 
ATOM      2  C1  UNL d   1       1.105   2.069  -2.975  0.00  0.00     0.003 A 
ATOM      3  C2  UNL d   1       1.483   3.406  -2.841  0.00  0.00     0.048 A 
ATOM      4  C3  UNL d   1       1.458   4.009  -1.584  0.00  0.00     0.023 A 
ATOM      5  C4  UNL d   1       1.058   3.284  -0.460  0.00  0.00     0.048 A 
ATOM      6  C5  UNL d   1       0.679   1.948  -0.599  0.00  0.00     0.003 A 
ATOM      7  I   UNL d   1       2.021   6.000  -1.382  0.00  0.00    -0.146 I 
ENDROOT
TORSDOF 0
ENDMDL
