MODEL 1
REMARK minimizedAffinity -0.590662479
REMARK minimizedRMSD -1
REMARK  0 active torsions:
REMARK  status: ('A' for Active; 'I' for Inactive)
ROOT
ATOM      1  C   UNL d   1       1.346  -1.536  -0.635  0.00  0.00     0.023 A 
ATOM      2  C1  UNL d   1       0.517  -1.035  -1.640  0.00  0.00     0.003 A 
ATOM      3  C2  UNL d   1       0.338   0.343  -1.777  0.00  0.00     0.048 A 
ATOM      4  C3  UNL d   1       0.991   1.215  -0.906  0.00  0.00     0.023 A 
ATOM      5  C4  UNL d   1       1.822   0.719   0.100  0.00  0.00     0.048 A 
ATOM      6  C5  UNL d   1       1.997  -0.660   0.234  0.00  0.00     0.003 A 
ATOM      7  I   UNL d   1       0.727   3.267  -1.109  0.00  0.00    -0.146 I 
ENDROOT
TORSDOF 0
ENDMDL
