MODEL 1
REMARK minimizedAffinity 3.82054853
REMARK minimizedRMSD -1
REMARK  0 active torsions:
REMARK  status: ('A' for Active; 'I' for Inactive)
ROOT
ATOM      1  C   UNL d   1       0.662  -0.085  -1.262  0.00  0.00     0.023 A 
ATOM      2  C1  UNL d   1       1.381  -0.782  -0.291  0.00  0.00     0.003 A 
ATOM      3  C2  UNL d   1       1.917  -0.103   0.805  0.00  0.00     0.048 A 
ATOM      4  C3  UNL d   1       1.729   1.273   0.925  0.00  0.00     0.023 A 
ATOM      5  C4  UNL d   1       1.009   1.975  -0.043  0.00  0.00     0.048 A 
ATOM      6  C5  UNL d   1       0.476   1.292  -1.138  0.00  0.00     0.003 A 
ATOM      7  I   UNL d   1       2.525   2.286   2.556  0.00  0.00    -0.146 I 
ENDROOT
TORSDOF 0
ENDMDL
