MODEL 1
REMARK minimizedAffinity 6.91734171
REMARK minimizedRMSD -1
REMARK  2 active torsions:
REMARK  status: ('A' for Active; 'I' for Inactive)
REMARK    1  A    between atoms: C2'_3  and  C1'_4 
REMARK    2  A    between atoms: C1'_4  and  C1_5 
ROOT
ATOM      1  C1  I4B d   1      -1.643  -2.550  -0.881  0.00  0.00    -0.075 A 
ATOM      2  C2  I4B d   1      -0.669  -1.647  -1.229  0.00  0.00     0.003 A 
ATOM      3  C3  I4B d   1      -0.023  -0.878  -0.231  0.00  0.00     0.002 A 
ATOM      4  C4  I4B d   1      -0.414  -1.006   1.086  0.00  0.00    -0.004 A 
ATOM      5  C5  I4B d   1      -1.385  -1.938   1.439  0.00  0.00     0.002 A 
ATOM      6  C6  I4B d   1      -1.995  -2.725   0.451  0.00  0.00     0.003 A 
ENDROOT
BRANCH   1   7
ATOM      7  C1' I4B d   1      -2.328  -3.323  -1.964  0.00  0.00     0.060 C 
BRANCH   7   8
ATOM      8  C2' I4B d   1      -1.272  -4.102  -2.722  0.00  0.00    -0.013 C 
ATOM      9  C4' I4B d   1      -1.820  -5.408  -3.233  0.00  0.00     0.013 C 
ATOM     10  C3' I4B d   1      -0.782  -3.241  -3.848  0.00  0.00     0.013 C 
ENDBRANCH   7   8
ENDBRANCH   1   7
TORSDOF 2
ENDMDL
