MODEL 1
REMARK minimizedAffinity -3.89375067
REMARK minimizedRMSD -1
REMARK  2 active torsions:
REMARK  status: ('A' for Active; 'I' for Inactive)
REMARK    1  A    between atoms: C2'_3  and  C1'_4 
REMARK    2  A    between atoms: C1'_4  and  C1_5 
ROOT
ATOM      1  C1  I4B d   1       0.759   1.298   0.122  0.00  0.00    -0.075 A 
ATOM      2  C2  I4B d   1       0.035   2.429   0.402  0.00  0.00     0.003 A 
ATOM      3  C3  I4B d   1       0.678   3.575   0.929  0.00  0.00     0.002 A 
ATOM      4  C4  I4B d   1       2.029   3.529   1.206  0.00  0.00    -0.004 A 
ATOM      5  C5  I4B d   1       2.766   2.389   0.900  0.00  0.00     0.002 A 
ATOM      6  C6  I4B d   1       2.130   1.270   0.343  0.00  0.00     0.003 A 
ENDROOT
BRANCH   1   7
ATOM      7  C1' I4B d   1       0.042   0.095  -0.404  0.00  0.00     0.060 C 
BRANCH   7   8
ATOM      8  C2' I4B d   1      -0.506  -0.676   0.780  0.00  0.00    -0.013 C 
ATOM      9  C4' I4B d   1      -0.975  -2.047   0.369  0.00  0.00     0.013 C 
ATOM     10  C3' I4B d   1       0.574  -0.761   1.817  0.00  0.00     0.013 C 
ENDBRANCH   7   8
ENDBRANCH   1   7
TORSDOF 2
ENDMDL
