MODEL 1
REMARK minimizedAffinity -0.122384652
REMARK minimizedRMSD -1
REMARK  2 active torsions:
REMARK  status: ('A' for Active; 'I' for Inactive)
REMARK    1  A    between atoms: C2'_3  and  C1'_4 
REMARK    2  A    between atoms: C1'_4  and  C1_5 
ROOT
ATOM      1  C1  I4B d   1      -0.053   0.397   0.160  0.00  0.00    -0.075 A 
ATOM      2  C2  I4B d   1      -0.313  -0.527  -0.821  0.00  0.00     0.003 A 
ATOM      3  C3  I4B d   1      -0.904  -1.770  -0.491  0.00  0.00     0.002 A 
ATOM      4  C4  I4B d   1      -1.170  -2.067   0.830  0.00  0.00    -0.004 A 
ATOM      5  C5  I4B d   1      -0.926  -1.121   1.821  0.00  0.00     0.002 A 
ATOM      6  C6  I4B d   1      -0.376   0.124   1.483  0.00  0.00     0.003 A 
ENDROOT
BRANCH   1   7
ATOM      7  C1' I4B d   1       0.603   1.687  -0.219  0.00  0.00     0.060 C 
BRANCH   7   8
ATOM      8  C2' I4B d   1       0.740   2.527   1.034  0.00  0.00    -0.013 C 
ATOM      9  C4' I4B d   1       2.127   3.101   1.156  0.00  0.00     0.013 C 
ATOM     10  C3' I4B d   1      -0.292   3.613   0.980  0.00  0.00     0.013 C 
ENDBRANCH   7   8
ENDBRANCH   1   7
TORSDOF 2
ENDMDL
