MODEL 1
REMARK minimizedAffinity -4.28636503
REMARK minimizedRMSD -1
REMARK  2 active torsions:
REMARK  status: ('A' for Active; 'I' for Inactive)
REMARK    1  A    between atoms: C2'_3  and  C1'_4 
REMARK    2  A    between atoms: C1'_4  and  C1_5 
ROOT
ATOM      1  C1  I4B d   1      -0.899  -2.869  -0.522  0.00  0.00    -0.075 A 
ATOM      2  C2  I4B d   1      -1.830  -3.185   0.437  0.00  0.00     0.003 A 
ATOM      3  C3  I4B d   1      -2.986  -3.926   0.092  0.00  0.00     0.002 A 
ATOM      4  C4  I4B d   1      -3.195  -4.286  -1.224  0.00  0.00    -0.004 A 
ATOM      5  C5  I4B d   1      -2.239  -3.985  -2.190  0.00  0.00     0.002 A 
ATOM      6  C6  I4B d   1      -1.078  -3.283  -1.835  0.00  0.00     0.003 A 
ENDROOT
BRANCH   1   7
ATOM      7  C1' I4B d   1       0.293  -2.057  -0.129  0.00  0.00     0.060 C 
BRANCH   7   8
ATOM      8  C2' I4B d   1       0.112  -0.660  -0.688  0.00  0.00    -0.013 C 
ATOM      9  C4' I4B d   1      -0.592   0.235   0.298  0.00  0.00     0.013 C 
ATOM     10  C3' I4B d   1       1.467  -0.122  -1.037  0.00  0.00     0.013 C 
ENDBRANCH   7   8
ENDBRANCH   1   7
TORSDOF 2
ENDMDL
