MODEL 1
REMARK minimizedAffinity -1.83695245
REMARK minimizedRMSD -1
REMARK  2 active torsions:
REMARK  status: ('A' for Active; 'I' for Inactive)
REMARK    1  A    between atoms: C2'_3  and  C1'_4 
REMARK    2  A    between atoms: C1'_4  and  C1_5 
ROOT
ATOM      1  C1  I4B d   1       0.365   1.372   0.605  0.00  0.00    -0.075 A 
ATOM      2  C2  I4B d   1       0.193   2.540   1.304  0.00  0.00     0.003 A 
ATOM      3  C3  I4B d   1       1.285   3.418   1.505  0.00  0.00     0.002 A 
ATOM      4  C4  I4B d   1       2.535   3.066   1.037  0.00  0.00    -0.004 A 
ATOM      5  C5  I4B d   1       2.703   1.892   0.308  0.00  0.00     0.002 A 
ATOM      6  C6  I4B d   1       1.609   1.045   0.080  0.00  0.00     0.003 A 
ENDROOT
BRANCH   1   7
ATOM      7  C1' I4B d   1      -0.803   0.452   0.440  0.00  0.00     0.060 C 
BRANCH   7   8
ATOM      8  C2' I4B d   1      -0.524  -0.805   1.238  0.00  0.00    -0.013 C 
ATOM      9  C4' I4B d   1      -1.105  -0.711   2.624  0.00  0.00     0.013 C 
ATOM     10  C3' I4B d   1      -1.101  -1.968   0.487  0.00  0.00     0.013 C 
ENDBRANCH   7   8
ENDBRANCH   1   7
TORSDOF 2
ENDMDL
