MODEL 1
REMARK minimizedAffinity -3.83369446
REMARK minimizedRMSD -1
REMARK  2 active torsions:
REMARK  status: ('A' for Active; 'I' for Inactive)
REMARK    1  A    between atoms: C2'_3  and  C1'_4 
REMARK    2  A    between atoms: C1'_4  and  C1_5 
ROOT
ATOM      1  C1  I4B d   1      -0.014   0.229  -0.069  0.00  0.00    -0.075 A 
ATOM      2  C2  I4B d   1      -0.509   0.113   1.206  0.00  0.00     0.003 A 
ATOM      3  C3  I4B d   1      -0.993  -1.133   1.672  0.00  0.00     0.002 A 
ATOM      4  C4  I4B d   1      -1.012  -2.217   0.818  0.00  0.00    -0.004 A 
ATOM      5  C5  I4B d   1      -0.489  -2.103  -0.467  0.00  0.00     0.002 A 
ATOM      6  C6  I4B d   1       0.024  -0.876  -0.910  0.00  0.00     0.003 A 
ENDROOT
BRANCH   1   7
ATOM      7  C1' I4B d   1       0.459   1.568  -0.539  0.00  0.00     0.060 C 
BRANCH   7   8
ATOM      8  C2' I4B d   1       1.036   2.304   0.653  0.00  0.00    -0.013 C 
ATOM      9  C4' I4B d   1       2.518   2.520   0.495  0.00  0.00     0.013 C 
ATOM     10  C3' I4B d   1       0.310   3.609   0.787  0.00  0.00     0.013 C 
ENDBRANCH   7   8
ENDBRANCH   1   7
TORSDOF 2
ENDMDL
