MODEL 1
REMARK minimizedAffinity -3.48996496
REMARK minimizedRMSD -1
REMARK  2 active torsions:
REMARK  status: ('A' for Active; 'I' for Inactive)
REMARK    1  A    between atoms: C2'_3  and  C1'_4 
REMARK    2  A    between atoms: C1'_4  and  C1_5 
ROOT
ATOM      1  C1  I4B d   1      -0.107   1.333   0.124  0.00  0.00    -0.075 A 
ATOM      2  C2  I4B d   1      -0.627   0.488   1.072  0.00  0.00     0.003 A 
ATOM      3  C3  I4B d   1      -1.095  -0.797   0.703  0.00  0.00     0.002 A 
ATOM      4  C4  I4B d   1      -1.070  -1.173  -0.625  0.00  0.00    -0.004 A 
ATOM      5  C5  I4B d   1      -0.521  -0.323  -1.581  0.00  0.00     0.002 A 
ATOM      6  C6  I4B d   1      -0.025   0.933  -1.203  0.00  0.00     0.003 A 
ENDROOT
BRANCH   1   7
ATOM      7  C1' I4B d   1       0.347   2.695   0.545  0.00  0.00     0.060 C 
BRANCH   7   8
ATOM      8  C2' I4B d   1       1.738   2.563   1.131  0.00  0.00    -0.013 C 
ATOM      9  C4' I4B d   1       2.795   2.761   0.076  0.00  0.00     0.013 C 
ATOM     10  C3' I4B d   1       1.875   3.573   2.231  0.00  0.00     0.013 C 
ENDBRANCH   7   8
ENDBRANCH   1   7
TORSDOF 2
ENDMDL
