MODEL 1
REMARK minimizedAffinity -5.99045753
REMARK minimizedRMSD -1
REMARK  2 active torsions:
REMARK  status: ('A' for Active; 'I' for Inactive)
REMARK    1  A    between atoms: C2'_3  and  C1'_4 
REMARK    2  A    between atoms: C1'_4  and  C1_5 
ROOT
ATOM      1  C1  I4B d   1       0.632  -1.324  -0.291  0.00  0.00    -0.075 A 
ATOM      2  C2  I4B d   1       0.357  -2.432   0.471  0.00  0.00     0.003 A 
ATOM      3  C3  I4B d   1      -0.095  -3.626  -0.143  0.00  0.00     0.002 A 
ATOM      4  C4  I4B d   1      -0.304  -3.651  -1.507  0.00  0.00    -0.004 A 
ATOM      5  C5  I4B d   1      -0.002  -2.534  -2.281  0.00  0.00     0.002 A 
ATOM      6  C6  I4B d   1       0.481  -1.367  -1.671  0.00  0.00     0.003 A 
ENDROOT
BRANCH   1   7
ATOM      7  C1' I4B d   1       1.076  -0.071   0.393  0.00  0.00     0.060 C 
BRANCH   7   8
ATOM      8  C2' I4B d   1       0.281   1.083  -0.184  0.00  0.00    -0.013 C 
ATOM      9  C4' I4B d   1      -1.181   0.962   0.158  0.00  0.00     0.013 C 
ATOM     10  C3' I4B d   1       0.858   2.358   0.353  0.00  0.00     0.013 C 
ENDBRANCH   7   8
ENDBRANCH   1   7
TORSDOF 2
ENDMDL
