MODEL 1
REMARK minimizedAffinity -3.49816656
REMARK minimizedRMSD -1
REMARK  2 active torsions:
REMARK  status: ('A' for Active; 'I' for Inactive)
REMARK    1  A    between atoms: C2'_3  and  C1'_4 
REMARK    2  A    between atoms: C1'_4  and  C1_5 
ROOT
ATOM      1  C1  I4B d   1      -0.459   0.324   0.095  0.00  0.00    -0.075 A 
ATOM      2  C2  I4B d   1      -0.129  -0.780  -0.652  0.00  0.00     0.003 A 
ATOM      3  C3  I4B d   1      -0.453  -2.078  -0.187  0.00  0.00     0.002 A 
ATOM      4  C4  I4B d   1      -1.056  -2.228   1.045  0.00  0.00    -0.004 A 
ATOM      5  C5  I4B d   1      -1.410  -1.107   1.790  0.00  0.00     0.002 A 
ATOM      6  C6  I4B d   1      -1.121   0.178   1.307  0.00  0.00     0.003 A 
ENDROOT
BRANCH   1   7
ATOM      7  C1' I4B d   1      -0.072   1.678  -0.410  0.00  0.00     0.060 C 
BRANCH   7   8
ATOM      8  C2' I4B d   1       0.624   2.415   0.716  0.00  0.00    -0.013 C 
ATOM      9  C4' I4B d   1       2.084   2.625   0.408  0.00  0.00     0.013 C 
ATOM     10  C3' I4B d   1      -0.081   3.722   0.919  0.00  0.00     0.013 C 
ENDBRANCH   7   8
ENDBRANCH   1   7
TORSDOF 2
ENDMDL
