MODEL 1
REMARK minimizedAffinity -4.15261269
REMARK minimizedRMSD -1
REMARK  2 active torsions:
REMARK  status: ('A' for Active; 'I' for Inactive)
REMARK    1  A    between atoms: C2'_3  and  C1'_4 
REMARK    2  A    between atoms: C1'_4  and  C1_5 
ROOT
ATOM      1  C1  I4B d   1      -0.178   0.499   0.394  0.00  0.00    -0.075 A 
ATOM      2  C2  I4B d   1       0.107   0.398   1.732  0.00  0.00     0.003 A 
ATOM      3  C3  I4B d   1      -0.326  -0.730   2.471  0.00  0.00     0.002 A 
ATOM      4  C4  I4B d   1      -1.081  -1.702   1.846  0.00  0.00    -0.004 A 
ATOM      5  C5  I4B d   1      -1.350  -1.609   0.483  0.00  0.00     0.002 A 
ATOM      6  C6  I4B d   1      -0.885  -0.508  -0.250  0.00  0.00     0.003 A 
ENDROOT
BRANCH   1   7
ATOM      7  C1' I4B d   1       0.267   1.720  -0.348  0.00  0.00     0.060 C 
BRANCH   7   8
ATOM      8  C2' I4B d   1       1.179   2.514   0.565  0.00  0.00    -0.013 C 
ATOM      9  C4' I4B d   1       2.578   2.583   0.012  0.00  0.00     0.013 C 
ATOM     10  C3' I4B d   1       0.592   3.885   0.726  0.00  0.00     0.013 C 
ENDBRANCH   7   8
ENDBRANCH   1   7
TORSDOF 2
ENDMDL
