MODEL 1
REMARK minimizedAffinity -1.18719292
REMARK minimizedRMSD -1
REMARK  1 active torsions:
REMARK  status: ('A' for Active; 'I' for Inactive)
REMARK    1  A    between atoms: C1_2  and  C2_3 
ROOT
ATOM      1  C2  UNL d   1       2.919  -2.968  -1.645  0.00  0.00    -0.077 A 
ATOM      2  C3  UNL d   1       3.225  -3.416  -0.352  0.00  0.00     0.002 A 
ATOM      3  C4  UNL d   1       4.130  -4.463  -0.163  0.00  0.00     0.002 A 
ATOM      4  C5  UNL d   1       4.739  -5.066  -1.261  0.00  0.00    -0.004 A 
ATOM      5  C6  UNL d   1       4.441  -4.628  -2.551  0.00  0.00     0.002 A 
ATOM      6  C7  UNL d   1       3.535  -3.583  -2.742  0.00  0.00     0.002 A 
ENDROOT
BRANCH   1   7
ATOM      7  C1  UNL d   1       1.981  -1.807  -1.848  0.00  0.00     0.055 C 
ATOM      8  C   UNL d   1       2.481  -0.559  -1.134  0.00  0.00     0.019 C 
ENDBRANCH   1   7
TORSDOF 1
ENDMDL
