MODEL 1
REMARK minimizedAffinity 8.06903172
REMARK minimizedRMSD -1
REMARK  1 active torsions:
REMARK  status: ('A' for Active; 'I' for Inactive)
REMARK    1  A    between atoms: C1_2  and  C2_3 
ROOT
ATOM      1  C2  UNL d   1       3.516  -4.765  -1.677  0.00  0.00    -0.077 A 
ATOM      2  C3  UNL d   1       3.962  -5.045  -2.976  0.00  0.00     0.002 A 
ATOM      3  C4  UNL d   1       3.152  -4.763  -4.077  0.00  0.00     0.002 A 
ATOM      4  C5  UNL d   1       1.893  -4.196  -3.891  0.00  0.00    -0.004 A 
ATOM      5  C6  UNL d   1       1.439  -3.916  -2.603  0.00  0.00     0.002 A 
ATOM      6  C7  UNL d   1       2.247  -4.198  -1.501  0.00  0.00     0.002 A 
ENDROOT
BRANCH   1   7
ATOM      7  C1  UNL d   1       4.408  -5.022  -0.491  0.00  0.00     0.055 C 
ATOM      8  C   UNL d   1       4.435  -3.828   0.451  0.00  0.00     0.019 C 
ENDBRANCH   1   7
TORSDOF 1
ENDMDL
