MODEL 1
REMARK minimizedAffinity -2.40400505
REMARK minimizedRMSD -1
REMARK  1 active torsions:
REMARK  status: ('A' for Active; 'I' for Inactive)
REMARK    1  A    between atoms: C1_2  and  C2_3 
ROOT
ATOM      1  C2  UNL d   1       2.612  -2.984  -2.226  0.00  0.00    -0.077 A 
ATOM      2  C3  UNL d   1       3.364  -3.825  -1.393  0.00  0.00     0.002 A 
ATOM      3  C4  UNL d   1       4.265  -4.740  -1.940  0.00  0.00     0.002 A 
ATOM      4  C5  UNL d   1       4.426  -4.820  -3.322  0.00  0.00    -0.004 A 
ATOM      5  C6  UNL d   1       3.681  -3.991  -4.159  0.00  0.00     0.002 A 
ATOM      6  C7  UNL d   1       2.779  -3.076  -3.614  0.00  0.00     0.002 A 
ENDROOT
BRANCH   1   7
ATOM      7  C1  UNL d   1       1.676  -1.963  -1.636  0.00  0.00     0.055 C 
ATOM      8  C   UNL d   1       2.249  -1.356  -0.363  0.00  0.00     0.019 C 
ENDBRANCH   1   7
TORSDOF 1
ENDMDL
