MODEL 1
REMARK minimizedAffinity -4.40293169
REMARK minimizedRMSD -1
REMARK  1 active torsions:
REMARK  status: ('A' for Active; 'I' for Inactive)
REMARK    1  A    between atoms: C1_2  and  C2_3 
ROOT
ATOM      1  C2  UNL d   1       3.271  -3.786  -1.870  0.00  0.00    -0.077 A 
ATOM      2  C3  UNL d   1       2.779  -2.893  -2.833  0.00  0.00     0.002 A 
ATOM      3  C4  UNL d   1       2.482  -1.573  -2.486  0.00  0.00     0.002 A 
ATOM      4  C5  UNL d   1       2.677  -1.134  -1.178  0.00  0.00    -0.004 A 
ATOM      5  C6  UNL d   1       3.164  -2.015  -0.213  0.00  0.00     0.002 A 
ATOM      6  C7  UNL d   1       3.460  -3.335  -0.558  0.00  0.00     0.002 A 
ENDROOT
BRANCH   1   7
ATOM      7  C1  UNL d   1       3.638  -5.195  -2.254  0.00  0.00     0.055 C 
ATOM      8  C   UNL d   1       3.795  -5.336  -3.761  0.00  0.00     0.019 C 
ENDBRANCH   1   7
TORSDOF 1
ENDMDL
