MODEL 1
REMARK minimizedAffinity 1.58216643
REMARK minimizedRMSD -1
REMARK  1 active torsions:
REMARK  status: ('A' for Active; 'I' for Inactive)
REMARK    1  A    between atoms: C1_2  and  C2_3 
ROOT
ATOM      1  C2  UNL d   1       2.990  -3.261  -1.269  0.00  0.00    -0.077 A 
ATOM      2  C3  UNL d   1       3.943  -3.968  -0.523  0.00  0.00     0.002 A 
ATOM      3  C4  UNL d   1       4.601  -5.067  -1.078  0.00  0.00     0.002 A 
ATOM      4  C5  UNL d   1       4.316  -5.467  -2.382  0.00  0.00    -0.004 A 
ATOM      5  C6  UNL d   1       3.367  -4.771  -3.131  0.00  0.00     0.002 A 
ATOM      6  C7  UNL d   1       2.708  -3.673  -2.578  0.00  0.00     0.002 A 
ENDROOT
BRANCH   1   7
ATOM      7  C1  UNL d   1       2.315  -2.045  -0.689  0.00  0.00     0.055 C 
ATOM      8  C   UNL d   1       2.025  -1.008  -1.764  0.00  0.00     0.019 C 
ENDBRANCH   1   7
TORSDOF 1
ENDMDL
