MODEL 1
REMARK minimizedAffinity 0.805651546
REMARK minimizedRMSD -1
REMARK  1 active torsions:
REMARK  status: ('A' for Active; 'I' for Inactive)
REMARK    1  A    between atoms: C1_2  and  C2_3 
ROOT
ATOM      1  C2  UNL d   1       2.693  -1.952  -1.611  0.00  0.00    -0.077 A 
ATOM      2  C3  UNL d   1       3.058  -2.832  -0.582  0.00  0.00     0.002 A 
ATOM      3  C4  UNL d   1       3.531  -4.111  -0.881  0.00  0.00     0.002 A 
ATOM      4  C5  UNL d   1       3.649  -4.520  -2.208  0.00  0.00    -0.004 A 
ATOM      5  C6  UNL d   1       3.287  -3.653  -3.238  0.00  0.00     0.002 A 
ATOM      6  C7  UNL d   1       2.812  -2.375  -2.941  0.00  0.00     0.002 A 
ENDROOT
BRANCH   1   7
ATOM      7  C1  UNL d   1       2.229  -0.555  -1.293  0.00  0.00     0.055 C 
ATOM      8  C   UNL d   1       2.464   0.387  -2.464  0.00  0.00     0.019 C 
ENDBRANCH   1   7
TORSDOF 1
ENDMDL
