MODEL 1
REMARK minimizedAffinity 3.87666821
REMARK minimizedRMSD -1
REMARK  1 active torsions:
REMARK  status: ('A' for Active; 'I' for Inactive)
REMARK    1  A    between atoms: C1_2  and  C2_3 
ROOT
ATOM      1  C2  UNL d   1       3.556  -3.799  -1.667  0.00  0.00    -0.077 A 
ATOM      2  C3  UNL d   1       4.730  -4.281  -2.262  0.00  0.00     0.002 A 
ATOM      3  C4  UNL d   1       4.859  -4.301  -3.652  0.00  0.00     0.002 A 
ATOM      4  C5  UNL d   1       3.821  -3.837  -4.458  0.00  0.00    -0.004 A 
ATOM      5  C6  UNL d   1       2.649  -3.358  -3.875  0.00  0.00     0.002 A 
ATOM      6  C7  UNL d   1       2.517  -3.338  -2.486  0.00  0.00     0.002 A 
ENDROOT
BRANCH   1   7
ATOM      7  C1  UNL d   1       3.433  -3.730  -0.167  0.00  0.00     0.055 C 
ATOM      8  C   UNL d   1       4.747  -3.314   0.478  0.00  0.00     0.019 C 
ENDBRANCH   1   7
TORSDOF 1
ENDMDL
