MODEL 1
REMARK minimizedAffinity 4.92100954
REMARK minimizedRMSD -1
REMARK  1 active torsions:
REMARK  status: ('A' for Active; 'I' for Inactive)
REMARK    1  A    between atoms: C1_2  and  C2_3 
ROOT
ATOM      1  C2  UNL d   1      -2.649  -4.146  -4.295  0.00  0.00    -0.077 A 
ATOM      2  C3  UNL d   1      -1.948  -5.209  -3.709  0.00  0.00     0.002 A 
ATOM      3  C4  UNL d   1      -1.664  -5.200  -2.342  0.00  0.00     0.002 A 
ATOM      4  C5  UNL d   1      -2.080  -4.132  -1.549  0.00  0.00    -0.004 A 
ATOM      5  C6  UNL d   1      -2.775  -3.069  -2.123  0.00  0.00     0.002 A 
ATOM      6  C7  UNL d   1      -3.059  -3.076  -3.489  0.00  0.00     0.002 A 
ENDROOT
BRANCH   1   7
ATOM      7  C1  UNL d   1      -2.999  -4.177  -5.759  0.00  0.00     0.055 C 
ATOM      8  C   UNL d   1      -4.313  -4.906  -5.999  0.00  0.00     0.019 C 
ENDBRANCH   1   7
TORSDOF 1
ENDMDL
