MODEL 1
REMARK minimizedAffinity 0.591296017
REMARK minimizedRMSD -1
REMARK  1 active torsions:
REMARK  status: ('A' for Active; 'I' for Inactive)
REMARK    1  A    between atoms: C1_2  and  C2_3 
ROOT
ATOM      1  C2  UNL d   1      -1.766   1.254   4.342  0.00  0.00    -0.077 A 
ATOM      2  C3  UNL d   1      -2.976   0.650   3.972  0.00  0.00     0.002 A 
ATOM      3  C4  UNL d   1      -3.594   0.990   2.767  0.00  0.00     0.002 A 
ATOM      4  C5  UNL d   1      -3.009   1.930   1.922  0.00  0.00    -0.004 A 
ATOM      5  C6  UNL d   1      -1.807   2.537   2.283  0.00  0.00     0.002 A 
ATOM      6  C7  UNL d   1      -1.187   2.200   3.487  0.00  0.00     0.002 A 
ENDROOT
BRANCH   1   7
ATOM      7  C1  UNL d   1      -1.072   0.852   5.618  0.00  0.00     0.055 C 
ATOM      8  C   UNL d   1       0.140  -0.024   5.336  0.00  0.00     0.019 C 
ENDBRANCH   1   7
TORSDOF 1
ENDMDL
