MODEL 1
REMARK minimizedAffinity 4.91146994
REMARK minimizedRMSD -1
REMARK  1 active torsions:
REMARK  status: ('A' for Active; 'I' for Inactive)
REMARK    1  A    between atoms: C1_2  and  C2_3 
ROOT
ATOM      1  C2  UNL d   1       1.655   3.627  -1.286  0.00  0.00    -0.077 A 
ATOM      2  C3  UNL d   1       2.071   4.826  -1.883  0.00  0.00     0.002 A 
ATOM      3  C4  UNL d   1       2.148   6.000  -1.132  0.00  0.00     0.002 A 
ATOM      4  C5  UNL d   1       1.815   5.986   0.221  0.00  0.00    -0.004 A 
ATOM      5  C6  UNL d   1       1.398   4.800   0.824  0.00  0.00     0.002 A 
ATOM      6  C7  UNL d   1       1.319   3.626   0.074  0.00  0.00     0.002 A 
ENDROOT
BRANCH   1   7
ATOM      7  C1  UNL d   1       1.619   2.350  -2.083  0.00  0.00     0.055 C 
ATOM      8  C   UNL d   1       0.884   2.541  -3.402  0.00  0.00     0.019 C 
ENDBRANCH   1   7
TORSDOF 1
ENDMDL
