MODEL 1
REMARK minimizedAffinity 0.290773869
REMARK minimizedRMSD -1
REMARK  1 active torsions:
REMARK  status: ('A' for Active; 'I' for Inactive)
REMARK    1  A    between atoms: C1_2  and  C2_3 
ROOT
ATOM      1  C2  UNL d   1       0.293   3.271  -3.167  0.00  0.00    -0.077 A 
ATOM      2  C3  UNL d   1       0.869   4.331  -2.452  0.00  0.00     0.002 A 
ATOM      3  C4  UNL d   1       1.901   4.092  -1.543  0.00  0.00     0.002 A 
ATOM      4  C5  UNL d   1       2.369   2.795  -1.344  0.00  0.00    -0.004 A 
ATOM      5  C6  UNL d   1       1.802   1.733  -2.048  0.00  0.00     0.002 A 
ATOM      6  C7  UNL d   1       0.770   1.970  -2.956  0.00  0.00     0.002 A 
ENDROOT
BRANCH   1   7
ATOM      7  C1  UNL d   1      -0.787   3.533  -4.184  0.00  0.00     0.055 C 
ATOM      8  C   UNL d   1      -1.676   4.693  -3.761  0.00  0.00     0.019 C 
ENDBRANCH   1   7
TORSDOF 1
ENDMDL
