MODEL 1
REMARK minimizedAffinity 10.1860857
REMARK minimizedRMSD -1
REMARK  1 active torsions:
REMARK  status: ('A' for Active; 'I' for Inactive)
REMARK    1  A    between atoms: C1_2  and  C2_3 
ROOT
ATOM      1  C2  UNL d   1      -1.553  -4.082  -2.404  0.00  0.00    -0.077 A 
ATOM      2  C3  UNL d   1      -1.020  -4.848  -3.450  0.00  0.00     0.002 A 
ATOM      3  C4  UNL d   1      -1.155  -4.427  -4.774  0.00  0.00     0.002 A 
ATOM      4  C5  UNL d   1      -1.818  -3.236  -5.064  0.00  0.00    -0.004 A 
ATOM      5  C6  UNL d   1      -2.354  -2.468  -4.031  0.00  0.00     0.002 A 
ATOM      6  C7  UNL d   1      -2.221  -2.889  -2.707  0.00  0.00     0.002 A 
ENDROOT
BRANCH   1   7
ATOM      7  C1  UNL d   1      -1.366  -4.510  -0.972  0.00  0.00     0.055 C 
ATOM      8  C   UNL d   1      -0.200  -3.778  -0.323  0.00  0.00     0.019 C 
ENDBRANCH   1   7
TORSDOF 1
ENDMDL
