MODEL 1
REMARK minimizedAffinity 4.30118132
REMARK minimizedRMSD -1
REMARK  2 active torsions:
REMARK  status: ('A' for Active; 'I' for Inactive)
REMARK    1  A    between atoms: C2'_3  and  C1'_4 
REMARK    2  A    between atoms: C1'_4  and  C1_5 
ROOT
ATOM      1  C1  I4B d   1      -1.358  -5.077  -2.990  0.00  0.00    -0.075 A 
ATOM      2  C2  I4B d   1      -2.648  -4.796  -3.368  0.00  0.00     0.003 A 
ATOM      3  C3  I4B d   1      -3.727  -5.105  -2.504  0.00  0.00     0.002 A 
ATOM      4  C4  I4B d   1      -3.477  -5.735  -1.302  0.00  0.00    -0.004 A 
ATOM      5  C5  I4B d   1      -2.167  -5.998  -0.911  0.00  0.00     0.002 A 
ATOM      6  C6  I4B d   1      -1.100  -5.656  -1.754  0.00  0.00     0.003 A 
ENDROOT
BRANCH   1   7
ATOM      7  C1' I4B d   1      -0.245  -4.768  -3.940  0.00  0.00     0.060 C 
BRANCH   7   8
ATOM      8  C2' I4B d   1      -0.015  -5.992  -4.803  0.00  0.00    -0.013 C 
ATOM      9  C4' I4B d   1      -0.934  -5.997  -5.997  0.00  0.00     0.013 C 
ATOM     10  C3' I4B d   1       1.423  -5.996  -5.227  0.00  0.00     0.013 C 
ENDBRANCH   7   8
ENDBRANCH   1   7
TORSDOF 2
ENDMDL
