MODEL 1
REMARK minimizedAffinity 2.87673521
REMARK minimizedRMSD -1
REMARK  2 active torsions:
REMARK  status: ('A' for Active; 'I' for Inactive)
REMARK    1  A    between atoms: C2'_3  and  C1'_4 
REMARK    2  A    between atoms: C1'_4  and  C1_5 
ROOT
ATOM      1  C1  I4B d   1      -1.122  -5.996  -3.532  0.00  0.00    -0.075 A 
ATOM      2  C2  I4B d   1      -1.622  -5.999  -2.254  0.00  0.00     0.003 A 
ATOM      3  C3  I4B d   1      -3.021  -5.996  -2.035  0.00  0.00     0.002 A 
ATOM      4  C4  I4B d   1      -3.877  -5.939  -3.115  0.00  0.00    -0.004 A 
ATOM      5  C5  I4B d   1      -3.370  -5.959  -4.411  0.00  0.00     0.002 A 
ATOM      6  C6  I4B d   1      -1.984  -6.000  -4.622  0.00  0.00     0.003 A 
ENDROOT
BRANCH   1   7
ATOM      7  C1' I4B d   1       0.360  -5.965  -3.727  0.00  0.00     0.060 C 
BRANCH   7   8
ATOM      8  C2' I4B d   1       0.658  -5.067  -4.911  0.00  0.00    -0.013 C 
ATOM      9  C4' I4B d   1       1.592  -3.951  -4.527  0.00  0.00     0.013 C 
ATOM     10  C3' I4B d   1       1.246  -5.915  -5.999  0.00  0.00     0.013 C 
ENDBRANCH   7   8
ENDBRANCH   1   7
TORSDOF 2
ENDMDL
