MODEL 1
REMARK minimizedAffinity 8.10402679
REMARK minimizedRMSD -1
REMARK  2 active torsions:
REMARK  status: ('A' for Active; 'I' for Inactive)
REMARK    1  A    between atoms: C2'_3  and  C1'_4 
REMARK    2  A    between atoms: C1'_4  and  C1_5 
ROOT
ATOM      1  C1  I4B d   1       4.489   2.198  -0.789  0.00  0.00    -0.075 A 
ATOM      2  C2  I4B d   1       5.631   2.926  -0.569  0.00  0.00     0.003 A 
ATOM      3  C3  I4B d   1       5.548   4.257  -0.094  0.00  0.00     0.002 A 
ATOM      4  C4  I4B d   1       4.309   4.834   0.098  0.00  0.00    -0.004 A 
ATOM      5  C5  I4B d   1       3.152   4.086  -0.104  0.00  0.00     0.002 A 
ATOM      6  C6  I4B d   1       3.242   2.756  -0.539  0.00  0.00     0.003 A 
ENDROOT
BRANCH   1   7
ATOM      7  C1' I4B d   1       4.613   0.806  -1.323  0.00  0.00     0.060 C 
BRANCH   7   8
ATOM      8  C2' I4B d   1       5.910   0.718  -2.101  0.00  0.00    -0.013 C 
ATOM      9  C4' I4B d   1       5.992  -0.568  -2.881  0.00  0.00     0.013 C 
ATOM     10  C3' I4B d   1       5.987   1.909  -3.009  0.00  0.00     0.013 C 
ENDBRANCH   7   8
ENDBRANCH   1   7
TORSDOF 2
ENDMDL
