MODEL 1
REMARK minimizedAffinity 4.16199541
REMARK minimizedRMSD -1
REMARK  2 active torsions:
REMARK  status: ('A' for Active; 'I' for Inactive)
REMARK    1  A    between atoms: C2'_3  and  C1'_4 
REMARK    2  A    between atoms: C1'_4  and  C1_5 
ROOT
ATOM      1  C1  I4B d   1      -0.379  -5.677  -3.215  0.00  0.00    -0.075 A 
ATOM      2  C2  I4B d   1      -1.318  -5.248  -4.120  0.00  0.00     0.003 A 
ATOM      3  C3  I4B d   1      -2.646  -4.991  -3.701  0.00  0.00     0.002 A 
ATOM      4  C4  I4B d   1      -3.001  -5.222  -2.388  0.00  0.00    -0.004 A 
ATOM      5  C5  I4B d   1      -2.042  -5.634  -1.467  0.00  0.00     0.002 A 
ATOM      6  C6  I4B d   1      -0.720  -5.852  -1.880  0.00  0.00     0.003 A 
ENDROOT
BRANCH   1   7
ATOM      7  C1' I4B d   1       1.006  -5.971  -3.698  0.00  0.00     0.060 C 
BRANCH   7   8
ATOM      8  C2' I4B d   1       1.128  -5.446  -5.114  0.00  0.00    -0.013 C 
ATOM      9  C4' I4B d   1       2.450  -5.828  -5.725  0.00  0.00     0.013 C 
ATOM     10  C3' I4B d   1      -0.016  -5.996  -5.912  0.00  0.00     0.013 C 
ENDBRANCH   7   8
ENDBRANCH   1   7
TORSDOF 2
ENDMDL
