MODEL 1
REMARK minimizedAffinity 3.82851338
REMARK minimizedRMSD -1
REMARK  2 active torsions:
REMARK  status: ('A' for Active; 'I' for Inactive)
REMARK    1  A    between atoms: C2'_3  and  C1'_4 
REMARK    2  A    between atoms: C1'_4  and  C1_5 
ROOT
ATOM      1  C1  I4B d   1      -1.037  -5.932  -3.236  0.00  0.00    -0.075 A 
ATOM      2  C2  I4B d   1      -1.863  -5.939  -4.332  0.00  0.00     0.003 A 
ATOM      3  C3  I4B d   1      -3.269  -5.908  -4.165  0.00  0.00     0.002 A 
ATOM      4  C4  I4B d   1      -3.802  -5.921  -2.893  0.00  0.00    -0.004 A 
ATOM      5  C5  I4B d   1      -2.963  -5.891  -1.783  0.00  0.00     0.002 A 
ATOM      6  C6  I4B d   1      -1.571  -5.884  -1.955  0.00  0.00     0.003 A 
ENDROOT
BRANCH   1   7
ATOM      7  C1' I4B d   1       0.443  -5.999  -3.448  0.00  0.00     0.060 C 
BRANCH   7   8
ATOM      8  C2' I4B d   1       0.777  -5.168  -4.670  0.00  0.00    -0.013 C 
ATOM      9  C4' I4B d   1       2.212  -4.713  -4.644  0.00  0.00     0.013 C 
ATOM     10  C3' I4B d   1       0.494  -5.998  -5.887  0.00  0.00     0.013 C 
ENDBRANCH   7   8
ENDBRANCH   1   7
TORSDOF 2
ENDMDL
