MODEL 1
REMARK minimizedAffinity 5.76095247
REMARK minimizedRMSD -1
REMARK  2 active torsions:
REMARK  status: ('A' for Active; 'I' for Inactive)
REMARK    1  A    between atoms: C2'_3  and  C1'_4 
REMARK    2  A    between atoms: C1'_4  and  C1_5 
ROOT
ATOM      1  C1  I4B d   1      -2.483   0.374  -1.674  0.00  0.00    -0.075 A 
ATOM      2  C2  I4B d   1      -3.039   1.023  -2.748  0.00  0.00     0.003 A 
ATOM      3  C3  I4B d   1      -4.442   1.197  -2.827  0.00  0.00     0.002 A 
ATOM      4  C4  I4B d   1      -5.250   0.667  -1.841  0.00  0.00    -0.004 A 
ATOM      5  C5  I4B d   1      -4.682   0.030  -0.741  0.00  0.00     0.002 A 
ATOM      6  C6  I4B d   1      -3.289  -0.106  -0.650  0.00  0.00     0.003 A 
ENDROOT
BRANCH   1   7
ATOM      7  C1' I4B d   1      -1.001   0.179  -1.639  0.00  0.00     0.060 C 
BRANCH   7   8
ATOM      8  C2' I4B d   1      -0.636  -0.382  -0.279  0.00  0.00    -0.013 C 
ATOM      9  C4' I4B d   1      -0.358  -1.860  -0.356  0.00  0.00     0.013 C 
ATOM     10  C3' I4B d   1       0.561   0.368   0.225  0.00  0.00     0.013 C 
ENDBRANCH   7   8
ENDBRANCH   1   7
TORSDOF 2
ENDMDL
