MODEL 1
REMARK minimizedAffinity 3.55960059
REMARK minimizedRMSD -1
REMARK  2 active torsions:
REMARK  status: ('A' for Active; 'I' for Inactive)
REMARK    1  A    between atoms: C2'_3  and  C1'_4 
REMARK    2  A    between atoms: C1'_4  and  C1_5 
ROOT
ATOM      1  C1  I4B d   1       1.487  -1.658   2.908  0.00  0.00    -0.075 A 
ATOM      2  C2  I4B d   1       2.643  -0.950   3.121  0.00  0.00     0.003 A 
ATOM      3  C3  I4B d   1       3.038   0.061   2.212  0.00  0.00     0.002 A 
ATOM      4  C4  I4B d   1       2.279   0.294   1.083  0.00  0.00    -0.004 A 
ATOM      5  C5  I4B d   1       1.095  -0.409   0.881  0.00  0.00     0.002 A 
ATOM      6  C6  I4B d   1       0.689  -1.383   1.805  0.00  0.00     0.003 A 
ENDROOT
BRANCH   1   7
ATOM      7  C1' I4B d   1       1.117  -2.741   3.871  0.00  0.00     0.060 C 
BRANCH   7   8
ATOM      8  C2' I4B d   1       1.253  -2.185   5.274  0.00  0.00    -0.013 C 
ATOM      9  C4' I4B d   1      -0.068  -2.202   5.998  0.00  0.00     0.013 C 
ATOM     10  C3' I4B d   1       2.279  -3.004   5.999  0.00  0.00     0.013 C 
ENDBRANCH   7   8
ENDBRANCH   1   7
TORSDOF 2
ENDMDL
