MODEL 1
REMARK minimizedAffinity 9.48702049
REMARK minimizedRMSD -1
REMARK  2 active torsions:
REMARK  status: ('A' for Active; 'I' for Inactive)
REMARK    1  A    between atoms: C2'_3  and  C1'_4 
REMARK    2  A    between atoms: C1'_4  and  C1_5 
ROOT
ATOM      1  C1  I4B d   1      -3.970   1.210  -1.441  0.00  0.00    -0.075 A 
ATOM      2  C2  I4B d   1      -4.913   0.238  -1.662  0.00  0.00     0.003 A 
ATOM      3  C3  I4B d   1      -5.122  -0.783  -0.703  0.00  0.00     0.002 A 
ATOM      4  C4  I4B d   1      -4.337  -0.821   0.431  0.00  0.00    -0.004 A 
ATOM      5  C5  I4B d   1      -3.397   0.178   0.664  0.00  0.00     0.002 A 
ATOM      6  C6  I4B d   1      -3.220   1.208  -0.272  0.00  0.00     0.003 A 
ENDROOT
BRANCH   1   7
ATOM      7  C1' I4B d   1      -3.752   2.254  -2.490  0.00  0.00     0.060 C 
BRANCH   7   8
ATOM      8  C2' I4B d   1      -3.090   1.589  -3.680  0.00  0.00    -0.013 C 
ATOM      9  C4' I4B d   1      -4.020   1.541  -4.864  0.00  0.00     0.013 C 
ATOM     10  C3' I4B d   1      -1.842   2.354  -4.003  0.00  0.00     0.013 C 
ENDBRANCH   7   8
ENDBRANCH   1   7
TORSDOF 2
ENDMDL
