MODEL 1
REMARK minimizedAffinity 2.33739328
REMARK minimizedRMSD -1
REMARK  2 active torsions:
REMARK  status: ('A' for Active; 'I' for Inactive)
REMARK    1  A    between atoms: C2'_3  and  C1'_4 
REMARK    2  A    between atoms: C1'_4  and  C1_5 
ROOT
ATOM      1  C1  I4B d   1      -1.830  -5.967  -3.605  0.00  0.00    -0.075 A 
ATOM      2  C2  I4B d   1      -2.359  -5.935  -4.871  0.00  0.00     0.003 A 
ATOM      3  C3  I4B d   1      -1.506  -5.907  -6.000  0.00  0.00     0.002 A 
ATOM      4  C4  I4B d   1      -0.138  -5.862  -5.817  0.00  0.00    -0.004 A 
ATOM      5  C5  I4B d   1       0.397  -5.918  -4.534  0.00  0.00     0.002 A 
ATOM      6  C6  I4B d   1      -0.454  -5.983  -3.420  0.00  0.00     0.003 A 
ENDROOT
BRANCH   1   7
ATOM      7  C1' I4B d   1      -2.761  -5.962  -2.434  0.00  0.00     0.060 C 
BRANCH   7   8
ATOM      8  C2' I4B d   1      -1.924  -5.996  -1.172  0.00  0.00    -0.013 C 
ATOM      9  C4' I4B d   1      -0.980  -4.824  -1.112  0.00  0.00     0.013 C 
ATOM     10  C3' I4B d   1      -2.856  -6.000   0.003  0.00  0.00     0.013 C 
ENDBRANCH   7   8
ENDBRANCH   1   7
TORSDOF 2
ENDMDL
