MODEL 1
REMARK minimizedAffinity 6.98963118
REMARK minimizedRMSD -1
REMARK  2 active torsions:
REMARK  status: ('A' for Active; 'I' for Inactive)
REMARK    1  A    between atoms: C2'_3  and  C1'_4 
REMARK    2  A    between atoms: C1'_4  and  C1_5 
ROOT
ATOM      1  C1  I4B d   1      -0.404  -5.932  -3.217  0.00  0.00    -0.075 A 
ATOM      2  C2  I4B d   1      -1.534  -5.976  -3.995  0.00  0.00     0.003 A 
ATOM      3  C3  I4B d   1      -1.432  -5.891  -5.405  0.00  0.00     0.002 A 
ATOM      4  C4  I4B d   1      -0.194  -5.713  -5.987  0.00  0.00    -0.004 A 
ATOM      5  C5  I4B d   1       0.953  -5.692  -5.198  0.00  0.00     0.002 A 
ATOM      6  C6  I4B d   1       0.848  -5.814  -3.805  0.00  0.00     0.003 A 
ENDROOT
BRANCH   1   7
ATOM      7  C1' I4B d   1      -0.551  -5.992  -1.730  0.00  0.00     0.060 C 
BRANCH   7   8
ATOM      8  C2' I4B d   1      -1.267  -4.734  -1.280  0.00  0.00    -0.013 C 
ATOM      9  C4' I4B d   1      -2.595  -5.059  -0.649  0.00  0.00     0.013 C 
ATOM     10  C3' I4B d   1      -0.372  -4.011  -0.319  0.00  0.00     0.013 C 
ENDBRANCH   7   8
ENDBRANCH   1   7
TORSDOF 2
ENDMDL
