MODEL 1
REMARK minimizedAffinity 1.42216551
REMARK minimizedRMSD -1
REMARK  2 active torsions:
REMARK  status: ('A' for Active; 'I' for Inactive)
REMARK    1  A    between atoms: C2'_3  and  C1'_4 
REMARK    2  A    between atoms: C1'_4  and  C1_5 
ROOT
ATOM      1  C1  I4B d   1      -1.761  -5.923  -3.975  0.00  0.00    -0.075 A 
ATOM      2  C2  I4B d   1      -0.609  -5.998  -3.232  0.00  0.00     0.003 A 
ATOM      3  C3  I4B d   1       0.655  -5.960  -3.870  0.00  0.00     0.002 A 
ATOM      4  C4  I4B d   1       0.719  -5.896  -5.246  0.00  0.00    -0.004 A 
ATOM      5  C5  I4B d   1      -0.449  -5.797  -5.997  0.00  0.00     0.002 A 
ATOM      6  C6  I4B d   1      -1.697  -5.798  -5.357  0.00  0.00     0.003 A 
ENDROOT
BRANCH   1   7
ATOM      7  C1' I4B d   1      -3.078  -6.000  -3.271  0.00  0.00     0.060 C 
BRANCH   7   8
ATOM      8  C2' I4B d   1      -2.827  -5.821  -1.788  0.00  0.00    -0.013 C 
ATOM      9  C4' I4B d   1      -2.225  -4.472  -1.496  0.00  0.00     0.013 C 
ATOM     10  C3' I4B d   1      -4.133  -5.998  -1.073  0.00  0.00     0.013 C 
ENDBRANCH   7   8
ENDBRANCH   1   7
TORSDOF 2
ENDMDL
