MODEL 1
REMARK minimizedAffinity 2.56353903
REMARK minimizedRMSD -1
REMARK  1 active torsions:
REMARK  status: ('A' for Active; 'I' for Inactive)
REMARK    1  A    between atoms: C3_4  and  O_7 
ROOT
ATOM      1  C   UNL d   1      -4.141  -1.009   4.016  0.00  0.00    -0.033 A 
ATOM      2  C1  UNL d   1      -3.397  -0.035   3.349  0.00  0.00     0.039 A 
ATOM      3  C2  UNL d   1      -3.049   1.149   4.001  0.00  0.00    -0.080 A 
ATOM      4  C3  UNL d   1      -3.449   1.346   5.320  0.00  0.00     0.150 A 
ATOM      5  C4  UNL d   1      -4.188   0.378   5.993  0.00  0.00    -0.007 A 
ATOM      6  C5  UNL d   1      -4.535  -0.804   5.339  0.00  0.00     0.039 A 
ENDROOT
BRANCH   4   7
ATOM      7  O   UNL d   1      -3.137   2.487   5.997  0.00  0.00    -0.526 OA
ATOM      8  H5  UNL d   1      -2.650   3.077   5.398  0.00  0.00     0.418 HD
ENDBRANCH   4   7
TORSDOF 1
ENDMDL
