MODEL 1
REMARK minimizedAffinity -0.996937037
REMARK minimizedRMSD -1
REMARK  1 active torsions:
REMARK  status: ('A' for Active; 'I' for Inactive)
REMARK    1  A    between atoms: C3_4  and  O_7 
ROOT
ATOM      1  C   UNL d   1      -5.250  -1.557   3.849  0.00  0.00    -0.033 A 
ATOM      2  C1  UNL d   1      -4.337  -0.751   3.168  0.00  0.00     0.039 A 
ATOM      3  C2  UNL d   1      -3.505   0.118   3.877  0.00  0.00    -0.080 A 
ATOM      4  C3  UNL d   1      -3.595   0.169   5.265  0.00  0.00     0.150 A 
ATOM      5  C4  UNL d   1      -4.500  -0.634   5.951  0.00  0.00    -0.007 A 
ATOM      6  C5  UNL d   1      -5.330  -1.500   5.241  0.00  0.00     0.039 A 
ENDROOT
BRANCH   4   7
ATOM      7  O   UNL d   1      -2.807   1.004   6.000  0.00  0.00    -0.526 OA
ATOM      8  H5  UNL d   1      -2.252   1.519   5.390  0.00  0.00     0.418 HD
ENDBRANCH   4   7
TORSDOF 1
ENDMDL
