MODEL 1
REMARK minimizedAffinity 4.41894674
REMARK minimizedRMSD -1
REMARK  1 active torsions:
REMARK  status: ('A' for Active; 'I' for Inactive)
REMARK    1  A    between atoms: C3_4  and  O_7 
ROOT
ATOM      1  C   UNL d   1      -1.646  -1.410   1.362  0.00  0.00    -0.033 A 
ATOM      2  C1  UNL d   1      -0.540  -0.730   1.876  0.00  0.00     0.039 A 
ATOM      3  C2  UNL d   1      -0.675   0.064   3.017  0.00  0.00    -0.080 A 
ATOM      4  C3  UNL d   1      -1.918   0.168   3.634  0.00  0.00     0.150 A 
ATOM      5  C4  UNL d   1      -3.023  -0.510   3.130  0.00  0.00    -0.007 A 
ATOM      6  C5  UNL d   1      -2.887  -1.302   1.990  0.00  0.00     0.039 A 
ENDROOT
BRANCH   4   7
ATOM      7  O   UNL d   1      -2.100   0.934   4.747  0.00  0.00    -0.526 OA
ATOM      8  H5  UNL d   1      -1.257   1.366   4.964  0.00  0.00     0.418 HD
ENDBRANCH   4   7
TORSDOF 1
ENDMDL
