MODEL 1
REMARK minimizedAffinity -0.882197261
REMARK minimizedRMSD -1
REMARK  1 active torsions:
REMARK  status: ('A' for Active; 'I' for Inactive)
REMARK    1  A    between atoms: C3_4  and  O_7 
ROOT
ATOM      1  C   UNL d   1      -5.062  -1.520   2.596  0.00  0.00    -0.033 A 
ATOM      2  C1  UNL d   1      -5.413  -0.384   3.328  0.00  0.00     0.039 A 
ATOM      3  C2  UNL d   1      -4.421   0.462   3.827  0.00  0.00    -0.080 A 
ATOM      4  C3  UNL d   1      -3.083   0.162   3.587  0.00  0.00     0.150 A 
ATOM      5  C4  UNL d   1      -2.726  -0.966   2.856  0.00  0.00    -0.007 A 
ATOM      6  C5  UNL d   1      -3.718  -1.810   2.359  0.00  0.00     0.039 A 
ENDROOT
BRANCH   4   7
ATOM      7  O   UNL d   1      -2.079   0.955   4.059  0.00  0.00    -0.526 OA
ATOM      8  H5  UNL d   1      -2.475   1.681   4.570  0.00  0.00     0.418 HD
ENDBRANCH   4   7
TORSDOF 1
ENDMDL
