MODEL 1
REMARK minimizedAffinity 0.610160172
REMARK minimizedRMSD -1
REMARK  1 active torsions:
REMARK  status: ('A' for Active; 'I' for Inactive)
REMARK    1  A    between atoms: C3_4  and  O_7 
ROOT
ATOM      1  C   UNL d   1      -1.000   5.156  -4.853  0.00  0.00    -0.033 A 
ATOM      2  C1  UNL d   1      -1.784   4.859  -3.736  0.00  0.00     0.039 A 
ATOM      3  C2  UNL d   1      -3.153   5.134  -3.748  0.00  0.00    -0.080 A 
ATOM      4  C3  UNL d   1      -3.725   5.705  -4.882  0.00  0.00     0.150 A 
ATOM      5  C4  UNL d   1      -2.951   6.000  -5.999  0.00  0.00    -0.007 A 
ATOM      6  C5  UNL d   1      -1.584   5.725  -5.985  0.00  0.00     0.039 A 
ENDROOT
BRANCH   4   7
ATOM      7  O   UNL d   1      -5.055   5.996  -4.939  0.00  0.00    -0.526 OA
ATOM      8  H5  UNL d   1      -5.458   5.764  -4.085  0.00  0.00     0.418 HD
ENDBRANCH   4   7
TORSDOF 1
ENDMDL
