MODEL 1
REMARK minimizedAffinity 3.60098338
REMARK minimizedRMSD -1
REMARK  1 active torsions:
REMARK  status: ('A' for Active; 'I' for Inactive)
REMARK    1  A    between atoms: C3_4  and  O_7 
ROOT
ATOM      1  C   UNL d   1       5.936   4.036   0.733  0.00  0.00    -0.033 A 
ATOM      2  C1  UNL d   1       4.934   4.268   1.677  0.00  0.00     0.039 A 
ATOM      3  C2  UNL d   1       3.820   3.429   1.736  0.00  0.00    -0.080 A 
ATOM      4  C3  UNL d   1       3.721   2.361   0.848  0.00  0.00     0.150 A 
ATOM      5  C4  UNL d   1       4.718   2.121  -0.092  0.00  0.00    -0.007 A 
ATOM      6  C5  UNL d   1       5.829   2.961  -0.150  0.00  0.00     0.039 A 
ENDROOT
BRANCH   4   7
ATOM      7  O   UNL d   1       2.651   1.517   0.864  0.00  0.00    -0.526 OA
ATOM      8  H5  UNL d   1       2.029   1.822   1.546  0.00  0.00     0.418 HD
ENDBRANCH   4   7
TORSDOF 1
ENDMDL
