MODEL 1
REMARK minimizedAffinity 6.37847424
REMARK minimizedRMSD -1
REMARK  1 active torsions:
REMARK  status: ('A' for Active; 'I' for Inactive)
REMARK    1  A    between atoms: C3_4  and  O_7 
ROOT
ATOM      1  C   UNL d   1      -0.174  -2.393   4.508  0.00  0.00    -0.033 A 
ATOM      2  C1  UNL d   1      -0.528  -1.420   5.445  0.00  0.00     0.039 A 
ATOM      3  C2  UNL d   1      -1.090  -0.213   5.023  0.00  0.00    -0.080 A 
ATOM      4  C3  UNL d   1      -1.293   0.007   3.663  0.00  0.00     0.150 A 
ATOM      5  C4  UNL d   1      -0.946  -0.959   2.725  0.00  0.00    -0.007 A 
ATOM      6  C5  UNL d   1      -0.384  -2.163   3.148  0.00  0.00     0.039 A 
ENDROOT
BRANCH   4   7
ATOM      7  O   UNL d   1      -1.833   1.171   3.203  0.00  0.00    -0.526 OA
ATOM      8  H5  UNL d   1      -1.997   1.756   3.962  0.00  0.00     0.418 HD
ENDBRANCH   4   7
TORSDOF 1
ENDMDL
