MODEL 1
REMARK minimizedAffinity 1.54232025
REMARK minimizedRMSD -1
REMARK  1 active torsions:
REMARK  status: ('A' for Active; 'I' for Inactive)
REMARK    1  A    between atoms: C3_4  and  O_7 
ROOT
ATOM      1  C   UNL d   1      -1.815   2.341   1.224  0.00  0.00    -0.033 A 
ATOM      2  C1  UNL d   1      -0.557   2.933   1.353  0.00  0.00     0.039 A 
ATOM      3  C2  UNL d   1      -0.299   4.166   0.752  0.00  0.00    -0.080 A 
ATOM      4  C3  UNL d   1      -1.305   4.797   0.027  0.00  0.00     0.150 A 
ATOM      5  C4  UNL d   1      -2.562   4.216  -0.102  0.00  0.00    -0.007 A 
ATOM      6  C5  UNL d   1      -2.818   2.983   0.497  0.00  0.00     0.039 A 
ENDROOT
BRANCH   4   7
ATOM      7  O   UNL d   1      -1.099   6.000  -0.581  0.00  0.00    -0.526 OA
ATOM      8  H5  UNL d   1      -0.177   6.267  -0.430  0.00  0.00     0.418 HD
ENDBRANCH   4   7
TORSDOF 1
ENDMDL
