MODEL 1
REMARK minimizedAffinity 8.07838154
REMARK minimizedRMSD -1
REMARK  1 active torsions:
REMARK  status: ('A' for Active; 'I' for Inactive)
REMARK    1  A    between atoms: C3_4  and  O_7 
ROOT
ATOM      1  C   UNL d   1       3.058  -0.024  -3.253  0.00  0.00    -0.033 A 
ATOM      2  C1  UNL d   1       2.167   0.990  -3.611  0.00  0.00     0.039 A 
ATOM      3  C2  UNL d   1       2.261   2.248  -3.013  0.00  0.00    -0.080 A 
ATOM      4  C3  UNL d   1       3.249   2.480  -2.061  0.00  0.00     0.150 A 
ATOM      5  C4  UNL d   1       4.143   1.476  -1.702  0.00  0.00    -0.007 A 
ATOM      6  C5  UNL d   1       4.046   0.219  -2.299  0.00  0.00     0.039 A 
ENDROOT
BRANCH   4   7
ATOM      7  O   UNL d   1       3.377   3.690  -1.446  0.00  0.00    -0.526 OA
ATOM      8  H5  UNL d   1       2.675   4.277  -1.773  0.00  0.00     0.418 HD
ENDBRANCH   4   7
TORSDOF 1
ENDMDL
