MODEL 1
REMARK minimizedAffinity 2.30720997
REMARK minimizedRMSD -1
REMARK  1 active torsions:
REMARK  status: ('A' for Active; 'I' for Inactive)
REMARK    1  A    between atoms: C3_4  and  O_7 
ROOT
ATOM      1  C   UNL d   1       3.133  -1.905   0.628  0.00  0.00    -0.033 A 
ATOM      2  C1  UNL d   1       2.268  -3.002   0.632  0.00  0.00     0.039 A 
ATOM      3  C2  UNL d   1       2.733  -4.261   0.247  0.00  0.00    -0.080 A 
ATOM      4  C3  UNL d   1       4.062  -4.410  -0.138  0.00  0.00     0.150 A 
ATOM      5  C4  UNL d   1       4.930  -3.323  -0.142  0.00  0.00    -0.007 A 
ATOM      6  C5  UNL d   1       4.464  -2.066   0.242  0.00  0.00     0.039 A 
ENDROOT
BRANCH   4   7
ATOM      7  O   UNL d   1       4.560  -5.619  -0.527  0.00  0.00    -0.526 OA
ATOM      8  H5  UNL d   1       3.840  -6.270  -0.502  0.00  0.00     0.418 HD
ENDBRANCH   4   7
TORSDOF 1
ENDMDL
