MODEL 1
REMARK minimizedAffinity 2.6957109
REMARK minimizedRMSD -1
REMARK  1 active torsions:
REMARK  status: ('A' for Active; 'I' for Inactive)
REMARK    1  A    between atoms: C3_4  and  O_7 
ROOT
ATOM      1  C   UNL d   1       6.000  -5.085   0.001  0.00  0.00    -0.033 A 
ATOM      2  C1  UNL d   1       5.738  -3.716  -0.073  0.00  0.00     0.039 A 
ATOM      3  C2  UNL d   1       4.420  -3.258  -0.131  0.00  0.00    -0.080 A 
ATOM      4  C3  UNL d   1       3.375  -4.178  -0.114  0.00  0.00     0.150 A 
ATOM      5  C4  UNL d   1       3.629  -5.543  -0.036  0.00  0.00    -0.007 A 
ATOM      6  C5  UNL d   1       4.946  -5.999   0.021  0.00  0.00     0.039 A 
ENDROOT
BRANCH   4   7
ATOM      7  O   UNL d   1       2.073  -3.778  -0.174  0.00  0.00    -0.526 OA
ATOM      8  H5  UNL d   1       2.052  -2.810  -0.254  0.00  0.00     0.418 HD
ENDBRANCH   4   7
TORSDOF 1
ENDMDL
