MODEL 1
REMARK minimizedAffinity 2.32592225
REMARK minimizedRMSD -1
REMARK  1 active torsions:
REMARK  status: ('A' for Active; 'I' for Inactive)
REMARK    1  A    between atoms: C3_4  and  O_7 
ROOT
ATOM      1  C   UNL d   1      -3.118   1.730   1.252  0.00  0.00    -0.033 A 
ATOM      2  C1  UNL d   1      -2.549   2.800   1.945  0.00  0.00     0.039 A 
ATOM      3  C2  UNL d   1      -1.774   2.565   3.082  0.00  0.00    -0.080 A 
ATOM      4  C3  UNL d   1      -1.574   1.257   3.514  0.00  0.00     0.150 A 
ATOM      5  C4  UNL d   1      -2.134   0.185   2.826  0.00  0.00    -0.007 A 
ATOM      6  C5  UNL d   1      -2.909   0.422   1.692  0.00  0.00     0.039 A 
ENDROOT
BRANCH   4   7
ATOM      7  O   UNL d   1      -0.829   0.978   4.621  0.00  0.00    -0.526 OA
ATOM      8  H5  UNL d   1      -0.529   1.817   5.010  0.00  0.00     0.418 HD
ENDBRANCH   4   7
TORSDOF 1
ENDMDL
