MODEL 1
REMARK minimizedAffinity 2.49161744
REMARK minimizedRMSD -1
REMARK  1 active torsions:
REMARK  status: ('A' for Active; 'I' for Inactive)
REMARK    1  A    between atoms: C3_4  and  O_7 
ROOT
ATOM      1  C   UNL d   1      -1.507   3.082   1.124  0.00  0.00    -0.033 A 
ATOM      2  C1  UNL d   1      -0.279   3.744   1.059  0.00  0.00     0.039 A 
ATOM      3  C2  UNL d   1      -0.065   4.730   0.095  0.00  0.00    -0.080 A 
ATOM      4  C3  UNL d   1      -1.086   5.046  -0.798  0.00  0.00     0.150 A 
ATOM      5  C4  UNL d   1      -2.312   4.393  -0.737  0.00  0.00    -0.007 A 
ATOM      6  C5  UNL d   1      -2.524   3.408   0.226  0.00  0.00     0.039 A 
ENDROOT
BRANCH   4   7
ATOM      7  O   UNL d   1      -0.922   5.998  -1.760  0.00  0.00    -0.526 OA
ATOM      8  H5  UNL d   1      -0.016   6.343  -1.700  0.00  0.00     0.418 HD
ENDBRANCH   4   7
TORSDOF 1
ENDMDL
