MODEL 1
REMARK minimizedAffinity 6.395926
REMARK minimizedRMSD -1
REMARK  1 active torsions:
REMARK  status: ('A' for Active; 'I' for Inactive)
REMARK    1  A    between atoms: C3_4  and  O_7 
ROOT
ATOM      1  C   UNL d   1       2.254  -3.443  -0.557  0.00  0.00    -0.033 A 
ATOM      2  C1  UNL d   1       2.078  -2.163  -0.027  0.00  0.00     0.039 A 
ATOM      3  C2  UNL d   1       3.181  -1.435   0.424  0.00  0.00    -0.080 A 
ATOM      4  C3  UNL d   1       4.452  -1.996   0.337  0.00  0.00     0.150 A 
ATOM      5  C4  UNL d   1       4.635  -3.268  -0.194  0.00  0.00    -0.007 A 
ATOM      6  C5  UNL d   1       3.532  -3.995  -0.642  0.00  0.00     0.039 A 
ENDROOT
BRANCH   4   7
ATOM      7  O   UNL d   1       5.558  -1.325   0.769  0.00  0.00    -0.526 OA
ATOM      8  H5  UNL d   1       5.276  -0.471   1.137  0.00  0.00     0.418 HD
ENDBRANCH   4   7
TORSDOF 1
ENDMDL
