MODEL 1
REMARK minimizedAffinity 2.23461199
REMARK minimizedRMSD -1
REMARK  1 active torsions:
REMARK  status: ('A' for Active; 'I' for Inactive)
REMARK    1  A    between atoms: C3_4  and  O_7 
ROOT
ATOM      1  C   UNL d   1       2.992  -2.501   0.235  0.00  0.00    -0.033 A 
ATOM      2  C1  UNL d   1       4.369  -2.428   0.012  0.00  0.00     0.039 A 
ATOM      3  C2  UNL d   1       5.129  -3.596  -0.060  0.00  0.00    -0.080 A 
ATOM      4  C3  UNL d   1       4.502  -4.830   0.091  0.00  0.00     0.150 A 
ATOM      5  C4  UNL d   1       3.130  -4.910   0.310  0.00  0.00    -0.007 A 
ATOM      6  C5  UNL d   1       2.373  -3.742   0.383  0.00  0.00     0.039 A 
ENDROOT
BRANCH   4   7
ATOM      7  O   UNL d   1       5.203  -5.998   0.033  0.00  0.00    -0.526 OA
ATOM      8  H5  UNL d   1       6.143  -5.786  -0.094  0.00  0.00     0.418 HD
ENDBRANCH   4   7
TORSDOF 1
ENDMDL
