MODEL 1
REMARK minimizedAffinity -1.28461611
REMARK minimizedRMSD -1
REMARK  1 active torsions:
REMARK  status: ('A' for Active; 'I' for Inactive)
REMARK    1  A    between atoms: C3_4  and  O_7 
ROOT
ATOM      1  C   UNL d   1      -1.496  -3.579   0.050  0.00  0.00    -0.033 A 
ATOM      2  C1  UNL d   1      -0.774  -2.927   1.052  0.00  0.00     0.039 A 
ATOM      3  C2  UNL d   1       0.621  -2.974   1.053  0.00  0.00    -0.080 A 
ATOM      4  C3  UNL d   1       1.282  -3.674   0.048  0.00  0.00     0.150 A 
ATOM      5  C4  UNL d   1       0.570  -4.323  -0.956  0.00  0.00    -0.007 A 
ATOM      6  C5  UNL d   1      -0.823  -4.276  -0.955  0.00  0.00     0.039 A 
ENDROOT
BRANCH   4   7
ATOM      7  O   UNL d   1       2.643  -3.752   0.010  0.00  0.00    -0.526 OA
ATOM      8  H5  UNL d   1       2.999  -3.282   0.782  0.00  0.00     0.418 HD
ENDBRANCH   4   7
TORSDOF 1
ENDMDL
