MODEL 1
REMARK minimizedAffinity 9.59735584
REMARK minimizedRMSD -1
REMARK  1 active torsions:
REMARK  status: ('A' for Active; 'I' for Inactive)
REMARK    1  A    between atoms: C3_4  and  O_7 
ROOT
ATOM      1  C   UNL d   1       6.000  -4.839  -0.008  0.00  0.00    -0.033 A 
ATOM      2  C1  UNL d   1       5.225  -6.000   0.036  0.00  0.00     0.039 A 
ATOM      3  C2  UNL d   1       3.833  -5.910   0.104  0.00  0.00    -0.080 A 
ATOM      4  C3  UNL d   1       3.230  -4.656   0.127  0.00  0.00     0.150 A 
ATOM      5  C4  UNL d   1       3.995  -3.495   0.080  0.00  0.00    -0.007 A 
ATOM      6  C5  UNL d   1       5.385  -3.587   0.013  0.00  0.00     0.039 A 
ENDROOT
BRANCH   4   7
ATOM      7  O   UNL d   1       1.875  -4.518   0.198  0.00  0.00    -0.526 OA
ATOM      8  H5  UNL d   1       1.478  -5.403   0.253  0.00  0.00     0.418 HD
ENDBRANCH   4   7
TORSDOF 1
ENDMDL
