MODEL 1
REMARK minimizedAffinity -1.77812684
REMARK minimizedRMSD -1
REMARK  1 active torsions:
REMARK  status: ('A' for Active; 'I' for Inactive)
REMARK    1  A    between atoms: C3_4  and  O_7 
ROOT
ATOM      1  C   UNL d   1      -5.272  -4.883   5.996  0.00  0.00    -0.033 A 
ATOM      2  C1  UNL d   1      -5.707  -3.686   5.423  0.00  0.00     0.039 A 
ATOM      3  C2  UNL d   1      -5.756  -3.552   4.034  0.00  0.00    -0.080 A 
ATOM      4  C3  UNL d   1      -5.369  -4.621   3.231  0.00  0.00     0.150 A 
ATOM      5  C4  UNL d   1      -4.939  -5.818   3.795  0.00  0.00    -0.007 A 
ATOM      6  C5  UNL d   1      -4.889  -5.949   5.182  0.00  0.00     0.039 A 
ENDROOT
BRANCH   4   7
ATOM      7  O   UNL d   1      -5.396  -4.536   1.870  0.00  0.00    -0.526 OA
ATOM      8  H5  UNL d   1      -5.687  -3.643   1.624  0.00  0.00     0.418 HD
ENDBRANCH   4   7
TORSDOF 1
ENDMDL
