MODEL 1
REMARK minimizedAffinity 1.23217106
REMARK minimizedRMSD -1
REMARK  1 active torsions:
REMARK  status: ('A' for Active; 'I' for Inactive)
REMARK    1  A    between atoms: C3_4  and  O_7 
ROOT
ATOM      1  C   UNL d   1       3.018   3.755   0.701  0.00  0.00    -0.033 A 
ATOM      2  C1  UNL d   1       2.201   2.624   0.658  0.00  0.00     0.039 A 
ATOM      3  C2  UNL d   1       2.294   1.733  -0.412  0.00  0.00    -0.080 A 
ATOM      4  C3  UNL d   1       3.209   1.983  -1.432  0.00  0.00     0.150 A 
ATOM      5  C4  UNL d   1       4.029   3.106  -1.394  0.00  0.00    -0.007 A 
ATOM      6  C5  UNL d   1       3.933   3.995  -0.324  0.00  0.00     0.039 A 
ENDROOT
BRANCH   4   7
ATOM      7  O   UNL d   1       3.333   1.144  -2.499  0.00  0.00    -0.526 OA
ATOM      8  H5  UNL d   1       2.683   0.428  -2.405  0.00  0.00     0.418 HD
ENDBRANCH   4   7
TORSDOF 1
ENDMDL
