MODEL 1
REMARK minimizedAffinity 4.47495699
REMARK minimizedRMSD -1
REMARK  0 active torsions:
REMARK  status: ('A' for Active; 'I' for Inactive)
ROOT
ATOM      1  C2' OXE d   1       0.219  -1.656   2.617  0.00  0.00     0.078 C 
ATOM      2  C1' OXE d   1      -1.064  -1.958   0.139  0.00  0.00     0.078 C 
ATOM      3  C1  OXE d   1      -1.488  -0.806   1.015  0.00  0.00    -0.078 A 
ATOM      4  C2  OXE d   1      -0.887  -0.693   2.246  0.00  0.00    -0.078 A 
ATOM      5  C3  OXE d   1      -1.202   0.383   3.070  0.00  0.00     0.003 A 
ATOM      6  C4  OXE d   1      -2.234   1.264   2.723  0.00  0.00    -0.002 A 
ATOM      7  C5  OXE d   1      -2.886   1.143   1.491  0.00  0.00    -0.002 A 
ATOM      8  C6  OXE d   1      -2.496   0.142   0.609  0.00  0.00     0.003 A 
ENDROOT
TORSDOF 0
ENDMDL
