MODEL 1
REMARK minimizedAffinity -0.030848505
REMARK minimizedRMSD -1
REMARK  0 active torsions:
REMARK  status: ('A' for Active; 'I' for Inactive)
ROOT
ATOM      1  C2' OXE d   1      -0.759  -1.705  -2.017  0.00  0.00     0.078 C 
ATOM      2  C1' OXE d   1      -0.102  -3.392  -4.162  0.00  0.00     0.078 C 
ATOM      3  C1  OXE d   1      -0.316  -1.929  -4.458  0.00  0.00    -0.078 A 
ATOM      4  C2  OXE d   1      -0.683  -1.119  -3.410  0.00  0.00    -0.078 A 
ATOM      5  C3  OXE d   1      -0.840   0.248  -3.617  0.00  0.00     0.003 A 
ATOM      6  C4  OXE d   1      -0.778   0.781  -4.911  0.00  0.00    -0.002 A 
ATOM      7  C5  OXE d   1      -0.445  -0.034  -5.999  0.00  0.00    -0.002 A 
ATOM      8  C6  OXE d   1      -0.170  -1.379  -5.783  0.00  0.00     0.003 A 
ENDROOT
TORSDOF 0
ENDMDL
