MODEL 1
REMARK minimizedAffinity 4.55763435
REMARK minimizedRMSD -1
REMARK  0 active torsions:
REMARK  status: ('A' for Active; 'I' for Inactive)
ROOT
ATOM      1  C2' OXE d   1      -1.140  -1.576   0.132  0.00  0.00     0.078 C 
ATOM      2  C1' OXE d   1      -1.956   0.493   1.846  0.00  0.00     0.078 C 
ATOM      3  C1  OXE d   1      -0.708  -0.273   2.211  0.00  0.00    -0.078 A 
ATOM      4  C2  OXE d   1      -0.343  -1.314   1.391  0.00  0.00    -0.078 A 
ATOM      5  C3  OXE d   1       0.830  -2.017   1.652  0.00  0.00     0.003 A 
ATOM      6  C4  OXE d   1       1.556  -1.774   2.824  0.00  0.00    -0.002 A 
ATOM      7  C5  OXE d   1       1.179  -0.745   3.693  0.00  0.00    -0.002 A 
ATOM      8  C6  OXE d   1       0.076   0.042   3.379  0.00  0.00     0.003 A 
ENDROOT
TORSDOF 0
ENDMDL
