MODEL 1
REMARK minimizedAffinity -3.05370355
REMARK minimizedRMSD -1
REMARK  0 active torsions:
REMARK  status: ('A' for Active; 'I' for Inactive)
ROOT
ATOM      1  C2' OXE d   1      -1.461  -1.920  -5.984  0.00  0.00     0.078 C 
ATOM      2  C1' OXE d   1      -2.782   0.308  -4.903  0.00  0.00     0.078 C 
ATOM      3  C1  OXE d   1      -1.292   0.408  -5.113  0.00  0.00    -0.078 A 
ATOM      4  C2  OXE d   1      -0.647  -0.704  -5.599  0.00  0.00    -0.078 A 
ATOM      5  C3  OXE d   1       0.719  -0.648  -5.863  0.00  0.00     0.003 A 
ATOM      6  C4  OXE d   1       1.466   0.477  -5.495  0.00  0.00    -0.002 A 
ATOM      7  C5  OXE d   1       0.835   1.606  -4.962  0.00  0.00    -0.002 A 
ATOM      8  C6  OXE d   1      -0.547   1.603  -4.804  0.00  0.00     0.003 A 
ENDROOT
TORSDOF 0
ENDMDL
