MODEL 1
REMARK minimizedAffinity 5.17403412
REMARK minimizedRMSD -1
REMARK  0 active torsions:
REMARK  status: ('A' for Active; 'I' for Inactive)
ROOT
ATOM      1  C2' OXE d   1      -0.421  -1.110   2.741  0.00  0.00     0.078 C 
ATOM      2  C1' OXE d   1      -1.220  -2.614   0.509  0.00  0.00     0.078 C 
ATOM      3  C1  OXE d   1      -1.783  -1.223   0.658  0.00  0.00    -0.078 A 
ATOM      4  C2  OXE d   1      -1.424  -0.511   1.778  0.00  0.00    -0.078 A 
ATOM      5  C3  OXE d   1      -1.871   0.797   1.936  0.00  0.00     0.003 A 
ATOM      6  C4  OXE d   1      -2.806   1.339   1.046  0.00  0.00    -0.002 A 
ATOM      7  C5  OXE d   1      -3.217   0.617  -0.079  0.00  0.00    -0.002 A 
ATOM      8  C6  OXE d   1      -2.683  -0.646  -0.310  0.00  0.00     0.003 A 
ENDROOT
TORSDOF 0
ENDMDL
