MODEL 1
REMARK minimizedAffinity -0.404934168
REMARK minimizedRMSD -1
REMARK  0 active torsions:
REMARK  status: ('A' for Active; 'I' for Inactive)
ROOT
ATOM      1  C2' OXE d   1      -0.826  -0.201   2.870  0.00  0.00     0.078 C 
ATOM      2  C1' OXE d   1      -0.777  -1.884   0.624  0.00  0.00     0.078 C 
ATOM      3  C1  OXE d   1      -1.828  -0.803   0.670  0.00  0.00    -0.078 A 
ATOM      4  C2  OXE d   1      -1.874  -0.014   1.794  0.00  0.00    -0.078 A 
ATOM      5  C3  OXE d   1      -2.788   1.034   1.865  0.00  0.00     0.003 A 
ATOM      6  C4  OXE d   1      -3.760   1.194   0.870  0.00  0.00    -0.002 A 
ATOM      7  C5  OXE d   1      -3.756   0.376  -0.265  0.00  0.00    -0.002 A 
ATOM      8  C6  OXE d   1      -2.772  -0.598  -0.400  0.00  0.00     0.003 A 
ENDROOT
TORSDOF 0
ENDMDL
