MODEL 1
REMARK minimizedAffinity 6.52395773
REMARK minimizedRMSD -1
REMARK  0 active torsions:
REMARK  status: ('A' for Active; 'I' for Inactive)
ROOT
ATOM      1  C2' OXE d   1      -3.593  -1.892  -0.380  0.00  0.00     0.078 C 
ATOM      2  C1' OXE d   1      -1.064  -3.078  -0.092  0.00  0.00     0.078 C 
ATOM      3  C1  OXE d   1      -1.397  -1.905   0.797  0.00  0.00    -0.078 A 
ATOM      4  C2  OXE d   1      -2.618  -1.302   0.617  0.00  0.00    -0.078 A 
ATOM      5  C3  OXE d   1      -2.997  -0.251   1.447  0.00  0.00     0.003 A 
ATOM      6  C4  OXE d   1      -2.086   0.295   2.359  0.00  0.00    -0.002 A 
ATOM      7  C5  OXE d   1      -0.822  -0.279   2.531  0.00  0.00    -0.002 A 
ATOM      8  C6  OXE d   1      -0.478  -1.404   1.789  0.00  0.00     0.003 A 
ENDROOT
TORSDOF 0
ENDMDL
