MODEL 1
REMARK minimizedAffinity 6.37690926
REMARK minimizedRMSD -1
REMARK  0 active torsions:
REMARK  status: ('A' for Active; 'I' for Inactive)
ROOT
ATOM      1  C2' OXE d   1      -0.005  -1.174  -5.998  0.00  0.00     0.078 C 
ATOM      2  C1' OXE d   1      -1.789   0.536  -4.667  0.00  0.00     0.078 C 
ATOM      3  C1  OXE d   1      -1.157  -0.578  -3.871  0.00  0.00    -0.078 A 
ATOM      4  C2  OXE d   1      -0.322  -1.439  -4.542  0.00  0.00    -0.078 A 
ATOM      5  C3  OXE d   1       0.330  -2.451  -3.843  0.00  0.00     0.003 A 
ATOM      6  C4  OXE d   1       0.023  -2.695  -2.499  0.00  0.00    -0.002 A 
ATOM      7  C5  OXE d   1      -0.856  -1.855  -1.807  0.00  0.00    -0.002 A 
ATOM      8  C6  OXE d   1      -1.420  -0.769  -2.466  0.00  0.00     0.003 A 
ENDROOT
TORSDOF 0
ENDMDL
