MODEL 1
REMARK minimizedAffinity -0.115716651
REMARK minimizedRMSD -1
REMARK  0 active torsions:
REMARK  status: ('A' for Active; 'I' for Inactive)
ROOT
ATOM      1  C2' OXE d   1      -1.918  -3.280  -6.000  0.00  0.00     0.078 C 
ATOM      2  C1' OXE d   1       0.220  -2.246  -4.503  0.00  0.00     0.078 C 
ATOM      3  C1  OXE d   1      -0.890  -1.301  -4.889  0.00  0.00    -0.078 A 
ATOM      4  C2  OXE d   1      -1.909  -1.805  -5.661  0.00  0.00    -0.078 A 
ATOM      5  C3  OXE d   1      -2.986  -0.989  -5.999  0.00  0.00     0.003 A 
ATOM      6  C4  OXE d   1      -2.965   0.376  -5.690  0.00  0.00    -0.002 A 
ATOM      7  C5  OXE d   1      -1.917   0.918  -4.939  0.00  0.00    -0.002 A 
ATOM      8  C6  OXE d   1      -0.895   0.086  -4.495  0.00  0.00     0.003 A 
ENDROOT
TORSDOF 0
ENDMDL
