MODEL 1
REMARK minimizedAffinity 2.55064917
REMARK minimizedRMSD -1
REMARK  0 active torsions:
REMARK  status: ('A' for Active; 'I' for Inactive)
ROOT
ATOM      1  C2' OXE d   1       5.600   3.302   5.968  0.00  0.00     0.078 C 
ATOM      2  C1' OXE d   1       5.309   0.655   5.077  0.00  0.00     0.078 C 
ATOM      3  C1  OXE d   1       5.040   1.763   4.090  0.00  0.00    -0.078 A 
ATOM      4  C2  OXE d   1       5.139   3.055   4.547  0.00  0.00    -0.078 A 
ATOM      5  C3  OXE d   1       4.955   4.115   3.664  0.00  0.00     0.003 A 
ATOM      6  C4  OXE d   1       4.519   3.879   2.354  0.00  0.00    -0.002 A 
ATOM      7  C5  OXE d   1       4.373   2.571   1.880  0.00  0.00    -0.002 A 
ATOM      8  C6  OXE d   1       4.670   1.504   2.720  0.00  0.00     0.003 A 
ENDROOT
TORSDOF 0
ENDMDL
