MODEL 1
REMARK minimizedAffinity 6.69710732
REMARK minimizedRMSD -1
REMARK  0 active torsions:
REMARK  status: ('A' for Active; 'I' for Inactive)
ROOT
ATOM      1  C2' OXE d   1      -3.188  -2.958   0.408  0.00  0.00     0.078 C 
ATOM      2  C1' OXE d   1      -1.170  -1.349  -0.696  0.00  0.00     0.078 C 
ATOM      3  C1  OXE d   1      -1.346  -1.328   0.802  0.00  0.00    -0.078 A 
ATOM      4  C2  OXE d   1      -2.366  -2.082   1.329  0.00  0.00    -0.078 A 
ATOM      5  C3  OXE d   1      -2.537  -2.141   2.710  0.00  0.00     0.003 A 
ATOM      6  C4  OXE d   1      -1.779  -1.321   3.554  0.00  0.00    -0.002 A 
ATOM      7  C5  OXE d   1      -0.761  -0.515   3.033  0.00  0.00    -0.002 A 
ATOM      8  C6  OXE d   1      -0.504  -0.539   1.667  0.00  0.00     0.003 A 
ENDROOT
TORSDOF 0
ENDMDL
