MODEL 1
REMARK minimizedAffinity -1.43170822
REMARK minimizedRMSD -1
REMARK  0 active torsions:
REMARK  status: ('A' for Active; 'I' for Inactive)
ROOT
ATOM      1  C2' OXE d   1       0.172  -0.276  -5.999  0.00  0.00     0.078 C 
ATOM      2  C1' OXE d   1      -2.372   0.407  -5.027  0.00  0.00     0.078 C 
ATOM      3  C1  OXE d   1      -1.560  -0.588  -4.236  0.00  0.00    -0.078 A 
ATOM      4  C2  OXE d   1      -0.336  -0.952  -4.744  0.00  0.00    -0.078 A 
ATOM      5  C3  OXE d   1       0.476  -1.824  -4.025  0.00  0.00     0.003 A 
ATOM      6  C4  OXE d   1      -0.005  -2.452  -2.870  0.00  0.00    -0.002 A 
ATOM      7  C5  OXE d   1      -1.265  -2.126  -2.358  0.00  0.00    -0.002 A 
ATOM      8  C6  OXE d   1      -2.036  -1.167  -3.004  0.00  0.00     0.003 A 
ENDROOT
TORSDOF 0
ENDMDL
