MODEL 1
REMARK minimizedAffinity 6.50069761
REMARK minimizedRMSD -1
REMARK  0 active torsions:
REMARK  status: ('A' for Active; 'I' for Inactive)
ROOT
ATOM      1  O1  BZF d   1       1.265   0.940  -2.518  0.00  0.00    -0.204 OA
ATOM      2  C2  BZF d   1       1.502   2.115  -1.831  0.00  0.00     0.174 A 
ATOM      3  C3  BZF d   1       2.306   1.895  -0.770  0.00  0.00    -0.012 A 
ATOM      4  C3A BZF d   1       2.663   0.512  -0.849  0.00  0.00    -0.107 A 
ATOM      5  C4  BZF d   1       3.454  -0.298  -0.086  0.00  0.00     0.055 A 
ATOM      6  C5  BZF d   1       3.536  -1.620  -0.391  0.00  0.00    -0.016 A 
ATOM      7  C6  BZF d   1       2.837  -2.165  -1.448  0.00  0.00     0.022 A 
ATOM      8  C7  BZF d   1       2.043  -1.401  -2.237  0.00  0.00     0.029 A 
ATOM      9  C7A BZF d   1       1.985  -0.058  -1.951  0.00  0.00     0.058 A 
ENDROOT
TORSDOF 0
ENDMDL
