MODEL 1
REMARK minimizedAffinity 5.74857378
REMARK minimizedRMSD -1
REMARK  0 active torsions:
REMARK  status: ('A' for Active; 'I' for Inactive)
ROOT
ATOM      1  O1  BZF d   1      -0.401   1.496  -1.496  0.00  0.00    -0.204 OA
ATOM      2  C2  BZF d   1       0.891   1.201  -1.885  0.00  0.00     0.174 A 
ATOM      3  C3  BZF d   1       1.765   1.491  -0.900  0.00  0.00    -0.012 A 
ATOM      4  C3A BZF d   1       0.960   1.912   0.206  0.00  0.00    -0.107 A 
ATOM      5  C4  BZF d   1       1.250   2.315   1.478  0.00  0.00     0.055 A 
ATOM      6  C5  BZF d   1       0.238   2.729   2.286  0.00  0.00    -0.016 A 
ATOM      7  C6  BZF d   1      -1.071   2.758   1.853  0.00  0.00     0.022 A 
ATOM      8  C7  BZF d   1      -1.408   2.362   0.601  0.00  0.00     0.029 A 
ATOM      9  C7A BZF d   1      -0.392   1.912  -0.207  0.00  0.00     0.058 A 
ENDROOT
TORSDOF 0
ENDMDL
