MODEL 1
REMARK minimizedAffinity 24.2908096
REMARK minimizedRMSD -1
REMARK  0 active torsions:
REMARK  status: ('A' for Active; 'I' for Inactive)
ROOT
ATOM      1  O1  BZF d   1      -5.910  -2.028   5.730  0.00  0.00    -0.204 OA
ATOM      2  C2  BZF d   1      -5.998  -2.972   4.725  0.00  0.00     0.174 A 
ATOM      3  C3  BZF d   1      -5.997  -2.381   3.513  0.00  0.00    -0.012 A 
ATOM      4  C3A BZF d   1      -5.809  -0.987   3.773  0.00  0.00    -0.107 A 
ATOM      5  C4  BZF d   1      -5.705   0.113   2.970  0.00  0.00     0.055 A 
ATOM      6  C5  BZF d   1      -5.599   1.341   3.542  0.00  0.00    -0.016 A 
ATOM      7  C6  BZF d   1      -5.599   1.506   4.912  0.00  0.00     0.022 A 
ATOM      8  C7  BZF d   1      -5.694   0.445   5.749  0.00  0.00     0.029 A 
ATOM      9  C7A BZF d   1      -5.768  -0.800   5.175  0.00  0.00     0.058 A 
ENDROOT
TORSDOF 0
ENDMDL
