MODEL 1
REMARK minimizedAffinity 12.2506924
REMARK minimizedRMSD -1
REMARK  0 active torsions:
REMARK  status: ('A' for Active; 'I' for Inactive)
ROOT
ATOM      1  O1  BZF d   1       0.625   0.763  -3.681  0.00  0.00    -0.204 OA
ATOM      2  C2  BZF d   1       0.576  -0.071  -2.581  0.00  0.00     0.174 A 
ATOM      3  C3  BZF d   1       1.011   0.568  -1.476  0.00  0.00    -0.012 A 
ATOM      4  C3A BZF d   1       1.266   1.912  -1.895  0.00  0.00    -0.107 A 
ATOM      5  C4  BZF d   1       1.704   3.031  -1.246  0.00  0.00     0.055 A 
ATOM      6  C5  BZF d   1       1.917   4.167  -1.959  0.00  0.00    -0.016 A 
ATOM      7  C6  BZF d   1       1.710   4.219  -3.322  0.00  0.00     0.022 A 
ATOM      8  C7  BZF d   1       1.272   3.136  -4.009  0.00  0.00     0.029 A 
ATOM      9  C7A BZF d   1       1.023   1.996  -3.286  0.00  0.00     0.058 A 
ENDROOT
TORSDOF 0
ENDMDL
