MODEL 1
REMARK minimizedAffinity 10.5818825
REMARK minimizedRMSD -1
REMARK  0 active torsions:
REMARK  status: ('A' for Active; 'I' for Inactive)
ROOT
ATOM      1  O1  BZF d   1       1.136   2.891  -1.928  0.00  0.00    -0.204 OA
ATOM      2  C2  BZF d   1       1.025   1.524  -2.096  0.00  0.00     0.174 A 
ATOM      3  C3  BZF d   1       1.490   0.870  -1.012  0.00  0.00    -0.012 A 
ATOM      4  C3A BZF d   1       1.832   1.893  -0.072  0.00  0.00    -0.107 A 
ATOM      5  C4  BZF d   1       2.331   1.872   1.198  0.00  0.00     0.055 A 
ATOM      6  C5  BZF d   1       2.622   3.049   1.813  0.00  0.00    -0.016 A 
ATOM      7  C6  BZF d   1       2.430   4.263   1.186  0.00  0.00     0.022 A 
ATOM      8  C7  BZF d   1       1.932   4.334  -0.072  0.00  0.00     0.029 A 
ATOM      9  C7A BZF d   1       1.606   3.148  -0.684  0.00  0.00     0.058 A 
ENDROOT
TORSDOF 0
ENDMDL
