MODEL 1
REMARK minimizedAffinity 9.76566601
REMARK minimizedRMSD -1
REMARK  0 active torsions:
REMARK  status: ('A' for Active; 'I' for Inactive)
ROOT
ATOM      1  O1  BZF d   1      -3.931  -0.965  -1.591  0.00  0.00    -0.204 OA
ATOM      2  C2  BZF d   1      -2.571  -0.788  -1.419  0.00  0.00     0.174 A 
ATOM      3  C3  BZF d   1      -2.208  -1.074  -0.152  0.00  0.00    -0.012 A 
ATOM      4  C3A BZF d   1      -3.401  -1.541   0.485  0.00  0.00    -0.107 A 
ATOM      5  C4  BZF d   1      -3.678  -1.991   1.744  0.00  0.00     0.055 A 
ATOM      6  C5  BZF d   1      -4.961  -2.303   2.067  0.00  0.00    -0.016 A 
ATOM      7  C6  BZF d   1      -5.990  -2.172   1.158  0.00  0.00     0.022 A 
ATOM      8  C7  BZF d   1      -5.764  -1.734  -0.105  0.00  0.00     0.029 A 
ATOM      9  C7A BZF d   1      -4.463  -1.450  -0.444  0.00  0.00     0.058 A 
ENDROOT
TORSDOF 0
ENDMDL
