MODEL 1
REMARK minimizedAffinity 3.65926147
REMARK minimizedRMSD -1
REMARK  0 active torsions:
REMARK  status: ('A' for Active; 'I' for Inactive)
ROOT
ATOM      1  O1  BZF d   1       0.024   1.162  -1.170  0.00  0.00    -0.204 OA
ATOM      2  C2  BZF d   1       0.740   2.169  -1.789  0.00  0.00     0.174 A 
ATOM      3  C3  BZF d   1       1.969   1.737  -2.137  0.00  0.00    -0.012 A 
ATOM      4  C3A BZF d   1       1.992   0.349  -1.793  0.00  0.00    -0.107 A 
ATOM      5  C4  BZF d   1       2.935  -0.632  -1.911  0.00  0.00     0.055 A 
ATOM      6  C5  BZF d   1       2.669  -1.867  -1.410  0.00  0.00    -0.016 A 
ATOM      7  C6  BZF d   1       1.475  -2.154  -0.782  0.00  0.00     0.022 A 
ATOM      8  C7  BZF d   1       0.508  -1.215  -0.645  0.00  0.00     0.029 A 
ATOM      9  C7A BZF d   1       0.760   0.025  -1.179  0.00  0.00     0.058 A 
ENDROOT
TORSDOF 0
ENDMDL
