MODEL 1
REMARK minimizedAffinity 2.15397096
REMARK minimizedRMSD -1
REMARK  0 active torsions:
REMARK  status: ('A' for Active; 'I' for Inactive)
ROOT
ATOM      1  O1  BZF d   1       3.272   0.576  -1.541  0.00  0.00    -0.204 OA
ATOM      2  C2  BZF d   1       2.401   1.428  -2.191  0.00  0.00     0.174 A 
ATOM      3  C3  BZF d   1       1.170   0.881  -2.275  0.00  0.00    -0.012 A 
ATOM      4  C3A BZF d   1       1.257  -0.352  -1.555  0.00  0.00    -0.107 A 
ATOM      5  C4  BZF d   1       0.356  -1.338  -1.271  0.00  0.00     0.055 A 
ATOM      6  C5  BZF d   1       0.778  -2.448  -0.609  0.00  0.00    -0.016 A 
ATOM      7  C6  BZF d   1       2.093  -2.606  -0.223  0.00  0.00     0.022 A 
ATOM      8  C7  BZF d   1       3.022  -1.653  -0.478  0.00  0.00     0.029 A 
ATOM      9  C7A BZF d   1       2.592  -0.516  -1.118  0.00  0.00     0.058 A 
ENDROOT
TORSDOF 0
ENDMDL
