MODEL 1
REMARK minimizedAffinity 11.8430109
REMARK minimizedRMSD -1
REMARK  0 active torsions:
REMARK  status: ('A' for Active; 'I' for Inactive)
ROOT
ATOM      1  O1  BZF d   1       3.371   0.832  -2.368  0.00  0.00    -0.204 OA
ATOM      2  C2  BZF d   1       3.510  -0.378  -1.715  0.00  0.00     0.174 A 
ATOM      3  C3  BZF d   1       2.416  -0.650  -0.974  0.00  0.00    -0.012 A 
ATOM      4  C3A BZF d   1       1.501   0.415  -1.249  0.00  0.00    -0.107 A 
ATOM      5  C4  BZF d   1       0.235   0.698  -0.824  0.00  0.00     0.055 A 
ATOM      6  C5  BZF d   1      -0.353   1.856  -1.224  0.00  0.00    -0.016 A 
ATOM      7  C6  BZF d   1       0.297   2.755  -2.043  0.00  0.00     0.022 A 
ATOM      8  C7  BZF d   1       1.552   2.516  -2.495  0.00  0.00     0.029 A 
ATOM      9  C7A BZF d   1       2.136   1.331  -2.119  0.00  0.00     0.058 A 
ENDROOT
TORSDOF 0
ENDMDL
