MODEL 1
REMARK minimizedAffinity 6.19126844
REMARK minimizedRMSD -1
REMARK  0 active torsions:
REMARK  status: ('A' for Active; 'I' for Inactive)
ROOT
ATOM      1  O1  BZF d   1       3.843  -3.000  -0.384  0.00  0.00    -0.204 OA
ATOM      2  C2  BZF d   1       2.629  -3.659  -0.403  0.00  0.00     0.174 A 
ATOM      3  C3  BZF d   1       1.754  -3.026  -1.211  0.00  0.00    -0.012 A 
ATOM      4  C3A BZF d   1       2.495  -1.954  -1.801  0.00  0.00    -0.107 A 
ATOM      5  C4  BZF d   1       2.178  -0.979  -2.703  0.00  0.00     0.055 A 
ATOM      6  C5  BZF d   1       3.110  -0.040  -3.016  0.00  0.00    -0.016 A 
ATOM      7  C6  BZF d   1       4.364  -0.043  -2.442  0.00  0.00     0.022 A 
ATOM      8  C7  BZF d   1       4.726  -0.992  -1.545  0.00  0.00     0.029 A 
ATOM      9  C7A BZF d   1       3.798  -1.961  -1.252  0.00  0.00     0.058 A 
ENDROOT
TORSDOF 0
ENDMDL
