MODEL 1
REMARK minimizedAffinity 1.67987895
REMARK minimizedRMSD -1
REMARK  0 active torsions:
REMARK  status: ('A' for Active; 'I' for Inactive)
ROOT
ATOM      1  O1  BZF d   1       1.296  -0.091  -3.226  0.00  0.00    -0.204 OA
ATOM      2  C2  BZF d   1       2.002   1.095  -3.164  0.00  0.00     0.174 A 
ATOM      3  C3  BZF d   1       2.723   1.164  -2.026  0.00  0.00    -0.012 A 
ATOM      4  C3A BZF d   1       2.524  -0.095  -1.378  0.00  0.00    -0.107 A 
ATOM      5  C4  BZF d   1       2.992  -0.637  -0.215  0.00  0.00     0.055 A 
ATOM      6  C5  BZF d   1       2.548  -1.863   0.169  0.00  0.00    -0.016 A 
ATOM      7  C6  BZF d   1       1.633  -2.571  -0.582  0.00  0.00     0.022 A 
ATOM      8  C7  BZF d   1       1.144  -2.077  -1.745  0.00  0.00     0.029 A 
ATOM      9  C7A BZF d   1       1.616  -0.853  -2.152  0.00  0.00     0.058 A 
ENDROOT
TORSDOF 0
ENDMDL
