MODEL 1
REMARK minimizedAffinity 0.606842399
REMARK minimizedRMSD -1
REMARK  0 active torsions:
REMARK  status: ('A' for Active; 'I' for Inactive)
ROOT
ATOM      1  O1  BZF d   1       5.281  -1.909   5.809  0.00  0.00    -0.204 OA
ATOM      2  C2  BZF d   1       5.316  -1.018   4.754  0.00  0.00     0.174 A 
ATOM      3  C3  BZF d   1       5.614  -1.653   3.602  0.00  0.00    -0.012 A 
ATOM      4  C3A BZF d   1       5.684  -3.040   3.944  0.00  0.00    -0.107 A 
ATOM      5  C4  BZF d   1       5.930  -4.174   3.223  0.00  0.00     0.055 A 
ATOM      6  C5  BZF d   1       6.000  -5.367   3.871  0.00  0.00    -0.016 A 
ATOM      7  C6  BZF d   1       5.835  -5.461   5.237  0.00  0.00     0.022 A 
ATOM      8  C7  BZF d   1       5.584  -4.365   5.994  0.00  0.00     0.029 A 
ATOM      9  C7A BZF d   1       5.480  -3.163   5.338  0.00  0.00     0.058 A 
ENDROOT
TORSDOF 0
ENDMDL
