MODEL 1
REMARK minimizedAffinity 2.3103137
REMARK minimizedRMSD -1
REMARK  0 active torsions:
REMARK  status: ('A' for Active; 'I' for Inactive)
ROOT
ATOM      1  O1  BZF d   1       3.449   0.440  -2.035  0.00  0.00    -0.204 OA
ATOM      2  C2  BZF d   1       2.578   1.188  -2.804  0.00  0.00     0.174 A 
ATOM      3  C3  BZF d   1       1.358   0.616  -2.839  0.00  0.00    -0.012 A 
ATOM      4  C3A BZF d   1       1.448  -0.516  -1.967  0.00  0.00    -0.107 A 
ATOM      5  C4  BZF d   1       0.555  -1.472  -1.576  0.00  0.00     0.055 A 
ATOM      6  C5  BZF d   1       0.980  -2.482  -0.772  0.00  0.00    -0.016 A 
ATOM      7  C6  BZF d   1       2.289  -2.569  -0.345  0.00  0.00     0.022 A 
ATOM      8  C7  BZF d   1       3.210  -1.641  -0.704  0.00  0.00     0.029 A 
ATOM      9  C7A BZF d   1       2.776  -0.601  -1.489  0.00  0.00     0.058 A 
ENDROOT
TORSDOF 0
ENDMDL
