MODEL 1
REMARK minimizedAffinity 2.33832216
REMARK minimizedRMSD -1
REMARK  0 active torsions:
REMARK  status: ('A' for Active; 'I' for Inactive)
ROOT
ATOM      1  O1  BZF d   1       0.546   1.031  -1.852  0.00  0.00    -0.204 OA
ATOM      2  C2  BZF d   1       1.764   0.903  -2.492  0.00  0.00     0.174 A 
ATOM      3  C3  BZF d   1       2.779   1.186  -1.651  0.00  0.00    -0.012 A 
ATOM      4  C3A BZF d   1       2.161   1.422  -0.382  0.00  0.00    -0.107 A 
ATOM      5  C4  BZF d   1       2.647   1.733   0.856  0.00  0.00     0.055 A 
ATOM      6  C5  BZF d   1       1.772   1.969   1.869  0.00  0.00    -0.016 A 
ATOM      7  C6  BZF d   1       0.407   1.908   1.678  0.00  0.00     0.022 A 
ATOM      8  C7  BZF d   1      -0.122   1.598   0.470  0.00  0.00     0.029 A 
ATOM      9  C7A BZF d   1       0.760   1.326  -0.547  0.00  0.00     0.058 A 
ENDROOT
TORSDOF 0
ENDMDL
