MODEL 1
REMARK minimizedAffinity 2.76993418
REMARK minimizedRMSD -1
REMARK  0 active torsions:
REMARK  status: ('A' for Active; 'I' for Inactive)
ROOT
ATOM      1  O1  BZF d   1       1.380   1.439   1.099  0.00  0.00    -0.204 OA
ATOM      2  C2  BZF d   1       1.373   2.075   2.325  0.00  0.00     0.174 A 
ATOM      3  C3  BZF d   1       0.706   3.245   2.253  0.00  0.00    -0.012 A 
ATOM      4  C3A BZF d   1       0.190   3.303   0.920  0.00  0.00    -0.107 A 
ATOM      5  C4  BZF d   1      -0.573   4.214   0.247  0.00  0.00     0.055 A 
ATOM      6  C5  BZF d   1      -0.842   4.006  -1.069  0.00  0.00    -0.016 A 
ATOM      7  C6  BZF d   1      -0.363   2.903  -1.743  0.00  0.00     0.022 A 
ATOM      8  C7  BZF d   1       0.393   1.968  -1.116  0.00  0.00     0.029 A 
ATOM      9  C7A BZF d   1       0.640   2.159   0.221  0.00  0.00     0.058 A 
ENDROOT
TORSDOF 0
ENDMDL
