MODEL 1
REMARK minimizedAffinity 13.5205755
REMARK minimizedRMSD -1
REMARK  0 active torsions:
REMARK  status: ('A' for Active; 'I' for Inactive)
ROOT
ATOM      1  O1  BZF d   1      -5.049  -0.963   2.388  0.00  0.00    -0.204 OA
ATOM      2  C2  BZF d   1      -5.508   0.031   1.545  0.00  0.00     0.174 A 
ATOM      3  C3  BZF d   1      -6.000   1.069   2.252  0.00  0.00    -0.012 A 
ATOM      4  C3A BZF d   1      -5.753   0.741   3.623  0.00  0.00    -0.107 A 
ATOM      5  C4  BZF d   1      -6.000   1.385   4.802  0.00  0.00     0.055 A 
ATOM      6  C5  BZF d   1      -5.702   0.760   5.971  0.00  0.00    -0.016 A 
ATOM      7  C6  BZF d   1      -5.163  -0.510   5.999  0.00  0.00     0.022 A 
ATOM      8  C7  BZF d   1      -4.897  -1.187   4.855  0.00  0.00     0.029 A 
ATOM      9  C7A BZF d   1      -5.165  -0.545   3.671  0.00  0.00     0.058 A 
ENDROOT
TORSDOF 0
ENDMDL
