MODEL 1
REMARK minimizedAffinity 2.38294959
REMARK minimizedRMSD -1
REMARK  0 active torsions:
REMARK  status: ('A' for Active; 'I' for Inactive)
ROOT
ATOM      1  O1  BZF d   1      -0.666   0.784  -1.026  0.00  0.00    -0.204 OA
ATOM      2  C2  BZF d   1      -0.130   1.994  -0.631  0.00  0.00     0.174 A 
ATOM      3  C3  BZF d   1       1.216   1.925  -0.575  0.00  0.00    -0.012 A 
ATOM      4  C3A BZF d   1       1.546   0.616  -1.047  0.00  0.00    -0.107 A 
ATOM      5  C4  BZF d   1       2.727  -0.043  -1.239  0.00  0.00     0.055 A 
ATOM      6  C5  BZF d   1       2.701  -1.341  -1.643  0.00  0.00    -0.016 A 
ATOM      7  C6  BZF d   1       1.514  -2.010  -1.860  0.00  0.00     0.022 A 
ATOM      8  C7  BZF d   1       0.318  -1.396  -1.688  0.00  0.00     0.029 A 
ATOM      9  C7A BZF d   1       0.341  -0.076  -1.311  0.00  0.00     0.058 A 
ENDROOT
TORSDOF 0
ENDMDL
