MODEL 1
REMARK minimizedAffinity 13.1403675
REMARK minimizedRMSD -1
REMARK  0 active torsions:
REMARK  status: ('A' for Active; 'I' for Inactive)
ROOT
ATOM      1  O1  BZF d   1       0.041   1.616  -1.955  0.00  0.00    -0.204 OA
ATOM      2  C2  BZF d   1       1.229   1.164  -2.495  0.00  0.00     0.174 A 
ATOM      3  C3  BZF d   1       2.228   1.251  -1.592  0.00  0.00    -0.012 A 
ATOM      4  C3A BZF d   1       1.606   1.703  -0.386  0.00  0.00    -0.107 A 
ATOM      5  C4  BZF d   1       2.074   1.967   0.870  0.00  0.00     0.055 A 
ATOM      6  C5  BZF d   1       1.220   2.465   1.802  0.00  0.00    -0.016 A 
ATOM      7  C6  BZF d   1      -0.105   2.716   1.512  0.00  0.00     0.022 A 
ATOM      8  C7  BZF d   1      -0.616   2.466   0.282  0.00  0.00     0.029 A 
ATOM      9  C7A BZF d   1       0.236   1.932  -0.653  0.00  0.00     0.058 A 
ENDROOT
TORSDOF 0
ENDMDL
