MODEL 1
REMARK minimizedAffinity 2.96258521
REMARK minimizedRMSD -1
REMARK  0 active torsions:
REMARK  status: ('A' for Active; 'I' for Inactive)
ROOT
ATOM      1  O1  BZF d   1       3.268  -1.953  -1.290  0.00  0.00    -0.204 OA
ATOM      2  C2  BZF d   1       2.028  -2.509  -1.536  0.00  0.00     0.174 A 
ATOM      3  C3  BZF d   1       1.134  -1.556  -1.870  0.00  0.00    -0.012 A 
ATOM      4  C3A BZF d   1       1.883  -0.338  -1.920  0.00  0.00    -0.107 A 
ATOM      5  C4  BZF d   1       1.555   0.955  -2.213  0.00  0.00     0.055 A 
ATOM      6  C5  BZF d   1       2.506   1.919  -2.099  0.00  0.00    -0.016 A 
ATOM      7  C6  BZF d   1       3.791   1.627  -1.692  0.00  0.00     0.022 A 
ATOM      8  C7  BZF d   1       4.165   0.359  -1.396  0.00  0.00     0.029 A 
ATOM      9  C7A BZF d   1       3.216  -0.623  -1.541  0.00  0.00     0.058 A 
ENDROOT
TORSDOF 0
ENDMDL
