MODEL 1
REMARK minimizedAffinity -2.75053167
REMARK minimizedRMSD -1
REMARK  0 active torsions:
REMARK  status: ('A' for Active; 'I' for Inactive)
ROOT
ATOM      1  C   UNL d   1      -1.637  -4.842  -5.824  0.00  0.00     0.078 C 
ATOM      2  C1  UNL d   1      -3.136  -4.813  -5.824  0.00  0.00    -0.077 A 
ATOM      3  C2  UNL d   1      -3.834  -3.612  -5.998  0.00  0.00    -0.001 A 
ATOM      4  C3  UNL d   1      -5.230  -3.598  -5.986  0.00  0.00     0.003 A 
ATOM      5  C4  UNL d   1      -5.939  -4.782  -5.798  0.00  0.00    -0.005 A 
ATOM      6  C5  UNL d   1      -5.254  -5.982  -5.622  0.00  0.00     0.003 A 
ATOM      7  C6  UNL d   1      -3.858  -5.998  -5.634  0.00  0.00    -0.001 A 
ENDROOT
TORSDOF 0
ENDMDL
