MODEL 1
REMARK minimizedAffinity -3.03903198
REMARK minimizedRMSD -1
REMARK  0 active torsions:
REMARK  status: ('A' for Active; 'I' for Inactive)
ROOT
ATOM      1  C   UNL d   1      -5.242  -1.211  -4.147  0.00  0.00     0.078 C 
ATOM      2  C1  UNL d   1      -4.266  -2.312  -4.438  0.00  0.00    -0.077 A 
ATOM      3  C2  UNL d   1      -4.090  -3.375  -3.544  0.00  0.00    -0.001 A 
ATOM      4  C3  UNL d   1      -3.171  -4.387  -3.823  0.00  0.00     0.003 A 
ATOM      5  C4  UNL d   1      -2.420  -4.347  -4.996  0.00  0.00    -0.005 A 
ATOM      6  C5  UNL d   1      -2.586  -3.292  -5.891  0.00  0.00     0.003 A 
ATOM      7  C6  UNL d   1      -3.505  -2.278  -5.614  0.00  0.00    -0.001 A 
ENDROOT
TORSDOF 0
ENDMDL
