MODEL 1
REMARK minimizedAffinity -3.99791265
REMARK minimizedRMSD -1
REMARK  0 active torsions:
REMARK  status: ('A' for Active; 'I' for Inactive)
ROOT
ATOM      1  C   UNL d   1      -2.290  -4.860  -5.967  0.00  0.00     0.078 C 
ATOM      2  C1  UNL d   1      -3.581  -4.332  -5.419  0.00  0.00    -0.077 A 
ATOM      3  C2  UNL d   1      -4.483  -5.176  -4.758  0.00  0.00    -0.001 A 
ATOM      4  C3  UNL d   1      -5.686  -4.673  -4.261  0.00  0.00     0.003 A 
ATOM      5  C4  UNL d   1      -6.000  -3.324  -4.421  0.00  0.00    -0.005 A 
ATOM      6  C5  UNL d   1      -5.110  -2.478  -5.078  0.00  0.00     0.003 A 
ATOM      7  C6  UNL d   1      -3.906  -2.979  -5.576  0.00  0.00    -0.001 A 
ENDROOT
TORSDOF 0
ENDMDL
