MODEL 1
REMARK minimizedAffinity -3.39491129
REMARK minimizedRMSD -1
REMARK  0 active torsions:
REMARK  status: ('A' for Active; 'I' for Inactive)
ROOT
ATOM      1  C   UNL d   1      -5.603  -2.566  -5.110  0.00  0.00     0.078 C 
ATOM      2  C1  UNL d   1      -4.477  -3.557  -5.095  0.00  0.00    -0.077 A 
ATOM      3  C2  UNL d   1      -3.404  -3.443  -5.988  0.00  0.00    -0.001 A 
ATOM      4  C3  UNL d   1      -2.368  -4.378  -5.970  0.00  0.00     0.003 A 
ATOM      5  C4  UNL d   1      -2.395  -5.434  -5.062  0.00  0.00    -0.005 A 
ATOM      6  C5  UNL d   1      -3.460  -5.558  -4.171  0.00  0.00     0.003 A 
ATOM      7  C6  UNL d   1      -4.497  -4.623  -4.188  0.00  0.00    -0.001 A 
ENDROOT
TORSDOF 0
ENDMDL
