MODEL 1
REMARK minimizedAffinity -3.22993135
REMARK minimizedRMSD -1
REMARK  0 active torsions:
REMARK  status: ('A' for Active; 'I' for Inactive)
ROOT
ATOM      1  C   UNL d   1      -1.631  -4.877  -5.240  0.00  0.00     0.078 C 
ATOM      2  C1  UNL d   1      -3.128  -4.883  -5.149  0.00  0.00    -0.077 A 
ATOM      3  C2  UNL d   1      -3.797  -4.085  -4.213  0.00  0.00    -0.001 A 
ATOM      4  C3  UNL d   1      -5.190  -4.108  -4.134  0.00  0.00     0.003 A 
ATOM      5  C4  UNL d   1      -5.926  -4.929  -4.986  0.00  0.00    -0.005 A 
ATOM      6  C5  UNL d   1      -5.269  -5.728  -5.919  0.00  0.00     0.003 A 
ATOM      7  C6  UNL d   1      -3.876  -5.706  -6.000  0.00  0.00    -0.001 A 
ENDROOT
TORSDOF 0
ENDMDL
