MODEL 1
REMARK minimizedAffinity -1.05231738
REMARK minimizedRMSD -1
REMARK  0 active torsions:
REMARK  status: ('A' for Active; 'I' for Inactive)
ROOT
ATOM      1  C   UNL d   1      -4.911  -3.898  -5.946  0.00  0.00     0.078 C 
ATOM      2  C1  UNL d   1      -3.744  -4.622  -5.344  0.00  0.00    -0.077 A 
ATOM      3  C2  UNL d   1      -2.507  -4.667  -6.000  0.00  0.00    -0.001 A 
ATOM      4  C3  UNL d   1      -1.432  -5.353  -5.433  0.00  0.00     0.003 A 
ATOM      5  C4  UNL d   1      -1.583  -6.000  -4.207  0.00  0.00    -0.005 A 
ATOM      6  C5  UNL d   1      -2.810  -5.962  -3.549  0.00  0.00     0.003 A 
ATOM      7  C6  UNL d   1      -3.886  -5.277  -4.114  0.00  0.00    -0.001 A 
ENDROOT
TORSDOF 0
ENDMDL
