MODEL 1
REMARK minimizedAffinity -1.62940204
REMARK minimizedRMSD -1
REMARK  0 active torsions:
REMARK  status: ('A' for Active; 'I' for Inactive)
ROOT
ATOM      1  C   UNL d   1      -1.704  -4.996  -5.625  0.00  0.00     0.078 C 
ATOM      2  C1  UNL d   1      -3.201  -4.895  -5.624  0.00  0.00    -0.077 A 
ATOM      3  C2  UNL d   1      -3.844  -3.713  -5.238  0.00  0.00    -0.001 A 
ATOM      4  C3  UNL d   1      -5.237  -3.637  -5.232  0.00  0.00     0.003 A 
ATOM      5  C4  UNL d   1      -6.000  -4.741  -5.609  0.00  0.00    -0.005 A 
ATOM      6  C5  UNL d   1      -5.369  -5.922  -5.993  0.00  0.00     0.003 A 
ATOM      7  C6  UNL d   1      -3.975  -6.000  -6.000  0.00  0.00    -0.001 A 
ENDROOT
TORSDOF 0
ENDMDL
