MODEL 1
REMARK minimizedAffinity -2.79081917
REMARK minimizedRMSD -1
REMARK  0 active torsions:
REMARK  status: ('A' for Active; 'I' for Inactive)
ROOT
ATOM      1  C   UNL d   1      -1.526  -5.113  -5.958  0.00  0.00     0.078 C 
ATOM      2  C1  UNL d   1      -2.999  -4.832  -5.965  0.00  0.00    -0.077 A 
ATOM      3  C2  UNL d   1      -3.932  -5.876  -5.974  0.00  0.00    -0.001 A 
ATOM      4  C3  UNL d   1      -5.300  -5.600  -5.990  0.00  0.00     0.003 A 
ATOM      5  C4  UNL d   1      -5.748  -4.281  -5.997  0.00  0.00    -0.005 A 
ATOM      6  C5  UNL d   1      -4.827  -3.235  -5.990  0.00  0.00     0.003 A 
ATOM      7  C6  UNL d   1      -3.458  -3.509  -5.974  0.00  0.00    -0.001 A 
ENDROOT
TORSDOF 0
ENDMDL
