MODEL 1
REMARK minimizedAffinity -1.84240544
REMARK minimizedRMSD -1
REMARK  0 active torsions:
REMARK  status: ('A' for Active; 'I' for Inactive)
ROOT
ATOM      1  C   UNL d   1      -5.964  -2.542  -4.433  0.00  0.00     0.078 C 
ATOM      2  C1  UNL d   1      -5.246  -3.746  -4.966  0.00  0.00    -0.077 A 
ATOM      3  C2  UNL d   1      -3.848  -3.812  -4.961  0.00  0.00    -0.001 A 
ATOM      4  C3  UNL d   1      -3.192  -4.935  -5.469  0.00  0.00     0.003 A 
ATOM      5  C4  UNL d   1      -3.928  -5.999  -5.987  0.00  0.00    -0.005 A 
ATOM      6  C5  UNL d   1      -5.320  -5.941  -5.998  0.00  0.00     0.003 A 
ATOM      7  C6  UNL d   1      -5.977  -4.819  -5.491  0.00  0.00    -0.001 A 
ENDROOT
TORSDOF 0
ENDMDL
