MODEL 1
REMARK minimizedAffinity -3.95726657
REMARK minimizedRMSD -1
REMARK  0 active torsions:
REMARK  status: ('A' for Active; 'I' for Inactive)
ROOT
ATOM      1  C   UNL d   1      -1.879  -5.192  -4.652  0.00  0.00     0.078 C 
ATOM      2  C1  UNL d   1      -3.205  -4.501  -4.775  0.00  0.00    -0.077 A 
ATOM      3  C2  UNL d   1      -3.514  -3.729  -5.902  0.00  0.00    -0.001 A 
ATOM      4  C3  UNL d   1      -4.747  -3.084  -6.000  0.00  0.00     0.003 A 
ATOM      5  C4  UNL d   1      -5.682  -3.203  -4.973  0.00  0.00    -0.005 A 
ATOM      6  C5  UNL d   1      -5.383  -3.967  -3.847  0.00  0.00     0.003 A 
ATOM      7  C6  UNL d   1      -4.149  -4.613  -3.748  0.00  0.00    -0.001 A 
ENDROOT
TORSDOF 0
ENDMDL
