MODEL 1
REMARK minimizedAffinity -3.33124781
REMARK minimizedRMSD -1
REMARK  0 active torsions:
REMARK  status: ('A' for Active; 'I' for Inactive)
ROOT
ATOM      1  C   UNL d   1      -5.998  -2.588  -4.525  0.00  0.00     0.078 C 
ATOM      2  C1  UNL d   1      -5.071  -3.722  -4.846  0.00  0.00    -0.077 A 
ATOM      3  C2  UNL d   1      -5.539  -4.877  -5.485  0.00  0.00    -0.001 A 
ATOM      4  C3  UNL d   1      -4.666  -5.929  -5.768  0.00  0.00     0.003 A 
ATOM      5  C4  UNL d   1      -3.321  -5.837  -5.416  0.00  0.00    -0.005 A 
ATOM      6  C5  UNL d   1      -2.848  -4.692  -4.778  0.00  0.00     0.003 A 
ATOM      7  C6  UNL d   1      -3.718  -3.639  -4.493  0.00  0.00    -0.001 A 
ENDROOT
TORSDOF 0
ENDMDL
