MODEL 1
REMARK minimizedAffinity -3.6795094
REMARK minimizedRMSD -1
REMARK  0 active torsions:
REMARK  status: ('A' for Active; 'I' for Inactive)
ROOT
ATOM      1  C   UNL d   1      -5.836  -2.389  -3.841  0.00  0.00     0.078 C 
ATOM      2  C1  UNL d   1      -4.871  -3.414  -4.357  0.00  0.00    -0.077 A 
ATOM      3  C2  UNL d   1      -3.510  -3.116  -4.498  0.00  0.00    -0.001 A 
ATOM      4  C3  UNL d   1      -2.624  -4.077  -4.989  0.00  0.00     0.003 A 
ATOM      5  C4  UNL d   1      -3.090  -5.341  -5.345  0.00  0.00    -0.005 A 
ATOM      6  C5  UNL d   1      -4.443  -5.646  -5.210  0.00  0.00     0.003 A 
ATOM      7  C6  UNL d   1      -5.330  -4.687  -4.719  0.00  0.00    -0.001 A 
ENDROOT
TORSDOF 0
ENDMDL
