MODEL 1
REMARK minimizedAffinity -2.90158963
REMARK minimizedRMSD -1
REMARK  0 active torsions:
REMARK  status: ('A' for Active; 'I' for Inactive)
ROOT
ATOM      1  C   UNL d   1      -1.967  -5.244  -5.216  0.00  0.00     0.078 C 
ATOM      2  C1  UNL d   1      -3.367  -4.709  -5.167  0.00  0.00    -0.077 A 
ATOM      3  C2  UNL d   1      -3.679  -3.571  -4.413  0.00  0.00    -0.001 A 
ATOM      4  C3  UNL d   1      -4.988  -3.090  -4.369  0.00  0.00     0.003 A 
ATOM      5  C4  UNL d   1      -5.997  -3.742  -5.076  0.00  0.00    -0.005 A 
ATOM      6  C5  UNL d   1      -5.697  -4.876  -5.828  0.00  0.00     0.003 A 
ATOM      7  C6  UNL d   1      -4.388  -5.358  -5.873  0.00  0.00    -0.001 A 
ENDROOT
TORSDOF 0
ENDMDL
