MODEL 1
REMARK minimizedAffinity -2.85644078
REMARK minimizedRMSD -1
REMARK  0 active torsions:
REMARK  status: ('A' for Active; 'I' for Inactive)
ROOT
ATOM      1  C   UNL d   1      -1.873  -5.635  -4.951  0.00  0.00     0.078 C 
ATOM      2  C1  UNL d   1      -3.314  -5.243  -5.085  0.00  0.00    -0.077 A 
ATOM      3  C2  UNL d   1      -4.195  -5.993  -5.875  0.00  0.00    -0.001 A 
ATOM      4  C3  UNL d   1      -5.531  -5.611  -5.999  0.00  0.00     0.003 A 
ATOM      5  C4  UNL d   1      -6.000  -4.478  -5.337  0.00  0.00    -0.005 A 
ATOM      6  C5  UNL d   1      -5.130  -3.724  -4.551  0.00  0.00     0.003 A 
ATOM      7  C6  UNL d   1      -3.793  -4.104  -4.426  0.00  0.00    -0.001 A 
ENDROOT
TORSDOF 0
ENDMDL
