MODEL 1
REMARK minimizedAffinity -3.45428324
REMARK minimizedRMSD -1
REMARK  0 active torsions:
REMARK  status: ('A' for Active; 'I' for Inactive)
ROOT
ATOM      1  C   UNL d   1      -6.000  -2.679  -4.125  0.00  0.00     0.078 C 
ATOM      2  C1  UNL d   1      -5.162  -3.823  -4.614  0.00  0.00    -0.077 A 
ATOM      3  C2  UNL d   1      -3.842  -3.989  -4.176  0.00  0.00    -0.001 A 
ATOM      4  C3  UNL d   1      -3.071  -5.053  -4.646  0.00  0.00     0.003 A 
ATOM      5  C4  UNL d   1      -3.610  -5.959  -5.557  0.00  0.00    -0.005 A 
ATOM      6  C5  UNL d   1      -4.922  -5.801  -6.000  0.00  0.00     0.003 A 
ATOM      7  C6  UNL d   1      -5.695  -4.738  -5.531  0.00  0.00    -0.001 A 
ENDROOT
TORSDOF 0
ENDMDL
