MODEL 1
REMARK minimizedAffinity -4.132617
REMARK minimizedRMSD -1
REMARK  0 active torsions:
REMARK  status: ('A' for Active; 'I' for Inactive)
ROOT
ATOM      1  C   UNL d   1      -5.960  -1.714  -4.860  0.00  0.00     0.078 C 
ATOM      2  C1  UNL d   1      -4.911  -2.786  -4.873  0.00  0.00    -0.077 A 
ATOM      3  C2  UNL d   1      -4.105  -2.994  -5.999  0.00  0.00    -0.001 A 
ATOM      4  C3  UNL d   1      -3.140  -4.002  -6.000  0.00  0.00     0.003 A 
ATOM      5  C4  UNL d   1      -2.973  -4.812  -4.878  0.00  0.00    -0.005 A 
ATOM      6  C5  UNL d   1      -3.772  -4.614  -3.754  0.00  0.00     0.003 A 
ATOM      7  C6  UNL d   1      -4.738  -3.606  -3.751  0.00  0.00    -0.001 A 
ENDROOT
TORSDOF 0
ENDMDL
