MODEL 1
REMARK minimizedAffinity -2.8216424
REMARK minimizedRMSD -1
REMARK  0 active torsions:
REMARK  status: ('A' for Active; 'I' for Inactive)
ROOT
ATOM      1  C   UNL d   1      -5.991  -0.016  -1.785  0.00  0.00     0.078 C 
ATOM      2  C1  UNL d   1      -6.000  -0.847  -3.034  0.00  0.00    -0.077 A 
ATOM      3  C2  UNL d   1      -6.000  -2.246  -2.969  0.00  0.00    -0.001 A 
ATOM      4  C3  UNL d   1      -5.998  -3.006  -4.140  0.00  0.00     0.003 A 
ATOM      5  C4  UNL d   1      -5.995  -2.377  -5.383  0.00  0.00    -0.005 A 
ATOM      6  C5  UNL d   1      -5.993  -0.985  -5.457  0.00  0.00     0.003 A 
ATOM      7  C6  UNL d   1      -5.995  -0.223  -4.288  0.00  0.00    -0.001 A 
ENDROOT
TORSDOF 0
ENDMDL
