MODEL 1
REMARK minimizedAffinity 5.90046358
REMARK minimizedRMSD -1
REMARK  0 active torsions:
REMARK  status: ('A' for Active; 'I' for Inactive)
ROOT
ATOM      1  N1  IND d   1       3.113   1.298  -0.239  0.00  0.00    -0.196 N 
ATOM      2  C2  IND d   1       4.247   1.181  -0.994  0.00  0.00     0.054 A 
ATOM      3  C3  IND d   1       4.451  -0.109  -1.341  0.00  0.00    -0.031 A 
ATOM      4  C4  IND d   1       2.996  -2.180  -0.865  0.00  0.00     0.051 A 
ATOM      5  C5  IND d   1       1.882  -2.580  -0.182  0.00  0.00    -0.031 A 
ATOM      6  C6  IND d   1       1.104  -1.689   0.529  0.00  0.00     0.015 A 
ATOM      7  C7  IND d   1       1.406  -0.358   0.574  0.00  0.00    -0.016 A 
ATOM      8  C8  IND d   1       2.541   0.051  -0.112  0.00  0.00    -0.047 A 
ATOM      9  C9  IND d   1       3.358  -0.855  -0.801  0.00  0.00    -0.096 A 
ATOM     10  HN1 IND d   1       2.809   2.027   0.100  0.00  0.00     0.298 HD
ENDROOT
TORSDOF 0
ENDMDL
