MODEL 1
REMARK minimizedAffinity 4.68861103
REMARK minimizedRMSD -1
REMARK  0 active torsions:
REMARK  status: ('A' for Active; 'I' for Inactive)
ROOT
ATOM      1  N1  IND d   1       2.756   0.412   0.382  0.00  0.00    -0.196 N 
ATOM      2  C2  IND d   1       3.794   1.107  -0.173  0.00  0.00     0.054 A 
ATOM      3  C3  IND d   1       4.459   0.332  -1.059  0.00  0.00    -0.031 A 
ATOM      4  C4  IND d   1       3.955  -2.073  -1.827  0.00  0.00     0.051 A 
ATOM      5  C5  IND d   1       3.130  -3.134  -1.577  0.00  0.00    -0.031 A 
ATOM      6  C6  IND d   1       2.116  -3.064  -0.643  0.00  0.00     0.015 A 
ATOM      7  C7  IND d   1       1.881  -1.922   0.069  0.00  0.00    -0.016 A 
ATOM      8  C8  IND d   1       2.721  -0.846  -0.178  0.00  0.00    -0.047 A 
ATOM      9  C9  IND d   1       3.779  -0.924  -1.093  0.00  0.00    -0.096 A 
ATOM     10  HN1 IND d   1       2.216   0.711   0.981  0.00  0.00     0.298 HD
ENDROOT
TORSDOF 0
ENDMDL
