MODEL 1
REMARK minimizedAffinity 11.4710512
REMARK minimizedRMSD -1
REMARK  0 active torsions:
REMARK  status: ('A' for Active; 'I' for Inactive)
ROOT
ATOM      1  N1  IND d   1      -4.741   3.368  -2.151  0.00  0.00    -0.196 N 
ATOM      2  C2  IND d   1      -5.832   2.919  -1.461  0.00  0.00     0.054 A 
ATOM      3  C3  IND d   1      -5.751   1.583  -1.272  0.00  0.00    -0.031 A 
ATOM      4  C4  IND d   1      -3.870  -0.051  -1.919  0.00  0.00     0.051 A 
ATOM      5  C5  IND d   1      -2.685  -0.115  -2.597  0.00  0.00    -0.031 A 
ATOM      6  C6  IND d   1      -2.111   1.002  -3.170  0.00  0.00     0.015 A 
ATOM      7  C7  IND d   1      -2.699   2.232  -3.077  0.00  0.00    -0.016 A 
ATOM      8  C8  IND d   1      -3.906   2.299  -2.395  0.00  0.00    -0.047 A 
ATOM      9  C9  IND d   1      -4.514   1.162  -1.848  0.00  0.00    -0.096 A 
ATOM     10  HN1 IND d   1      -4.599   4.181  -2.393  0.00  0.00     0.298 HD
ENDROOT
TORSDOF 0
ENDMDL
