MODEL 1
REMARK minimizedAffinity 2.54779005
REMARK minimizedRMSD -1
REMARK  0 active torsions:
REMARK  status: ('A' for Active; 'I' for Inactive)
ROOT
ATOM      1  N1  IND d   1      -0.653   0.773   3.651  0.00  0.00    -0.196 N 
ATOM      2  C2  IND d   1       0.659   0.422   3.806  0.00  0.00     0.054 A 
ATOM      3  C3  IND d   1       1.303   0.473   2.619  0.00  0.00    -0.031 A 
ATOM      4  C4  IND d   1       0.424   1.205   0.312  0.00  0.00     0.051 A 
ATOM      5  C5  IND d   1      -0.720   1.579  -0.336  0.00  0.00    -0.031 A 
ATOM      6  C6  IND d   1      -1.924   1.709   0.326  0.00  0.00     0.015 A 
ATOM      7  C7  IND d   1      -2.026   1.479   1.669  0.00  0.00    -0.016 A 
ATOM      8  C8  IND d   1      -0.869   1.093   2.329  0.00  0.00    -0.047 A 
ATOM      9  C9  IND d   1       0.347   0.918   1.654  0.00  0.00    -0.096 A 
ATOM     10  HN1 IND d   1      -1.245   0.791   4.275  0.00  0.00     0.298 HD
ENDROOT
TORSDOF 0
ENDMDL
