MODEL 1
REMARK minimizedAffinity 2.43599892
REMARK minimizedRMSD -1
REMARK  0 active torsions:
REMARK  status: ('A' for Active; 'I' for Inactive)
ROOT
ATOM      1  N1  IND d   1       0.859   1.152   2.422  0.00  0.00    -0.196 N 
ATOM      2  C2  IND d   1       0.474   0.244   3.369  0.00  0.00     0.054 A 
ATOM      3  C3  IND d   1       1.071  -0.948   3.147  0.00  0.00    -0.031 A 
ATOM      4  C4  IND d   1       2.794  -1.606   1.351  0.00  0.00     0.051 A 
ATOM      5  C5  IND d   1       3.428  -1.126   0.240  0.00  0.00    -0.031 A 
ATOM      6  C6  IND d   1       3.237   0.165  -0.208  0.00  0.00     0.015 A 
ATOM      7  C7  IND d   1       2.409   1.031   0.448  0.00  0.00    -0.016 A 
ATOM      8  C8  IND d   1       1.758   0.545   1.572  0.00  0.00    -0.047 A 
ATOM      9  C9  IND d   1       1.915  -0.777   2.008  0.00  0.00    -0.096 A 
ATOM     10  HN1 IND d   1       0.586   1.965   2.366  0.00  0.00     0.298 HD
ENDROOT
TORSDOF 0
ENDMDL
