MODEL 1
REMARK minimizedAffinity 4.77546597
REMARK minimizedRMSD -1
REMARK  0 active torsions:
REMARK  status: ('A' for Active; 'I' for Inactive)
ROOT
ATOM      1  N1  IND d   1      -0.372  -5.732  -0.526  0.00  0.00    -0.196 N 
ATOM      2  C2  IND d   1      -1.569  -5.998  -1.131  0.00  0.00     0.054 A 
ATOM      3  C3  IND d   1      -1.952  -4.953  -1.897  0.00  0.00    -0.031 A 
ATOM      4  C4  IND d   1      -0.721  -2.745  -2.386  0.00  0.00     0.051 A 
ATOM      5  C5  IND d   1       0.389  -2.030  -2.034  0.00  0.00    -0.031 A 
ATOM      6  C6  IND d   1       1.323  -2.524  -1.145  0.00  0.00     0.015 A 
ATOM      7  C7  IND d   1       1.186  -3.761  -0.582  0.00  0.00    -0.016 A 
ATOM      8  C8  IND d   1       0.056  -4.487  -0.932  0.00  0.00    -0.047 A 
ATOM      9  C9  IND d   1      -0.916  -3.974  -1.800  0.00  0.00    -0.096 A 
ATOM     10  HN1 IND d   1       0.043  -6.254   0.016  0.00  0.00     0.298 HD
ENDROOT
TORSDOF 0
ENDMDL
