MODEL 1
REMARK minimizedAffinity 5.4318924
REMARK minimizedRMSD -1
REMARK  0 active torsions:
REMARK  status: ('A' for Active; 'I' for Inactive)
ROOT
ATOM      1  N1  IND d   1       1.867  -3.110  -0.760  0.00  0.00    -0.196 N 
ATOM      2  C2  IND d   1       1.148  -2.744   0.344  0.00  0.00     0.054 A 
ATOM      3  C3  IND d   1       1.583  -1.554   0.815  0.00  0.00    -0.031 A 
ATOM      4  C4  IND d   1       3.392   0.017  -0.128  0.00  0.00     0.051 A 
ATOM      5  C5  IND d   1       4.347   0.097  -1.101  0.00  0.00    -0.031 A 
ATOM      6  C6  IND d   1       4.527  -0.906  -2.031  0.00  0.00     0.015 A 
ATOM      7  C7  IND d   1       3.746  -2.027  -2.029  0.00  0.00    -0.016 A 
ATOM      8  C8  IND d   1       2.780  -2.116  -1.038  0.00  0.00    -0.047 A 
ATOM      9  C9  IND d   1       2.621  -1.120  -0.066  0.00  0.00    -0.096 A 
ATOM     10  HN1 IND d   1       1.766  -3.838  -1.206  0.00  0.00     0.298 HD
ENDROOT
TORSDOF 0
ENDMDL
