MODEL 1
REMARK minimizedAffinity 5.32289553
REMARK minimizedRMSD -1
REMARK  0 active torsions:
REMARK  status: ('A' for Active; 'I' for Inactive)
ROOT
ATOM      1  N1  IND d   1       1.433  -1.835   0.390  0.00  0.00    -0.196 N 
ATOM      2  C2  IND d   1       2.100  -2.959  -0.013  0.00  0.00     0.054 A 
ATOM      3  C3  IND d   1       3.291  -2.628  -0.561  0.00  0.00    -0.031 A 
ATOM      4  C4  IND d   1       4.391  -0.313  -0.806  0.00  0.00     0.051 A 
ATOM      5  C5  IND d   1       4.151   1.019  -0.618  0.00  0.00    -0.031 A 
ATOM      6  C6  IND d   1       2.970   1.477  -0.071  0.00  0.00     0.015 A 
ATOM      7  C7  IND d   1       1.985   0.615   0.320  0.00  0.00    -0.016 A 
ATOM      8  C8  IND d   1       2.222  -0.738   0.125  0.00  0.00    -0.047 A 
ATOM      9  C9  IND d   1       3.402  -1.206  -0.469  0.00  0.00    -0.096 A 
ATOM     10  HN1 IND d   1       0.651  -1.817   0.748  0.00  0.00     0.298 HD
ENDROOT
TORSDOF 0
ENDMDL
