MODEL 1
REMARK minimizedAffinity 8.32816887
REMARK minimizedRMSD -1
REMARK  0 active torsions:
REMARK  status: ('A' for Active; 'I' for Inactive)
ROOT
ATOM      1  N1  IND d   1       2.709  -2.723  -0.816  0.00  0.00    -0.196 N 
ATOM      2  C2  IND d   1       3.735  -2.479  -1.686  0.00  0.00     0.054 A 
ATOM      3  C3  IND d   1       4.189  -1.214  -1.535  0.00  0.00    -0.031 A 
ATOM      4  C4  IND d   1       3.464   0.594   0.147  0.00  0.00     0.051 A 
ATOM      5  C5  IND d   1       2.540   0.851   1.121  0.00  0.00    -0.031 A 
ATOM      6  C6  IND d   1       1.607  -0.090   1.508  0.00  0.00     0.015 A 
ATOM      7  C7  IND d   1       1.572  -1.332   0.941  0.00  0.00    -0.016 A 
ATOM      8  C8  IND d   1       2.505  -1.595  -0.052  0.00  0.00    -0.047 A 
ATOM      9  C9  IND d   1       3.426  -0.629  -0.479  0.00  0.00    -0.096 A 
ATOM     10  HN1 IND d   1       2.266  -3.457  -0.756  0.00  0.00     0.298 HD
ENDROOT
TORSDOF 0
ENDMDL
