MODEL 1
REMARK minimizedAffinity 11.2538795
REMARK minimizedRMSD -1
REMARK  0 active torsions:
REMARK  status: ('A' for Active; 'I' for Inactive)
ROOT
ATOM      1  C   UNL d   1       4.162  -0.808  -1.753  0.00  0.00     0.124 A 
ATOM      2  C1  UNL d   1       3.779  -2.137  -1.866  0.00  0.00     0.062 A 
ATOM      3  C2  UNL d   1       2.856  -2.678  -0.975  0.00  0.00     0.162 A 
ATOM      4  C3  UNL d   1       2.309  -1.889   0.037  0.00  0.00    -0.034 A 
ATOM      5  C4  UNL d   1       2.699  -0.553   0.144  0.00  0.00     0.162 A 
ATOM      6  C5  UNL d   1       3.621  -0.017  -0.748  0.00  0.00     0.062 A 
ATOM      7  F   UNL d   1       3.990   1.268  -0.638  0.00  0.00    -0.097 F 
ATOM      8  F1  UNL d   1       2.192   0.234   1.105  0.00  0.00    -0.096 F 
ATOM      9  I   UNL d   1       0.929  -2.694   1.371  0.00  0.00    -0.060 I 
ATOM     10  F2  UNL d   1       2.505  -3.966  -1.108  0.00  0.00    -0.096 F 
ATOM     11  F3  UNL d   1       4.300  -2.903  -2.835  0.00  0.00    -0.097 F 
ATOM     12  F4  UNL d   1       5.050  -0.290  -2.611  0.00  0.00    -0.092 F 
ENDROOT
TORSDOF 0
ENDMDL
