MODEL 1
REMARK minimizedAffinity 11.3813238
REMARK minimizedRMSD -1
REMARK  0 active torsions:
REMARK  status: ('A' for Active; 'I' for Inactive)
ROOT
ATOM      1  C   UNL d   1      -1.480   1.883  -0.511  0.00  0.00     0.124 A 
ATOM      2  C1  UNL d   1      -1.734   0.772  -1.303  0.00  0.00     0.062 A 
ATOM      3  C2  UNL d   1      -3.024   0.520  -1.762  0.00  0.00     0.162 A 
ATOM      4  C3  UNL d   1      -4.070   1.382  -1.431  0.00  0.00    -0.034 A 
ATOM      5  C4  UNL d   1      -3.806   2.497  -0.633  0.00  0.00     0.162 A 
ATOM      6  C5  UNL d   1      -2.515   2.744  -0.177  0.00  0.00     0.062 A 
ATOM      7  F   UNL d   1      -2.271   3.818   0.589  0.00  0.00    -0.097 F 
ATOM      8  F1  UNL d   1      -4.788   3.346  -0.296  0.00  0.00    -0.096 F 
ATOM      9  I   UNL d   1      -5.999   1.009  -2.115  0.00  0.00    -0.060 I 
ATOM     10  F2  UNL d   1      -3.241  -0.561  -2.526  0.00  0.00    -0.096 F 
ATOM     11  F3  UNL d   1      -0.736  -0.062  -1.626  0.00  0.00    -0.097 F 
ATOM     12  F4  UNL d   1      -0.238   2.122  -0.070  0.00  0.00    -0.092 F 
ENDROOT
TORSDOF 0
ENDMDL
