MODEL 1
REMARK minimizedAffinity 6.50475311
REMARK minimizedRMSD -1
REMARK  0 active torsions:
REMARK  status: ('A' for Active; 'I' for Inactive)
ROOT
ATOM      1  C   UNL d   1       2.826  -1.459  -0.378  0.00  0.00     0.124 A 
ATOM      2  C1  UNL d   1       2.642  -0.089  -0.508  0.00  0.00     0.062 A 
ATOM      3  C2  UNL d   1       1.855   0.602   0.408  0.00  0.00     0.162 A 
ATOM      4  C3  UNL d   1       1.245  -0.075   1.464  0.00  0.00    -0.034 A 
ATOM      5  C4  UNL d   1       1.434  -1.453   1.588  0.00  0.00     0.162 A 
ATOM      6  C5  UNL d   1       2.222  -2.139   0.670  0.00  0.00     0.062 A 
ATOM      7  F   UNL d   1       2.398  -3.462   0.798  0.00  0.00    -0.097 F 
ATOM      8  F1  UNL d   1       0.863  -2.135   2.592  0.00  0.00    -0.096 F 
ATOM      9  I   UNL d   1       0.067   0.954   2.836  0.00  0.00    -0.060 I 
ATOM     10  F2  UNL d   1       1.694   1.925   0.257  0.00  0.00    -0.096 F 
ATOM     11  F3  UNL d   1       3.224   0.570  -1.521  0.00  0.00    -0.097 F 
ATOM     12  F4  UNL d   1       3.583  -2.121  -1.262  0.00  0.00    -0.092 F 
ENDROOT
TORSDOF 0
ENDMDL
