MODEL 1
REMARK minimizedAffinity 16.7397118
REMARK minimizedRMSD -1
REMARK  0 active torsions:
REMARK  status: ('A' for Active; 'I' for Inactive)
ROOT
ATOM      1  C   UNL d   1       0.399   1.196   2.265  0.00  0.00     0.124 A 
ATOM      2  C1  UNL d   1       0.307   1.283   0.883  0.00  0.00     0.062 A 
ATOM      3  C2  UNL d   1      -0.762   1.952   0.294  0.00  0.00     0.162 A 
ATOM      4  C3  UNL d   1      -1.747   2.540   1.087  0.00  0.00    -0.034 A 
ATOM      5  C4  UNL d   1      -1.648   2.448   2.476  0.00  0.00     0.162 A 
ATOM      6  C5  UNL d   1      -0.577   1.778   3.060  0.00  0.00     0.062 A 
ATOM      7  F   UNL d   1      -0.489   1.695   4.396  0.00  0.00    -0.097 F 
ATOM      8  F1  UNL d   1      -2.577   3.002   3.269  0.00  0.00    -0.096 F 
ATOM      9  I   UNL d   1      -3.347   3.542   0.210  0.00  0.00    -0.060 I 
ATOM     10  F2  UNL d   1      -0.827   2.020  -1.044  0.00  0.00    -0.096 F 
ATOM     11  F3  UNL d   1       1.249   0.720   0.112  0.00  0.00    -0.097 F 
ATOM     12  F4  UNL d   1       1.429   0.551   2.829  0.00  0.00    -0.092 F 
ENDROOT
TORSDOF 0
ENDMDL
