MODEL 1
REMARK minimizedAffinity 11.840085
REMARK minimizedRMSD -1
REMARK  0 active torsions:
REMARK  status: ('A' for Active; 'I' for Inactive)
ROOT
ATOM      1  C   UNL d   1      -1.853  -4.102  -1.876  0.00  0.00     0.124 A 
ATOM      2  C1  UNL d   1      -0.739  -4.710  -1.315  0.00  0.00     0.062 A 
ATOM      3  C2  UNL d   1       0.434  -3.985  -1.126  0.00  0.00     0.162 A 
ATOM      4  C3  UNL d   1       0.499  -2.642  -1.499  0.00  0.00    -0.034 A 
ATOM      5  C4  UNL d   1      -0.625  -2.037  -2.064  0.00  0.00     0.162 A 
ATOM      6  C5  UNL d   1      -1.795  -2.766  -2.250  0.00  0.00     0.062 A 
ATOM      7  F   UNL d   1      -2.870  -2.177  -2.793  0.00  0.00    -0.097 F 
ATOM      8  F1  UNL d   1      -0.597  -0.748  -2.433  0.00  0.00    -0.096 F 
ATOM      9  I   UNL d   1       2.251  -1.554  -1.219  0.00  0.00    -0.060 I 
ATOM     10  F2  UNL d   1       1.496  -4.598  -0.581  0.00  0.00    -0.096 F 
ATOM     11  F3  UNL d   1      -0.792  -6.000  -0.953  0.00  0.00    -0.097 F 
ATOM     12  F4  UNL d   1      -2.980  -4.802  -2.057  0.00  0.00    -0.092 F 
ENDROOT
TORSDOF 0
ENDMDL
