MODEL 1
REMARK minimizedAffinity 8.71000576
REMARK minimizedRMSD -1
REMARK  0 active torsions:
REMARK  status: ('A' for Active; 'I' for Inactive)
ROOT
ATOM      1  C   UNL d   1       3.365  -1.713  -1.022  0.00  0.00     0.124 A 
ATOM      2  C1  UNL d   1       2.541  -2.312  -0.080  0.00  0.00     0.062 A 
ATOM      3  C2  UNL d   1       1.845  -1.532   0.839  0.00  0.00     0.162 A 
ATOM      4  C3  UNL d   1       1.971  -0.143   0.821  0.00  0.00    -0.034 A 
ATOM      5  C4  UNL d   1       2.803   0.453  -0.129  0.00  0.00     0.162 A 
ATOM      6  C5  UNL d   1       3.496  -0.331  -1.045  0.00  0.00     0.062 A 
ATOM      7  F   UNL d   1       4.292   0.250  -1.955  0.00  0.00    -0.097 F 
ATOM      8  F1  UNL d   1       2.946   1.786  -0.175  0.00  0.00    -0.096 F 
ATOM      9  I   UNL d   1       0.933   1.027   2.194  0.00  0.00    -0.060 I 
ATOM     10  F2  UNL d   1       1.056  -2.138   1.738  0.00  0.00    -0.096 F 
ATOM     11  F3  UNL d   1       2.414  -3.647  -0.055  0.00  0.00    -0.097 F 
ATOM     12  F4  UNL d   1       4.034  -2.466  -1.905  0.00  0.00    -0.092 F 
ENDROOT
TORSDOF 0
ENDMDL
