MODEL 1
REMARK minimizedAffinity 16.1663685
REMARK minimizedRMSD -1
REMARK  0 active torsions:
REMARK  status: ('A' for Active; 'I' for Inactive)
ROOT
ATOM      1  C   UNL d   1       3.518  -2.039  -1.408  0.00  0.00     0.124 A 
ATOM      2  C1  UNL d   1       2.310  -2.535  -0.939  0.00  0.00     0.062 A 
ATOM      3  C2  UNL d   1       1.604  -1.846   0.043  0.00  0.00     0.162 A 
ATOM      4  C3  UNL d   1       2.104  -0.652   0.561  0.00  0.00    -0.034 A 
ATOM      5  C4  UNL d   1       3.320  -0.159   0.085  0.00  0.00     0.162 A 
ATOM      6  C5  UNL d   1       4.022  -0.852  -0.896  0.00  0.00     0.062 A 
ATOM      7  F   UNL d   1       5.189  -0.371  -1.348  0.00  0.00    -0.097 F 
ATOM      8  F1  UNL d   1       3.830   0.986   0.562  0.00  0.00    -0.096 F 
ATOM      9  I   UNL d   1       1.051   0.382   2.029  0.00  0.00    -0.060 I 
ATOM     10  F2  UNL d   1       0.439  -2.349   0.478  0.00  0.00    -0.096 F 
ATOM     11  F3  UNL d   1       1.821  -3.683  -1.432  0.00  0.00    -0.097 F 
ATOM     12  F4  UNL d   1       4.196  -2.705  -2.352  0.00  0.00    -0.092 F 
ENDROOT
TORSDOF 0
ENDMDL
