MODEL 1
REMARK minimizedAffinity -5.13098955
REMARK minimizedRMSD -1
REMARK  1 active torsions:
REMARK  status: ('A' for Active; 'I' for Inactive)
REMARK    1  A    between atoms: C3_4  and  O_7 
ROOT
ATOM      1  C   UNL d   1       0.465   0.481   0.018  0.00  0.00    -0.033 A 
ATOM      2  C1  UNL d   1       1.808   0.103  -0.039  0.00  0.00     0.039 A 
ATOM      3  C2  UNL d   1       2.170  -1.229   0.174  0.00  0.00    -0.080 A 
ATOM      4  C3  UNL d   1       1.180  -2.171   0.442  0.00  0.00     0.150 A 
ATOM      5  C4  UNL d   1      -0.160  -1.802   0.496  0.00  0.00    -0.007 A 
ATOM      6  C5  UNL d   1      -0.519  -0.471   0.284  0.00  0.00     0.039 A 
ENDROOT
BRANCH   4   7
ATOM      7  O   UNL d   1       1.485  -3.482   0.662  0.00  0.00    -0.526 OA
ATOM      8  H5  UNL d   1       2.451  -3.584   0.621  0.00  0.00     0.418 HD
ENDBRANCH   4   7
TORSDOF 1
ENDMDL
