MODEL 1
REMARK minimizedAffinity -4.66493654
REMARK minimizedRMSD -1
REMARK  1 active torsions:
REMARK  status: ('A' for Active; 'I' for Inactive)
REMARK    1  A    between atoms: C3_4  and  O_7 
ROOT
ATOM      1  C   UNL d   1       1.237  -0.557  -0.112  0.00  0.00    -0.033 A 
ATOM      2  C1  UNL d   1       0.580  -1.415   0.772  0.00  0.00     0.039 A 
ATOM      3  C2  UNL d   1      -0.473  -0.941   1.557  0.00  0.00    -0.080 A 
ATOM      4  C3  UNL d   1      -0.860   0.392   1.447  0.00  0.00     0.150 A 
ATOM      5  C4  UNL d   1      -0.213   1.252   0.565  0.00  0.00    -0.007 A 
ATOM      6  C5  UNL d   1       0.839   0.776  -0.217  0.00  0.00     0.039 A 
ENDROOT
BRANCH   4   7
ATOM      7  O   UNL d   1      -1.879   0.902   2.195  0.00  0.00    -0.526 OA
ATOM      8  H5  UNL d   1      -2.212   0.201   2.779  0.00  0.00     0.418 HD
ENDBRANCH   4   7
TORSDOF 1
ENDMDL
