MODEL 1
REMARK minimizedAffinity -4.29900932
REMARK minimizedRMSD -1
REMARK  1 active torsions:
REMARK  status: ('A' for Active; 'I' for Inactive)
REMARK    1  A    between atoms: C3_4  and  O_7 
ROOT
ATOM      1  C   UNL d   1       0.366   0.661   0.360  0.00  0.00    -0.033 A 
ATOM      2  C1  UNL d   1       1.703   0.287   0.514  0.00  0.00     0.039 A 
ATOM      3  C2  UNL d   1       2.041  -1.060   0.653  0.00  0.00    -0.080 A 
ATOM      4  C3  UNL d   1       1.035  -2.022   0.636  0.00  0.00     0.150 A 
ATOM      5  C4  UNL d   1      -0.298  -1.657   0.479  0.00  0.00    -0.007 A 
ATOM      6  C5  UNL d   1      -0.634  -0.311   0.341  0.00  0.00     0.039 A 
ENDROOT
BRANCH   4   7
ATOM      7  O   UNL d   1       1.315  -3.349   0.773  0.00  0.00    -0.526 OA
ATOM      8  H5  UNL d   1       2.273  -3.450   0.901  0.00  0.00     0.418 HD
ENDBRANCH   4   7
TORSDOF 1
ENDMDL
