MODEL 1
REMARK minimizedAffinity -3.50789404
REMARK minimizedRMSD -1
REMARK  1 active torsions:
REMARK  status: ('A' for Active; 'I' for Inactive)
REMARK    1  A    between atoms: C3_4  and  O_7 
ROOT
ATOM      1  C   UNL d   1      -0.019   0.643  -0.278  0.00  0.00    -0.033 A 
ATOM      2  C1  UNL d   1      -0.634  -0.339   0.501  0.00  0.00     0.039 A 
ATOM      3  C2  UNL d   1       0.020  -1.548   0.748  0.00  0.00    -0.080 A 
ATOM      4  C3  UNL d   1       1.287  -1.761   0.213  0.00  0.00     0.150 A 
ATOM      5  C4  UNL d   1       1.907  -0.785  -0.561  0.00  0.00    -0.007 A 
ATOM      6  C5  UNL d   1       1.252   0.420  -0.808  0.00  0.00     0.039 A 
ENDROOT
BRANCH   4   7
ATOM      7  O   UNL d   1       1.963  -2.926   0.424  0.00  0.00    -0.526 OA
ATOM      8  H5  UNL d   1       1.400  -3.517   0.951  0.00  0.00     0.418 HD
ENDBRANCH   4   7
TORSDOF 1
ENDMDL
