MODEL 1
REMARK minimizedAffinity -4.20330858
REMARK minimizedRMSD -1
REMARK  1 active torsions:
REMARK  status: ('A' for Active; 'I' for Inactive)
REMARK    1  A    between atoms: C3_4  and  O_7 
ROOT
ATOM      1  C   UNL d   1       0.075   0.917  -0.326  0.00  0.00    -0.033 A 
ATOM      2  C1  UNL d   1      -0.633  -0.025   0.422  0.00  0.00     0.039 A 
ATOM      3  C2  UNL d   1      -0.005  -1.199   0.843  0.00  0.00    -0.080 A 
ATOM      4  C3  UNL d   1       1.329  -1.418   0.510  0.00  0.00     0.150 A 
ATOM      5  C4  UNL d   1       2.041  -0.482  -0.232  0.00  0.00    -0.007 A 
ATOM      6  C5  UNL d   1       1.412   0.690  -0.652  0.00  0.00     0.039 A 
ENDROOT
BRANCH   4   7
ATOM      7  O   UNL d   1       1.982  -2.551   0.894  0.00  0.00    -0.526 OA
ATOM      8  H5  UNL d   1       1.357  -3.119   1.375  0.00  0.00     0.418 HD
ENDBRANCH   4   7
TORSDOF 1
ENDMDL
