MODEL 1
REMARK minimizedAffinity -4.36213255
REMARK minimizedRMSD -1
REMARK  1 active torsions:
REMARK  status: ('A' for Active; 'I' for Inactive)
REMARK    1  A    between atoms: C3_4  and  O_7 
ROOT
ATOM      1  C   UNL d   1       0.314   0.807  -0.143  0.00  0.00    -0.033 A 
ATOM      2  C1  UNL d   1      -0.600  -0.136   0.330  0.00  0.00     0.039 A 
ATOM      3  C2  UNL d   1      -0.174  -1.429   0.639  0.00  0.00    -0.080 A 
ATOM      4  C3  UNL d   1       1.167  -1.765   0.472  0.00  0.00     0.150 A 
ATOM      5  C4  UNL d   1       2.084  -0.829   0.005  0.00  0.00    -0.007 A 
ATOM      6  C5  UNL d   1       1.656   0.461  -0.304  0.00  0.00     0.039 A 
ENDROOT
BRANCH   4   7
ATOM      7  O   UNL d   1       1.629  -3.016   0.757  0.00  0.00    -0.526 OA
ATOM      8  H5  UNL d   1       0.878  -3.564   1.042  0.00  0.00     0.418 HD
ENDBRANCH   4   7
TORSDOF 1
ENDMDL
