MODEL 1
REMARK minimizedAffinity -4.52003241
REMARK minimizedRMSD -1
REMARK  1 active torsions:
REMARK  status: ('A' for Active; 'I' for Inactive)
REMARK    1  A    between atoms: C3_4  and  O_7 
ROOT
ATOM      1  C   UNL d   1      -0.335   0.590  -0.126  0.00  0.00    -0.033 A 
ATOM      2  C1  UNL d   1      -0.985  -0.376   0.644  0.00  0.00     0.039 A 
ATOM      3  C2  UNL d   1      -0.313  -1.541   1.019  0.00  0.00    -0.080 A 
ATOM      4  C3  UNL d   1       1.007  -1.728   0.618  0.00  0.00     0.150 A 
ATOM      5  C4  UNL d   1       1.662  -0.768  -0.147  0.00  0.00    -0.007 A 
ATOM      6  C5  UNL d   1       0.989   0.395  -0.520  0.00  0.00     0.039 A 
ENDROOT
BRANCH   4   7
ATOM      7  O   UNL d   1       1.702  -2.851   0.954  0.00  0.00    -0.526 OA
ATOM      8  H5  UNL d   1       1.114  -3.437   1.458  0.00  0.00     0.418 HD
ENDBRANCH   4   7
TORSDOF 1
ENDMDL
