MODEL 1
REMARK minimizedAffinity -4.3635335
REMARK minimizedRMSD -1
REMARK  1 active torsions:
REMARK  status: ('A' for Active; 'I' for Inactive)
REMARK    1  A    between atoms: C3_4  and  O_7 
ROOT
ATOM      1  C   UNL d   1      -0.079   0.677  -0.108  0.00  0.00    -0.033 A 
ATOM      2  C1  UNL d   1      -0.722  -0.323   0.623  0.00  0.00     0.039 A 
ATOM      3  C2  UNL d   1      -0.096  -1.554   0.827  0.00  0.00    -0.080 A 
ATOM      4  C3  UNL d   1       1.172  -1.772   0.295  0.00  0.00     0.150 A 
ATOM      5  C4  UNL d   1       1.821  -0.779  -0.431  0.00  0.00    -0.007 A 
ATOM      6  C5  UNL d   1       1.193   0.450  -0.634  0.00  0.00     0.039 A 
ENDROOT
BRANCH   4   7
ATOM      7  O   UNL d   1       1.821  -2.959   0.463  0.00  0.00    -0.526 OA
ATOM      8  H5  UNL d   1       1.241  -3.559   0.960  0.00  0.00     0.418 HD
ENDBRANCH   4   7
TORSDOF 1
ENDMDL
