MODEL 1
REMARK minimizedAffinity -4.73954725
REMARK minimizedRMSD -1
REMARK  1 active torsions:
REMARK  status: ('A' for Active; 'I' for Inactive)
REMARK    1  A    between atoms: C3_4  and  O_7 
ROOT
ATOM      1  C   UNL d   1       0.319   0.415   0.073  0.00  0.00    -0.033 A 
ATOM      2  C1  UNL d   1      -0.458  -0.618   0.602  0.00  0.00     0.039 A 
ATOM      3  C2  UNL d   1       0.016  -1.931   0.582  0.00  0.00    -0.080 A 
ATOM      4  C3  UNL d   1       1.267  -2.198   0.032  0.00  0.00     0.150 A 
ATOM      5  C4  UNL d   1       2.048  -1.173  -0.493  0.00  0.00    -0.007 A 
ATOM      6  C5  UNL d   1       1.573   0.137  -0.473  0.00  0.00     0.039 A 
ENDROOT
BRANCH   4   7
ATOM      7  O   UNL d   1       1.770  -3.464  -0.014  0.00  0.00    -0.526 OA
ATOM      8  H5  UNL d   1       1.109  -4.071   0.359  0.00  0.00     0.418 HD
ENDBRANCH   4   7
TORSDOF 1
ENDMDL
