MODEL 1
REMARK minimizedAffinity -0.675165415
REMARK minimizedRMSD -1
REMARK  1 active torsions:
REMARK  status: ('A' for Active; 'I' for Inactive)
REMARK    1  A    between atoms: C3_4  and  O_7 
ROOT
ATOM      1  C   UNL d   1      -0.745   0.887   0.182  0.00  0.00    -0.033 A 
ATOM      2  C1  UNL d   1      -1.070   0.073   1.269  0.00  0.00     0.039 A 
ATOM      3  C2  UNL d   1      -0.154  -0.873   1.734  0.00  0.00    -0.080 A 
ATOM      4  C3  UNL d   1       1.081  -0.995   1.104  0.00  0.00     0.150 A 
ATOM      5  C4  UNL d   1       1.413  -0.185   0.023  0.00  0.00    -0.007 A 
ATOM      6  C5  UNL d   1       0.498   0.759  -0.440  0.00  0.00     0.039 A 
ENDROOT
BRANCH   4   7
ATOM      7  O   UNL d   1       2.005  -1.908   1.519  0.00  0.00    -0.526 OA
ATOM      8  H5  UNL d   1       1.627  -2.416   2.256  0.00  0.00     0.418 HD
ENDBRANCH   4   7
TORSDOF 1
ENDMDL
