MODEL 1
REMARK minimizedAffinity -3.7257421
REMARK minimizedRMSD -1
REMARK  1 active torsions:
REMARK  status: ('A' for Active; 'I' for Inactive)
REMARK    1  A    between atoms: C3_4  and  O_7 
ROOT
ATOM      1  C   UNL d   1       0.204   0.159  -0.851  0.00  0.00    -0.033 A 
ATOM      2  C1  UNL d   1      -0.420  -0.729   0.028  0.00  0.00     0.039 A 
ATOM      3  C2  UNL d   1       0.340  -1.454   0.947  0.00  0.00    -0.080 A 
ATOM      4  C3  UNL d   1       1.721  -1.282   0.978  0.00  0.00     0.150 A 
ATOM      5  C4  UNL d   1       2.349  -0.397   0.108  0.00  0.00    -0.007 A 
ATOM      6  C5  UNL d   1       1.589   0.326  -0.810  0.00  0.00     0.039 A 
ENDROOT
BRANCH   4   7
ATOM      7  O   UNL d   1       2.506  -1.972   1.854  0.00  0.00    -0.526 OA
ATOM      8  H5  UNL d   1       1.939  -2.567   2.373  0.00  0.00     0.418 HD
ENDBRANCH   4   7
TORSDOF 1
ENDMDL
