MODEL 1
REMARK minimizedAffinity -3.97548103
REMARK minimizedRMSD -1
REMARK  1 active torsions:
REMARK  status: ('A' for Active; 'I' for Inactive)
REMARK    1  A    between atoms: C3_4  and  O_7 
ROOT
ATOM      1  C   UNL d   1      -0.123   0.556  -0.258  0.00  0.00    -0.033 A 
ATOM      2  C1  UNL d   1      -0.659  -0.318   0.690  0.00  0.00     0.039 A 
ATOM      3  C2  UNL d   1       0.023  -1.489   1.027  0.00  0.00    -0.080 A 
ATOM      4  C3  UNL d   1       1.239  -1.773   0.411  0.00  0.00     0.150 A 
ATOM      5  C4  UNL d   1       1.780  -0.905  -0.532  0.00  0.00    -0.007 A 
ATOM      6  C5  UNL d   1       1.098   0.263  -0.868  0.00  0.00     0.039 A 
ENDROOT
BRANCH   4   7
ATOM      7  O   UNL d   1       1.938  -2.906   0.704  0.00  0.00    -0.526 OA
ATOM      8  H5  UNL d   1       1.429  -3.424   1.349  0.00  0.00     0.418 HD
ENDBRANCH   4   7
TORSDOF 1
ENDMDL
