MODEL 1
REMARK minimizedAffinity -3.63847375
REMARK minimizedRMSD -1
REMARK  1 active torsions:
REMARK  status: ('A' for Active; 'I' for Inactive)
REMARK    1  A    between atoms: C3_4  and  O_7 
ROOT
ATOM      1  C   UNL d   1       0.167   0.652   0.086  0.00  0.00    -0.033 A 
ATOM      2  C1  UNL d   1       1.526   0.367  -0.057  0.00  0.00     0.039 A 
ATOM      3  C2  UNL d   1       1.983  -0.946   0.067  0.00  0.00    -0.080 A 
ATOM      4  C3  UNL d   1       1.071  -1.964   0.333  0.00  0.00     0.150 A 
ATOM      5  C4  UNL d   1      -0.285  -1.688   0.473  0.00  0.00    -0.007 A 
ATOM      6  C5  UNL d   1      -0.739  -0.376   0.349  0.00  0.00     0.039 A 
ENDROOT
BRANCH   4   7
ATOM      7  O   UNL d   1       1.470  -3.261   0.468  0.00  0.00    -0.526 OA
ATOM      8  H5  UNL d   1       2.437  -3.297   0.375  0.00  0.00     0.418 HD
ENDBRANCH   4   7
TORSDOF 1
ENDMDL
