MODEL 1
REMARK minimizedAffinity -2.38592339
REMARK minimizedRMSD -1
REMARK  1 active torsions:
REMARK  status: ('A' for Active; 'I' for Inactive)
REMARK    1  A    between atoms: C3_4  and  O_7 
ROOT
ATOM      1  C   UNL d   1      -0.381   0.762  -0.300  0.00  0.00    -0.033 A 
ATOM      2  C1  UNL d   1      -0.868  -0.104   0.680  0.00  0.00     0.039 A 
ATOM      3  C2  UNL d   1      -0.107  -1.204   1.082  0.00  0.00    -0.080 A 
ATOM      4  C3  UNL d   1       1.137  -1.425   0.497  0.00  0.00     0.150 A 
ATOM      5  C4  UNL d   1       1.629  -0.563  -0.478  0.00  0.00    -0.007 A 
ATOM      6  C5  UNL d   1       0.868   0.534  -0.878  0.00  0.00     0.039 A 
ENDROOT
BRANCH   4   7
ATOM      7  O   UNL d   1       1.913  -2.488   0.853  0.00  0.00    -0.526 OA
ATOM      8  H5  UNL d   1       1.433  -3.012   1.515  0.00  0.00     0.418 HD
ENDBRANCH   4   7
TORSDOF 1
ENDMDL
