MODEL 1
REMARK minimizedAffinity 22.4259186
REMARK minimizedRMSD -1
REMARK  0 active torsions:
REMARK  status: ('A' for Active; 'I' for Inactive)
ROOT
ATOM      1  C   UNL d   1       0.870   0.003  -2.032  0.00  0.00     0.124 A 
ATOM      2  C1  UNL d   1       1.475  -0.381  -0.843  0.00  0.00     0.062 A 
ATOM      3  C2  UNL d   1       0.701  -0.810   0.230  0.00  0.00     0.162 A 
ATOM      4  C3  UNL d   1      -0.689  -0.859   0.120  0.00  0.00    -0.034 A 
ATOM      5  C4  UNL d   1      -1.291  -0.471  -1.078  0.00  0.00     0.162 A 
ATOM      6  C5  UNL d   1      -0.512  -0.043  -2.148  0.00  0.00     0.062 A 
ATOM      7  F   UNL d   1      -1.099   0.328  -3.296  0.00  0.00    -0.097 F 
ATOM      8  F1  UNL d   1      -2.624  -0.506  -1.219  0.00  0.00    -0.096 F 
ATOM      9  I   UNL d   1      -1.851  -1.501   1.723  0.00  0.00    -0.060 I 
ATOM     10  F2  UNL d   1       1.312  -1.175   1.367  0.00  0.00    -0.096 F 
ATOM     11  F3  UNL d   1       2.811  -0.337  -0.728  0.00  0.00    -0.097 F 
ATOM     12  F4  UNL d   1       1.618   0.417  -3.063  0.00  0.00    -0.092 F 
ENDROOT
TORSDOF 0
ENDMDL
