MODEL 1
REMARK minimizedAffinity 29.7116432
REMARK minimizedRMSD -1
REMARK  0 active torsions:
REMARK  status: ('A' for Active; 'I' for Inactive)
ROOT
ATOM      1  C   UNL d   1      -2.367   1.575   1.712  0.00  0.00     0.124 A 
ATOM      2  C1  UNL d   1      -2.610   0.215   1.586  0.00  0.00     0.062 A 
ATOM      3  C2  UNL d   1      -2.339  -0.646   2.646  0.00  0.00     0.162 A 
ATOM      4  C3  UNL d   1      -1.824  -0.149   3.842  0.00  0.00    -0.034 A 
ATOM      5  C4  UNL d   1      -1.581   1.221   3.962  0.00  0.00     0.162 A 
ATOM      6  C5  UNL d   1      -1.853   2.077   2.900  0.00  0.00     0.062 A 
ATOM      7  F   UNL d   1      -1.617   3.392   3.024  0.00  0.00    -0.097 F 
ATOM      8  F1  UNL d   1      -1.086   1.733   5.098  0.00  0.00    -0.096 F 
ATOM      9  I   UNL d   1      -1.418  -1.432   5.430  0.00  0.00    -0.060 I 
ATOM     10  F2  UNL d   1      -2.584  -1.956   2.496  0.00  0.00    -0.096 F 
ATOM     11  F3  UNL d   1      -3.105  -0.273   0.439  0.00  0.00    -0.097 F 
ATOM     12  F4  UNL d   1      -2.627   2.401   0.690  0.00  0.00    -0.092 F 
ENDROOT
TORSDOF 0
ENDMDL
