MODEL 1
REMARK minimizedAffinity 27.7568321
REMARK minimizedRMSD -1
REMARK  0 active torsions:
REMARK  status: ('A' for Active; 'I' for Inactive)
ROOT
ATOM      1  C   UNL d   1      -1.512  -1.368   1.305  0.00  0.00     0.124 A 
ATOM      2  C1  UNL d   1      -0.192  -1.745   1.101  0.00  0.00     0.062 A 
ATOM      3  C2  UNL d   1       0.464  -1.391  -0.074  0.00  0.00     0.162 A 
ATOM      4  C3  UNL d   1      -0.200  -0.655  -1.056  0.00  0.00    -0.034 A 
ATOM      5  C4  UNL d   1      -1.528  -0.281  -0.845  0.00  0.00     0.162 A 
ATOM      6  C5  UNL d   1      -2.179  -0.637   0.332  0.00  0.00     0.062 A 
ATOM      7  F   UNL d   1      -3.454  -0.272   0.527  0.00  0.00    -0.097 F 
ATOM      8  F1  UNL d   1      -2.196   0.427  -1.768  0.00  0.00    -0.096 F 
ATOM      9  I   UNL d   1       0.777  -0.124  -2.816  0.00  0.00    -0.060 I 
ATOM     10  F2  UNL d   1       1.740  -1.768  -0.244  0.00  0.00    -0.096 F 
ATOM     11  F3  UNL d   1       0.454  -2.452   2.039  0.00  0.00    -0.097 F 
ATOM     12  F4  UNL d   1      -2.141  -1.711   2.436  0.00  0.00    -0.092 F 
ENDROOT
TORSDOF 0
ENDMDL
