MODEL 1
REMARK minimizedAffinity 13.3995218
REMARK minimizedRMSD -1
REMARK  0 active torsions:
REMARK  status: ('A' for Active; 'I' for Inactive)
ROOT
ATOM      1  C   UNL d   1      -2.525   4.164  -2.445  0.00  0.00     0.124 A 
ATOM      2  C1  UNL d   1      -3.634   4.889  -2.030  0.00  0.00     0.062 A 
ATOM      3  C2  UNL d   1      -4.598   5.284  -2.954  0.00  0.00     0.162 A 
ATOM      4  C3  UNL d   1      -4.457   4.954  -4.302  0.00  0.00    -0.034 A 
ATOM      5  C4  UNL d   1      -3.339   4.225  -4.712  0.00  0.00     0.162 A 
ATOM      6  C5  UNL d   1      -2.379   3.833  -3.785  0.00  0.00     0.062 A 
ATOM      7  F   UNL d   1      -1.308   3.133  -4.187  0.00  0.00    -0.097 F 
ATOM      8  F1  UNL d   1      -3.173   3.891  -6.000  0.00  0.00    -0.096 F 
ATOM      9  I   UNL d   1      -5.896   5.542  -5.686  0.00  0.00    -0.060 I 
ATOM     10  F2  UNL d   1      -5.659   5.983  -2.525  0.00  0.00    -0.096 F 
ATOM     11  F3  UNL d   1      -3.778   5.211  -0.737  0.00  0.00    -0.097 F 
ATOM     12  F4  UNL d   1      -1.599   3.786  -1.554  0.00  0.00    -0.092 F 
ENDROOT
TORSDOF 0
ENDMDL
