MODEL 1
REMARK minimizedAffinity 11.2175035
REMARK minimizedRMSD -1
REMARK  0 active torsions:
REMARK  status: ('A' for Active; 'I' for Inactive)
ROOT
ATOM      1  C   UNL d   1      -0.842  -2.239   2.325  0.00  0.00     0.124 A 
ATOM      2  C1  UNL d   1      -1.395  -3.512   2.349  0.00  0.00     0.062 A 
ATOM      3  C2  UNL d   1      -2.226  -3.895   3.397  0.00  0.00     0.162 A 
ATOM      4  C3  UNL d   1      -2.512  -3.003   4.430  0.00  0.00    -0.034 A 
ATOM      5  C4  UNL d   1      -1.952  -1.724   4.400  0.00  0.00     0.162 A 
ATOM      6  C5  UNL d   1      -1.121  -1.347   3.350  0.00  0.00     0.062 A 
ATOM      7  F   UNL d   1      -0.588  -0.116   3.329  0.00  0.00    -0.097 F 
ATOM      8  F1  UNL d   1      -2.205  -0.841   5.378  0.00  0.00    -0.096 F 
ATOM      9  I   UNL d   1      -3.755  -3.571   6.000  0.00  0.00    -0.060 I 
ATOM     10  F2  UNL d   1      -2.746  -5.131   3.394  0.00  0.00    -0.096 F 
ATOM     11  F3  UNL d   1      -1.126  -4.377   1.359  0.00  0.00    -0.097 F 
ATOM     12  F4  UNL d   1      -0.042  -1.874   1.315  0.00  0.00    -0.092 F 
ENDROOT
TORSDOF 0
ENDMDL
