MODEL 1
REMARK minimizedAffinity 8.61787987
REMARK minimizedRMSD -1
REMARK  0 active torsions:
REMARK  status: ('A' for Active; 'I' for Inactive)
ROOT
ATOM      1  C   UNL d   1      -2.987  -0.745   5.310  0.00  0.00     0.124 A 
ATOM      2  C1  UNL d   1      -4.303  -0.435   5.626  0.00  0.00     0.062 A 
ATOM      3  C2  UNL d   1      -4.718   0.892   5.672  0.00  0.00     0.162 A 
ATOM      4  C3  UNL d   1      -3.816   1.921   5.402  0.00  0.00    -0.034 A 
ATOM      5  C4  UNL d   1      -2.494   1.602   5.087  0.00  0.00     0.162 A 
ATOM      6  C5  UNL d   1      -2.084   0.274   5.041  0.00  0.00     0.062 A 
ATOM      7  F   UNL d   1      -0.812  -0.023   4.737  0.00  0.00    -0.097 F 
ATOM      8  F1  UNL d   1      -1.600   2.567   4.822  0.00  0.00    -0.096 F 
ATOM      9  I   UNL d   1      -4.432   3.908   5.471  0.00  0.00    -0.060 I 
ATOM     10  F2  UNL d   1      -5.995   1.162   5.980  0.00  0.00    -0.096 F 
ATOM     11  F3  UNL d   1      -5.177  -1.418   5.887  0.00  0.00    -0.097 F 
ATOM     12  F4  UNL d   1      -2.591  -2.023   5.267  0.00  0.00    -0.092 F 
ENDROOT
TORSDOF 0
ENDMDL
