MODEL 1
REMARK minimizedAffinity 10.3486052
REMARK minimizedRMSD -1
REMARK  0 active torsions:
REMARK  status: ('A' for Active; 'I' for Inactive)
ROOT
ATOM      1  C   UNL d   1      -1.286   0.470   0.345  0.00  0.00     0.124 A 
ATOM      2  C1  UNL d   1      -1.819   1.668  -0.110  0.00  0.00     0.062 A 
ATOM      3  C2  UNL d   1      -1.490   2.145  -1.376  0.00  0.00     0.162 A 
ATOM      4  C3  UNL d   1      -0.624   1.423  -2.197  0.00  0.00    -0.034 A 
ATOM      5  C4  UNL d   1      -0.091   0.219  -1.732  0.00  0.00     0.162 A 
ATOM      6  C5  UNL d   1      -0.423  -0.253  -0.466  0.00  0.00     0.062 A 
ATOM      7  F   UNL d   1       0.093  -1.411  -0.029  0.00  0.00    -0.097 F 
ATOM      8  F1  UNL d   1       0.744  -0.501  -2.495  0.00  0.00    -0.096 F 
ATOM      9  I   UNL d   1      -0.130   2.132  -4.090  0.00  0.00    -0.060 I 
ATOM     10  F2  UNL d   1      -2.020   3.306  -1.789  0.00  0.00    -0.096 F 
ATOM     11  F3  UNL d   1      -2.652   2.369   0.672  0.00  0.00    -0.097 F 
ATOM     12  F4  UNL d   1      -1.603   0.014   1.563  0.00  0.00    -0.092 F 
ENDROOT
TORSDOF 0
ENDMDL
