MODEL 1
REMARK minimizedAffinity 20.306221
REMARK minimizedRMSD -1
REMARK  0 active torsions:
REMARK  status: ('A' for Active; 'I' for Inactive)
ROOT
ATOM      1  C   UNL d   1      -1.761  -0.014   0.361  0.00  0.00     0.124 A 
ATOM      2  C1  UNL d   1      -2.313  -0.280   1.607  0.00  0.00     0.062 A 
ATOM      3  C2  UNL d   1      -2.364  -1.586   2.086  0.00  0.00     0.162 A 
ATOM      4  C3  UNL d   1      -1.861  -2.637   1.319  0.00  0.00    -0.034 A 
ATOM      5  C4  UNL d   1      -1.308  -2.362   0.066  0.00  0.00     0.162 A 
ATOM      6  C5  UNL d   1      -1.260  -1.055  -0.408  0.00  0.00     0.062 A 
ATOM      7  F   UNL d   1      -0.726  -0.800  -1.611  0.00  0.00    -0.097 F 
ATOM      8  F1  UNL d   1      -0.815  -3.348  -0.697  0.00  0.00    -0.096 F 
ATOM      9  I   UNL d   1      -1.935  -4.591   2.031  0.00  0.00    -0.060 I 
ATOM     10  F2  UNL d   1      -2.903  -1.813   3.293  0.00  0.00    -0.096 F 
ATOM     11  F3  UNL d   1      -2.800   0.724   2.351  0.00  0.00    -0.097 F 
ATOM     12  F4  UNL d   1      -1.715   1.243  -0.097  0.00  0.00    -0.092 F 
ENDROOT
TORSDOF 0
ENDMDL
