MODEL 1
REMARK minimizedAffinity 13.6871138
REMARK minimizedRMSD -1
REMARK  0 active torsions:
REMARK  status: ('A' for Active; 'I' for Inactive)
ROOT
ATOM      1  C   UNL d   1      -1.104   0.095  -0.893  0.00  0.00     0.124 A 
ATOM      2  C1  UNL d   1      -1.031  -1.119  -1.563  0.00  0.00     0.062 A 
ATOM      3  C2  UNL d   1      -1.193  -2.313  -0.867  0.00  0.00     0.162 A 
ATOM      4  C3  UNL d   1      -1.432  -2.300   0.507  0.00  0.00    -0.034 A 
ATOM      5  C4  UNL d   1      -1.503  -1.076   1.174  0.00  0.00     0.162 A 
ATOM      6  C5  UNL d   1      -1.340   0.115   0.474  0.00  0.00     0.062 A 
ATOM      7  F   UNL d   1      -1.412   1.287   1.123  0.00  0.00    -0.097 F 
ATOM      8  F1  UNL d   1      -1.732  -1.027   2.495  0.00  0.00    -0.096 F 
ATOM      9  I   UNL d   1      -1.676  -4.084   1.551  0.00  0.00    -0.060 I 
ATOM     10  F2  UNL d   1      -1.117  -3.471  -1.540  0.00  0.00    -0.096 F 
ATOM     11  F3  UNL d   1      -0.802  -1.141  -2.884  0.00  0.00    -0.097 F 
ATOM     12  F4  UNL d   1      -0.946   1.243  -1.565  0.00  0.00    -0.092 F 
ENDROOT
TORSDOF 0
ENDMDL
