MODEL 1
REMARK minimizedAffinity 20.9770527
REMARK minimizedRMSD -1
REMARK  0 active torsions:
REMARK  status: ('A' for Active; 'I' for Inactive)
ROOT
ATOM      1  C   UNL d   1      -1.330  -2.385   1.933  0.00  0.00     0.124 A 
ATOM      2  C1  UNL d   1      -1.385  -1.131   1.340  0.00  0.00     0.062 A 
ATOM      3  C2  UNL d   1      -1.383  -1.012  -0.047  0.00  0.00     0.162 A 
ATOM      4  C3  UNL d   1      -1.327  -2.151  -0.851  0.00  0.00    -0.034 A 
ATOM      5  C4  UNL d   1      -1.271  -3.408  -0.247  0.00  0.00     0.162 A 
ATOM      6  C5  UNL d   1      -1.274  -3.522   1.139  0.00  0.00     0.062 A 
ATOM      7  F   UNL d   1      -1.221  -4.734   1.710  0.00  0.00    -0.097 F 
ATOM      8  F1  UNL d   1      -1.216  -4.523  -0.990  0.00  0.00    -0.096 F 
ATOM      9  I   UNL d   1      -1.323  -1.977  -2.925  0.00  0.00    -0.060 I 
ATOM     10  F2  UNL d   1      -1.437   0.212  -0.593  0.00  0.00    -0.096 F 
ATOM     11  F3  UNL d   1      -1.439  -0.031   2.104  0.00  0.00    -0.097 F 
ATOM     12  F4  UNL d   1      -1.332  -2.496   3.267  0.00  0.00    -0.092 F 
ENDROOT
TORSDOF 0
ENDMDL
