MODEL 1
REMARK minimizedAffinity 15.8211145
REMARK minimizedRMSD -1
REMARK  0 active torsions:
REMARK  status: ('A' for Active; 'I' for Inactive)
ROOT
ATOM      1  C   UNL d   1      -0.324  -0.476  -1.950  0.00  0.00     0.124 A 
ATOM      2  C1  UNL d   1      -1.364  -0.144  -2.806  0.00  0.00     0.062 A 
ATOM      3  C2  UNL d   1      -1.188   0.842  -3.773  0.00  0.00     0.162 A 
ATOM      4  C3  UNL d   1       0.035   1.502  -3.890  0.00  0.00    -0.034 A 
ATOM      5  C4  UNL d   1       1.077   1.164  -3.024  0.00  0.00     0.162 A 
ATOM      6  C5  UNL d   1       0.895   0.178  -2.060  0.00  0.00     0.062 A 
ATOM      7  F   UNL d   1       1.902  -0.141  -1.233  0.00  0.00    -0.097 F 
ATOM      8  F1  UNL d   1       2.265   1.779  -3.109  0.00  0.00    -0.096 F 
ATOM      9  I   UNL d   1       0.302   2.977  -5.334  0.00  0.00    -0.060 I 
ATOM     10  F2  UNL d   1      -2.211   1.142  -4.587  0.00  0.00    -0.096 F 
ATOM     11  F3  UNL d   1      -2.543  -0.774  -2.702  0.00  0.00    -0.097 F 
ATOM     12  F4  UNL d   1      -0.496  -1.424  -1.020  0.00  0.00    -0.092 F 
ENDROOT
TORSDOF 0
ENDMDL
