MODEL 1
REMARK minimizedAffinity 26.8916721
REMARK minimizedRMSD -1
REMARK  0 active torsions:
REMARK  status: ('A' for Active; 'I' for Inactive)
ROOT
ATOM      1  C   UNL d   1      -1.011  -0.740  -1.173  0.00  0.00     0.124 A 
ATOM      2  C1  UNL d   1      -1.216  -2.052  -1.578  0.00  0.00     0.062 A 
ATOM      3  C2  UNL d   1      -1.319  -3.068  -0.633  0.00  0.00     0.162 A 
ATOM      4  C3  UNL d   1      -1.218  -2.777   0.728  0.00  0.00    -0.034 A 
ATOM      5  C4  UNL d   1      -1.011  -1.455   1.127  0.00  0.00     0.162 A 
ATOM      6  C5  UNL d   1      -0.909  -0.443   0.179  0.00  0.00     0.062 A 
ATOM      7  F   UNL d   1      -0.711   0.824   0.572  0.00  0.00    -0.097 F 
ATOM      8  F1  UNL d   1      -0.909  -1.140   2.427  0.00  0.00    -0.096 F 
ATOM      9  I   UNL d   1      -1.371  -4.294   2.145  0.00  0.00    -0.060 I 
ATOM     10  F2  UNL d   1      -1.517  -4.327  -1.052  0.00  0.00    -0.096 F 
ATOM     11  F3  UNL d   1      -1.314  -2.342  -2.883  0.00  0.00    -0.097 F 
ATOM     12  F4  UNL d   1      -0.912   0.236  -2.085  0.00  0.00    -0.092 F 
ENDROOT
TORSDOF 0
ENDMDL
