MODEL 1
REMARK minimizedAffinity 12.6320829
REMARK minimizedRMSD -1
REMARK  0 active torsions:
REMARK  status: ('A' for Active; 'I' for Inactive)
ROOT
ATOM      1  C   UNL d   1      -3.919   5.125  -3.718  0.00  0.00     0.124 A 
ATOM      2  C1  UNL d   1      -3.593   4.428  -4.873  0.00  0.00     0.062 A 
ATOM      3  C2  UNL d   1      -2.539   3.519  -4.867  0.00  0.00     0.162 A 
ATOM      4  C3  UNL d   1      -1.803   3.301  -3.702  0.00  0.00    -0.034 A 
ATOM      5  C4  UNL d   1      -2.137   4.007  -2.545  0.00  0.00     0.162 A 
ATOM      6  C5  UNL d   1      -3.192   4.914  -2.555  0.00  0.00     0.062 A 
ATOM      7  F   UNL d   1      -3.506   5.587  -1.438  0.00  0.00    -0.097 F 
ATOM      8  F1  UNL d   1      -1.451   3.822  -1.407  0.00  0.00    -0.096 F 
ATOM      9  I   UNL d   1      -0.226   1.943  -3.690  0.00  0.00    -0.060 I 
ATOM     10  F2  UNL d   1      -2.245   2.860  -5.998  0.00  0.00    -0.096 F 
ATOM     11  F3  UNL d   1      -4.294   4.631  -5.997  0.00  0.00    -0.097 F 
ATOM     12  F4  UNL d   1      -4.934   6.000  -3.726  0.00  0.00    -0.092 F 
ENDROOT
TORSDOF 0
ENDMDL
