MODEL 1
REMARK minimizedAffinity 17.7490921
REMARK minimizedRMSD -1
REMARK  0 active torsions:
REMARK  status: ('A' for Active; 'I' for Inactive)
ROOT
ATOM      1  C   UNL d   1      -5.143   4.871   3.419  0.00  0.00     0.124 A 
ATOM      2  C1  UNL d   1      -5.179   4.186   4.626  0.00  0.00     0.062 A 
ATOM      3  C2  UNL d   1      -4.369   3.072   4.823  0.00  0.00     0.162 A 
ATOM      4  C3  UNL d   1      -3.516   2.634   3.810  0.00  0.00    -0.034 A 
ATOM      5  C4  UNL d   1      -3.486   3.327   2.598  0.00  0.00     0.162 A 
ATOM      6  C5  UNL d   1      -4.297   4.440   2.407  0.00  0.00     0.062 A 
ATOM      7  F   UNL d   1      -4.262   5.100   1.240  0.00  0.00    -0.097 F 
ATOM      8  F1  UNL d   1      -2.677   2.933   1.603  0.00  0.00    -0.096 F 
ATOM      9  I   UNL d   1      -2.303   0.967   4.101  0.00  0.00    -0.060 I 
ATOM     10  F2  UNL d   1      -4.424   2.430   6.000  0.00  0.00    -0.096 F 
ATOM     11  F3  UNL d   1      -5.996   4.600   5.606  0.00  0.00    -0.097 F 
ATOM     12  F4  UNL d   1      -5.924   5.942   3.232  0.00  0.00    -0.092 F 
ENDROOT
TORSDOF 0
ENDMDL
