MODEL 1
REMARK minimizedAffinity 23.553318
REMARK minimizedRMSD -1
REMARK  0 active torsions:
REMARK  status: ('A' for Active; 'I' for Inactive)
ROOT
ATOM      1  C   UNL d   1      -3.157   2.026   3.513  0.00  0.00     0.124 A 
ATOM      2  C1  UNL d   1      -2.934   2.887   2.448  0.00  0.00     0.062 A 
ATOM      3  C2  UNL d   1      -3.744   4.004   2.268  0.00  0.00     0.162 A 
ATOM      4  C3  UNL d   1      -4.786   4.268   3.158  0.00  0.00    -0.034 A 
ATOM      5  C4  UNL d   1      -5.005   3.397   4.226  0.00  0.00     0.162 A 
ATOM      6  C5  UNL d   1      -4.193   2.282   4.401  0.00  0.00     0.062 A 
ATOM      7  F   UNL d   1      -4.410   1.451   5.431  0.00  0.00    -0.097 F 
ATOM      8  F1  UNL d   1      -5.998   3.621   5.100  0.00  0.00    -0.096 F 
ATOM      9  I   UNL d   1      -6.000   5.938   2.893  0.00  0.00    -0.060 I 
ATOM     10  F2  UNL d   1      -3.505   4.819   1.230  0.00  0.00    -0.096 F 
ATOM     11  F3  UNL d   1      -1.935   2.642   1.588  0.00  0.00    -0.097 F 
ATOM     12  F4  UNL d   1      -2.377   0.951   3.683  0.00  0.00    -0.092 F 
ENDROOT
TORSDOF 0
ENDMDL
