MODEL 1
REMARK minimizedAffinity 5.12661552
REMARK minimizedRMSD -1
REMARK  0 active torsions:
REMARK  status: ('A' for Active; 'I' for Inactive)
ROOT
ATOM      1  C   UNL d   1      -0.831  -0.253  -1.488  0.00  0.00     0.124 A 
ATOM      2  C1  UNL d   1      -0.841  -1.565  -1.036  0.00  0.00     0.062 A 
ATOM      3  C2  UNL d   1      -0.422  -1.862   0.258  0.00  0.00     0.162 A 
ATOM      4  C3  UNL d   1       0.009  -0.845   1.109  0.00  0.00    -0.034 A 
ATOM      5  C4  UNL d   1       0.017   0.472   0.647  0.00  0.00     0.162 A 
ATOM      6  C5  UNL d   1      -0.402   0.764  -0.647  0.00  0.00     0.062 A 
ATOM      7  F   UNL d   1      -0.392   2.032  -1.082  0.00  0.00    -0.097 F 
ATOM      8  F1  UNL d   1       0.426   1.474   1.439  0.00  0.00    -0.096 F 
ATOM      9  I   UNL d   1       0.635  -1.286   3.045  0.00  0.00    -0.060 I 
ATOM     10  F2  UNL d   1      -0.443  -3.139   0.669  0.00  0.00    -0.096 F 
ATOM     11  F3  UNL d   1      -1.254  -2.549  -1.847  0.00  0.00    -0.097 F 
ATOM     12  F4  UNL d   1      -1.233   0.031  -2.734  0.00  0.00    -0.092 F 
ENDROOT
TORSDOF 0
ENDMDL
