MODEL 1
REMARK minimizedAffinity 5.62838554
REMARK minimizedRMSD -1
REMARK  0 active torsions:
REMARK  status: ('A' for Active; 'I' for Inactive)
ROOT
ATOM      1  C   UNL d   1       0.962   0.148  -2.060  0.00  0.00     0.077 C 
ATOM      2  C1  UNL d   1       0.782  -0.002  -0.579  0.00  0.00    -0.074 A 
ATOM      3  C2  UNL d   1       1.359  -1.073   0.111  0.00  0.00    -0.005 A 
ATOM      4  C3  UNL d   1       1.191  -1.194   1.490  0.00  0.00     0.006 A 
ATOM      5  C4  UNL d   1       0.445  -0.247   2.193  0.00  0.00    -0.005 A 
ATOM      6  C5  UNL d   1      -0.139   0.831   1.521  0.00  0.00    -0.074 A 
ATOM      7  C6  UNL d   1      -0.936   1.863   2.262  0.00  0.00     0.077 C 
ATOM      8  C7  UNL d   1       0.040   0.950   0.136  0.00  0.00    -0.001 A 
ENDROOT
TORSDOF 0
ENDMDL
