MODEL 1
REMARK minimizedAffinity 5.62617683
REMARK minimizedRMSD -1
REMARK  0 active torsions:
REMARK  status: ('A' for Active; 'I' for Inactive)
ROOT
ATOM      1  C   UNL d   1       3.356  -1.034   2.869  0.00  0.00     0.077 C 
ATOM      2  C1  UNL d   1       2.174  -0.698   2.009  0.00  0.00    -0.074 A 
ATOM      3  C2  UNL d   1       0.942  -0.365   2.579  0.00  0.00    -0.005 A 
ATOM      4  C3  UNL d   1      -0.146  -0.045   1.766  0.00  0.00     0.006 A 
ATOM      5  C4  UNL d   1      -0.012  -0.055   0.377  0.00  0.00    -0.005 A 
ATOM      6  C5  UNL d   1       1.213  -0.385  -0.211  0.00  0.00    -0.074 A 
ATOM      7  C6  UNL d   1       1.376  -0.391  -1.702  0.00  0.00     0.077 C 
ATOM      8  C7  UNL d   1       2.303  -0.698   0.613  0.00  0.00    -0.001 A 
ENDROOT
TORSDOF 0
ENDMDL
