MODEL 1
REMARK minimizedAffinity 6.31664085
REMARK minimizedRMSD -1
REMARK  0 active torsions:
REMARK  status: ('A' for Active; 'I' for Inactive)
ROOT
ATOM      1  C   UNL d   1      -5.995  -1.896   5.138  0.00  0.00     0.077 C 
ATOM      2  C1  UNL d   1      -5.989  -1.995   3.642  0.00  0.00    -0.074 A 
ATOM      3  C2  UNL d   1      -5.996  -3.240   3.004  0.00  0.00    -0.005 A 
ATOM      4  C3  UNL d   1      -6.000  -3.317   1.612  0.00  0.00     0.006 A 
ATOM      5  C4  UNL d   1      -5.997  -2.152   0.844  0.00  0.00    -0.005 A 
ATOM      6  C5  UNL d   1      -5.991  -0.899   1.463  0.00  0.00    -0.074 A 
ATOM      7  C6  UNL d   1      -5.998   0.363   0.653  0.00  0.00     0.077 C 
ATOM      8  C7  UNL d   1      -5.994  -0.830   2.863  0.00  0.00    -0.001 A 
ENDROOT
TORSDOF 0
ENDMDL
