MODEL 1
REMARK minimizedAffinity 1.23175347
REMARK minimizedRMSD -1
REMARK  0 active torsions:
REMARK  status: ('A' for Active; 'I' for Inactive)
ROOT
ATOM      1  C   UNL d   1       1.517  -1.153   3.265  0.00  0.00     0.077 C 
ATOM      2  C1  UNL d   1       0.936  -0.238   2.228  0.00  0.00    -0.074 A 
ATOM      3  C2  UNL d   1       0.191   0.887   2.598  0.00  0.00    -0.005 A 
ATOM      4  C3  UNL d   1      -0.335   1.734   1.623  0.00  0.00     0.006 A 
ATOM      5  C4  UNL d   1      -0.123   1.465   0.270  0.00  0.00    -0.005 A 
ATOM      6  C5  UNL d   1       0.620   0.346  -0.119  0.00  0.00    -0.074 A 
ATOM      7  C6  UNL d   1       0.867   0.048  -1.568  0.00  0.00     0.077 C 
ATOM      8  C7  UNL d   1       1.152  -0.497   0.867  0.00  0.00    -0.001 A 
ENDROOT
TORSDOF 0
ENDMDL
