MODEL 1
REMARK minimizedAffinity 5.20448685
REMARK minimizedRMSD -1
REMARK  0 active torsions:
REMARK  status: ('A' for Active; 'I' for Inactive)
ROOT
ATOM      1  C   UNL d   1       0.566   5.413  -1.152  0.00  0.00     0.077 C 
ATOM      2  C1  UNL d   1       0.126   4.029  -0.778  0.00  0.00    -0.074 A 
ATOM      3  C2  UNL d   1      -0.305   3.124  -1.754  0.00  0.00    -0.005 A 
ATOM      4  C3  UNL d   1      -0.703   1.837  -1.392  0.00  0.00     0.006 A 
ATOM      5  C4  UNL d   1      -0.673   1.442  -0.054  0.00  0.00    -0.005 A 
ATOM      6  C5  UNL d   1      -0.245   2.333   0.935  0.00  0.00    -0.074 A 
ATOM      7  C6  UNL d   1      -0.198   1.922   2.377  0.00  0.00     0.077 C 
ATOM      8  C7  UNL d   1       0.160   3.623   0.563  0.00  0.00    -0.001 A 
ENDROOT
TORSDOF 0
ENDMDL
