MODEL 1
REMARK minimizedAffinity 9.21313763
REMARK minimizedRMSD -1
REMARK  0 active torsions:
REMARK  status: ('A' for Active; 'I' for Inactive)
ROOT
ATOM      1  C   UNL d   1      -0.346   1.415  -2.007  0.00  0.00     0.077 C 
ATOM      2  C1  UNL d   1      -0.379   1.845  -0.571  0.00  0.00    -0.074 A 
ATOM      3  C2  UNL d   1       0.756   1.731   0.240  0.00  0.00    -0.005 A 
ATOM      4  C3  UNL d   1       0.713   2.144   1.571  0.00  0.00     0.006 A 
ATOM      5  C4  UNL d   1      -0.463   2.674   2.105  0.00  0.00    -0.005 A 
ATOM      6  C5  UNL d   1      -1.606   2.796   1.310  0.00  0.00    -0.074 A 
ATOM      7  C6  UNL d   1      -2.875   3.373   1.865  0.00  0.00     0.077 C 
ATOM      8  C7  UNL d   1      -1.553   2.386  -0.029  0.00  0.00    -0.001 A 
ENDROOT
TORSDOF 0
ENDMDL
