MODEL 1
REMARK minimizedAffinity 3.01051736
REMARK minimizedRMSD -1
REMARK  0 active torsions:
REMARK  status: ('A' for Active; 'I' for Inactive)
ROOT
ATOM      1  C   UNL d   1       0.566   2.007   2.522  0.00  0.00     0.077 C 
ATOM      2  C1  UNL d   1      -0.278   2.192   1.296  0.00  0.00    -0.074 A 
ATOM      3  C2  UNL d   1      -1.477   2.908   1.351  0.00  0.00    -0.005 A 
ATOM      4  C3  UNL d   1      -2.247   3.080   0.200  0.00  0.00     0.006 A 
ATOM      5  C4  UNL d   1      -1.826   2.537  -1.014  0.00  0.00    -0.005 A 
ATOM      6  C5  UNL d   1      -0.628   1.818  -1.088  0.00  0.00    -0.074 A 
ATOM      7  C6  UNL d   1      -0.156   1.237  -2.388  0.00  0.00     0.077 C 
ATOM      8  C7  UNL d   1       0.143   1.656   0.071  0.00  0.00    -0.001 A 
ENDROOT
TORSDOF 0
ENDMDL
