MODEL 1
REMARK minimizedAffinity 5.30569696
REMARK minimizedRMSD -1
REMARK  0 active torsions:
REMARK  status: ('A' for Active; 'I' for Inactive)
ROOT
ATOM      1  C   UNL d   1       2.080  -1.735  -1.436  0.00  0.00     0.077 C 
ATOM      2  C1  UNL d   1       2.157  -3.029  -2.192  0.00  0.00    -0.074 A 
ATOM      3  C2  UNL d   1       2.613  -4.197  -1.573  0.00  0.00    -0.005 A 
ATOM      4  C3  UNL d   1       2.670  -5.394  -2.286  0.00  0.00     0.006 A 
ATOM      5  C4  UNL d   1       2.272  -5.436  -3.622  0.00  0.00    -0.005 A 
ATOM      6  C5  UNL d   1       1.813  -4.278  -4.258  0.00  0.00    -0.074 A 
ATOM      7  C6  UNL d   1       1.372  -4.307  -5.692  0.00  0.00     0.077 C 
ATOM      8  C7  UNL d   1       1.752  -3.080  -3.533  0.00  0.00    -0.001 A 
ENDROOT
TORSDOF 0
ENDMDL
