MODEL 1
REMARK minimizedAffinity 8.11190414
REMARK minimizedRMSD -1
REMARK  0 active torsions:
REMARK  status: ('A' for Active; 'I' for Inactive)
ROOT
ATOM      1  C   UNL d   1       3.246  -1.692  -1.092  0.00  0.00     0.077 C 
ATOM      2  C1  UNL d   1       1.810  -1.412  -1.424  0.00  0.00    -0.074 A 
ATOM      3  C2  UNL d   1       0.827  -2.391  -1.250  0.00  0.00    -0.005 A 
ATOM      4  C3  UNL d   1      -0.505  -2.113  -1.554  0.00  0.00     0.006 A 
ATOM      5  C4  UNL d   1      -0.867  -0.854  -2.035  0.00  0.00    -0.005 A 
ATOM      6  C5  UNL d   1       0.101   0.138  -2.216  0.00  0.00    -0.074 A 
ATOM      7  C6  UNL d   1      -0.273   1.499  -2.723  0.00  0.00     0.077 C 
ATOM      8  C7  UNL d   1       1.437  -0.147  -1.901  0.00  0.00    -0.001 A 
ENDROOT
TORSDOF 0
ENDMDL
