MODEL 1
REMARK minimizedAffinity 8.98790169
REMARK minimizedRMSD -1
REMARK  1 active torsions:
REMARK  status: ('A' for Active; 'I' for Inactive)
REMARK    1  A    between atoms: C1_2  and  C2_3 
ROOT
ATOM      1  C2  UNL d   1       1.500  -2.001   4.778  0.00  0.00    -0.076 A 
ATOM      2  C3  UNL d   1       2.191  -0.778   4.718  0.00  0.00     0.004 A 
ATOM      3  C4  UNL d   1       1.823   0.210   3.806  0.00  0.00    -0.003 A 
ATOM      4  C5  UNL d   1       0.757  -0.009   2.940  0.00  0.00     0.000 A 
ATOM      5  C6  UNL d   1       0.050  -1.209   2.997  0.00  0.00     0.000 A 
ATOM      6  C7  UNL d   1       0.398  -2.209   3.921  0.00  0.00    -0.073 A 
ATOM      7  C8  UNL d   1      -0.396  -3.487   3.935  0.00  0.00     0.078 C 
ENDROOT
BRANCH   1   8
ATOM      8  C1  UNL d   1       1.962  -3.046   5.768  0.00  0.00     0.053 C 
ATOM      9  C   UNL d   1       3.464  -3.006   6.000  0.00  0.00     0.018 C 
ENDBRANCH   1   8
TORSDOF 1
ENDMDL
