MODEL 1
REMARK minimizedAffinity 9.99759388
REMARK minimizedRMSD -1
REMARK  1 active torsions:
REMARK  status: ('A' for Active; 'I' for Inactive)
REMARK    1  A    between atoms: C1_2  and  C2_3 
ROOT
ATOM      1  C2  UNL d   1       1.358  -1.501   3.694  0.00  0.00    -0.076 A 
ATOM      2  C3  UNL d   1       0.206  -1.802   2.947  0.00  0.00     0.004 A 
ATOM      3  C4  UNL d   1      -0.433  -0.823   2.188  0.00  0.00    -0.003 A 
ATOM      4  C5  UNL d   1       0.071   0.473   2.163  0.00  0.00     0.000 A 
ATOM      5  C6  UNL d   1       1.223   0.785   2.884  0.00  0.00     0.000 A 
ATOM      6  C7  UNL d   1       1.888  -0.195   3.641  0.00  0.00    -0.073 A 
ATOM      7  C8  UNL d   1       3.123   0.198   4.405  0.00  0.00     0.078 C 
ENDROOT
BRANCH   1   8
ATOM      8  C1  UNL d   1       1.992  -2.598   4.520  0.00  0.00     0.053 C 
ATOM      9  C   UNL d   1       0.968  -3.397   5.311  0.00  0.00     0.018 C 
ENDBRANCH   1   8
TORSDOF 1
ENDMDL
