MODEL 1
REMARK minimizedAffinity 7.80450487
REMARK minimizedRMSD -1
REMARK  1 active torsions:
REMARK  status: ('A' for Active; 'I' for Inactive)
REMARK    1  A    between atoms: C1_2  and  C2_3 
ROOT
ATOM      1  C2  UNL d   1      -1.032  -0.334   2.496  0.00  0.00    -0.076 A 
ATOM      2  C3  UNL d   1      -0.717   0.404   3.651  0.00  0.00     0.004 A 
ATOM      3  C4  UNL d   1       0.598   0.504   4.102  0.00  0.00    -0.003 A 
ATOM      4  C5  UNL d   1       1.620  -0.132   3.405  0.00  0.00     0.000 A 
ATOM      5  C6  UNL d   1       1.328  -0.853   2.248  0.00  0.00     0.000 A 
ATOM      6  C7  UNL d   1       0.010  -0.950   1.771  0.00  0.00    -0.073 A 
ATOM      7  C8  UNL d   1      -0.249  -1.746   0.521  0.00  0.00     0.078 C 
ENDROOT
BRANCH   1   8
ATOM      8  C1  UNL d   1      -2.480  -0.430   2.071  0.00  0.00     0.053 C 
ATOM      9  C   UNL d   1      -3.251  -1.477   2.859  0.00  0.00     0.018 C 
ENDBRANCH   1   8
TORSDOF 1
ENDMDL
