MODEL 1
REMARK minimizedAffinity 15.2307863
REMARK minimizedRMSD -1
REMARK  1 active torsions:
REMARK  status: ('A' for Active; 'I' for Inactive)
REMARK    1  A    between atoms: C1_2  and  C2_3 
ROOT
ATOM      1  C2  UNL d   1      -1.078  -0.706   2.405  0.00  0.00    -0.076 A 
ATOM      2  C3  UNL d   1      -0.335  -1.887   2.579  0.00  0.00     0.004 A 
ATOM      3  C4  UNL d   1       1.009  -1.842   2.943  0.00  0.00    -0.003 A 
ATOM      4  C5  UNL d   1       1.634  -0.615   3.139  0.00  0.00     0.000 A 
ATOM      5  C6  UNL d   1       0.908   0.566   2.987  0.00  0.00     0.000 A 
ATOM      6  C7  UNL d   1      -0.453   0.538   2.637  0.00  0.00    -0.073 A 
ATOM      7  C8  UNL d   1      -1.185   1.842   2.481  0.00  0.00     0.078 C 
ENDROOT
BRANCH   1   8
ATOM      8  C1  UNL d   1      -2.525  -0.816   1.983  0.00  0.00     0.053 C 
ATOM      9  C   UNL d   1      -3.068  -2.230   2.126  0.00  0.00     0.018 C 
ENDBRANCH   1   8
TORSDOF 1
ENDMDL
