MODEL 1
REMARK minimizedAffinity -2.11641097
REMARK minimizedRMSD -1
REMARK  0 active torsions:
REMARK  status: ('A' for Active; 'I' for Inactive)
ROOT
ATOM      1  C2' OXE d   1      -0.963  -0.397   1.941  0.00  0.00     0.078 C 
ATOM      2  C1' OXE d   1       0.272  -1.306  -0.411  0.00  0.00     0.078 C 
ATOM      3  C1  OXE d   1       0.566   0.104   0.039  0.00  0.00    -0.078 A 
ATOM      4  C2  OXE d   1      -0.080   0.556   1.165  0.00  0.00    -0.078 A 
ATOM      5  C3  OXE d   1       0.197   1.829   1.654  0.00  0.00     0.003 A 
ATOM      6  C4  OXE d   1       1.008   2.708   0.925  0.00  0.00    -0.002 A 
ATOM      7  C5  OXE d   1       1.644   2.281  -0.246  0.00  0.00    -0.002 A 
ATOM      8  C6  OXE d   1       1.467   0.971  -0.678  0.00  0.00     0.003 A 
ENDROOT
TORSDOF 0
ENDMDL
