MODEL 1
REMARK minimizedAffinity -2.59588766
REMARK minimizedRMSD -1
REMARK  0 active torsions:
REMARK  status: ('A' for Active; 'I' for Inactive)
ROOT
ATOM      1  C2' OXE d   1      -0.645  -0.026  -0.794  0.00  0.00     0.078 C 
ATOM      2  C1' OXE d   1      -0.947  -0.762   1.898  0.00  0.00     0.078 C 
ATOM      3  C1  OXE d   1      -0.196   0.511   1.597  0.00  0.00    -0.078 A 
ATOM      4  C2  OXE d   1      -0.013   0.840   0.275  0.00  0.00    -0.078 A 
ATOM      5  C3  OXE d   1       0.624   2.032  -0.057  0.00  0.00     0.003 A 
ATOM      6  C4  OXE d   1       1.214   2.821   0.938  0.00  0.00    -0.002 A 
ATOM      7  C5  OXE d   1       1.074   2.484   2.288  0.00  0.00    -0.002 A 
ATOM      8  C6  OXE d   1       0.336   1.358   2.636  0.00  0.00     0.003 A 
ENDROOT
TORSDOF 0
ENDMDL
