MODEL 1
REMARK minimizedAffinity -5.48107958
REMARK minimizedRMSD -1
REMARK  0 active torsions:
REMARK  status: ('A' for Active; 'I' for Inactive)
ROOT
ATOM      1  C2' OXE d   1       0.079  -0.843  -0.126  0.00  0.00     0.078 C 
ATOM      2  C1' OXE d   1       2.712   0.020  -0.578  0.00  0.00     0.078 C 
ATOM      3  C1  OXE d   1       1.835   0.870   0.308  0.00  0.00    -0.078 A 
ATOM      4  C2  OXE d   1       0.534   0.464   0.486  0.00  0.00    -0.078 A 
ATOM      5  C3  OXE d   1      -0.302   1.182   1.337  0.00  0.00     0.003 A 
ATOM      6  C4  OXE d   1       0.124   2.395   1.890  0.00  0.00    -0.002 A 
ATOM      7  C5  OXE d   1       1.432   2.848   1.689  0.00  0.00    -0.002 A 
ATOM      8  C6  OXE d   1       2.312   2.077   0.937  0.00  0.00     0.003 A 
ENDROOT
TORSDOF 0
ENDMDL
