MODEL 1
REMARK minimizedAffinity -5.42696047
REMARK minimizedRMSD -1
REMARK  0 active torsions:
REMARK  status: ('A' for Active; 'I' for Inactive)
ROOT
ATOM      1  C2' OXE d   1       1.196   2.706   1.322  0.00  0.00     0.078 C 
ATOM      2  C1' OXE d   1       2.445   0.904  -0.432  0.00  0.00     0.078 C 
ATOM      3  C1  OXE d   1       1.087   0.533   0.108  0.00  0.00    -0.078 A 
ATOM      4  C2  OXE d   1       0.504   1.398   1.002  0.00  0.00    -0.078 A 
ATOM      5  C3  OXE d   1      -0.772   1.130   1.489  0.00  0.00     0.003 A 
ATOM      6  C4  OXE d   1      -1.402  -0.086   1.197  0.00  0.00    -0.002 A 
ATOM      7  C5  OXE d   1      -0.808  -1.000   0.320  0.00  0.00    -0.002 A 
ATOM      8  C6  OXE d   1       0.414  -0.687  -0.265  0.00  0.00     0.003 A 
ENDROOT
TORSDOF 0
ENDMDL
