MODEL 1
REMARK minimizedAffinity -3.46469498
REMARK minimizedRMSD -1
REMARK  0 active torsions:
REMARK  status: ('A' for Active; 'I' for Inactive)
ROOT
ATOM      1  C2' OXE d   1       1.203  -1.770   0.548  0.00  0.00     0.078 C 
ATOM      2  C1' OXE d   1      -1.099  -1.081  -0.905  0.00  0.00     0.078 C 
ATOM      3  C1  OXE d   1      -0.098   0.009  -0.613  0.00  0.00    -0.078 A 
ATOM      4  C2  OXE d   1       1.002  -0.327   0.139  0.00  0.00    -0.078 A 
ATOM      5  C3  OXE d   1       1.983   0.628   0.390  0.00  0.00     0.003 A 
ATOM      6  C4  OXE d   1       1.785   1.963   0.016  0.00  0.00    -0.002 A 
ATOM      7  C5  OXE d   1       0.652   2.335  -0.716  0.00  0.00    -0.002 A 
ATOM      8  C6  OXE d   1      -0.276   1.364  -1.075  0.00  0.00     0.003 A 
ENDROOT
TORSDOF 0
ENDMDL
