MODEL 1
REMARK minimizedAffinity -4.94508505
REMARK minimizedRMSD -1
REMARK  0 active torsions:
REMARK  status: ('A' for Active; 'I' for Inactive)
ROOT
ATOM      1  C2' OXE d   1       1.676   1.171   4.420  0.00  0.00     0.078 C 
ATOM      2  C1' OXE d   1       3.970   0.481   2.957  0.00  0.00     0.078 C 
ATOM      3  C1  OXE d   1       2.874   1.224   2.236  0.00  0.00    -0.078 A 
ATOM      4  C2  OXE d   1       1.735   1.517   2.947  0.00  0.00    -0.078 A 
ATOM      5  C3  OXE d   1       0.716   2.250   2.346  0.00  0.00     0.003 A 
ATOM      6  C4  OXE d   1       0.774   2.557   0.981  0.00  0.00    -0.002 A 
ATOM      7  C5  OXE d   1       1.908   2.233   0.228  0.00  0.00    -0.002 A 
ATOM      8  C6  OXE d   1       2.982   1.606   0.850  0.00  0.00     0.003 A 
ENDROOT
TORSDOF 0
ENDMDL
