MODEL 1
REMARK minimizedAffinity -5.44399977
REMARK minimizedRMSD -1
REMARK  0 active torsions:
REMARK  status: ('A' for Active; 'I' for Inactive)
ROOT
ATOM      1  C2' OXE d   1      -1.154   1.064   1.515  0.00  0.00     0.078 C 
ATOM      2  C1' OXE d   1       0.867   2.926   0.940  0.00  0.00     0.078 C 
ATOM      3  C1  OXE d   1       1.009   1.536   0.372  0.00  0.00    -0.078 A 
ATOM      4  C2  OXE d   1       0.039   0.619   0.697  0.00  0.00    -0.078 A 
ATOM      5  C3  OXE d   1       0.093  -0.662   0.154  0.00  0.00     0.003 A 
ATOM      6  C4  OXE d   1       1.204  -1.070  -0.593  0.00  0.00    -0.002 A 
ATOM      7  C5  OXE d   1       2.223  -0.162  -0.902  0.00  0.00    -0.002 A 
ATOM      8  C6  OXE d   1       2.120   1.154  -0.464  0.00  0.00     0.003 A 
ENDROOT
TORSDOF 0
ENDMDL
