MODEL 1
REMARK minimizedAffinity -1.33989036
REMARK minimizedRMSD -1
REMARK  0 active torsions:
REMARK  status: ('A' for Active; 'I' for Inactive)
ROOT
ATOM      1  C2' OXE d   1      -1.292   0.566   2.195  0.00  0.00     0.078 C 
ATOM      2  C1' OXE d   1      -0.222  -1.367   0.463  0.00  0.00     0.078 C 
ATOM      3  C1  OXE d   1       0.431  -0.008   0.490  0.00  0.00    -0.078 A 
ATOM      4  C2  OXE d   1      -0.127   0.946   1.305  0.00  0.00    -0.078 A 
ATOM      5  C3  OXE d   1       0.469   2.200   1.408  0.00  0.00     0.003 A 
ATOM      6  C4  OXE d   1       1.539   2.546   0.575  0.00  0.00    -0.002 A 
ATOM      7  C5  OXE d   1       2.099   1.602  -0.292  0.00  0.00    -0.002 A 
ATOM      8  C6  OXE d   1       1.585   0.310  -0.316  0.00  0.00     0.003 A 
ENDROOT
TORSDOF 0
ENDMDL
