MODEL 1
REMARK minimizedAffinity -2.37201452
REMARK minimizedRMSD -1
REMARK  0 active torsions:
REMARK  status: ('A' for Active; 'I' for Inactive)
ROOT
ATOM      1  C2' OXE d   1       3.254   1.462  -1.321  0.00  0.00     0.078 C 
ATOM      2  C1' OXE d   1       1.101   2.742  -0.053  0.00  0.00     0.078 C 
ATOM      3  C1  OXE d   1       1.067   1.237  -0.150  0.00  0.00    -0.078 A 
ATOM      4  C2  OXE d   1       2.101   0.622  -0.813  0.00  0.00    -0.078 A 
ATOM      5  C3  OXE d   1       2.146  -0.767  -0.883  0.00  0.00     0.003 A 
ATOM      6  C4  OXE d   1       1.071  -1.535  -0.419  0.00  0.00    -0.002 A 
ATOM      7  C5  OXE d   1      -0.011  -0.926   0.224  0.00  0.00    -0.002 A 
ATOM      8  C6  OXE d   1      -0.009   0.452   0.405  0.00  0.00     0.003 A 
ENDROOT
TORSDOF 0
ENDMDL
