MODEL 1
REMARK minimizedAffinity -5.04618454
REMARK minimizedRMSD -1
REMARK  0 active torsions:
REMARK  status: ('A' for Active; 'I' for Inactive)
ROOT
ATOM      1  C2' OXE d   1       1.499   2.473   0.415  0.00  0.00     0.078 C 
ATOM      2  C1' OXE d   1       3.205   0.600  -0.793  0.00  0.00     0.078 C 
ATOM      3  C1  OXE d   1       1.833   0.134  -0.372  0.00  0.00    -0.078 A 
ATOM      4  C2  OXE d   1       1.023   1.045   0.261  0.00  0.00    -0.078 A 
ATOM      5  C3  OXE d   1      -0.272   0.682   0.621  0.00  0.00     0.003 A 
ATOM      6  C4  OXE d   1      -0.701  -0.643   0.483  0.00  0.00    -0.002 A 
ATOM      7  C5  OXE d   1       0.123  -1.597  -0.122  0.00  0.00    -0.002 A 
ATOM      8  C6  OXE d   1       1.375  -1.216  -0.593  0.00  0.00     0.003 A 
ENDROOT
TORSDOF 0
ENDMDL
