MODEL 1
REMARK minimizedAffinity -2.74797106
REMARK minimizedRMSD -1
REMARK  0 active torsions:
REMARK  status: ('A' for Active; 'I' for Inactive)
ROOT
ATOM      1  C2' OXE d   1      -0.282  -1.040  -0.402  0.00  0.00     0.078 C 
ATOM      2  C1' OXE d   1      -1.023  -0.526   2.257  0.00  0.00     0.078 C 
ATOM      3  C1  OXE d   1      -0.335   0.577   1.492  0.00  0.00    -0.078 A 
ATOM      4  C2  OXE d   1       0.066   0.301   0.207  0.00  0.00    -0.078 A 
ATOM      5  C3  OXE d   1       0.656   1.300  -0.561  0.00  0.00     0.003 A 
ATOM      6  C4  OXE d   1       0.984   2.535   0.013  0.00  0.00    -0.002 A 
ATOM      7  C5  OXE d   1       0.620   2.823   1.333  0.00  0.00    -0.002 A 
ATOM      8  C6  OXE d   1      -0.076   1.872   2.071  0.00  0.00     0.003 A 
ENDROOT
TORSDOF 0
ENDMDL
