MODEL 1
REMARK minimizedAffinity -2.24732661
REMARK minimizedRMSD -1
REMARK  0 active torsions:
REMARK  status: ('A' for Active; 'I' for Inactive)
ROOT
ATOM      1  C2' OXE d   1      -0.610  -1.204  -0.926  0.00  0.00     0.078 C 
ATOM      2  C1' OXE d   1       2.109  -0.507  -0.869  0.00  0.00     0.078 C 
ATOM      3  C1  OXE d   1       1.170   0.251   0.036  0.00  0.00    -0.078 A 
ATOM      4  C2  OXE d   1      -0.166  -0.065  -0.033  0.00  0.00    -0.078 A 
ATOM      5  C3  OXE d   1      -1.068   0.565   0.820  0.00  0.00     0.003 A 
ATOM      6  C4  OXE d   1      -0.651   1.624   1.636  0.00  0.00    -0.002 A 
ATOM      7  C5  OXE d   1       0.699   1.988   1.691  0.00  0.00    -0.002 A 
ATOM      8  C6  OXE d   1       1.626   1.285   0.931  0.00  0.00     0.003 A 
ENDROOT
TORSDOF 0
ENDMDL
