MODEL 1
REMARK minimizedAffinity -5.86414242
REMARK minimizedRMSD -1
REMARK  0 active torsions:
REMARK  status: ('A' for Active; 'I' for Inactive)
ROOT
ATOM      1  C2' OXE d   1      -1.369  -0.699   1.628  0.00  0.00     0.078 C 
ATOM      2  C1' OXE d   1       0.368  -1.326  -0.487  0.00  0.00     0.078 C 
ATOM      3  C1  OXE d   1       0.465   0.052   0.119  0.00  0.00    -0.078 A 
ATOM      4  C2  OXE d   1      -0.420   0.366   1.122  0.00  0.00    -0.078 A 
ATOM      5  C3  OXE d   1      -0.337   1.604   1.752  0.00  0.00     0.003 A 
ATOM      6  C4  OXE d   1       0.536   2.587   1.271  0.00  0.00    -0.002 A 
ATOM      7  C5  OXE d   1       1.419   2.302   0.225  0.00  0.00    -0.002 A 
ATOM      8  C6  OXE d   1       1.426   1.028  -0.333  0.00  0.00     0.003 A 
ENDROOT
TORSDOF 0
ENDMDL
