MODEL 1
REMARK minimizedAffinity -3.27659798
REMARK minimizedRMSD -1
REMARK  0 active torsions:
REMARK  status: ('A' for Active; 'I' for Inactive)
ROOT
ATOM      1  C2' OXE d   1       1.325  -2.086  -0.600  0.00  0.00     0.078 C 
ATOM      2  C1' OXE d   1      -1.235  -1.199  -1.332  0.00  0.00     0.078 C 
ATOM      3  C1  OXE d   1      -0.417  -0.314  -0.426  0.00  0.00    -0.078 A 
ATOM      4  C2  OXE d   1       0.816  -0.778  -0.035  0.00  0.00    -0.078 A 
ATOM      5  C3  OXE d   1       1.635   0.023   0.757  0.00  0.00     0.003 A 
ATOM      6  C4  OXE d   1       1.153   1.227   1.284  0.00  0.00    -0.002 A 
ATOM      7  C5  OXE d   1      -0.116   1.699   0.930  0.00  0.00    -0.002 A 
ATOM      8  C6  OXE d   1      -0.895   0.962   0.045  0.00  0.00     0.003 A 
ENDROOT
TORSDOF 0
ENDMDL
