MODEL 1
REMARK minimizedAffinity -4.73375654
REMARK minimizedRMSD -1
REMARK  0 active torsions:
REMARK  status: ('A' for Active; 'I' for Inactive)
ROOT
ATOM      1  C2' OXE d   1       2.827   1.625  -0.976  0.00  0.00     0.078 C 
ATOM      2  C1' OXE d   1       1.489   3.186   0.935  0.00  0.00     0.078 C 
ATOM      3  C1  OXE d   1       1.083   1.739   0.799  0.00  0.00    -0.078 A 
ATOM      4  C2  OXE d   1       1.711   0.995  -0.170  0.00  0.00    -0.078 A 
ATOM      5  C3  OXE d   1       1.414  -0.359  -0.300  0.00  0.00     0.003 A 
ATOM      6  C4  OXE d   1       0.374  -0.931   0.442  0.00  0.00    -0.002 A 
ATOM      7  C5  OXE d   1      -0.306  -0.180   1.407  0.00  0.00    -0.002 A 
ATOM      8  C6  OXE d   1       0.065   1.142   1.628  0.00  0.00     0.003 A 
ENDROOT
TORSDOF 0
ENDMDL
