MODEL 1
REMARK minimizedAffinity -2.75383377
REMARK minimizedRMSD -1
REMARK  0 active torsions:
REMARK  status: ('A' for Active; 'I' for Inactive)
ROOT
ATOM      1  C2' OXE d   1       0.964   2.257   0.856  0.00  0.00     0.078 C 
ATOM      2  C1' OXE d   1       2.586   0.633  -0.760  0.00  0.00     0.078 C 
ATOM      3  C1  OXE d   1       1.336   0.021  -0.178  0.00  0.00    -0.078 A 
ATOM      4  C2  OXE d   1       0.573   0.810   0.650  0.00  0.00    -0.078 A 
ATOM      5  C3  OXE d   1      -0.619   0.312   1.170  0.00  0.00     0.003 A 
ATOM      6  C4  OXE d   1      -0.968  -1.030   0.983  0.00  0.00    -0.002 A 
ATOM      7  C5  OXE d   1      -0.184  -1.862   0.176  0.00  0.00    -0.002 A 
ATOM      8  C6  OXE d   1       0.946  -1.341  -0.445  0.00  0.00     0.003 A 
ENDROOT
TORSDOF 0
ENDMDL
