MODEL 1
REMARK minimizedAffinity -5.33004427
REMARK minimizedRMSD -1
REMARK  0 active torsions:
REMARK  status: ('A' for Active; 'I' for Inactive)
ROOT
ATOM      1  C2' OXE d   1      -1.365  -0.659   1.510  0.00  0.00     0.078 C 
ATOM      2  C1' OXE d   1       0.422  -1.592  -0.443  0.00  0.00     0.078 C 
ATOM      3  C1  OXE d   1       0.553  -0.157   0.002  0.00  0.00    -0.078 A 
ATOM      4  C2  OXE d   1      -0.355   0.304   0.925  0.00  0.00    -0.078 A 
ATOM      5  C3  OXE d   1      -0.245   1.604   1.410  0.00  0.00     0.003 A 
ATOM      6  C4  OXE d   1       0.686   2.491   0.856  0.00  0.00    -0.002 A 
ATOM      7  C5  OXE d   1       1.595   2.053  -0.113  0.00  0.00    -0.002 A 
ATOM      8  C6  OXE d   1       1.569   0.723  -0.519  0.00  0.00     0.003 A 
ENDROOT
TORSDOF 0
ENDMDL
