MODEL 1
REMARK minimizedAffinity -2.68471074
REMARK minimizedRMSD -1
REMARK  0 active torsions:
REMARK  status: ('A' for Active; 'I' for Inactive)
ROOT
ATOM      1  O1  BZF d   1      -0.262   1.927   0.542  0.00  0.00    -0.204 OA
ATOM      2  C2  BZF d   1       0.100   1.220   1.673  0.00  0.00     0.174 A 
ATOM      3  C3  BZF d   1       0.767   0.095   1.341  0.00  0.00    -0.012 A 
ATOM      4  C3A BZF d   1       0.905   0.146  -0.082  0.00  0.00    -0.107 A 
ATOM      5  C4  BZF d   1       1.491  -0.680  -0.999  0.00  0.00     0.055 A 
ATOM      6  C5  BZF d   1       1.387  -0.380  -2.320  0.00  0.00    -0.016 A 
ATOM      7  C6  BZF d   1       0.701   0.734  -2.760  0.00  0.00     0.022 A 
ATOM      8  C7  BZF d   1       0.108   1.585  -1.888  0.00  0.00     0.029 A 
ATOM      9  C7A BZF d   1       0.240   1.303  -0.550  0.00  0.00     0.058 A 
ENDROOT
TORSDOF 0
ENDMDL
