MODEL 1
REMARK minimizedAffinity -2.98243237
REMARK minimizedRMSD -1
REMARK  0 active torsions:
REMARK  status: ('A' for Active; 'I' for Inactive)
ROOT
ATOM      1  O1  BZF d   1       0.636  -1.202   0.394  0.00  0.00    -0.204 OA
ATOM      2  C2  BZF d   1       0.498  -1.520  -0.944  0.00  0.00     0.174 A 
ATOM      3  C3  BZF d   1      -0.232  -0.584  -1.585  0.00  0.00    -0.012 A 
ATOM      4  C3A BZF d   1      -0.494   0.425  -0.606  0.00  0.00    -0.107 A 
ATOM      5  C4  BZF d   1      -1.160   1.617  -0.641  0.00  0.00     0.055 A 
ATOM      6  C5  BZF d   1      -1.297   2.331   0.507  0.00  0.00    -0.016 A 
ATOM      7  C6  BZF d   1      -0.785   1.882   1.707  0.00  0.00     0.022 A 
ATOM      8  C7  BZF d   1      -0.112   0.709   1.790  0.00  0.00     0.029 A 
ATOM      9  C7A BZF d   1       0.056   0.001   0.626  0.00  0.00     0.058 A 
ENDROOT
TORSDOF 0
ENDMDL
