MODEL 1
REMARK minimizedAffinity -5.35305405
REMARK minimizedRMSD -1
REMARK  0 active torsions:
REMARK  status: ('A' for Active; 'I' for Inactive)
ROOT
ATOM      1  O1  BZF d   1      -0.498   1.522   2.608  0.00  0.00    -0.204 OA
ATOM      2  C2  BZF d   1      -1.182   2.511   1.928  0.00  0.00     0.174 A 
ATOM      3  C3  BZF d   1      -1.251   2.226   0.611  0.00  0.00    -0.012 A 
ATOM      4  C3A BZF d   1      -0.647   0.936   0.474  0.00  0.00    -0.107 A 
ATOM      5  C4  BZF d   1      -0.430   0.110  -0.592  0.00  0.00     0.055 A 
ATOM      6  C5  BZF d   1       0.252  -1.050  -0.400  0.00  0.00    -0.016 A 
ATOM      7  C6  BZF d   1       0.735  -1.412   0.840  0.00  0.00     0.022 A 
ATOM      8  C7  BZF d   1       0.540  -0.627   1.928  0.00  0.00     0.029 A 
ATOM      9  C7A BZF d   1      -0.177   0.529   1.744  0.00  0.00     0.058 A 
ENDROOT
TORSDOF 0
ENDMDL
