MODEL 1
REMARK minimizedAffinity -3.84755278
REMARK minimizedRMSD -1
REMARK  0 active torsions:
REMARK  status: ('A' for Active; 'I' for Inactive)
ROOT
ATOM      1  O1  BZF d   1       1.253  -0.609  -0.109  0.00  0.00    -0.204 OA
ATOM      2  C2  BZF d   1       0.953  -0.476  -1.451  0.00  0.00     0.174 A 
ATOM      3  C3  BZF d   1      -0.035   0.423  -1.634  0.00  0.00    -0.012 A 
ATOM      4  C3A BZF d   1      -0.311   0.949  -0.332  0.00  0.00    -0.107 A 
ATOM      5  C4  BZF d   1      -1.183   1.891   0.134  0.00  0.00     0.055 A 
ATOM      6  C5  BZF d   1      -1.254   2.121   1.472  0.00  0.00    -0.016 A 
ATOM      7  C6  BZF d   1      -0.473   1.423   2.370  0.00  0.00     0.022 A 
ATOM      8  C7  BZF d   1       0.410   0.483   1.955  0.00  0.00     0.029 A 
ATOM      9  C7A BZF d   1       0.508   0.273   0.601  0.00  0.00     0.058 A 
ENDROOT
TORSDOF 0
ENDMDL
