MODEL 1
REMARK minimizedAffinity -0.318656683
REMARK minimizedRMSD -1
REMARK  0 active torsions:
REMARK  status: ('A' for Active; 'I' for Inactive)
ROOT
ATOM      1  O1  BZF d   1      -2.200   2.001   1.277  0.00  0.00    -0.204 OA
ATOM      2  C2  BZF d   1      -1.562   2.432   2.425  0.00  0.00     0.174 A 
ATOM      3  C3  BZF d   1      -0.340   1.872   2.531  0.00  0.00    -0.012 A 
ATOM      4  C3A BZF d   1      -0.169   1.111   1.332  0.00  0.00    -0.107 A 
ATOM      5  C4  BZF d   1       0.849   0.340   0.846  0.00  0.00     0.055 A 
ATOM      6  C5  BZF d   1       0.671  -0.327  -0.324  0.00  0.00    -0.016 A 
ATOM      7  C6  BZF d   1      -0.511  -0.251  -1.031  0.00  0.00     0.022 A 
ATOM      8  C7  BZF d   1      -1.547   0.505  -0.592  0.00  0.00     0.029 A 
ATOM      9  C7A BZF d   1      -1.359   1.207   0.574  0.00  0.00     0.058 A 
ENDROOT
TORSDOF 0
ENDMDL
