MODEL 1
REMARK minimizedAffinity -0.855291605
REMARK minimizedRMSD -1
REMARK  0 active torsions:
REMARK  status: ('A' for Active; 'I' for Inactive)
ROOT
ATOM      1  O1  BZF d   1       0.498   0.635   2.088  0.00  0.00    -0.204 OA
ATOM      2  C2  BZF d   1       0.169   1.926   2.454  0.00  0.00     0.174 A 
ATOM      3  C3  BZF d   1      -0.104   2.676   1.367  0.00  0.00    -0.012 A 
ATOM      4  C3A BZF d   1      -0.026   1.775   0.259  0.00  0.00    -0.107 A 
ATOM      5  C4  BZF d   1      -0.213   1.923  -1.086  0.00  0.00     0.055 A 
ATOM      6  C5  BZF d   1       0.011   0.861  -1.904  0.00  0.00    -0.016 A 
ATOM      7  C6  BZF d   1       0.427  -0.359  -1.413  0.00  0.00     0.022 A 
ATOM      8  C7  BZF d   1       0.621  -0.555  -0.086  0.00  0.00     0.029 A 
ATOM      9  C7A BZF d   1       0.363   0.506   0.746  0.00  0.00     0.058 A 
ENDROOT
TORSDOF 0
ENDMDL
