MODEL 1
REMARK minimizedAffinity -4.46606064
REMARK minimizedRMSD -1
REMARK  0 active torsions:
REMARK  status: ('A' for Active; 'I' for Inactive)
ROOT
ATOM      1  O1  BZF d   1      -0.002   0.980   2.163  0.00  0.00    -0.204 OA
ATOM      2  C2  BZF d   1      -0.449   2.245   2.489  0.00  0.00     0.174 A 
ATOM      3  C3  BZF d   1      -0.611   2.996   1.381  0.00  0.00    -0.012 A 
ATOM      4  C3A BZF d   1      -0.331   2.118   0.287  0.00  0.00    -0.107 A 
ATOM      5  C4  BZF d   1      -0.338   2.276  -1.070  0.00  0.00     0.055 A 
ATOM      6  C5  BZF d   1       0.056   1.241  -1.857  0.00  0.00    -0.016 A 
ATOM      7  C6  BZF d   1       0.467   0.037  -1.323  0.00  0.00     0.022 A 
ATOM      8  C7  BZF d   1       0.486  -0.169   0.017  0.00  0.00     0.029 A 
ATOM      9  C7A BZF d   1       0.057   0.865   0.814  0.00  0.00     0.058 A 
ENDROOT
TORSDOF 0
ENDMDL
