MODEL 1
REMARK minimizedAffinity 2.64880395
REMARK minimizedRMSD -1
REMARK  0 active torsions:
REMARK  status: ('A' for Active; 'I' for Inactive)
ROOT
ATOM      1  C   UNL d   1      -4.314  -1.068   1.715  0.00  0.00     0.020 A 
ATOM      2  C1  UNL d   1      -4.324  -0.037   0.776  0.00  0.00     0.020 A 
ATOM      3  C2  UNL d   1      -3.479  -0.097  -0.335  0.00  0.00     0.034 A 
ATOM      4  C3  UNL d   1      -2.621  -1.189  -0.508  0.00  0.00     0.017 A 
ATOM      5  C4  UNL d   1      -2.612  -2.223   0.435  0.00  0.00     0.017 A 
ATOM      6  C5  UNL d   1      -3.460  -2.158   1.545  0.00  0.00     0.034 A 
ATOM      7 Cl   UNL d   1      -1.582  -3.603   0.289  0.00  0.00    -0.070 Cl
ATOM      8 Cl1  UNL d   1      -1.604  -1.198  -1.905  0.00  0.00    -0.070 Cl
ENDROOT
TORSDOF 0
ENDMDL
