MODEL 1
REMARK minimizedAffinity 8.74407578
REMARK minimizedRMSD -1
REMARK  0 active torsions:
REMARK  status: ('A' for Active; 'I' for Inactive)
ROOT
ATOM      1  C   UNL d   1      -2.505  -1.447   2.948  0.00  0.00     0.020 A 
ATOM      2  C1  UNL d   1      -2.535  -0.380   2.051  0.00  0.00     0.020 A 
ATOM      3  C2  UNL d   1      -2.247  -0.593   0.702  0.00  0.00     0.034 A 
ATOM      4  C3  UNL d   1      -1.927  -1.876   0.244  0.00  0.00     0.017 A 
ATOM      5  C4  UNL d   1      -1.897  -2.947   1.145  0.00  0.00     0.017 A 
ATOM      6  C5  UNL d   1      -2.187  -2.728   2.495  0.00  0.00     0.034 A 
ATOM      7 Cl   UNL d   1      -1.512  -4.560   0.655  0.00  0.00    -0.070 Cl
ATOM      8 Cl1  UNL d   1      -1.582  -2.067  -1.438  0.00  0.00    -0.070 Cl
ENDROOT
TORSDOF 0
ENDMDL
