MODEL 1
REMARK minimizedAffinity 7.648458
REMARK minimizedRMSD -1
REMARK  0 active torsions:
REMARK  status: ('A' for Active; 'I' for Inactive)
ROOT
ATOM      1  C   UNL d   1       1.411   2.578   3.830  0.00  0.00     0.020 A 
ATOM      2  C1  UNL d   1       2.653   2.001   4.089  0.00  0.00     0.020 A 
ATOM      3  C2  UNL d   1       2.729   0.778   4.760  0.00  0.00     0.034 A 
ATOM      4  C3  UNL d   1       1.560   0.129   5.174  0.00  0.00     0.017 A 
ATOM      5  C4  UNL d   1       0.314   0.709   4.914  0.00  0.00     0.017 A 
ATOM      6  C5  UNL d   1       0.243   1.933   4.242  0.00  0.00     0.034 A 
ATOM      7 Cl   UNL d   1      -1.172  -0.032   5.395  0.00  0.00    -0.070 Cl
ATOM      8 Cl1  UNL d   1       1.729  -1.380   5.999  0.00  0.00    -0.070 Cl
ENDROOT
TORSDOF 0
ENDMDL
