MODEL 1
REMARK minimizedAffinity 9.6737318
REMARK minimizedRMSD -1
REMARK  0 active torsions:
REMARK  status: ('A' for Active; 'I' for Inactive)
ROOT
ATOM      1  C   UNL d   1      -5.641  -0.984  -0.479  0.00  0.00     0.020 A 
ATOM      2  C1  UNL d   1      -5.665   0.009   0.500  0.00  0.00     0.020 A 
ATOM      3  C2  UNL d   1      -4.753  -0.031   1.557  0.00  0.00     0.034 A 
ATOM      4  C3  UNL d   1      -3.814  -1.065   1.639  0.00  0.00     0.017 A 
ATOM      5  C4  UNL d   1      -3.791  -2.062   0.656  0.00  0.00     0.017 A 
ATOM      6  C5  UNL d   1      -4.706  -2.017  -0.401  0.00  0.00     0.034 A 
ATOM      7 Cl   UNL d   1      -2.662  -3.370   0.689  0.00  0.00    -0.070 Cl
ATOM      8 Cl1  UNL d   1      -2.717  -1.052   2.973  0.00  0.00    -0.070 Cl
ENDROOT
TORSDOF 0
ENDMDL
