MODEL 1
REMARK minimizedAffinity 9.06492233
REMARK minimizedRMSD -1
REMARK  0 active torsions:
REMARK  status: ('A' for Active; 'I' for Inactive)
ROOT
ATOM      1  C   UNL d   1      -5.145  -1.887   1.040  0.00  0.00     0.020 A 
ATOM      2  C1  UNL d   1      -4.984  -0.908   0.061  0.00  0.00     0.020 A 
ATOM      3  C2  UNL d   1      -3.945   0.020   0.165  0.00  0.00     0.034 A 
ATOM      4  C3  UNL d   1      -3.063  -0.031   1.251  0.00  0.00     0.017 A 
ATOM      5  C4  UNL d   1      -3.225  -1.015   2.233  0.00  0.00     0.017 A 
ATOM      6  C5  UNL d   1      -4.267  -1.941   2.123  0.00  0.00     0.034 A 
ATOM      7 Cl   UNL d   1      -2.176  -1.141   3.601  0.00  0.00    -0.070 Cl
ATOM      8 Cl1  UNL d   1      -1.800   1.147   1.315  0.00  0.00    -0.070 Cl
ENDROOT
TORSDOF 0
ENDMDL
