MODEL 1
REMARK minimizedAffinity -0.514881194
REMARK minimizedRMSD -1
REMARK  0 active torsions:
REMARK  status: ('A' for Active; 'I' for Inactive)
ROOT
ATOM      1  C   UNL d   1      -4.441  -0.628   2.669  0.00  0.00     0.020 A 
ATOM      2  C1  UNL d   1      -3.052  -0.524   2.721  0.00  0.00     0.020 A 
ATOM      3  C2  UNL d   1      -2.296  -0.683   1.557  0.00  0.00     0.034 A 
ATOM      4  C3  UNL d   1      -2.929  -0.947   0.337  0.00  0.00     0.017 A 
ATOM      5  C4  UNL d   1      -4.324  -1.051   0.287  0.00  0.00     0.017 A 
ATOM      6  C5  UNL d   1      -5.076  -0.891   1.455  0.00  0.00     0.034 A 
ATOM      7 Cl   UNL d   1      -5.176  -1.375  -1.182  0.00  0.00    -0.070 Cl
ATOM      8 Cl1  UNL d   1      -1.932  -1.131  -1.062  0.00  0.00    -0.070 Cl
ENDROOT
TORSDOF 0
ENDMDL
