MODEL 1
REMARK minimizedAffinity 12.1369543
REMARK minimizedRMSD -1
REMARK  0 active torsions:
REMARK  status: ('A' for Active; 'I' for Inactive)
ROOT
ATOM      1  C   UNL d   1      -0.595  -5.987   0.226  0.00  0.00     0.020 A 
ATOM      2  C1  UNL d   1      -0.146  -6.000  -1.093  0.00  0.00     0.020 A 
ATOM      3  C2  UNL d   1      -0.369  -4.894  -1.917  0.00  0.00     0.034 A 
ATOM      4  C3  UNL d   1      -1.043  -3.772  -1.422  0.00  0.00     0.017 A 
ATOM      5  C4  UNL d   1      -1.493  -3.760  -0.097  0.00  0.00     0.017 A 
ATOM      6  C5  UNL d   1      -1.268  -4.870   0.724  0.00  0.00     0.034 A 
ATOM      7 Cl   UNL d   1      -2.332  -2.412   0.585  0.00  0.00    -0.070 Cl
ATOM      8 Cl1  UNL d   1      -1.283  -2.440  -2.496  0.00  0.00    -0.070 Cl
ENDROOT
TORSDOF 0
ENDMDL
