MODEL 1
REMARK minimizedAffinity 6.38579082
REMARK minimizedRMSD -1
REMARK  0 active torsions:
REMARK  status: ('A' for Active; 'I' for Inactive)
ROOT
ATOM      1  C   UNL d   1      -3.031  -0.943   1.969  0.00  0.00     0.020 A 
ATOM      2  C1  UNL d   1      -2.390   0.066   1.251  0.00  0.00     0.020 A 
ATOM      3  C2  UNL d   1      -1.391   0.829   1.858  0.00  0.00     0.034 A 
ATOM      4  C3  UNL d   1      -1.029   0.585   3.188  0.00  0.00     0.017 A 
ATOM      5  C4  UNL d   1      -1.673  -0.428   3.908  0.00  0.00     0.017 A 
ATOM      6  C5  UNL d   1      -2.673  -1.189   3.295  0.00  0.00     0.034 A 
ATOM      7 Cl   UNL d   1      -1.281  -0.788   5.553  0.00  0.00    -0.070 Cl
ATOM      8 Cl1  UNL d   1       0.215   1.567   3.876  0.00  0.00    -0.070 Cl
ENDROOT
TORSDOF 0
ENDMDL
