MODEL 1
REMARK minimizedAffinity -1.77489007
REMARK minimizedRMSD -1
REMARK  0 active torsions:
REMARK  status: ('A' for Active; 'I' for Inactive)
ROOT
ATOM      1  C   UNL d   1       0.480  -2.045   6.000  0.00  0.00     0.020 A 
ATOM      2  C1  UNL d   1      -0.907  -1.905   5.999  0.00  0.00     0.020 A 
ATOM      3  C2  UNL d   1      -1.722  -3.039   5.984  0.00  0.00     0.034 A 
ATOM      4  C3  UNL d   1      -1.151  -4.317   5.971  0.00  0.00     0.017 A 
ATOM      5  C4  UNL d   1       0.242  -4.455   5.972  0.00  0.00     0.017 A 
ATOM      6  C5  UNL d   1       1.053  -3.317   5.987  0.00  0.00     0.034 A 
ATOM      7 Cl   UNL d   1       1.020  -5.999   5.956  0.00  0.00    -0.070 Cl
ATOM      8 Cl1  UNL d   1      -2.220  -5.674   5.954  0.00  0.00    -0.070 Cl
ENDROOT
TORSDOF 0
ENDMDL
