MODEL 1
REMARK minimizedAffinity 6.64239979
REMARK minimizedRMSD -1
REMARK  0 active torsions:
REMARK  status: ('A' for Active; 'I' for Inactive)
ROOT
ATOM      1  C   UNL d   1      -3.283  -0.261   1.491  0.00  0.00     0.020 A 
ATOM      2  C1  UNL d   1      -3.765  -1.193   2.410  0.00  0.00     0.020 A 
ATOM      3  C2  UNL d   1      -3.177  -1.298   3.671  0.00  0.00     0.034 A 
ATOM      4  C3  UNL d   1      -2.102  -0.471   4.018  0.00  0.00     0.017 A 
ATOM      5  C4  UNL d   1      -1.619   0.464   3.095  0.00  0.00     0.017 A 
ATOM      6  C5  UNL d   1      -2.213   0.565   1.833  0.00  0.00     0.034 A 
ATOM      7 Cl   UNL d   1      -0.297   1.520   3.451  0.00  0.00    -0.070 Cl
ATOM      8 Cl1  UNL d   1      -1.423  -0.655   5.596  0.00  0.00    -0.070 Cl
ENDROOT
TORSDOF 0
ENDMDL
