MODEL 1
REMARK minimizedAffinity 8.79797363
REMARK minimizedRMSD -1
REMARK  0 active torsions:
REMARK  status: ('A' for Active; 'I' for Inactive)
ROOT
ATOM      1  C   UNL d   1       3.663   0.775  -1.418  0.00  0.00     0.020 A 
ATOM      2  C1  UNL d   1       3.740   1.147  -0.076  0.00  0.00     0.020 A 
ATOM      3  C2  UNL d   1       3.120   0.367   0.902  0.00  0.00     0.034 A 
ATOM      4  C3  UNL d   1       2.421  -0.791   0.540  0.00  0.00     0.017 A 
ATOM      5  C4  UNL d   1       2.344  -1.164  -0.806  0.00  0.00     0.017 A 
ATOM      6  C5  UNL d   1       2.966  -0.378  -1.782  0.00  0.00     0.034 A 
ATOM      7 Cl   UNL d   1       1.499  -2.578  -1.330  0.00  0.00    -0.070 Cl
ATOM      8 Cl1  UNL d   1       1.680  -1.709   1.802  0.00  0.00    -0.070 Cl
ENDROOT
TORSDOF 0
ENDMDL
