MODEL 1
REMARK minimizedAffinity -3.53385115
REMARK minimizedRMSD -1
REMARK  0 active torsions:
REMARK  status: ('A' for Active; 'I' for Inactive)
ROOT
ATOM      1  C4' PXY d   1      -2.255   2.999   2.131  0.00  0.00     0.077 C 
ATOM      2  C1' PXY d   1       0.751  -1.000  -0.765  0.00  0.00     0.077 C 
ATOM      3  C1  PXY d   1      -0.028   0.057  -0.008  0.00  0.00    -0.082 A 
ATOM      4  C2  PXY d   1      -0.931  -0.311   0.887  0.00  0.00     0.003 A 
ATOM      5  C3  PXY d   1      -1.667   0.632   1.558  0.00  0.00     0.003 A 
ATOM      6  C4  PXY d   1      -1.439   1.966   1.349  0.00  0.00    -0.082 A 
ATOM      7  C5  PXY d   1      -0.512   2.349   0.446  0.00  0.00     0.003 A 
ATOM      8  C6  PXY d   1       0.195   1.377  -0.255  0.00  0.00     0.003 A 
ENDROOT
TORSDOF 0
ENDMDL
