MODEL 1
REMARK minimizedAffinity -3.60819459
REMARK minimizedRMSD -1
REMARK  0 active torsions:
REMARK  status: ('A' for Active; 'I' for Inactive)
ROOT
ATOM      1  C4' PXY d   1       1.963  -2.050  -0.991  0.00  0.00     0.077 C 
ATOM      2  C1' PXY d   1      -1.354   1.815   1.742  0.00  0.00     0.077 C 
ATOM      3  C1  PXY d   1      -0.488   0.807   1.014  0.00  0.00    -0.082 A 
ATOM      4  C2  PXY d   1      -0.175  -0.335   1.605  0.00  0.00     0.003 A 
ATOM      5  C3  PXY d   1       0.634  -1.244   0.974  0.00  0.00     0.003 A 
ATOM      6  C4  PXY d   1       1.084  -1.007  -0.297  0.00  0.00    -0.082 A 
ATOM      7  C5  PXY d   1       0.760   0.151  -0.912  0.00  0.00     0.003 A 
ATOM      8  C6  PXY d   1      -0.028   1.079  -0.238  0.00  0.00     0.003 A 
ENDROOT
TORSDOF 0
ENDMDL
