MODEL 1
REMARK minimizedAffinity 0.448192298
REMARK minimizedRMSD -1
REMARK  0 active torsions:
REMARK  status: ('A' for Active; 'I' for Inactive)
ROOT
ATOM      1  C4' PXY d   1      -1.662   1.593   2.450  0.00  0.00     0.077 C 
ATOM      2  C1' PXY d   1       1.074  -1.735  -1.403  0.00  0.00     0.077 C 
ATOM      3  C1  PXY d   1       0.365  -0.852  -0.395  0.00  0.00    -0.082 A 
ATOM      4  C2  PXY d   1      -0.377  -1.406   0.551  0.00  0.00     0.003 A 
ATOM      5  C3  PXY d   1      -1.051  -0.622   1.451  0.00  0.00     0.003 A 
ATOM      6  C4  PXY d   1      -0.921   0.741   1.417  0.00  0.00    -0.082 A 
ATOM      7  C5  PXY d   1      -0.157   1.313   0.462  0.00  0.00     0.003 A 
ATOM      8  C6  PXY d   1       0.486   0.501  -0.468  0.00  0.00     0.003 A 
ENDROOT
TORSDOF 0
ENDMDL
