MODEL 1
REMARK minimizedAffinity -3.25990224
REMARK minimizedRMSD -1
REMARK  0 active torsions:
REMARK  status: ('A' for Active; 'I' for Inactive)
ROOT
ATOM      1  C4' PXY d   1       1.159  -1.648  -0.673  0.00  0.00     0.077 C 
ATOM      2  C1' PXY d   1      -1.441   3.014   1.546  0.00  0.00     0.077 C 
ATOM      3  C1  PXY d   1      -0.759   1.786   0.976  0.00  0.00    -0.082 A 
ATOM      4  C2  PXY d   1      -0.106   1.874  -0.171  0.00  0.00     0.003 A 
ATOM      5  C3  PXY d   1       0.490   0.766  -0.717  0.00  0.00     0.003 A 
ATOM      6  C4  PXY d   1       0.463  -0.432  -0.055  0.00  0.00    -0.082 A 
ATOM      7  C5  PXY d   1      -0.192  -0.528   1.122  0.00  0.00     0.003 A 
ATOM      8  C6  PXY d   1      -0.826   0.599   1.638  0.00  0.00     0.003 A 
ENDROOT
TORSDOF 0
ENDMDL
