MODEL 1
REMARK minimizedAffinity -4.64733219
REMARK minimizedRMSD -1
REMARK  0 active torsions:
REMARK  status: ('A' for Active; 'I' for Inactive)
ROOT
ATOM      1  C4' PXY d   1       1.355  -1.853  -1.028  0.00  0.00     0.077 C 
ATOM      2  C1' PXY d   1      -2.060   2.096   1.453  0.00  0.00     0.077 C 
ATOM      3  C1  PXY d   1      -1.166   1.067   0.791  0.00  0.00    -0.082 A 
ATOM      4  C2  PXY d   1      -1.045  -0.137   1.328  0.00  0.00     0.003 A 
ATOM      5  C3  PXY d   1      -0.216  -1.069   0.760  0.00  0.00     0.003 A 
ATOM      6  C4  PXY d   1       0.456  -0.785  -0.399  0.00  0.00    -0.082 A 
ATOM      7  C5  PXY d   1       0.330   0.437  -0.959  0.00  0.00     0.003 A 
ATOM      8  C6  PXY d   1      -0.485   1.383  -0.344  0.00  0.00     0.003 A 
ENDROOT
TORSDOF 0
ENDMDL
