MODEL 1
REMARK minimizedAffinity -2.73351955
REMARK minimizedRMSD -1
REMARK  0 active torsions:
REMARK  status: ('A' for Active; 'I' for Inactive)
ROOT
ATOM      1  C4' PXY d   1       1.739  -2.546  -0.653  0.00  0.00     0.077 C 
ATOM      2  C1' PXY d   1      -1.003   1.718   2.124  0.00  0.00     0.077 C 
ATOM      3  C1  PXY d   1      -0.288   0.605   1.384  0.00  0.00    -0.082 A 
ATOM      4  C2  PXY d   1      -0.067  -0.549   1.993  0.00  0.00     0.003 A 
ATOM      5  C3  PXY d   1       0.606  -1.555   1.350  0.00  0.00     0.003 A 
ATOM      6  C4  PXY d   1       1.012  -1.398   0.052  0.00  0.00    -0.082 A 
ATOM      7  C5  PXY d   1       0.781  -0.227  -0.580  0.00  0.00     0.003 A 
ATOM      8  C6  PXY d   1       0.132   0.796   0.104  0.00  0.00     0.003 A 
ENDROOT
TORSDOF 0
ENDMDL
