MODEL 1
REMARK minimizedAffinity -0.506533682
REMARK minimizedRMSD -1
REMARK  0 active torsions:
REMARK  status: ('A' for Active; 'I' for Inactive)
ROOT
ATOM      1  C4' PXY d   1       4.057  -5.992   0.481  0.00  0.00     0.077 C 
ATOM      2  C1' PXY d   1       0.103  -3.367  -2.819  0.00  0.00     0.077 C 
ATOM      3  C1  PXY d   1       1.131  -4.064  -1.950  0.00  0.00    -0.082 A 
ATOM      4  C2  PXY d   1       2.211  -3.406  -1.558  0.00  0.00     0.003 A 
ATOM      5  C3  PXY d   1       3.166  -4.031  -0.798  0.00  0.00     0.003 A 
ATOM      6  C4  PXY d   1       2.989  -5.326  -0.390  0.00  0.00    -0.082 A 
ATOM      7  C5  PXY d   1       1.885  -6.000  -0.776  0.00  0.00     0.003 A 
ATOM      8  C6  PXY d   1       0.947  -5.361  -1.582  0.00  0.00     0.003 A 
ENDROOT
TORSDOF 0
ENDMDL
