MODEL 1
REMARK minimizedAffinity -5.072402
REMARK minimizedRMSD -1
REMARK  0 active torsions:
REMARK  status: ('A' for Active; 'I' for Inactive)
ROOT
ATOM      1  C4' PXY d   1      -2.416   2.482   1.690  0.00  0.00     0.077 C 
ATOM      2  C1' PXY d   1       1.489  -0.848  -0.970  0.00  0.00     0.077 C 
ATOM      3  C1  PXY d   1       0.461   0.015  -0.265  0.00  0.00    -0.082 A 
ATOM      4  C2  PXY d   1      -0.018   1.089  -0.872  0.00  0.00     0.003 A 
ATOM      5  C3  PXY d   1      -0.925   1.898  -0.236  0.00  0.00     0.003 A 
ATOM      6  C4  PXY d   1      -1.384   1.577   1.013  0.00  0.00    -0.082 A 
ATOM      7  C5  PXY d   1      -0.907   0.477   1.634  0.00  0.00     0.003 A 
ATOM      8  C6  PXY d   1       0.043  -0.308   0.989  0.00  0.00     0.003 A 
ENDROOT
TORSDOF 0
ENDMDL
