MODEL 1
REMARK minimizedAffinity -5.10347271
REMARK minimizedRMSD -1
REMARK  0 active torsions:
REMARK  status: ('A' for Active; 'I' for Inactive)
ROOT
ATOM      1  C4' PXY d   1       1.462  -1.372  -0.874  0.00  0.00     0.077 C 
ATOM      2  C1' PXY d   1      -2.489   2.139   1.466  0.00  0.00     0.077 C 
ATOM      3  C1  PXY d   1      -1.457   1.222   0.840  0.00  0.00    -0.082 A 
ATOM      4  C2  PXY d   1      -1.033   0.162   1.508  0.00  0.00     0.003 A 
ATOM      5  C3  PXY d   1      -0.076  -0.660   0.971  0.00  0.00     0.003 A 
ATOM      6  C4  PXY d   1       0.413  -0.424  -0.286  0.00  0.00    -0.082 A 
ATOM      7  C5  PXY d   1      -0.021   0.650  -0.978  0.00  0.00     0.003 A 
ATOM      8  C6  PXY d   1      -0.963   1.495  -0.398  0.00  0.00     0.003 A 
ENDROOT
TORSDOF 0
ENDMDL
