MODEL 1
REMARK minimizedAffinity -3.12643576
REMARK minimizedRMSD -1
REMARK  0 active torsions:
REMARK  status: ('A' for Active; 'I' for Inactive)
ROOT
ATOM      1  C4' PXY d   1       1.439  -1.041  -0.777  0.00  0.00     0.077 C 
ATOM      2  C1' PXY d   1      -2.518   2.571   1.392  0.00  0.00     0.077 C 
ATOM      3  C1  PXY d   1      -1.483   1.628   0.811  0.00  0.00    -0.082 A 
ATOM      4  C2  PXY d   1      -1.094   0.574   1.510  0.00  0.00     0.003 A 
ATOM      5  C3  PXY d   1      -0.136  -0.272   1.013  0.00  0.00     0.003 A 
ATOM      6  C4  PXY d   1       0.390  -0.067  -0.234  0.00  0.00    -0.082 A 
ATOM      7  C5  PXY d   1      -0.009   1.001  -0.957  0.00  0.00     0.003 A 
ATOM      8  C6  PXY d   1      -0.953   1.870  -0.418  0.00  0.00     0.003 A 
ENDROOT
TORSDOF 0
ENDMDL
