MODEL 1
REMARK minimizedAffinity -4.21101332
REMARK minimizedRMSD -1
REMARK  0 active torsions:
REMARK  status: ('A' for Active; 'I' for Inactive)
ROOT
ATOM      1  C4' PXY d   1       1.055  -1.425  -1.117  0.00  0.00     0.077 C 
ATOM      2  C1' PXY d   1      -2.433   2.410   1.442  0.00  0.00     0.077 C 
ATOM      3  C1  PXY d   1      -1.515   1.399   0.782  0.00  0.00    -0.082 A 
ATOM      4  C2  PXY d   1      -1.013   1.654  -0.415  0.00  0.00     0.003 A 
ATOM      5  C3  PXY d   1      -0.207   0.738  -1.040  0.00  0.00     0.003 A 
ATOM      6  C4  PXY d   1       0.131  -0.430  -0.409  0.00  0.00    -0.082 A 
ATOM      7  C5  PXY d   1      -0.368  -0.693   0.817  0.00  0.00     0.003 A 
ATOM      8  C6  PXY d   1      -1.217   0.232   1.416  0.00  0.00     0.003 A 
ENDROOT
TORSDOF 0
ENDMDL
