MODEL 1
REMARK minimizedAffinity -5.33644485
REMARK minimizedRMSD -1
REMARK  0 active torsions:
REMARK  status: ('A' for Active; 'I' for Inactive)
ROOT
ATOM      1  C4' PXY d   1      -2.082   2.611   1.580  0.00  0.00     0.077 C 
ATOM      2  C1' PXY d   1       1.098  -1.593  -0.793  0.00  0.00     0.077 C 
ATOM      3  C1  PXY d   1       0.259  -0.499  -0.162  0.00  0.00    -0.082 A 
ATOM      4  C2  PXY d   1      -0.068   0.567  -0.874  0.00  0.00     0.003 A 
ATOM      5  C3  PXY d   1      -0.799   1.581  -0.310  0.00  0.00     0.003 A 
ATOM      6  C4  PXY d   1      -1.245   1.477   0.981  0.00  0.00    -0.082 A 
ATOM      7  C5  PXY d   1      -0.924   0.388   1.711  0.00  0.00     0.003 A 
ATOM      8  C6  PXY d   1      -0.146  -0.611   1.132  0.00  0.00     0.003 A 
ENDROOT
TORSDOF 0
ENDMDL
