MODEL 1
REMARK minimizedAffinity -4.3507576
REMARK minimizedRMSD -1
REMARK  0 active torsions:
REMARK  status: ('A' for Active; 'I' for Inactive)
ROOT
ATOM      1  C4' PXY d   1      -0.237   0.406   0.415  0.00  0.00     0.077 C 
ATOM      2  C1' PXY d   1       1.311  -3.433  -3.621  0.00  0.00     0.077 C 
ATOM      3  C1  PXY d   1       0.917  -2.426  -2.558  0.00  0.00    -0.082 A 
ATOM      4  C2  PXY d   1      -0.331  -2.392  -2.118  0.00  0.00     0.003 A 
ATOM      5  C3  PXY d   1      -0.711  -1.467  -1.181  0.00  0.00     0.003 A 
ATOM      6  C4  PXY d   1       0.207  -0.601  -0.650  0.00  0.00    -0.082 A 
ATOM      7  C5  PXY d   1       1.484  -0.636  -1.086  0.00  0.00     0.003 A 
ATOM      8  C6  PXY d   1       1.841  -1.555  -2.068  0.00  0.00     0.003 A 
ENDROOT
TORSDOF 0
ENDMDL
