MODEL 1
REMARK minimizedAffinity -2.43873549
REMARK minimizedRMSD -1
REMARK  0 active torsions:
REMARK  status: ('A' for Active; 'I' for Inactive)
ROOT
ATOM      1  C4' PXY d   1       0.984  -1.381   2.307  0.00  0.00     0.077 C 
ATOM      2  C1' PXY d   1      -2.271   3.267   1.210  0.00  0.00     0.077 C 
ATOM      3  C1  PXY d   1      -1.424   2.041   1.489  0.00  0.00    -0.082 A 
ATOM      4  C2  PXY d   1      -0.816   1.919   2.657  0.00  0.00     0.003 A 
ATOM      5  C3  PXY d   1      -0.020   0.832   2.914  0.00  0.00     0.003 A 
ATOM      6  C4  PXY d   1       0.111  -0.165   1.985  0.00  0.00    -0.082 A 
ATOM      7  C5  PXY d   1      -0.515  -0.053   0.795  0.00  0.00     0.003 A 
ATOM      8  C6  PXY d   1      -1.285   1.078   0.538  0.00  0.00     0.003 A 
ENDROOT
TORSDOF 0
ENDMDL
