MODEL 1
REMARK minimizedAffinity -4.42272282
REMARK minimizedRMSD -1
REMARK  0 active torsions:
REMARK  status: ('A' for Active; 'I' for Inactive)
ROOT
ATOM      1  C4' PXY d   1       1.471  -1.713  -1.163  0.00  0.00     0.077 C 
ATOM      2  C1' PXY d   1      -1.966   1.918   1.738  0.00  0.00     0.077 C 
ATOM      3  C1  PXY d   1      -1.059   0.962   0.988  0.00  0.00    -0.082 A 
ATOM      4  C2  PXY d   1      -0.794   1.178  -0.290  0.00  0.00     0.003 A 
ATOM      5  C3  PXY d   1      -0.002   0.306  -0.991  0.00  0.00     0.003 A 
ATOM      6  C4  PXY d   1       0.568  -0.769  -0.364  0.00  0.00    -0.082 A 
ATOM      7  C5  PXY d   1       0.312  -0.991   0.942  0.00  0.00     0.003 A 
ATOM      8  C6  PXY d   1      -0.528  -0.117   1.626  0.00  0.00     0.003 A 
ENDROOT
TORSDOF 0
ENDMDL
