MODEL 1
REMARK minimizedAffinity -2.93235207
REMARK minimizedRMSD -1
REMARK  0 active torsions:
REMARK  status: ('A' for Active; 'I' for Inactive)
ROOT
ATOM      1  C4' PXY d   1       3.616  -6.000   0.424  0.00  0.00     0.077 C 
ATOM      2  C1' PXY d   1       0.053  -3.000  -3.000  0.00  0.00     0.077 C 
ATOM      3  C1  PXY d   1       0.978  -3.795  -2.100  0.00  0.00    -0.082 A 
ATOM      4  C2  PXY d   1       2.019  -3.199  -1.541  0.00  0.00     0.003 A 
ATOM      5  C3  PXY d   1       2.883  -3.911  -0.750  0.00  0.00     0.003 A 
ATOM      6  C4  PXY d   1       2.650  -5.234  -0.485  0.00  0.00    -0.082 A 
ATOM      7  C5  PXY d   1       1.584  -5.846  -1.042  0.00  0.00     0.003 A 
ATOM      8  C6  PXY d   1       0.742  -5.116  -1.875  0.00  0.00     0.003 A 
ENDROOT
TORSDOF 0
ENDMDL
