MODEL 1
REMARK minimizedAffinity -5.06311274
REMARK minimizedRMSD -1
REMARK  0 active torsions:
REMARK  status: ('A' for Active; 'I' for Inactive)
ROOT
ATOM      1  C4' PXY d   1       0.601  -1.306  -0.861  0.00  0.00     0.077 C 
ATOM      2  C1' PXY d   1      -1.785   3.691   0.798  0.00  0.00     0.077 C 
ATOM      3  C1  PXY d   1      -1.158   2.385   0.351  0.00  0.00    -0.082 A 
ATOM      4  C2  PXY d   1      -1.412   1.273   1.022  0.00  0.00     0.003 A 
ATOM      5  C3  PXY d   1      -0.828   0.090   0.651  0.00  0.00     0.003 A 
ATOM      6  C4  PXY d   1      -0.017   0.033  -0.451  0.00  0.00    -0.082 A 
ATOM      7  C5  PXY d   1       0.238   1.161  -1.148  0.00  0.00     0.003 A 
ATOM      8  C6  PXY d   1      -0.332   2.360  -0.730  0.00  0.00     0.003 A 
ENDROOT
TORSDOF 0
ENDMDL
