MODEL 1
REMARK minimizedAffinity -5.2315793
REMARK minimizedRMSD -1
REMARK  0 active torsions:
REMARK  status: ('A' for Active; 'I' for Inactive)
ROOT
ATOM      1  C4' PXY d   1      -0.546   4.063  -1.125  0.00  0.00     0.077 C 
ATOM      2  C1' PXY d   1       0.288  -0.718   2.016  0.00  0.00     0.077 C 
ATOM      3  C1  PXY d   1       0.058   0.538   1.199  0.00  0.00    -0.082 A 
ATOM      4  C2  PXY d   1       0.670   0.682   0.035  0.00  0.00     0.003 A 
ATOM      5  C3  PXY d   1       0.498   1.825  -0.703  0.00  0.00     0.003 A 
ATOM      6  C4  PXY d   1      -0.351   2.808  -0.270  0.00  0.00    -0.082 A 
ATOM      7  C5  PXY d   1      -0.988   2.663   0.912  0.00  0.00     0.003 A 
ATOM      8  C6  PXY d   1      -0.768   1.514   1.665  0.00  0.00     0.003 A 
ENDROOT
TORSDOF 0
ENDMDL
