MODEL 1
REMARK minimizedAffinity -3.38390851
REMARK minimizedRMSD -1
REMARK  0 active torsions:
REMARK  status: ('A' for Active; 'I' for Inactive)
ROOT
ATOM      1  C4' PXY d   1       3.004  -5.999   0.549  0.00  0.00     0.077 C 
ATOM      2  C1' PXY d   1      -0.090  -2.650  -3.005  0.00  0.00     0.077 C 
ATOM      3  C1  PXY d   1       0.711  -3.535  -2.069  0.00  0.00    -0.082 A 
ATOM      4  C2  PXY d   1       1.884  -3.119  -1.621  0.00  0.00     0.003 A 
ATOM      5  C3  PXY d   1       2.636  -3.920  -0.799  0.00  0.00     0.003 A 
ATOM      6  C4  PXY d   1       2.157  -5.136  -0.390  0.00  0.00    -0.082 A 
ATOM      7  C5  PXY d   1       0.956  -5.562  -0.835  0.00  0.00     0.003 A 
ATOM      8  C6  PXY d   1       0.227  -4.752  -1.701  0.00  0.00     0.003 A 
ENDROOT
TORSDOF 0
ENDMDL
