MODEL 1
REMARK minimizedAffinity -2.23118687
REMARK minimizedRMSD -1
REMARK  0 active torsions:
REMARK  status: ('A' for Active; 'I' for Inactive)
ROOT
ATOM      1  C4' PXY d   1       1.494  -2.675  -1.197  0.00  0.00     0.077 C 
ATOM      2  C1' PXY d   1      -0.830   1.195   2.415  0.00  0.00     0.077 C 
ATOM      3  C1  PXY d   1      -0.223   0.188   1.457  0.00  0.00    -0.082 A 
ATOM      4  C2  PXY d   1      -0.144  -1.085   1.811  0.00  0.00     0.003 A 
ATOM      5  C3  PXY d   1       0.431  -2.003   0.970  0.00  0.00     0.003 A 
ATOM      6  C4  PXY d   1       0.881  -1.625  -0.266  0.00  0.00    -0.082 A 
ATOM      7  C5  PXY d   1       0.794  -0.330  -0.638  0.00  0.00     0.003 A 
ATOM      8  C6  PXY d   1       0.244   0.594   0.246  0.00  0.00     0.003 A 
ENDROOT
TORSDOF 0
ENDMDL
