MODEL 1
REMARK minimizedAffinity 18.9480572
REMARK minimizedRMSD -1
REMARK  2 active torsions:
REMARK  status: ('A' for Active; 'I' for Inactive)
REMARK    1  A    between atoms: C1_2  and  C2_3 
REMARK    2  A    between atoms: C2_3  and  C3_4 
ROOT
ATOM      1  C3  UNL d   1       2.252  -1.751   0.735  0.00  0.00    -0.075 A 
ATOM      2  C4  UNL d   1       3.605  -2.115   0.790  0.00  0.00     0.002 A 
ATOM      3  C5  UNL d   1       4.394  -1.745   1.879  0.00  0.00     0.002 A 
ATOM      4  C6  UNL d   1       3.845  -0.999   2.920  0.00  0.00    -0.004 A 
ATOM      5  C7  UNL d   1       2.506  -0.617   2.867  0.00  0.00     0.002 A 
ATOM      6  C8  UNL d   1       1.713  -0.990   1.781  0.00  0.00     0.002 A 
ENDROOT
BRANCH   1   7
ATOM      7  C2  UNL d   1       1.385  -2.173  -0.427  0.00  0.00     0.056 C 
BRANCH   7   8
ATOM      8  C1  UNL d   1       1.223  -3.691  -0.565  0.00  0.00     0.007 C 
ATOM      9  C   UNL d   1       1.666  -4.221  -1.923  0.00  0.00     0.009 C 
ENDBRANCH   7   8
ENDBRANCH   1   7
TORSDOF 2
ENDMDL
