MODEL 1
REMARK minimizedAffinity 13.0212574
REMARK minimizedRMSD -1
REMARK  2 active torsions:
REMARK  status: ('A' for Active; 'I' for Inactive)
REMARK    1  A    between atoms: C1_2  and  C2_3 
REMARK    2  A    between atoms: C2_3  and  C3_4 
ROOT
ATOM      1  C3  UNL d   1       2.137  -3.000  -0.205  0.00  0.00    -0.075 A 
ATOM      2  C4  UNL d   1       1.905  -1.666   0.158  0.00  0.00     0.002 A 
ATOM      3  C5  UNL d   1       2.821  -0.978   0.955  0.00  0.00     0.002 A 
ATOM      4  C6  UNL d   1       3.973  -1.618   1.408  0.00  0.00    -0.004 A 
ATOM      5  C7  UNL d   1       4.206  -2.949   1.067  0.00  0.00     0.002 A 
ATOM      6  C8  UNL d   1       3.293  -3.638   0.266  0.00  0.00     0.002 A 
ENDROOT
BRANCH   1   7
ATOM      7  C2  UNL d   1       1.165  -3.741  -1.091  0.00  0.00     0.056 C 
BRANCH   7   8
ATOM      8  C1  UNL d   1       1.825  -4.486  -2.256  0.00  0.00     0.007 C 
ATOM      9  C   UNL d   1       1.806  -5.999  -2.088  0.00  0.00     0.009 C 
ENDBRANCH   7   8
ENDBRANCH   1   7
TORSDOF 2
ENDMDL
