MODEL 1
REMARK minimizedAffinity 11.3633194
REMARK minimizedRMSD -1
REMARK  2 active torsions:
REMARK  status: ('A' for Active; 'I' for Inactive)
REMARK    1  A    between atoms: C1_2  and  C2_3 
REMARK    2  A    between atoms: C2_3  and  C3_4 
ROOT
ATOM      1  C3  UNL d   1       3.378  -3.030   0.339  0.00  0.00    -0.075 A 
ATOM      2  C4  UNL d   1       3.802  -1.771   0.787  0.00  0.00     0.002 A 
ATOM      3  C5  UNL d   1       5.107  -1.585   1.245  0.00  0.00     0.002 A 
ATOM      4  C6  UNL d   1       5.999  -2.654   1.270  0.00  0.00    -0.004 A 
ATOM      5  C7  UNL d   1       5.584  -3.913   0.842  0.00  0.00     0.002 A 
ATOM      6  C8  UNL d   1       4.280  -4.102   0.380  0.00  0.00     0.002 A 
ENDROOT
BRANCH   1   7
ATOM      7  C2  UNL d   1       1.977  -3.232  -0.185  0.00  0.00     0.056 C 
BRANCH   7   8
ATOM      8  C1  UNL d   1       1.914  -3.613  -1.668  0.00  0.00     0.007 C 
ATOM      9  C   UNL d   1       1.496  -5.059  -1.899  0.00  0.00     0.009 C 
ENDBRANCH   7   8
ENDBRANCH   1   7
TORSDOF 2
ENDMDL
