MODEL 1
REMARK minimizedAffinity 16.0864735
REMARK minimizedRMSD -1
REMARK  2 active torsions:
REMARK  status: ('A' for Active; 'I' for Inactive)
REMARK    1  A    between atoms: C1_2  and  C2_3 
REMARK    2  A    between atoms: C2_3  and  C3_4 
ROOT
ATOM      1  C3  UNL d   1       4.284  -5.059  -1.997  0.00  0.00    -0.075 A 
ATOM      2  C4  UNL d   1       4.883  -4.464  -3.117  0.00  0.00     0.002 A 
ATOM      3  C5  UNL d   1       4.116  -3.737  -4.028  0.00  0.00     0.002 A 
ATOM      4  C6  UNL d   1       2.742  -3.605  -3.838  0.00  0.00    -0.004 A 
ATOM      5  C7  UNL d   1       2.134  -4.206  -2.738  0.00  0.00     0.002 A 
ATOM      6  C8  UNL d   1       2.900  -4.930  -1.822  0.00  0.00     0.002 A 
ENDROOT
BRANCH   1   7
ATOM      7  C2  UNL d   1       5.113  -5.822  -0.992  0.00  0.00     0.056 C 
BRANCH   7   8
ATOM      8  C1  UNL d   1       5.874  -4.929  -0.006  0.00  0.00     0.007 C 
ATOM      9  C   UNL d   1       5.506  -5.190   1.448  0.00  0.00     0.009 C 
ENDBRANCH   7   8
ENDBRANCH   1   7
TORSDOF 2
ENDMDL
