MODEL 1
REMARK minimizedAffinity 3.73146582
REMARK minimizedRMSD -1
REMARK  2 active torsions:
REMARK  status: ('A' for Active; 'I' for Inactive)
REMARK    1  A    between atoms: C1_2  and  C2_3 
REMARK    2  A    between atoms: C2_3  and  C3_4 
ROOT
ATOM      1  C3  UNL d   1      -3.459   3.246  -4.376  0.00  0.00    -0.075 A 
ATOM      2  C4  UNL d   1      -2.092   3.466  -4.148  0.00  0.00     0.002 A 
ATOM      3  C5  UNL d   1      -1.527   4.719  -4.387  0.00  0.00     0.002 A 
ATOM      4  C6  UNL d   1      -2.316   5.762  -4.866  0.00  0.00    -0.004 A 
ATOM      5  C7  UNL d   1      -3.671   5.550  -5.112  0.00  0.00     0.002 A 
ATOM      6  C8  UNL d   1      -4.240   4.299  -4.869  0.00  0.00     0.002 A 
ENDROOT
BRANCH   1   7
ATOM      7  C2  UNL d   1      -4.083   1.901  -4.091  0.00  0.00     0.056 C 
BRANCH   7   8
ATOM      8  C1  UNL d   1      -5.597   1.855  -4.317  0.00  0.00     0.007 C 
ATOM      9  C   UNL d   1      -5.998   1.031  -5.533  0.00  0.00     0.009 C 
ENDBRANCH   7   8
ENDBRANCH   1   7
TORSDOF 2
ENDMDL
