MODEL 1
REMARK minimizedAffinity 19.1802616
REMARK minimizedRMSD -1
REMARK  2 active torsions:
REMARK  status: ('A' for Active; 'I' for Inactive)
REMARK    1  A    between atoms: C1_2  and  C2_3 
REMARK    2  A    between atoms: C2_3  and  C3_4 
ROOT
ATOM      1  C3  UNL d   1       1.360  -0.266   1.955  0.00  0.00    -0.075 A 
ATOM      2  C4  UNL d   1       1.565   0.156   3.277  0.00  0.00     0.002 A 
ATOM      3  C5  UNL d   1       1.109   1.404   3.701  0.00  0.00     0.002 A 
ATOM      4  C6  UNL d   1       0.452   2.249   2.809  0.00  0.00    -0.004 A 
ATOM      5  C7  UNL d   1       0.257   1.847   1.489  0.00  0.00     0.002 A 
ATOM      6  C8  UNL d   1       0.709   0.597   1.063  0.00  0.00     0.002 A 
ENDROOT
BRANCH   1   7
ATOM      7  C2  UNL d   1       1.825  -1.627   1.498  0.00  0.00     0.056 C 
BRANCH   7   8
ATOM      8  C1  UNL d   1       2.964  -1.586   0.473  0.00  0.00     0.007 C 
ATOM      9  C   UNL d   1       4.319  -1.946   1.067  0.00  0.00     0.009 C 
ENDBRANCH   7   8
ENDBRANCH   1   7
TORSDOF 2
ENDMDL
