MODEL 1
REMARK minimizedAffinity 7.52910519
REMARK minimizedRMSD -1
REMARK  2 active torsions:
REMARK  status: ('A' for Active; 'I' for Inactive)
REMARK    1  A    between atoms: C1_2  and  C2_3 
REMARK    2  A    between atoms: C2_3  and  C3_4 
ROOT
ATOM      1  C3  UNL d   1       3.340  -3.555   0.380  0.00  0.00    -0.075 A 
ATOM      2  C4  UNL d   1       3.676  -2.236   0.716  0.00  0.00     0.002 A 
ATOM      3  C5  UNL d   1       4.999  -1.890   0.990  0.00  0.00     0.002 A 
ATOM      4  C6  UNL d   1       6.000  -2.858   0.942  0.00  0.00    -0.004 A 
ATOM      5  C7  UNL d   1       5.675  -4.175   0.626  0.00  0.00     0.002 A 
ATOM      6  C8  UNL d   1       4.352  -4.523   0.347  0.00  0.00     0.002 A 
ENDROOT
BRANCH   1   7
ATOM      7  C2  UNL d   1       1.914  -3.930   0.054  0.00  0.00     0.056 C 
BRANCH   7   8
ATOM      8  C1  UNL d   1       1.648  -4.128  -1.442  0.00  0.00     0.007 C 
ATOM      9  C   UNL d   1       1.415  -5.585  -1.822  0.00  0.00     0.009 C 
ENDBRANCH   7   8
ENDBRANCH   1   7
TORSDOF 2
ENDMDL
