MODEL 1
REMARK minimizedAffinity 10.330368
REMARK minimizedRMSD -1
REMARK  2 active torsions:
REMARK  status: ('A' for Active; 'I' for Inactive)
REMARK    1  A    between atoms: C1_2  and  C2_3 
REMARK    2  A    between atoms: C2_3  and  C3_4 
ROOT
ATOM      1  C3  UNL d   1      -0.060  -0.037   1.924  0.00  0.00    -0.075 A 
ATOM      2  C4  UNL d   1      -0.294   1.209   1.325  0.00  0.00     0.002 A 
ATOM      3  C5  UNL d   1      -1.458   1.924   1.608  0.00  0.00     0.002 A 
ATOM      4  C6  UNL d   1      -2.405   1.399   2.484  0.00  0.00    -0.004 A 
ATOM      5  C7  UNL d   1      -2.191   0.155   3.072  0.00  0.00     0.002 A 
ATOM      6  C8  UNL d   1      -1.025  -0.561   2.794  0.00  0.00     0.002 A 
ENDROOT
BRANCH   1   7
ATOM      7  C2  UNL d   1       1.212  -0.802   1.645  0.00  0.00     0.056 C 
BRANCH   7   8
ATOM      8  C1  UNL d   1       0.984  -2.185   1.024  0.00  0.00     0.007 C 
ATOM      9  C   UNL d   1       2.271  -2.975   0.830  0.00  0.00     0.009 C 
ENDBRANCH   7   8
ENDBRANCH   1   7
TORSDOF 2
ENDMDL
