MODEL 1
REMARK minimizedAffinity 6.84957933
REMARK minimizedRMSD -1
REMARK  2 active torsions:
REMARK  status: ('A' for Active; 'I' for Inactive)
REMARK    1  A    between atoms: C1_2  and  C2_3 
REMARK    2  A    between atoms: C2_3  and  C3_4 
ROOT
ATOM      1  C3  UNL d   1       3.927  -3.778   0.187  0.00  0.00    -0.075 A 
ATOM      2  C4  UNL d   1       3.948  -4.543  -0.988  0.00  0.00     0.002 A 
ATOM      3  C5  UNL d   1       4.790  -5.650  -1.098  0.00  0.00     0.002 A 
ATOM      4  C6  UNL d   1       5.627  -6.000  -0.042  0.00  0.00    -0.004 A 
ATOM      5  C7  UNL d   1       5.627  -5.238   1.124  0.00  0.00     0.002 A 
ATOM      6  C8  UNL d   1       4.783  -4.132   1.239  0.00  0.00     0.002 A 
ENDROOT
BRANCH   1   7
ATOM      7  C2  UNL d   1       2.997  -2.596   0.324  0.00  0.00     0.056 C 
BRANCH   7   8
ATOM      8  C1  UNL d   1       3.410  -1.601   1.413  0.00  0.00     0.007 C 
ATOM      9  C   UNL d   1       2.239  -0.804   1.973  0.00  0.00     0.009 C 
ENDBRANCH   7   8
ENDBRANCH   1   7
TORSDOF 2
ENDMDL
