MODEL 1
REMARK minimizedAffinity 15.2879934
REMARK minimizedRMSD -1
REMARK  2 active torsions:
REMARK  status: ('A' for Active; 'I' for Inactive)
REMARK    1  A    between atoms: C1_2  and  C2_3 
REMARK    2  A    between atoms: C2_3  and  C3_4 
ROOT
ATOM      1  C3  UNL d   1      -0.289   2.395  -0.227  0.00  0.00    -0.075 A 
ATOM      2  C4  UNL d   1       0.804   3.270  -0.311  0.00  0.00     0.002 A 
ATOM      3  C5  UNL d   1       1.010   4.039  -1.457  0.00  0.00     0.002 A 
ATOM      4  C6  UNL d   1       0.134   3.935  -2.535  0.00  0.00    -0.004 A 
ATOM      5  C7  UNL d   1      -0.946   3.057  -2.470  0.00  0.00     0.002 A 
ATOM      6  C8  UNL d   1      -1.157   2.290  -1.322  0.00  0.00     0.002 A 
ENDROOT
BRANCH   1   7
ATOM      7  C2  UNL d   1      -0.534   1.583   1.022  0.00  0.00     0.056 C 
BRANCH   7   8
ATOM      8  C1  UNL d   1       0.746   1.138   1.738  0.00  0.00     0.007 C 
ATOM      9  C   UNL d   1       0.727   1.425   3.233  0.00  0.00     0.009 C 
ENDBRANCH   7   8
ENDBRANCH   1   7
TORSDOF 2
ENDMDL
