MODEL 1
REMARK minimizedAffinity 3.35087681
REMARK minimizedRMSD -1
REMARK  2 active torsions:
REMARK  status: ('A' for Active; 'I' for Inactive)
REMARK    1  A    between atoms: C1_2  and  C2_3 
REMARK    2  A    between atoms: C2_3  and  C3_4 
ROOT
ATOM      1  C3  UNL d   1      -1.551  -4.573   4.838  0.00  0.00    -0.075 A 
ATOM      2  C4  UNL d   1      -1.128  -5.254   5.989  0.00  0.00     0.002 A 
ATOM      3  C5  UNL d   1       0.087  -5.941   6.000  0.00  0.00     0.002 A 
ATOM      4  C6  UNL d   1       0.887  -5.964   4.860  0.00  0.00    -0.004 A 
ATOM      5  C7  UNL d   1       0.470  -5.304   3.706  0.00  0.00     0.002 A 
ATOM      6  C8  UNL d   1      -0.743  -4.613   3.694  0.00  0.00     0.002 A 
ENDROOT
BRANCH   1   7
ATOM      7  C2  UNL d   1      -2.850  -3.804   4.830  0.00  0.00     0.056 C 
BRANCH   7   8
ATOM      8  C1  UNL d   1      -2.840  -2.553   5.715  0.00  0.00     0.007 C 
ATOM      9  C   UNL d   1      -2.373  -1.303   4.983  0.00  0.00     0.009 C 
ENDBRANCH   7   8
ENDBRANCH   1   7
TORSDOF 2
ENDMDL
