MODEL 1
REMARK minimizedAffinity 2.02118802
REMARK minimizedRMSD -1
REMARK  2 active torsions:
REMARK  status: ('A' for Active; 'I' for Inactive)
REMARK    1  A    between atoms: C1_2  and  C2_3 
REMARK    2  A    between atoms: C2_3  and  C3_4 
ROOT
ATOM      1  C3  UNL d   1      -2.216   5.619  -0.213  0.00  0.00    -0.075 A 
ATOM      2  C4  UNL d   1      -3.077   5.818   0.876  0.00  0.00     0.002 A 
ATOM      3  C5  UNL d   1      -4.445   6.000   0.672  0.00  0.00     0.002 A 
ATOM      4  C6  UNL d   1      -4.967   5.995  -0.620  0.00  0.00    -0.004 A 
ATOM      5  C7  UNL d   1      -4.118   5.815  -1.709  0.00  0.00     0.002 A 
ATOM      6  C8  UNL d   1      -2.750   5.628  -1.509  0.00  0.00     0.002 A 
ENDROOT
BRANCH   1   7
ATOM      7  C2  UNL d   1      -0.738   5.392   0.002  0.00  0.00     0.056 C 
BRANCH   7   8
ATOM      8  C1  UNL d   1      -0.315   3.921  -0.078  0.00  0.00     0.007 C 
ATOM      9  C   UNL d   1       0.432   3.581  -1.361  0.00  0.00     0.009 C 
ENDBRANCH   7   8
ENDBRANCH   1   7
TORSDOF 2
ENDMDL
