MODEL 1
REMARK minimizedAffinity 14.4300499
REMARK minimizedRMSD -1
REMARK  2 active torsions:
REMARK  status: ('A' for Active; 'I' for Inactive)
REMARK    1  A    between atoms: C1_2  and  C2_3 
REMARK    2  A    between atoms: C2_3  and  C3_4 
ROOT
ATOM      1  C3  UNL d   1      -2.057   2.755   1.111  0.00  0.00    -0.075 A 
ATOM      2  C4  UNL d   1      -1.273   2.121   2.085  0.00  0.00     0.002 A 
ATOM      3  C5  UNL d   1       0.023   1.700   1.788  0.00  0.00     0.002 A 
ATOM      4  C6  UNL d   1       0.548   1.897   0.512  0.00  0.00    -0.004 A 
ATOM      5  C7  UNL d   1      -0.228   2.511  -0.469  0.00  0.00     0.002 A 
ATOM      6  C8  UNL d   1      -1.524   2.938  -0.173  0.00  0.00     0.002 A 
ENDROOT
BRANCH   1   7
ATOM      7  C2  UNL d   1      -3.450   3.241   1.435  0.00  0.00     0.056 C 
BRANCH   7   8
ATOM      8  C1  UNL d   1      -3.782   4.618   0.851  0.00  0.00     0.007 C 
ATOM      9  C   UNL d   1      -4.242   5.620   1.901  0.00  0.00     0.009 C 
ENDBRANCH   7   8
ENDBRANCH   1   7
TORSDOF 2
ENDMDL
