MODEL 1
REMARK minimizedAffinity 17.6464615
REMARK minimizedRMSD -1
REMARK  2 active torsions:
REMARK  status: ('A' for Active; 'I' for Inactive)
REMARK    1  A    between atoms: C1_2  and  C2_3 
REMARK    2  A    between atoms: C2_3  and  C3_4 
ROOT
ATOM      1  C3  UNL d   1       2.098   0.104  -5.014  0.00  0.00    -0.075 A 
ATOM      2  C4  UNL d   1       1.298   0.699  -6.000  0.00  0.00     0.002 A 
ATOM      3  C5  UNL d   1       0.549   1.841  -5.710  0.00  0.00     0.002 A 
ATOM      4  C6  UNL d   1       0.583   2.394  -4.432  0.00  0.00    -0.004 A 
ATOM      5  C7  UNL d   1       1.361   1.800  -3.440  0.00  0.00     0.002 A 
ATOM      6  C8  UNL d   1       2.115   0.661  -3.728  0.00  0.00     0.002 A 
ENDROOT
BRANCH   1   7
ATOM      7  C2  UNL d   1       2.933  -1.114  -5.329  0.00  0.00     0.056 C 
BRANCH   7   8
ATOM      8  C1  UNL d   1       2.151  -2.252  -5.993  0.00  0.00     0.007 C 
ATOM      9  C   UNL d   1       2.182  -3.548  -5.193  0.00  0.00     0.009 C 
ENDBRANCH   7   8
ENDBRANCH   1   7
TORSDOF 2
ENDMDL
