MODEL 1
REMARK minimizedAffinity -1.53907263
REMARK minimizedRMSD -1
REMARK  2 active torsions:
REMARK  status: ('A' for Active; 'I' for Inactive)
REMARK    1  A    between atoms: C2'_3  and  C1'_4 
REMARK    2  A    between atoms: C1'_4  and  C1_5 
ROOT
ATOM      1  C1  I4B d   1       0.287  -1.141  -1.152  0.00  0.00    -0.075 A 
ATOM      2  C2  I4B d   1      -0.216   0.032  -1.657  0.00  0.00     0.003 A 
ATOM      3  C3  I4B d   1      -0.317   1.179  -0.833  0.00  0.00     0.002 A 
ATOM      4  C4  I4B d   1       0.047   1.095   0.495  0.00  0.00    -0.004 A 
ATOM      5  C5  I4B d   1       0.578  -0.088   1.001  0.00  0.00     0.002 A 
ATOM      6  C6  I4B d   1       0.711  -1.210   0.169  0.00  0.00     0.003 A 
ENDROOT
BRANCH   1   7
ATOM      7  C1' I4B d   1       0.348  -2.342  -2.041  0.00  0.00     0.060 C 
BRANCH   7   8
ATOM      8  C2' I4B d   1       0.192  -3.574  -1.173  0.00  0.00    -0.013 C 
ATOM      9  C4' I4B d   1      -1.087  -4.304  -1.488  0.00  0.00     0.013 C 
ATOM     10  C3' I4B d   1       1.387  -4.452  -1.398  0.00  0.00     0.013 C 
ENDBRANCH   7   8
ENDBRANCH   1   7
TORSDOF 2
ENDMDL
