MODEL 1
REMARK minimizedAffinity -2.11373281
REMARK minimizedRMSD -1
REMARK  2 active torsions:
REMARK  status: ('A' for Active; 'I' for Inactive)
REMARK    1  A    between atoms: C2'_3  and  C1'_4 
REMARK    2  A    between atoms: C1'_4  and  C1_5 
ROOT
ATOM      1  C1  I4B d   1       0.410  -0.544   0.054  0.00  0.00    -0.075 A 
ATOM      2  C2  I4B d   1       0.422  -0.546   1.427  0.00  0.00     0.003 A 
ATOM      3  C3  I4B d   1       0.041   0.613   2.145  0.00  0.00     0.002 A 
ATOM      4  C4  I4B d   1      -0.295   1.760   1.454  0.00  0.00    -0.004 A 
ATOM      5  C5  I4B d   1      -0.330   1.753   0.063  0.00  0.00     0.002 A 
ATOM      6  C6  I4B d   1       0.013   0.590  -0.642  0.00  0.00     0.003 A 
ENDROOT
BRANCH   1   7
ATOM      7  C1' I4B d   1       0.850  -1.776  -0.672  0.00  0.00     0.060 C 
BRANCH   7   8
ATOM      8  C2' I4B d   1      -0.366  -2.654  -0.881  0.00  0.00    -0.013 C 
ATOM      9  C4' I4B d   1      -1.154  -2.217  -2.088  0.00  0.00     0.013 C 
ATOM     10  C3' I4B d   1       0.105  -4.071  -1.026  0.00  0.00     0.013 C 
ENDBRANCH   7   8
ENDBRANCH   1   7
TORSDOF 2
ENDMDL
