MODEL 1
REMARK minimizedAffinity -3.01844978
REMARK minimizedRMSD -1
REMARK  2 active torsions:
REMARK  status: ('A' for Active; 'I' for Inactive)
REMARK    1  A    between atoms: C2'_3  and  C1'_4 
REMARK    2  A    between atoms: C1'_4  and  C1_5 
ROOT
ATOM      1  C1  I4B d   1       0.088  -0.355  -0.345  0.00  0.00    -0.075 A 
ATOM      2  C2  I4B d   1       0.588  -0.722   0.879  0.00  0.00     0.003 A 
ATOM      3  C3  I4B d   1       0.337   0.077   2.021  0.00  0.00     0.002 A 
ATOM      4  C4  I4B d   1      -0.372   1.253   1.885  0.00  0.00    -0.004 A 
ATOM      5  C5  I4B d   1      -0.898   1.612   0.647  0.00  0.00     0.002 A 
ATOM      6  C6  I4B d   1      -0.677   0.798  -0.473  0.00  0.00     0.003 A 
ENDROOT
BRANCH   1   7
ATOM      7  C1' I4B d   1       0.400  -1.204  -1.536  0.00  0.00     0.060 C 
BRANCH   7   8
ATOM      8  C2' I4B d   1      -0.220  -2.568  -1.311  0.00  0.00    -0.013 C 
ATOM      9  C4' I4B d   1      -1.266  -2.870  -2.351  0.00  0.00     0.013 C 
ATOM     10  C3' I4B d   1       0.881  -3.587  -1.339  0.00  0.00     0.013 C 
ENDBRANCH   7   8
ENDBRANCH   1   7
TORSDOF 2
ENDMDL
