MODEL 1
REMARK minimizedAffinity -6.33465242
REMARK minimizedRMSD -1
REMARK  2 active torsions:
REMARK  status: ('A' for Active; 'I' for Inactive)
REMARK    1  A    between atoms: C2'_3  and  C1'_4 
REMARK    2  A    between atoms: C1'_4  and  C1_5 
ROOT
ATOM      1  C1  I4B d   1      -1.163   1.198  -0.097  0.00  0.00    -0.075 A 
ATOM      2  C2  I4B d   1      -1.306   2.459  -0.620  0.00  0.00     0.003 A 
ATOM      3  C3  I4B d   1      -1.308   3.589   0.233  0.00  0.00     0.002 A 
ATOM      4  C4  I4B d   1      -1.217   3.410   1.598  0.00  0.00    -0.004 A 
ATOM      5  C5  I4B d   1      -1.049   2.132   2.125  0.00  0.00     0.002 A 
ATOM      6  C6  I4B d   1      -1.010   1.020   1.272  0.00  0.00     0.003 A 
ENDROOT
BRANCH   1   7
ATOM      7  C1' I4B d   1      -1.198   0.025  -1.024  0.00  0.00     0.060 C 
BRANCH   7   8
ATOM      8  C2' I4B d   1       0.201  -0.552  -1.099  0.00  0.00    -0.013 C 
ATOM      9  C4' I4B d   1       0.166  -2.038  -1.344  0.00  0.00     0.013 C 
ATOM     10  C3' I4B d   1       0.937   0.159  -2.195  0.00  0.00     0.013 C 
ENDBRANCH   7   8
ENDBRANCH   1   7
TORSDOF 2
ENDMDL
