MODEL 1
REMARK minimizedAffinity 2.5097146
REMARK minimizedRMSD -1
REMARK  2 active torsions:
REMARK  status: ('A' for Active; 'I' for Inactive)
REMARK    1  A    between atoms: C2'_3  and  C1'_4 
REMARK    2  A    between atoms: C1'_4  and  C1_5 
ROOT
ATOM      1  C1  I4B d   1       0.573  -0.434   0.219  0.00  0.00    -0.075 A 
ATOM      2  C2  I4B d   1       0.623  -0.393   1.590  0.00  0.00     0.003 A 
ATOM      3  C3  I4B d   1       0.380   0.821   2.277  0.00  0.00     0.002 A 
ATOM      4  C4  I4B d   1       0.142   1.974   1.555  0.00  0.00    -0.004 A 
ATOM      5  C5  I4B d   1       0.069   1.926   0.166  0.00  0.00     0.002 A 
ATOM      6  C6  I4B d   1       0.273   0.712  -0.506  0.00  0.00     0.003 A 
ENDROOT
BRANCH   1   7
ATOM      7  C1' I4B d   1       0.867  -1.726  -0.475  0.00  0.00     0.060 C 
BRANCH   7   8
ATOM      8  C2' I4B d   1      -0.415  -2.212  -1.120  0.00  0.00    -0.013 C 
ATOM      9  C4' I4B d   1      -0.620  -1.576  -2.470  0.00  0.00     0.013 C 
ATOM     10  C3' I4B d   1      -0.342  -3.705  -1.230  0.00  0.00     0.013 C 
ENDBRANCH   7   8
ENDBRANCH   1   7
TORSDOF 2
ENDMDL
