MODEL 1
REMARK minimizedAffinity 10.2617788
REMARK minimizedRMSD -1
REMARK  1 active torsions:
REMARK  status: ('A' for Active; 'I' for Inactive)
REMARK    1  A    between atoms: C1_2  and  C2_3 
ROOT
ATOM      1  C2  UNL d   1      -1.573   2.850   0.346  0.00  0.00    -0.076 A 
ATOM      2  C3  UNL d   1      -2.114   3.110  -0.925  0.00  0.00     0.004 A 
ATOM      3  C4  UNL d   1      -1.315   3.068  -2.067  0.00  0.00    -0.003 A 
ATOM      4  C5  UNL d   1       0.037   2.767  -1.956  0.00  0.00     0.000 A 
ATOM      5  C6  UNL d   1       0.588   2.489  -0.705  0.00  0.00     0.000 A 
ATOM      6  C7  UNL d   1      -0.207   2.511   0.454  0.00  0.00    -0.073 A 
ATOM      7  C8  UNL d   1       0.440   2.210   1.779  0.00  0.00     0.078 C 
ENDROOT
BRANCH   1   8
ATOM      8  C1  UNL d   1      -2.481   2.937   1.552  0.00  0.00     0.053 C 
ATOM      9  C   UNL d   1      -3.349   4.185   1.539  0.00  0.00     0.018 C 
ENDBRANCH   1   8
TORSDOF 1
ENDMDL
