MODEL 1
REMARK minimizedAffinity 8.3894558
REMARK minimizedRMSD -1
REMARK  1 active torsions:
REMARK  status: ('A' for Active; 'I' for Inactive)
REMARK    1  A    between atoms: C1_2  and  C2_3 
ROOT
ATOM      1  C2  UNL d   1       0.096   2.047   1.985  0.00  0.00    -0.076 A 
ATOM      2  C3  UNL d   1      -0.659   1.820   0.820  0.00  0.00     0.004 A 
ATOM      3  C4  UNL d   1      -0.543   2.661  -0.285  0.00  0.00    -0.003 A 
ATOM      4  C5  UNL d   1       0.330   3.743  -0.245  0.00  0.00     0.000 A 
ATOM      5  C6  UNL d   1       1.099   3.973   0.896  0.00  0.00     0.000 A 
ATOM      6  C7  UNL d   1       1.006   3.125   2.013  0.00  0.00    -0.073 A 
ATOM      7  C8  UNL d   1       1.855   3.424   3.218  0.00  0.00     0.078 C 
ENDROOT
BRANCH   1   8
ATOM      8  C1  UNL d   1      -0.092   1.118   3.162  0.00  0.00     0.053 C 
ATOM      9  C   UNL d   1       0.808  -0.106   3.088  0.00  0.00     0.018 C 
ENDBRANCH   1   8
TORSDOF 1
ENDMDL
