MODEL 1
REMARK minimizedAffinity 7.1454649
REMARK minimizedRMSD -1
REMARK  1 active torsions:
REMARK  status: ('A' for Active; 'I' for Inactive)
REMARK    1  A    between atoms: C1_2  and  C2_3 
ROOT
ATOM      1  C2  UNL d   1       0.190   2.083   2.198  0.00  0.00    -0.076 A 
ATOM      2  C3  UNL d   1      -0.442   1.799   0.975  0.00  0.00     0.004 A 
ATOM      3  C4  UNL d   1      -0.375   2.693  -0.091  0.00  0.00    -0.003 A 
ATOM      4  C5  UNL d   1       0.325   3.886   0.047  0.00  0.00     0.000 A 
ATOM      5  C6  UNL d   1       0.973   4.176   1.247  0.00  0.00     0.000 A 
ATOM      6  C7  UNL d   1       0.929   3.278   2.327  0.00  0.00    -0.073 A 
ATOM      7  C8  UNL d   1       1.641   3.644   3.601  0.00  0.00     0.078 C 
ENDROOT
BRANCH   1   8
ATOM      8  C1  UNL d   1       0.060   1.087   3.329  0.00  0.00     0.053 C 
ATOM      9  C   UNL d   1       0.872  -0.177   3.089  0.00  0.00     0.018 C 
ENDBRANCH   1   8
TORSDOF 1
ENDMDL
