MODEL 1
REMARK minimizedAffinity 5.63875914
REMARK minimizedRMSD -1
REMARK  1 active torsions:
REMARK  status: ('A' for Active; 'I' for Inactive)
REMARK    1  A    between atoms: C1_2  and  C2_3 
ROOT
ATOM      1  C2  UNL d   1      -0.850   1.024  -1.132  0.00  0.00    -0.076 A 
ATOM      2  C3  UNL d   1       0.368   0.322  -1.125  0.00  0.00     0.004 A 
ATOM      3  C4  UNL d   1       0.396  -1.066  -1.244  0.00  0.00    -0.003 A 
ATOM      4  C5  UNL d   1      -0.793  -1.775  -1.373  0.00  0.00     0.000 A 
ATOM      5  C6  UNL d   1      -2.009  -1.093  -1.400  0.00  0.00     0.000 A 
ATOM      6  C7  UNL d   1      -2.055   0.307  -1.297  0.00  0.00    -0.073 A 
ATOM      7  C8  UNL d   1      -3.394   0.991  -1.326  0.00  0.00     0.078 C 
ENDROOT
BRANCH   1   8
ATOM      8  C1  UNL d   1      -0.821   2.528  -0.971  0.00  0.00     0.053 C 
ATOM      9  C   UNL d   1      -0.148   2.962   0.322  0.00  0.00     0.018 C 
ENDBRANCH   1   8
TORSDOF 1
ENDMDL
