MODEL 1
REMARK minimizedAffinity 6.16543722
REMARK minimizedRMSD -1
REMARK  0 active torsions:
REMARK  status: ('A' for Active; 'I' for Inactive)
ROOT
ATOM      1  O1  BZF d   1       2.623   1.514   1.137  0.00  0.00    -0.204 OA
ATOM      2  C2  BZF d   1       2.503   0.392   1.933  0.00  0.00     0.174 A 
ATOM      3  C3  BZF d   1       1.241  -0.083   1.904  0.00  0.00    -0.012 A 
ATOM      4  C3A BZF d   1       0.550   0.744   0.963  0.00  0.00    -0.107 A 
ATOM      5  C4  BZF d   1      -0.731   0.760   0.490  0.00  0.00     0.055 A 
ATOM      6  C5  BZF d   1      -1.106   1.745  -0.369  0.00  0.00    -0.016 A 
ATOM      7  C6  BZF d   1      -0.229   2.731  -0.770  0.00  0.00     0.022 A 
ATOM      8  C7  BZF d   1       1.053   2.754  -0.332  0.00  0.00     0.029 A 
ATOM      9  C7A BZF d   1       1.444   1.741   0.510  0.00  0.00     0.058 A 
ENDROOT
TORSDOF 0
ENDMDL
