MODEL 1
REMARK minimizedAffinity -3.36344957
REMARK minimizedRMSD -1
REMARK  0 active torsions:
REMARK  status: ('A' for Active; 'I' for Inactive)
ROOT
ATOM      1  O1  BZF d   1      -0.122  -1.186  -0.809  0.00  0.00    -0.204 OA
ATOM      2  C2  BZF d   1       0.031  -0.328   0.263  0.00  0.00     0.174 A 
ATOM      3  C3  BZF d   1      -0.860   0.682   0.198  0.00  0.00    -0.012 A 
ATOM      4  C3A BZF d   1      -1.677   0.391  -0.940  0.00  0.00    -0.107 A 
ATOM      5  C4  BZF d   1      -2.747   1.017  -1.512  0.00  0.00     0.055 A 
ATOM      6  C5  BZF d   1      -3.272   0.512  -2.659  0.00  0.00    -0.016 A 
ATOM      7  C6  BZF d   1      -2.750  -0.613  -3.263  0.00  0.00     0.022 A 
ATOM      8  C7  BZF d   1      -1.692  -1.272  -2.730  0.00  0.00     0.029 A 
ATOM      9  C7A BZF d   1      -1.180  -0.783  -1.553  0.00  0.00     0.058 A 
ENDROOT
TORSDOF 0
ENDMDL
