MODEL 1
REMARK minimizedAffinity -2.90469241
REMARK minimizedRMSD -1
REMARK  0 active torsions:
REMARK  status: ('A' for Active; 'I' for Inactive)
ROOT
ATOM      1  O1  BZF d   1       1.814  -0.789   1.351  0.00  0.00    -0.204 OA
ATOM      2  C2  BZF d   1       2.826   0.152   1.335  0.00  0.00     0.174 A 
ATOM      3  C3  BZF d   1       2.482   1.212   0.576  0.00  0.00    -0.012 A 
ATOM      4  C3A BZF d   1       1.136   0.957   0.162  0.00  0.00    -0.107 A 
ATOM      5  C4  BZF d   1       0.240   1.653  -0.599  0.00  0.00     0.055 A 
ATOM      6  C5  BZF d   1      -0.967   1.092  -0.876  0.00  0.00    -0.016 A 
ATOM      7  C6  BZF d   1      -1.308  -0.162  -0.413  0.00  0.00     0.022 A 
ATOM      8  C7  BZF d   1      -0.455  -0.888   0.349  0.00  0.00     0.029 A 
ATOM      9  C7A BZF d   1       0.753  -0.311   0.658  0.00  0.00     0.058 A 
ENDROOT
TORSDOF 0
ENDMDL
