MODEL 1
REMARK minimizedAffinity -3.00531507
REMARK minimizedRMSD -1
REMARK  0 active torsions:
REMARK  status: ('A' for Active; 'I' for Inactive)
ROOT
ATOM      1  O1  BZF d   1      -0.396  -1.122   0.783  0.00  0.00    -0.204 OA
ATOM      2  C2  BZF d   1      -1.651  -0.821   0.290  0.00  0.00     0.174 A 
ATOM      3  C3  BZF d   1      -1.665   0.407  -0.266  0.00  0.00    -0.012 A 
ATOM      4  C3A BZF d   1      -0.312   0.869  -0.193  0.00  0.00    -0.107 A 
ATOM      5  C4  BZF d   1       0.312   2.015  -0.597  0.00  0.00     0.055 A 
ATOM      6  C5  BZF d   1       1.629   2.185  -0.311  0.00  0.00    -0.016 A 
ATOM      7  C6  BZF d   1       2.351   1.233   0.379  0.00  0.00     0.022 A 
ATOM      8  C7  BZF d   1       1.777   0.078   0.795  0.00  0.00     0.029 A 
ATOM      9  C7A BZF d   1       0.454  -0.111   0.479  0.00  0.00     0.058 A 
ENDROOT
TORSDOF 0
ENDMDL
