MODEL 1
REMARK minimizedAffinity -5.63799047
REMARK minimizedRMSD -1
REMARK  0 active torsions:
REMARK  status: ('A' for Active; 'I' for Inactive)
ROOT
ATOM      1  O1  BZF d   1       2.832   0.895   0.323  0.00  0.00    -0.204 OA
ATOM      2  C2  BZF d   1       1.887   1.590  -0.407  0.00  0.00     0.174 A 
ATOM      3  C3  BZF d   1       0.715   0.923  -0.431  0.00  0.00    -0.012 A 
ATOM      4  C3A BZF d   1       0.915  -0.218   0.409  0.00  0.00    -0.107 A 
ATOM      5  C4  BZF d   1       0.110  -1.251   0.796  0.00  0.00     0.055 A 
ATOM      6  C5  BZF d   1       0.632  -2.243   1.564  0.00  0.00    -0.016 A 
ATOM      7  C6  BZF d   1       1.954  -2.236   1.960  0.00  0.00     0.022 A 
ATOM      8  C7  BZF d   1       2.789  -1.229   1.606  0.00  0.00     0.029 A 
ATOM      9  C7A BZF d   1       2.256  -0.209   0.856  0.00  0.00     0.058 A 
ENDROOT
TORSDOF 0
ENDMDL
