MODEL 1
REMARK minimizedAffinity -4.66111422
REMARK minimizedRMSD -1
REMARK  0 active torsions:
REMARK  status: ('A' for Active; 'I' for Inactive)
ROOT
ATOM      1  O1  BZF d   1       3.442   0.367   2.422  0.00  0.00    -0.204 OA
ATOM      2  C2  BZF d   1       3.745  -0.979   2.342  0.00  0.00     0.174 A 
ATOM      3  C3  BZF d   1       2.822  -1.633   1.607  0.00  0.00    -0.012 A 
ATOM      4  C3A BZF d   1       1.935  -0.619   1.126  0.00  0.00    -0.107 A 
ATOM      5  C4  BZF d   1       0.826  -0.642   0.330  0.00  0.00     0.055 A 
ATOM      6  C5  BZF d   1       0.146   0.514   0.111  0.00  0.00    -0.016 A 
ATOM      7  C6  BZF d   1       0.543   1.709   0.676  0.00  0.00     0.022 A 
ATOM      8  C7  BZF d   1       1.640   1.782   1.469  0.00  0.00     0.029 A 
ATOM      9  C7A BZF d   1       2.348   0.622   1.665  0.00  0.00     0.058 A 
ENDROOT
TORSDOF 0
ENDMDL
