MODEL 1
REMARK minimizedAffinity 2.70195746
REMARK minimizedRMSD -1
REMARK  0 active torsions:
REMARK  status: ('A' for Active; 'I' for Inactive)
ROOT
ATOM      1  O1  BZF d   1      -3.393   3.061  -3.663  0.00  0.00    -0.204 OA
ATOM      2  C2  BZF d   1      -3.776   1.765  -3.373  0.00  0.00     0.174 A 
ATOM      3  C3  BZF d   1      -4.768   1.753  -2.460  0.00  0.00    -0.012 A 
ATOM      4  C3A BZF d   1      -5.084   3.129  -2.228  0.00  0.00    -0.107 A 
ATOM      5  C4  BZF d   1      -5.998   3.761  -1.434  0.00  0.00     0.055 A 
ATOM      6  C5  BZF d   1      -5.999   5.119  -1.382  0.00  0.00    -0.016 A 
ATOM      7  C6  BZF d   1      -5.100   5.875  -2.106  0.00  0.00     0.022 A 
ATOM      8  C7  BZF d   1      -4.179   5.292  -2.911  0.00  0.00     0.029 A 
ATOM      9  C7A BZF d   1      -4.196   3.921  -2.991  0.00  0.00     0.058 A 
ENDROOT
TORSDOF 0
ENDMDL
