MODEL 1
REMARK minimizedAffinity -6.41869831
REMARK minimizedRMSD -1
REMARK  0 active torsions:
REMARK  status: ('A' for Active; 'I' for Inactive)
ROOT
ATOM      1  O1  BZF d   1      -1.153  -1.146   0.653  0.00  0.00    -0.204 OA
ATOM      2  C2  BZF d   1      -1.585  -0.037  -0.048  0.00  0.00     0.174 A 
ATOM      3  C3  BZF d   1      -0.572   0.832  -0.240  0.00  0.00    -0.012 A 
ATOM      4  C3A BZF d   1       0.585   0.186   0.301  0.00  0.00    -0.107 A 
ATOM      5  C4  BZF d   1       1.901   0.540   0.394  0.00  0.00     0.055 A 
ATOM      6  C5  BZF d   1       2.762  -0.285   1.045  0.00  0.00    -0.016 A 
ATOM      7  C6  BZF d   1       2.342  -1.467   1.618  0.00  0.00     0.022 A 
ATOM      8  C7  BZF d   1       1.048  -1.864   1.547  0.00  0.00     0.029 A 
ATOM      9  C7A BZF d   1       0.182  -1.048   0.861  0.00  0.00     0.058 A 
ENDROOT
TORSDOF 0
ENDMDL
