MODEL 1
REMARK minimizedAffinity 3.54367518
REMARK minimizedRMSD -1
REMARK  0 active torsions:
REMARK  status: ('A' for Active; 'I' for Inactive)
ROOT
ATOM      1  C1  DEN d   1       2.070   1.272   0.223  0.00  0.00     0.130 A 
ATOM      2  C2  DEN d   1       2.873   2.259   0.940  0.00  0.00    -0.031 A 
ATOM      3  C3  DEN d   1       3.262   1.675   2.239  0.00  0.00     0.027 A 
ATOM      4  C4  DEN d   1       2.708  -0.653   3.203  0.00  0.00     0.027 A 
ATOM      5  C5  DEN d   1       2.045  -1.837   2.966  0.00  0.00    -0.003 A 
ATOM      6  C6  DEN d   1       1.322  -2.053   1.823  0.00  0.00     0.001 A 
ATOM      7  C7  DEN d   1       1.282  -1.087   0.852  0.00  0.00     0.017 A 
ATOM      8  C8  DEN d   1       1.941   0.112   1.087  0.00  0.00    -0.094 A 
ATOM      9  C9  DEN d   1       2.677   0.307   2.243  0.00  0.00    -0.072 A 
ENDROOT
TORSDOF 0
ENDMDL
