MODEL 1
REMARK minimizedAffinity 2.1765027
REMARK minimizedRMSD -1
REMARK  0 active torsions:
REMARK  status: ('A' for Active; 'I' for Inactive)
ROOT
ATOM      1  C1  DEN d   1       0.655  -1.506   2.199  0.00  0.00     0.130 A 
ATOM      2  C2  DEN d   1       1.596  -2.597   2.433  0.00  0.00    -0.031 A 
ATOM      3  C3  DEN d   1       1.681  -3.400   1.197  0.00  0.00     0.027 A 
ATOM      4  C4  DEN d   1       0.457  -3.058  -1.047  0.00  0.00     0.027 A 
ATOM      5  C5  DEN d   1      -0.452  -2.274  -1.722  0.00  0.00    -0.003 A 
ATOM      6  C6  DEN d   1      -1.076  -1.207  -1.131  0.00  0.00     0.001 A 
ATOM      7  C7  DEN d   1      -0.766  -0.869   0.159  0.00  0.00     0.017 A 
ATOM      8  C8  DEN d   1       0.145  -1.660   0.848  0.00  0.00    -0.094 A 
ATOM      9  C9  DEN d   1       0.774  -2.726   0.230  0.00  0.00    -0.072 A 
ENDROOT
TORSDOF 0
ENDMDL
