MODEL 1
REMARK minimizedAffinity 6.26968241
REMARK minimizedRMSD -1
REMARK  0 active torsions:
REMARK  status: ('A' for Active; 'I' for Inactive)
ROOT
ATOM      1  C1  DEN d   1       1.847   1.027   4.778  0.00  0.00     0.130 A 
ATOM      2  C2  DEN d   1       2.258   2.211   4.029  0.00  0.00    -0.031 A 
ATOM      3  C3  DEN d   1       2.599   1.787   2.656  0.00  0.00     0.027 A 
ATOM      4  C4  DEN d   1       2.526  -0.575   1.622  0.00  0.00     0.027 A 
ATOM      5  C5  DEN d   1       2.253  -1.901   1.872  0.00  0.00    -0.003 A 
ATOM      6  C6  DEN d   1       1.861  -2.346   3.106  0.00  0.00     0.001 A 
ATOM      7  C7  DEN d   1       1.688  -1.450   4.127  0.00  0.00     0.017 A 
ATOM      8  C8  DEN d   1       1.968  -0.112   3.886  0.00  0.00    -0.094 A 
ATOM      9  C9  DEN d   1       2.352   0.320   2.627  0.00  0.00    -0.072 A 
ENDROOT
TORSDOF 0
ENDMDL
