MODEL 1
REMARK minimizedAffinity 4.77272844
REMARK minimizedRMSD -1
REMARK  0 active torsions:
REMARK  status: ('A' for Active; 'I' for Inactive)
ROOT
ATOM      1  C1  DEN d   1       1.920  -1.096   4.136  0.00  0.00     0.130 A 
ATOM      2  C2  DEN d   1       1.642  -1.873   2.930  0.00  0.00    -0.031 A 
ATOM      3  C3  DEN d   1       1.920  -1.015   1.761  0.00  0.00     0.027 A 
ATOM      4  C4  DEN d   1       2.752   1.426   1.700  0.00  0.00     0.027 A 
ATOM      5  C5  DEN d   1       3.117   2.507   2.472  0.00  0.00    -0.003 A 
ATOM      6  C6  DEN d   1       3.076   2.474   3.840  0.00  0.00     0.001 A 
ATOM      7  C7  DEN d   1       2.704   1.322   4.481  0.00  0.00     0.017 A 
ATOM      8  C8  DEN d   1       2.328   0.230   3.710  0.00  0.00    -0.094 A 
ATOM      9  C9  DEN d   1       2.388   0.279   2.328  0.00  0.00    -0.072 A 
ENDROOT
TORSDOF 0
ENDMDL
