MODEL 1
REMARK minimizedAffinity 5.00354528
REMARK minimizedRMSD -1
REMARK  0 active torsions:
REMARK  status: ('A' for Active; 'I' for Inactive)
ROOT
ATOM      1  C1  DEN d   1      -4.414   2.156  -0.782  0.00  0.00     0.130 A 
ATOM      2  C2  DEN d   1      -5.234   3.189  -0.156  0.00  0.00    -0.031 A 
ATOM      3  C3  DEN d   1      -6.000   3.871  -1.218  0.00  0.00     0.027 A 
ATOM      4  C4  DEN d   1      -6.000   3.425  -3.759  0.00  0.00     0.027 A 
ATOM      5  C5  DEN d   1      -5.457   2.655  -4.764  0.00  0.00    -0.003 A 
ATOM      6  C6  DEN d   1      -4.511   1.696  -4.518  0.00  0.00     0.001 A 
ATOM      7  C7  DEN d   1      -4.112   1.450  -3.231  0.00  0.00     0.017 A 
ATOM      8  C8  DEN d   1      -4.649   2.227  -2.213  0.00  0.00    -0.094 A 
ATOM      9  C9  DEN d   1      -5.614   3.184  -2.481  0.00  0.00    -0.072 A 
ENDROOT
TORSDOF 0
ENDMDL
