MODEL 1
REMARK minimizedAffinity 12.0274477
REMARK minimizedRMSD -1
REMARK  0 active torsions:
REMARK  status: ('A' for Active; 'I' for Inactive)
ROOT
ATOM      1  C1  DEN d   1      -3.437   2.462  -3.409  0.00  0.00     0.130 A 
ATOM      2  C2  DEN d   1      -4.595   2.726  -4.258  0.00  0.00    -0.031 A 
ATOM      3  C3  DEN d   1      -5.763   2.947  -3.381  0.00  0.00     0.027 A 
ATOM      4  C4  DEN d   1      -5.888   2.911  -0.805  0.00  0.00     0.027 A 
ATOM      5  C5  DEN d   1      -5.165   2.719   0.351  0.00  0.00    -0.003 A 
ATOM      6  C6  DEN d   1      -3.833   2.397   0.335  0.00  0.00     0.001 A 
ATOM      7  C7  DEN d   1      -3.173   2.302  -0.861  0.00  0.00     0.017 A 
ATOM      8  C8  DEN d   1      -3.897   2.487  -2.032  0.00  0.00    -0.094 A 
ATOM      9  C9  DEN d   1      -5.239   2.824  -1.994  0.00  0.00    -0.072 A 
ENDROOT
TORSDOF 0
ENDMDL
