MODEL 1
REMARK minimizedAffinity 4.00138474
REMARK minimizedRMSD -1
REMARK  0 active torsions:
REMARK  status: ('A' for Active; 'I' for Inactive)
ROOT
ATOM      1  C1  DEN d   1       2.618   3.015   0.312  0.00  0.00     0.130 A 
ATOM      2  C2  DEN d   1       1.397   3.815   0.263  0.00  0.00    -0.031 A 
ATOM      3  C3  DEN d   1       0.283   2.979   0.752  0.00  0.00     0.027 A 
ATOM      4  C4  DEN d   1       0.329   0.537   1.581  0.00  0.00     0.027 A 
ATOM      5  C5  DEN d   1       1.133  -0.560   1.796  0.00  0.00    -0.003 A 
ATOM      6  C6  DEN d   1       2.471  -0.554   1.502  0.00  0.00     0.001 A 
ATOM      7  C7  DEN d   1       3.054   0.587   1.018  0.00  0.00     0.017 A 
ATOM      8  C8  DEN d   1       2.249   1.695   0.792  0.00  0.00    -0.094 A 
ATOM      9  C9  DEN d   1       0.901   1.673   1.107  0.00  0.00    -0.072 A 
ENDROOT
TORSDOF 0
ENDMDL
