MODEL 1
REMARK minimizedAffinity 8.8627758
REMARK minimizedRMSD -1
REMARK  0 active torsions:
REMARK  status: ('A' for Active; 'I' for Inactive)
ROOT
ATOM      1  C1  DEN d   1       3.777  -2.513   3.257  0.00  0.00     0.130 A 
ATOM      2  C2  DEN d   1       2.614  -2.830   4.083  0.00  0.00    -0.031 A 
ATOM      3  C3  DEN d   1       1.547  -1.863   3.758  0.00  0.00     0.027 A 
ATOM      4  C4  DEN d   1       1.579   0.081   2.063  0.00  0.00     0.027 A 
ATOM      5  C5  DEN d   1       2.348   0.750   1.137  0.00  0.00    -0.003 A 
ATOM      6  C6  DEN d   1       3.648   0.402   0.879  0.00  0.00     0.001 A 
ATOM      7  C7  DEN d   1       4.204  -0.671   1.523  0.00  0.00     0.017 A 
ATOM      8  C8  DEN d   1       3.437  -1.346   2.464  0.00  0.00    -0.094 A 
ATOM      9  C9  DEN d   1       2.121  -0.987   2.701  0.00  0.00    -0.072 A 
ENDROOT
TORSDOF 0
ENDMDL
