MODEL 1
REMARK minimizedAffinity 5.80020237
REMARK minimizedRMSD -1
REMARK  2 active torsions:
REMARK  status: ('A' for Active; 'I' for Inactive)
REMARK    1  A    between atoms: C1_2  and  C2_3 
REMARK    2  A    between atoms: C2_3  and  C3_4 
ROOT
ATOM      1  C3  UNL d   1       3.962  -2.021   0.663  0.00  0.00    -0.075 A 
ATOM      2  C4  UNL d   1       3.605  -3.284   1.158  0.00  0.00     0.002 A 
ATOM      3  C5  UNL d   1       2.269  -3.590   1.419  0.00  0.00     0.002 A 
ATOM      4  C6  UNL d   1       1.277  -2.637   1.200  0.00  0.00    -0.004 A 
ATOM      5  C7  UNL d   1       1.622  -1.374   0.724  0.00  0.00     0.002 A 
ATOM      6  C8  UNL d   1       2.958  -1.066   0.458  0.00  0.00     0.002 A 
ENDROOT
BRANCH   1   7
ATOM      7  C2  UNL d   1       5.403  -1.693   0.350  0.00  0.00     0.056 C 
BRANCH   7   8
ATOM      8  C1  UNL d   1       5.592  -0.376  -0.410  0.00  0.00     0.007 C 
ATOM      9  C   UNL d   1       5.994   0.784   0.490  0.00  0.00     0.009 C 
ENDBRANCH   7   8
ENDBRANCH   1   7
TORSDOF 2
ENDMDL
