MODEL 1
REMARK minimizedAffinity 2.46599698
REMARK minimizedRMSD -1
REMARK  2 active torsions:
REMARK  status: ('A' for Active; 'I' for Inactive)
REMARK    1  A    between atoms: C1_2  and  C2_3 
REMARK    2  A    between atoms: C2_3  and  C3_4 
ROOT
ATOM      1  C3  UNL d   1       1.499  -2.422   2.095  0.00  0.00    -0.075 A 
ATOM      2  C4  UNL d   1       1.489  -3.824   2.113  0.00  0.00     0.002 A 
ATOM      3  C5  UNL d   1       2.088  -4.550   1.084  0.00  0.00     0.002 A 
ATOM      4  C6  UNL d   1       2.696  -3.886   0.021  0.00  0.00    -0.004 A 
ATOM      5  C7  UNL d   1       2.698  -2.493  -0.016  0.00  0.00     0.002 A 
ATOM      6  C8  UNL d   1       2.103  -1.764   1.015  0.00  0.00     0.002 A 
ENDROOT
BRANCH   1   7
ATOM      7  C2  UNL d   1       0.878  -1.630   3.221  0.00  0.00     0.056 C 
BRANCH   7   8
ATOM      8  C1  UNL d   1      -0.642  -1.793   3.333  0.00  0.00     0.007 C 
ATOM      9  C   UNL d   1      -1.391  -0.467   3.299  0.00  0.00     0.009 C 
ENDBRANCH   7   8
ENDBRANCH   1   7
TORSDOF 2
ENDMDL
