MODEL 1
REMARK minimizedAffinity -0.876732111
REMARK minimizedRMSD -1
REMARK  2 active torsions:
REMARK  status: ('A' for Active; 'I' for Inactive)
REMARK    1  A    between atoms: C1_2  and  C2_3 
REMARK    2  A    between atoms: C2_3  and  C3_4 
ROOT
ATOM      1  C3  UNL d   1       1.163  -1.867   2.493  0.00  0.00    -0.075 A 
ATOM      2  C4  UNL d   1      -0.111  -2.172   1.992  0.00  0.00     0.002 A 
ATOM      3  C5  UNL d   1      -1.225  -1.433   2.391  0.00  0.00     0.002 A 
ATOM      4  C6  UNL d   1      -1.082  -0.389   3.302  0.00  0.00    -0.004 A 
ATOM      5  C7  UNL d   1       0.176  -0.088   3.820  0.00  0.00     0.002 A 
ATOM      6  C8  UNL d   1       1.293  -0.823   3.419  0.00  0.00     0.002 A 
ENDROOT
BRANCH   1   7
ATOM      7  C2  UNL d   1       2.376  -2.644   2.042  0.00  0.00     0.056 C 
BRANCH   7   8
ATOM      8  C1  UNL d   1       3.305  -1.863   1.107  0.00  0.00     0.007 C 
ATOM      9  C   UNL d   1       4.771  -2.246   1.259  0.00  0.00     0.009 C 
ENDBRANCH   7   8
ENDBRANCH   1   7
TORSDOF 2
ENDMDL
