MODEL 1
REMARK minimizedAffinity -0.156848386
REMARK minimizedRMSD -1
REMARK  2 active torsions:
REMARK  status: ('A' for Active; 'I' for Inactive)
REMARK    1  A    between atoms: C1_2  and  C2_3 
REMARK    2  A    between atoms: C2_3  and  C3_4 
ROOT
ATOM      1  C3  UNL d   1       0.989  -1.405   1.678  0.00  0.00    -0.075 A 
ATOM      2  C4  UNL d   1      -0.006  -2.098   2.383  0.00  0.00     0.002 A 
ATOM      3  C5  UNL d   1      -1.002  -1.403   3.069  0.00  0.00     0.002 A 
ATOM      4  C6  UNL d   1      -1.011  -0.010   3.068  0.00  0.00    -0.004 A 
ATOM      5  C7  UNL d   1      -0.017   0.688   2.385  0.00  0.00     0.002 A 
ATOM      6  C8  UNL d   1       0.978  -0.004   1.694  0.00  0.00     0.002 A 
ENDROOT
BRANCH   1   7
ATOM      7  C2  UNL d   1       2.053  -2.152   0.909  0.00  0.00     0.056 C 
BRANCH   7   8
ATOM      8  C1  UNL d   1       2.585  -3.396   1.627  0.00  0.00     0.007 C 
ATOM      9  C   UNL d   1       2.203  -4.698   0.935  0.00  0.00     0.009 C 
ENDBRANCH   7   8
ENDBRANCH   1   7
TORSDOF 2
ENDMDL
