MODEL 1
REMARK minimizedAffinity 3.76703095
REMARK minimizedRMSD -1
REMARK  2 active torsions:
REMARK  status: ('A' for Active; 'I' for Inactive)
REMARK    1  A    between atoms: C1_2  and  C2_3 
REMARK    2  A    between atoms: C2_3  and  C3_4 
ROOT
ATOM      1  C3  UNL d   1       0.829  -1.822   2.144  0.00  0.00    -0.075 A 
ATOM      2  C4  UNL d   1       1.309  -1.277   0.944  0.00  0.00     0.002 A 
ATOM      3  C5  UNL d   1       2.269  -1.955   0.192  0.00  0.00     0.002 A 
ATOM      4  C6  UNL d   1       2.769  -3.177   0.635  0.00  0.00    -0.004 A 
ATOM      5  C7  UNL d   1       2.312  -3.720   1.834  0.00  0.00     0.002 A 
ATOM      6  C8  UNL d   1       1.348  -3.046   2.585  0.00  0.00     0.002 A 
ENDROOT
BRANCH   1   7
ATOM      7  C2  UNL d   1      -0.232  -1.108   2.946  0.00  0.00     0.056 C 
BRANCH   7   8
ATOM      8  C1  UNL d   1      -1.486  -0.748   2.142  0.00  0.00     0.007 C 
ATOM      9  C   UNL d   1      -2.295   0.381   2.766  0.00  0.00     0.009 C 
ENDBRANCH   7   8
ENDBRANCH   1   7
TORSDOF 2
ENDMDL
