MODEL 1
REMARK minimizedAffinity 3.56586289
REMARK minimizedRMSD -1
REMARK  2 active torsions:
REMARK  status: ('A' for Active; 'I' for Inactive)
REMARK    1  A    between atoms: C1_2  and  C2_3 
REMARK    2  A    between atoms: C2_3  and  C3_4 
ROOT
ATOM      1  C3  UNL d   1      -0.332  -0.673  -0.026  0.00  0.00    -0.075 A 
ATOM      2  C4  UNL d   1       0.979  -1.033  -0.369  0.00  0.00     0.002 A 
ATOM      3  C5  UNL d   1       1.766  -1.769   0.517  0.00  0.00     0.002 A 
ATOM      4  C6  UNL d   1       1.258  -2.146   1.758  0.00  0.00    -0.004 A 
ATOM      5  C7  UNL d   1      -0.038  -1.780   2.116  0.00  0.00     0.002 A 
ATOM      6  C8  UNL d   1      -0.829  -1.047   1.230  0.00  0.00     0.002 A 
ENDROOT
BRANCH   1   7
ATOM      7  C2  UNL d   1      -1.200   0.098  -0.991  0.00  0.00     0.056 C 
BRANCH   7   8
ATOM      8  C1  UNL d   1      -0.700   1.518  -1.282  0.00  0.00     0.007 C 
ATOM      9  C   UNL d   1      -1.607   2.291  -2.229  0.00  0.00     0.009 C 
ENDBRANCH   7   8
ENDBRANCH   1   7
TORSDOF 2
ENDMDL
