MODEL 1
REMARK minimizedAffinity 9.17397881
REMARK minimizedRMSD -1
REMARK  0 active torsions:
REMARK  status: ('A' for Active; 'I' for Inactive)
ROOT
ATOM      1  N1  IND d   1       1.168   3.412   0.380  0.00  0.00    -0.196 N 
ATOM      2  C2  IND d   1       0.132   4.226   0.015  0.00  0.00     0.054 A 
ATOM      3  C3  IND d   1      -0.937   4.016   0.815  0.00  0.00    -0.031 A 
ATOM      4  C4  IND d   1      -1.175   2.458   2.850  0.00  0.00     0.051 A 
ATOM      5  C5  IND d   1      -0.510   1.489   3.549  0.00  0.00    -0.031 A 
ATOM      6  C6  IND d   1       0.775   1.106   3.223  0.00  0.00     0.015 A 
ATOM      7  C7  IND d   1       1.450   1.688   2.187  0.00  0.00    -0.016 A 
ATOM      8  C8  IND d   1       0.776   2.667   1.471  0.00  0.00    -0.047 A 
ATOM      9  C9  IND d   1      -0.544   3.030   1.771  0.00  0.00    -0.096 A 
ATOM     10  HN1 IND d   1       1.935   3.372  -0.006  0.00  0.00     0.298 HD
ENDROOT
TORSDOF 0
ENDMDL
