MODEL 1
REMARK minimizedAffinity 5.87664461
REMARK minimizedRMSD -1
REMARK  0 active torsions:
REMARK  status: ('A' for Active; 'I' for Inactive)
ROOT
ATOM      1  N1  IND d   1       1.110  -6.000  -2.377  0.00  0.00    -0.196 N 
ATOM      2  C2  IND d   1       0.715  -5.999  -1.069  0.00  0.00     0.054 A 
ATOM      3  C3  IND d   1       1.657  -5.416  -0.294  0.00  0.00    -0.031 A 
ATOM      4  C4  IND d   1       3.877  -4.305  -0.975  0.00  0.00     0.051 A 
ATOM      5  C5  IND d   1       4.688  -4.090  -2.054  0.00  0.00    -0.031 A 
ATOM      6  C6  IND d   1       4.339  -4.508  -3.323  0.00  0.00     0.015 A 
ATOM      7  C7  IND d   1       3.155  -5.147  -3.562  0.00  0.00    -0.016 A 
ATOM      8  C8  IND d   1       2.333  -5.373  -2.467  0.00  0.00    -0.047 A 
ATOM      9  C9  IND d   1       2.701  -4.990  -1.171  0.00  0.00    -0.096 A 
ATOM     10  HN1 IND d   1       0.668  -6.336  -3.034  0.00  0.00     0.298 HD
ENDROOT
TORSDOF 0
ENDMDL
