MODEL 1
REMARK minimizedAffinity 9.12206936
REMARK minimizedRMSD -1
REMARK  0 active torsions:
REMARK  status: ('A' for Active; 'I' for Inactive)
ROOT
ATOM      1  N1  IND d   1       1.540   3.225   1.618  0.00  0.00    -0.196 N 
ATOM      2  C2  IND d   1       0.527   2.327   1.807  0.00  0.00     0.054 A 
ATOM      3  C3  IND d   1      -0.536   2.648   1.036  0.00  0.00    -0.031 A 
ATOM      4  C4  IND d   1      -0.795   4.545  -0.685  0.00  0.00     0.051 A 
ATOM      5  C5  IND d   1      -0.153   5.645  -1.181  0.00  0.00    -0.031 A 
ATOM      6  C6  IND d   1       1.114   6.000  -0.762  0.00  0.00     0.015 A 
ATOM      7  C7  IND d   1       1.792   5.258   0.163  0.00  0.00    -0.016 A 
ATOM      8  C8  IND d   1       1.140   4.145   0.674  0.00  0.00    -0.047 A 
ATOM      9  C9  IND d   1      -0.162   3.804   0.285  0.00  0.00    -0.096 A 
ATOM     10  HN1 IND d   1       2.299   3.217   2.021  0.00  0.00     0.298 HD
ENDROOT
TORSDOF 0
ENDMDL
