MODEL 1
REMARK minimizedAffinity 11.0408468
REMARK minimizedRMSD -1
REMARK  0 active torsions:
REMARK  status: ('A' for Active; 'I' for Inactive)
ROOT
ATOM      1  N1  IND d   1       0.540   2.261   0.864  0.00  0.00    -0.196 N 
ATOM      2  C2  IND d   1       0.576   2.401   2.223  0.00  0.00     0.054 A 
ATOM      3  C3  IND d   1       0.234   3.660   2.576  0.00  0.00    -0.031 A 
ATOM      4  C4  IND d   1      -0.520   5.626   1.095  0.00  0.00     0.051 A 
ATOM      5  C5  IND d   1      -0.676   5.992  -0.212  0.00  0.00    -0.031 A 
ATOM      6  C6  IND d   1      -0.431   5.115  -1.249  0.00  0.00     0.015 A 
ATOM      7  C7  IND d   1      -0.032   3.829  -1.015  0.00  0.00    -0.016 A 
ATOM      8  C8  IND d   1       0.134   3.456   0.312  0.00  0.00    -0.047 A 
ATOM      9  C9  IND d   1      -0.072   4.355   1.366  0.00  0.00    -0.096 A 
ATOM     10  HN1 IND d   1       0.738   1.548   0.427  0.00  0.00     0.298 HD
ENDROOT
TORSDOF 0
ENDMDL
