MODEL 1
REMARK minimizedAffinity 19.6883965
REMARK minimizedRMSD -1
REMARK  0 active torsions:
REMARK  status: ('A' for Active; 'I' for Inactive)
ROOT
ATOM      1  N1  IND d   1       4.768  -3.302  -0.531  0.00  0.00    -0.196 N 
ATOM      2  C2  IND d   1       5.541  -2.177  -0.596  0.00  0.00     0.054 A 
ATOM      3  C3  IND d   1       5.991  -1.988  -1.857  0.00  0.00    -0.031 A 
ATOM      4  C4  IND d   1       5.498  -3.344  -3.990  0.00  0.00     0.051 A 
ATOM      5  C5  IND d   1       4.872  -4.479  -4.424  0.00  0.00    -0.031 A 
ATOM      6  C6  IND d   1       4.164  -5.294  -3.566  0.00  0.00     0.015 A 
ATOM      7  C7  IND d   1       4.044  -4.998  -2.238  0.00  0.00    -0.016 A 
ATOM      8  C8  IND d   1       4.683  -3.850  -1.792  0.00  0.00    -0.047 A 
ATOM      9  C9  IND d   1       5.440  -3.041  -2.650  0.00  0.00    -0.096 A 
ATOM     10  HN1 IND d   1       4.396  -3.615   0.179  0.00  0.00     0.298 HD
ENDROOT
TORSDOF 0
ENDMDL
