MODEL 1
REMARK minimizedAffinity 10.9046783
REMARK minimizedRMSD -1
REMARK  0 active torsions:
REMARK  status: ('A' for Active; 'I' for Inactive)
ROOT
ATOM      1  N1  IND d   1       0.678   2.352   1.317  0.00  0.00    -0.196 N 
ATOM      2  C2  IND d   1       0.031   2.204   2.512  0.00  0.00     0.054 A 
ATOM      3  C3  IND d   1      -0.723   3.294   2.777  0.00  0.00    -0.031 A 
ATOM      4  C4  IND d   1      -1.124   5.393   1.341  0.00  0.00     0.051 A 
ATOM      5  C5  IND d   1      -0.723   6.000   0.184  0.00  0.00    -0.031 A 
ATOM      6  C6  IND d   1       0.182   5.408  -0.673  0.00  0.00     0.015 A 
ATOM      7  C7  IND d   1       0.713   4.177  -0.410  0.00  0.00    -0.016 A 
ATOM      8  C8  IND d   1       0.313   3.561   0.768  0.00  0.00    -0.047 A 
ATOM      9  C9  IND d   1      -0.572   4.176   1.662  0.00  0.00    -0.096 A 
ATOM     10  HN1 IND d   1       1.221   1.784   0.966  0.00  0.00     0.298 HD
ENDROOT
TORSDOF 0
ENDMDL
