MODEL 1
REMARK minimizedAffinity 12.6749821
REMARK minimizedRMSD -1
REMARK  0 active torsions:
REMARK  status: ('A' for Active; 'I' for Inactive)
ROOT
ATOM      1  N1  IND d   1      -0.951   2.977   1.947  0.00  0.00    -0.196 N 
ATOM      2  C2  IND d   1       0.024   2.022   1.866  0.00  0.00     0.054 A 
ATOM      3  C3  IND d   1       0.901   2.327   0.883  0.00  0.00    -0.031 A 
ATOM      4  C4  IND d   1       0.986   4.394  -0.649  0.00  0.00     0.051 A 
ATOM      5  C5  IND d   1       0.288   5.524  -0.974  0.00  0.00    -0.031 A 
ATOM      6  C6  IND d   1      -0.880   5.870  -0.327  0.00  0.00     0.015 A 
ATOM      7  C7  IND d   1      -1.391   5.103   0.681  0.00  0.00    -0.016 A 
ATOM      8  C8  IND d   1      -0.689   3.952   1.009  0.00  0.00    -0.047 A 
ATOM      9  C9  IND d   1       0.475   3.573   0.327  0.00  0.00    -0.096 A 
ATOM     10  HN1 IND d   1      -1.616   2.970   2.491  0.00  0.00     0.298 HD
ENDROOT
TORSDOF 0
ENDMDL
