MODEL 1
REMARK minimizedAffinity 17.0014114
REMARK minimizedRMSD -1
REMARK  0 active torsions:
REMARK  status: ('A' for Active; 'I' for Inactive)
ROOT
ATOM      1  N1  IND d   1       0.599   2.333   0.281  0.00  0.00    -0.196 N 
ATOM      2  C2  IND d   1      -0.258   3.251   0.821  0.00  0.00     0.054 A 
ATOM      3  C3  IND d   1      -1.540   2.880   0.608  0.00  0.00    -0.031 A 
ATOM      4  C4  IND d   1      -2.463   0.753  -0.512  0.00  0.00     0.051 A 
ATOM      5  C5  IND d   1      -2.067  -0.365  -1.191  0.00  0.00    -0.031 A 
ATOM      6  C6  IND d   1      -0.735  -0.647  -1.417  0.00  0.00     0.015 A 
ATOM      7  C7  IND d   1       0.255   0.175  -0.960  0.00  0.00    -0.016 A 
ATOM      8  C8  IND d   1      -0.143   1.315  -0.275  0.00  0.00    -0.047 A 
ATOM      9  C9  IND d   1      -1.494   1.629  -0.080  0.00  0.00    -0.096 A 
ATOM     10  HN1 IND d   1       1.457   2.383   0.288  0.00  0.00     0.298 HD
ENDROOT
TORSDOF 0
ENDMDL
