MODEL 1
REMARK minimizedAffinity 15.2525644
REMARK minimizedRMSD -1
REMARK  0 active torsions:
REMARK  status: ('A' for Active; 'I' for Inactive)
ROOT
ATOM      1  N1  IND d   1       1.412   4.379   0.879  0.00  0.00    -0.196 N 
ATOM      2  C2  IND d   1       0.406   4.773   0.040  0.00  0.00     0.054 A 
ATOM      3  C3  IND d   1      -0.716   4.059   0.284  0.00  0.00    -0.031 A 
ATOM      4  C4  IND d   1      -1.157   2.267   2.078  0.00  0.00     0.051 A 
ATOM      5  C5  IND d   1      -0.533   1.544   3.055  0.00  0.00    -0.031 A 
ATOM      6  C6  IND d   1       0.799   1.735   3.365  0.00  0.00     0.015 A 
ATOM      7  C7  IND d   1       1.555   2.668   2.714  0.00  0.00    -0.016 A 
ATOM      8  C8  IND d   1       0.925   3.399   1.716  0.00  0.00    -0.047 A 
ATOM      9  C9  IND d   1      -0.414   3.180   1.369  0.00  0.00    -0.096 A 
ATOM     10  HN1 IND d   1       2.213   4.691   0.883  0.00  0.00     0.298 HD
ENDROOT
TORSDOF 0
ENDMDL
