MODEL 1
REMARK minimizedAffinity 6.41423988
REMARK minimizedRMSD -1
REMARK  0 active torsions:
REMARK  status: ('A' for Active; 'I' for Inactive)
ROOT
ATOM      1  N1  IND d   1       0.553   0.752   4.258  0.00  0.00    -0.196 N 
ATOM      2  C2  IND d   1       1.749   0.130   4.035  0.00  0.00     0.054 A 
ATOM      3  C3  IND d   1       2.243   0.480   2.826  0.00  0.00    -0.031 A 
ATOM      4  C4  IND d   1       1.306   2.138   1.094  0.00  0.00     0.051 A 
ATOM      5  C5  IND d   1       0.220   2.926   0.835  0.00  0.00    -0.031 A 
ATOM      6  C6  IND d   1      -0.831   3.034   1.723  0.00  0.00     0.015 A 
ATOM      7  C7  IND d   1      -0.829   2.364   2.913  0.00  0.00    -0.016 A 
ATOM      8  C8  IND d   1       0.269   1.557   3.177  0.00  0.00    -0.047 A 
ATOM      9  C9  IND d   1       1.318   1.411   2.261  0.00  0.00    -0.096 A 
ATOM     10  HN1 IND d   1       0.060   0.657   4.956  0.00  0.00     0.298 HD
ENDROOT
TORSDOF 0
ENDMDL
