MODEL 1
REMARK minimizedAffinity -2.66970277
REMARK minimizedRMSD -1
REMARK  0 active torsions:
REMARK  status: ('A' for Active; 'I' for Inactive)
ROOT
ATOM      1  C   UNL d   1       1.497  -0.121   0.352  0.00  0.00     0.172 C 
ATOM      2  N   UNL d   1       2.149   1.149   0.565  0.00  0.00    -0.070 N 
ATOM      3  C1  UNL d   1       2.049   1.919   1.694  0.00  0.00    -0.004 A 
ATOM      4  C2  UNL d   1       2.818   3.047   1.505  0.00  0.00    -0.047 A 
ATOM      5  C3  UNL d   1       3.399   2.953   0.218  0.00  0.00    -0.047 A 
ATOM      6  C4  UNL d   1       2.969   1.768  -0.342  0.00  0.00    -0.004 A 
ENDROOT
TORSDOF 0
ENDMDL
