MODEL 1
REMARK minimizedAffinity -1.51212215
REMARK minimizedRMSD -1
REMARK  0 active torsions:
REMARK  status: ('A' for Active; 'I' for Inactive)
ROOT
ATOM      1  C   UNL d   1       0.990   0.651   0.127  0.00  0.00     0.172 C 
ATOM      2  N   UNL d   1      -0.235   0.248  -0.524  0.00  0.00    -0.070 N 
ATOM      3  C1  UNL d   1      -0.820  -0.986  -0.430  0.00  0.00    -0.004 A 
ATOM      4  C2  UNL d   1      -1.968  -0.968  -1.193  0.00  0.00    -0.047 A 
ATOM      5  C3  UNL d   1      -2.075   0.321  -1.766  0.00  0.00    -0.047 A 
ATOM      6  C4  UNL d   1      -0.989   1.054  -1.335  0.00  0.00    -0.004 A 
ENDROOT
TORSDOF 0
ENDMDL
