MODEL 1
REMARK minimizedAffinity -2.36503887
REMARK minimizedRMSD -1
REMARK  0 active torsions:
REMARK  status: ('A' for Active; 'I' for Inactive)
ROOT
ATOM      1  C   UNL d   1      -0.809  -2.120   1.183  0.00  0.00     0.172 C 
ATOM      2  N   UNL d   1      -0.289  -1.060   0.351  0.00  0.00    -0.070 N 
ATOM      3  C1  UNL d   1      -0.979  -0.408  -0.636  0.00  0.00    -0.004 A 
ATOM      4  C2  UNL d   1      -0.136   0.531  -1.191  0.00  0.00    -0.047 A 
ATOM      5  C3  UNL d   1       1.104   0.439  -0.515  0.00  0.00    -0.047 A 
ATOM      6  C4  UNL d   1       0.981  -0.553   0.434  0.00  0.00    -0.004 A 
ENDROOT
TORSDOF 0
ENDMDL
