MODEL 1
REMARK minimizedAffinity -2.24285626
REMARK minimizedRMSD -1
REMARK  0 active torsions:
REMARK  status: ('A' for Active; 'I' for Inactive)
ROOT
ATOM      1  C   UNL d   1       0.095   0.367  -0.420  0.00  0.00     0.172 C 
ATOM      2  N   UNL d   1       1.160   1.079   0.246  0.00  0.00    -0.070 N 
ATOM      3  C1  UNL d   1       1.059   2.323   0.809  0.00  0.00    -0.004 A 
ATOM      4  C2  UNL d   1       2.289   2.647   1.341  0.00  0.00    -0.047 A 
ATOM      5  C3  UNL d   1       3.159   1.560   1.088  0.00  0.00    -0.047 A 
ATOM      6  C4  UNL d   1       2.435   0.603   0.409  0.00  0.00    -0.004 A 
ENDROOT
TORSDOF 0
ENDMDL
