MODEL 1
REMARK minimizedAffinity -0.608013272
REMARK minimizedRMSD -1
REMARK  0 active torsions:
REMARK  status: ('A' for Active; 'I' for Inactive)
ROOT
ATOM      1  C   UNL d   1       0.649   0.238   0.066  0.00  0.00     0.172 C 
ATOM      2  N   UNL d   1       1.542   1.310   0.436  0.00  0.00    -0.070 N 
ATOM      3  C1  UNL d   1       1.805   1.725   1.715  0.00  0.00    -0.004 A 
ATOM      4  C2  UNL d   1       2.704   2.767   1.644  0.00  0.00    -0.047 A 
ATOM      5  C3  UNL d   1       2.991   2.986   0.276  0.00  0.00    -0.047 A 
ATOM      6  C4  UNL d   1       2.258   2.071  -0.450  0.00  0.00    -0.004 A 
ENDROOT
TORSDOF 0
ENDMDL
