MODEL 1
REMARK minimizedAffinity -2.50548077
REMARK minimizedRMSD -1
REMARK  0 active torsions:
REMARK  status: ('A' for Active; 'I' for Inactive)
ROOT
ATOM      1  C   UNL d   1       0.834   0.199  -0.121  0.00  0.00     0.172 C 
ATOM      2  N   UNL d   1       1.561   1.302   0.463  0.00  0.00    -0.070 N 
ATOM      3  C1  UNL d   1       2.862   1.632   0.193  0.00  0.00    -0.004 A 
ATOM      4  C2  UNL d   1       3.181   2.740   0.948  0.00  0.00    -0.047 A 
ATOM      5  C3  UNL d   1       2.032   3.087   1.698  0.00  0.00    -0.047 A 
ATOM      6  C4  UNL d   1       1.044   2.180   1.378  0.00  0.00    -0.004 A 
ENDROOT
TORSDOF 0
ENDMDL
