MODEL 1
REMARK minimizedAffinity -1.90187192
REMARK minimizedRMSD -1
REMARK  0 active torsions:
REMARK  status: ('A' for Active; 'I' for Inactive)
ROOT
ATOM      1  C   UNL d   1       1.774   0.658   0.354  0.00  0.00     0.172 C 
ATOM      2  N   UNL d   1       0.509   0.395  -0.292  0.00  0.00    -0.070 N 
ATOM      3  C1  UNL d   1       0.171   0.765  -1.566  0.00  0.00    -0.004 A 
ATOM      4  C2  UNL d   1      -1.114   0.330  -1.805  0.00  0.00    -0.047 A 
ATOM      5  C3  UNL d   1      -1.565  -0.323  -0.633  0.00  0.00    -0.047 A 
ATOM      6  C4  UNL d   1      -0.540  -0.269   0.288  0.00  0.00    -0.004 A 
ENDROOT
TORSDOF 0
ENDMDL
