MODEL 1
REMARK minimizedAffinity -1.56494212
REMARK minimizedRMSD -1
REMARK  0 active torsions:
REMARK  status: ('A' for Active; 'I' for Inactive)
ROOT
ATOM      1  C   UNL d   1       2.310   1.662   0.764  0.00  0.00     0.172 C 
ATOM      2  N   UNL d   1       1.350   0.688   0.301  0.00  0.00    -0.070 N 
ATOM      3  C1  UNL d   1       1.305  -0.629   0.675  0.00  0.00    -0.004 A 
ATOM      4  C2  UNL d   1       0.248  -1.219   0.016  0.00  0.00    -0.047 A 
ATOM      5  C3  UNL d   1      -0.362  -0.223  -0.783  0.00  0.00    -0.047 A 
ATOM      6  C4  UNL d   1       0.340   0.947  -0.588  0.00  0.00    -0.004 A 
ENDROOT
TORSDOF 0
ENDMDL
