MODEL 1
REMARK minimizedAffinity -2.25250363
REMARK minimizedRMSD -1
REMARK  0 active torsions:
REMARK  status: ('A' for Active; 'I' for Inactive)
ROOT
ATOM      1  C   UNL d   1       1.456   0.042  -0.135  0.00  0.00     0.172 C 
ATOM      2  N   UNL d   1       0.090  -0.048  -0.595  0.00  0.00    -0.070 N 
ATOM      3  C1  UNL d   1      -0.864  -0.897  -0.103  0.00  0.00    -0.004 A 
ATOM      4  C2  UNL d   1      -2.030  -0.675  -0.804  0.00  0.00    -0.047 A 
ATOM      5  C3  UNL d   1      -1.767   0.343  -1.751  0.00  0.00    -0.047 A 
ATOM      6  C4  UNL d   1      -0.447   0.714  -1.600  0.00  0.00    -0.004 A 
ENDROOT
TORSDOF 0
ENDMDL
