MODEL 1
REMARK minimizedAffinity -2.07587171
REMARK minimizedRMSD -1
REMARK  0 active torsions:
REMARK  status: ('A' for Active; 'I' for Inactive)
ROOT
ATOM      1  C   UNL d   1       0.750   0.465   0.129  0.00  0.00     0.172 C 
ATOM      2  N   UNL d   1      -0.518  -0.018  -0.367  0.00  0.00    -0.070 N 
ATOM      3  C1  UNL d   1      -1.432   0.719  -1.072  0.00  0.00    -0.004 A 
ATOM      4  C2  UNL d   1      -2.503  -0.099  -1.359  0.00  0.00    -0.047 A 
ATOM      5  C3  UNL d   1      -2.223  -1.372  -0.807  0.00  0.00    -0.047 A 
ATOM      6  C4  UNL d   1      -0.988  -1.293  -0.199  0.00  0.00    -0.004 A 
ENDROOT
TORSDOF 0
ENDMDL
