MODEL 1
REMARK minimizedAffinity -1.62832975
REMARK minimizedRMSD -1
REMARK  0 active torsions:
REMARK  status: ('A' for Active; 'I' for Inactive)
ROOT
ATOM      1  C   UNL d   1      -0.399   0.609  -1.504  0.00  0.00     0.172 C 
ATOM      2  N   UNL d   1       0.733   0.618  -0.608  0.00  0.00    -0.070 N 
ATOM      3  C1  UNL d   1       1.055  -0.371   0.282  0.00  0.00    -0.004 A 
ATOM      4  C2  UNL d   1       2.200   0.015   0.946  0.00  0.00    -0.047 A 
ATOM      5  C3  UNL d   1       2.579   1.280   0.437  0.00  0.00    -0.047 A 
ATOM      6  C4  UNL d   1       1.654   1.630  -0.524  0.00  0.00    -0.004 A 
ENDROOT
TORSDOF 0
ENDMDL
