MODEL 1
REMARK minimizedAffinity -2.27852011
REMARK minimizedRMSD -1
REMARK  0 active torsions:
REMARK  status: ('A' for Active; 'I' for Inactive)
ROOT
ATOM      1  C   UNL d   1       0.059   0.208   0.006  0.00  0.00     0.172 C 
ATOM      2  N   UNL d   1      -0.984  -0.791   0.050  0.00  0.00    -0.070 N 
ATOM      3  C1  UNL d   1      -2.127  -0.784  -0.703  0.00  0.00    -0.004 A 
ATOM      4  C2  UNL d   1      -2.859  -1.903  -0.369  0.00  0.00    -0.047 A 
ATOM      5  C3  UNL d   1      -2.130  -2.607   0.619  0.00  0.00    -0.047 A 
ATOM      6  C4  UNL d   1      -0.973  -1.895   0.860  0.00  0.00    -0.004 A 
ENDROOT
TORSDOF 0
ENDMDL
