MODEL 1
REMARK minimizedAffinity -0.0338027552
REMARK minimizedRMSD -1
REMARK  0 active torsions:
REMARK  status: ('A' for Active; 'I' for Inactive)
ROOT
ATOM      1  C   UNL d   1      -0.121  -1.933   0.992  0.00  0.00     0.172 C 
ATOM      2  N   UNL d   1      -0.598  -1.098  -0.086  0.00  0.00    -0.070 N 
ATOM      3  C1  UNL d   1      -0.102   0.133  -0.422  0.00  0.00    -0.004 A 
ATOM      4  C2  UNL d   1      -0.824   0.599  -1.499  0.00  0.00    -0.047 A 
ATOM      5  C3  UNL d   1      -1.788  -0.386  -1.821  0.00  0.00    -0.047 A 
ATOM      6  C4  UNL d   1      -1.626  -1.426  -0.930  0.00  0.00    -0.004 A 
ENDROOT
TORSDOF 0
ENDMDL
