MODEL 1
REMARK minimizedAffinity -2.59251237
REMARK minimizedRMSD -1
REMARK  0 active torsions:
REMARK  status: ('A' for Active; 'I' for Inactive)
ROOT
ATOM      1  C   UNL d   1      -2.261  -2.541  -0.198  0.00  0.00     0.172 C 
ATOM      2  N   UNL d   1      -1.590  -1.298  -0.498  0.00  0.00    -0.070 N 
ATOM      3  C1  UNL d   1      -0.321  -0.961  -0.111  0.00  0.00    -0.004 A 
ATOM      4  C2  UNL d   1      -0.052   0.301  -0.595  0.00  0.00    -0.047 A 
ATOM      5  C3  UNL d   1      -1.200   0.738  -1.297  0.00  0.00    -0.047 A 
ATOM      6  C4  UNL d   1      -2.137  -0.271  -1.221  0.00  0.00    -0.004 A 
ENDROOT
TORSDOF 0
ENDMDL
