MODEL 1
REMARK minimizedAffinity -1.80786979
REMARK minimizedRMSD -1
REMARK  0 active torsions:
REMARK  status: ('A' for Active; 'I' for Inactive)
ROOT
ATOM      1  C   UNL d   1      -2.438  -1.884   0.908  0.00  0.00     0.172 C 
ATOM      2  N   UNL d   1      -2.277  -1.029  -0.244  0.00  0.00    -0.070 N 
ATOM      3  C1  UNL d   1      -3.172  -0.084  -0.669  0.00  0.00    -0.004 A 
ATOM      4  C2  UNL d   1      -2.652   0.514  -1.797  0.00  0.00    -0.047 A 
ATOM      5  C3  UNL d   1      -1.401  -0.093  -2.059  0.00  0.00    -0.047 A 
ATOM      6  C4  UNL d   1      -1.193  -1.044  -1.083  0.00  0.00    -0.004 A 
ENDROOT
TORSDOF 0
ENDMDL
