MODEL 1
REMARK minimizedAffinity -2.64268303
REMARK minimizedRMSD -1
REMARK  0 active torsions:
REMARK  status: ('A' for Active; 'I' for Inactive)
ROOT
ATOM      1  C   UNL d   1      -2.196  -0.720  -1.430  0.00  0.00     0.172 C 
ATOM      2  N   UNL d   1      -0.956  -0.265  -0.845  0.00  0.00    -0.070 N 
ATOM      3  C1  UNL d   1      -0.117   0.674  -1.383  0.00  0.00    -0.004 A 
ATOM      4  C2  UNL d   1       0.950   0.828  -0.525  0.00  0.00    -0.047 A 
ATOM      5  C3  UNL d   1       0.746  -0.050   0.566  0.00  0.00    -0.047 A 
ATOM      6  C4  UNL d   1      -0.442  -0.714   0.342  0.00  0.00    -0.004 A 
ENDROOT
TORSDOF 0
ENDMDL
