MODEL 1
REMARK minimizedAffinity -0.98180604
REMARK minimizedRMSD -1
REMARK  0 active torsions:
REMARK  status: ('A' for Active; 'I' for Inactive)
ROOT
ATOM      1  C   UNL d   1      -0.289  -1.394   1.094  0.00  0.00     0.172 C 
ATOM      2  N   UNL d   1       0.517  -0.343   0.521  0.00  0.00    -0.070 N 
ATOM      3  C1  UNL d   1       0.285   0.278  -0.678  0.00  0.00    -0.004 A 
ATOM      4  C2  UNL d   1       1.274   1.219  -0.865  0.00  0.00    -0.047 A 
ATOM      5  C3  UNL d   1       2.131   1.161   0.260  0.00  0.00    -0.047 A 
ATOM      6  C4  UNL d   1       1.639   0.186   1.102  0.00  0.00    -0.004 A 
ENDROOT
TORSDOF 0
ENDMDL
