MODEL 1
REMARK minimizedAffinity -2.85390806
REMARK minimizedRMSD -1
REMARK  0 active torsions:
REMARK  status: ('A' for Active; 'I' for Inactive)
ROOT
ATOM      1  C   UNL d   1       1.438   2.960   1.067  0.00  0.00     0.172 C 
ATOM      2  N   UNL d   1       0.786   1.860   0.395  0.00  0.00    -0.070 N 
ATOM      3  C1  UNL d   1       1.375   0.674   0.047  0.00  0.00    -0.004 A 
ATOM      4  C2  UNL d   1       0.422  -0.105  -0.571  0.00  0.00    -0.047 A 
ATOM      5  C3  UNL d   1      -0.782   0.638  -0.596  0.00  0.00    -0.047 A 
ATOM      6  C4  UNL d   1      -0.528   1.851   0.009  0.00  0.00    -0.004 A 
ENDROOT
TORSDOF 0
ENDMDL
