MODEL 1
REMARK minimizedAffinity -0.78347367
REMARK minimizedRMSD -1
REMARK  0 active torsions:
REMARK  status: ('A' for Active; 'I' for Inactive)
ROOT
ATOM      1  C   UNL d   1       1.370   0.576   0.256  0.00  0.00     0.172 C 
ATOM      2  N   UNL d   1       0.092   0.185  -0.290  0.00  0.00    -0.070 N 
ATOM      3  C1  UNL d   1      -0.342   0.434  -1.565  0.00  0.00    -0.004 A 
ATOM      4  C2  UNL d   1      -1.607  -0.098  -1.692  0.00  0.00    -0.047 A 
ATOM      5  C3  UNL d   1      -1.945  -0.687  -0.451  0.00  0.00    -0.047 A 
ATOM      6  C4  UNL d   1      -0.876  -0.498   0.399  0.00  0.00    -0.004 A 
ENDROOT
TORSDOF 0
ENDMDL
