MODEL 1
REMARK minimizedAffinity -5.11032581
REMARK minimizedRMSD -1
REMARK  1 active torsions:
REMARK  status: ('A' for Active; 'I' for Inactive)
REMARK    1  A    between atoms: C1_2  and  C2_3 
ROOT
ATOM      1  C2  UNL d   1      -1.201   1.031  -1.609  0.00  0.00    -0.081 A 
ATOM      2  C3  UNL d   1      -0.925   1.463  -0.306  0.00  0.00     0.006 A 
ATOM      3  C4  UNL d   1      -0.040   0.749   0.504  0.00  0.00     0.002 A 
ATOM      4  C5  UNL d   1       0.591  -0.403   0.023  0.00  0.00    -0.080 A 
ATOM      5  C6  UNL d   1       1.567  -1.162   0.873  0.00  0.00     0.076 C 
ATOM      6  C7  UNL d   1       0.302  -0.845  -1.272  0.00  0.00     0.002 A 
ATOM      7  C8  UNL d   1      -0.583  -0.132  -2.083  0.00  0.00     0.006 A 
ENDROOT
BRANCH   1   8
ATOM      8  C1  UNL d   1      -2.105   1.835  -2.508  0.00  0.00     0.054 C 
ATOM      9  C   UNL d   1      -1.905   1.463  -3.971  0.00  0.00     0.018 C 
ENDBRANCH   1   8
TORSDOF 1
ENDMDL
