MODEL 1
REMARK minimizedAffinity -5.29270697
REMARK minimizedRMSD -1
REMARK  1 active torsions:
REMARK  status: ('A' for Active; 'I' for Inactive)
REMARK    1  A    between atoms: C1_2  and  C2_3 
ROOT
ATOM      1  C2  UNL d   1       0.616  -1.628   0.827  0.00  0.00    -0.081 A 
ATOM      2  C3  UNL d   1       1.619  -0.944   0.130  0.00  0.00     0.006 A 
ATOM      3  C4  UNL d   1       1.316   0.210  -0.597  0.00  0.00     0.002 A 
ATOM      4  C5  UNL d   1       0.008   0.703  -0.633  0.00  0.00    -0.080 A 
ATOM      5  C6  UNL d   1      -0.325   1.957  -1.385  0.00  0.00     0.076 C 
ATOM      6  C7  UNL d   1      -0.998   0.010   0.049  0.00  0.00     0.002 A 
ATOM      7  C8  UNL d   1      -0.696  -1.144   0.776  0.00  0.00     0.006 A 
ENDROOT
BRANCH   1   8
ATOM      8  C1  UNL d   1       0.951  -2.835   1.665  0.00  0.00     0.054 C 
ATOM      9  C   UNL d   1       0.086  -2.898   2.915  0.00  0.00     0.018 C 
ENDBRANCH   1   8
TORSDOF 1
ENDMDL
