MODEL 1
REMARK minimizedAffinity -5.53854418
REMARK minimizedRMSD -1
REMARK  1 active torsions:
REMARK  status: ('A' for Active; 'I' for Inactive)
REMARK    1  A    between atoms: C1_2  and  C2_3 
ROOT
ATOM      1  C2  UNL d   1      -1.195   0.972  -1.175  0.00  0.00    -0.081 A 
ATOM      2  C3  UNL d   1      -0.731   1.160   0.133  0.00  0.00     0.006 A 
ATOM      3  C4  UNL d   1       0.245   0.315   0.666  0.00  0.00     0.002 A 
ATOM      4  C5  UNL d   1       0.779  -0.726  -0.101  0.00  0.00    -0.080 A 
ATOM      5  C6  UNL d   1       1.849  -1.621   0.449  0.00  0.00     0.076 C 
ATOM      6  C7  UNL d   1       0.303  -0.924  -1.401  0.00  0.00     0.002 A 
ATOM      7  C8  UNL d   1      -0.674  -0.080  -1.935  0.00  0.00     0.006 A 
ENDROOT
BRANCH   1   8
ATOM      8  C1  UNL d   1      -2.201   1.921  -1.775  0.00  0.00     0.054 C 
ATOM      9  C   UNL d   1      -2.697   1.421  -3.124  0.00  0.00     0.018 C 
ENDBRANCH   1   8
TORSDOF 1
ENDMDL
