MODEL 1
REMARK minimizedAffinity -5.18774986
REMARK minimizedRMSD -1
REMARK  1 active torsions:
REMARK  status: ('A' for Active; 'I' for Inactive)
REMARK    1  A    between atoms: C1_2  and  C2_3 
ROOT
ATOM      1  C2  UNL d   1      -0.518   0.284   0.731  0.00  0.00    -0.081 A 
ATOM      2  C3  UNL d   1       0.364  -0.341  -0.158  0.00  0.00     0.006 A 
ATOM      3  C4  UNL d   1       0.893  -1.600   0.136  0.00  0.00     0.002 A 
ATOM      4  C5  UNL d   1       0.542  -2.258   1.320  0.00  0.00    -0.080 A 
ATOM      5  C6  UNL d   1       1.079  -3.623   1.634  0.00  0.00     0.076 C 
ATOM      6  C7  UNL d   1      -0.326  -1.626   2.217  0.00  0.00     0.002 A 
ATOM      7  C8  UNL d   1      -0.855  -0.367   1.923  0.00  0.00     0.006 A 
ENDROOT
BRANCH   1   8
ATOM      8  C1  UNL d   1      -1.141   1.613   0.386  0.00  0.00     0.054 C 
ATOM      9  C   UNL d   1      -1.396   1.732  -1.110  0.00  0.00     0.018 C 
ENDBRANCH   1   8
TORSDOF 1
ENDMDL
