MODEL 1
REMARK minimizedAffinity -1.58327019
REMARK minimizedRMSD -1
REMARK  1 active torsions:
REMARK  status: ('A' for Active; 'I' for Inactive)
REMARK    1  A    between atoms: C1_2  and  C2_3 
ROOT
ATOM      1  C2  UNL d   1       0.858  -0.948   1.409  0.00  0.00    -0.081 A 
ATOM      2  C3  UNL d   1       1.411  -0.598   0.171  0.00  0.00     0.006 A 
ATOM      3  C4  UNL d   1       0.721   0.249  -0.699  0.00  0.00     0.002 A 
ATOM      4  C5  UNL d   1      -0.529   0.766  -0.342  0.00  0.00    -0.080 A 
ATOM      5  C6  UNL d   1      -1.268   1.701  -1.254  0.00  0.00     0.076 C 
ATOM      6  C7  UNL d   1      -1.090   0.403   0.887  0.00  0.00     0.002 A 
ATOM      7  C8  UNL d   1      -0.400  -0.445   1.757  0.00  0.00     0.006 A 
ENDROOT
BRANCH   1   8
ATOM      8  C1  UNL d   1       1.629  -1.810   2.377  0.00  0.00     0.054 C 
ATOM      9  C   UNL d   1       0.957  -1.846   3.742  0.00  0.00     0.018 C 
ENDBRANCH   1   8
TORSDOF 1
ENDMDL
