MODEL 1
REMARK minimizedAffinity -5.02953386
REMARK minimizedRMSD -1
REMARK  1 active torsions:
REMARK  status: ('A' for Active; 'I' for Inactive)
REMARK    1  A    between atoms: C1_2  and  C2_3 
ROOT
ATOM      1  C2  UNL d   1       0.271  -1.845   1.238  0.00  0.00    -0.081 A 
ATOM      2  C3  UNL d   1      -0.715  -1.702   2.222  0.00  0.00     0.006 A 
ATOM      3  C4  UNL d   1      -0.359  -1.486   3.555  0.00  0.00     0.002 A 
ATOM      4  C5  UNL d   1       0.987  -1.401   3.926  0.00  0.00    -0.080 A 
ATOM      5  C6  UNL d   1       1.382  -1.139   5.349  0.00  0.00     0.076 C 
ATOM      6  C7  UNL d   1       1.973  -1.561   2.946  0.00  0.00     0.002 A 
ATOM      7  C8  UNL d   1       1.618  -1.777   1.613  0.00  0.00     0.006 A 
ENDROOT
BRANCH   1   8
ATOM      8  C1  UNL d   1      -0.110  -2.013  -0.211  0.00  0.00     0.054 C 
ATOM      9  C   UNL d   1      -0.084  -0.682  -0.948  0.00  0.00     0.018 C 
ENDBRANCH   1   8
TORSDOF 1
ENDMDL
