MODEL 1
REMARK minimizedAffinity -0.678728282
REMARK minimizedRMSD -1
REMARK  1 active torsions:
REMARK  status: ('A' for Active; 'I' for Inactive)
REMARK    1  A    between atoms: C1_2  and  C2_3 
ROOT
ATOM      1  C2  UNL d   1      -0.461   0.626   0.302  0.00  0.00    -0.081 A 
ATOM      2  C3  UNL d   1      -0.776  -0.326   1.279  0.00  0.00     0.006 A 
ATOM      3  C4  UNL d   1       0.133  -1.336   1.602  0.00  0.00     0.002 A 
ATOM      4  C5  UNL d   1       1.375  -1.406   0.961  0.00  0.00    -0.080 A 
ATOM      5  C6  UNL d   1       2.372  -2.467   1.321  0.00  0.00     0.076 C 
ATOM      6  C7  UNL d   1       1.682  -0.465  -0.027  0.00  0.00     0.002 A 
ATOM      7  C8  UNL d   1       0.774   0.545  -0.352  0.00  0.00     0.006 A 
ENDROOT
BRANCH   1   8
ATOM      8  C1  UNL d   1      -1.412   1.755  -0.004  0.00  0.00     0.054 C 
ATOM      9  C   UNL d   1      -1.874   1.712  -1.453  0.00  0.00     0.018 C 
ENDBRANCH   1   8
TORSDOF 1
ENDMDL
