MODEL 1
REMARK minimizedAffinity -2.41446161
REMARK minimizedRMSD -1
REMARK  1 active torsions:
REMARK  status: ('A' for Active; 'I' for Inactive)
REMARK    1  A    between atoms: C1_2  and  C2_3 
ROOT
ATOM      1  C2  UNL d   1       0.583  -0.421   0.096  0.00  0.00    -0.081 A 
ATOM      2  C3  UNL d   1      -0.445  -1.175  -0.484  0.00  0.00     0.006 A 
ATOM      3  C4  UNL d   1      -1.364  -0.573  -1.347  0.00  0.00     0.002 A 
ATOM      4  C5  UNL d   1      -1.267   0.789  -1.650  0.00  0.00    -0.080 A 
ATOM      5  C6  UNL d   1      -2.229   1.440  -2.599  0.00  0.00     0.076 C 
ATOM      6  C7  UNL d   1      -0.251   1.546  -1.058  0.00  0.00     0.002 A 
ATOM      7  C8  UNL d   1       0.668   0.945  -0.194  0.00  0.00     0.006 A 
ENDROOT
BRANCH   1   8
ATOM      8  C1  UNL d   1       1.614  -1.080   0.976  0.00  0.00     0.054 C 
ATOM      9  C   UNL d   1       1.261  -2.535   1.247  0.00  0.00     0.018 C 
ENDBRANCH   1   8
TORSDOF 1
ENDMDL
