MODEL 1
REMARK minimizedAffinity -1.12449181
REMARK minimizedRMSD -1
REMARK  1 active torsions:
REMARK  status: ('A' for Active; 'I' for Inactive)
REMARK    1  A    between atoms: C1_2  and  C2_3 
ROOT
ATOM      1  C2  UNL d   1       0.061   0.104  -0.151  0.00  0.00    -0.081 A 
ATOM      2  C3  UNL d   1       0.239  -1.265   0.084  0.00  0.00     0.006 A 
ATOM      3  C4  UNL d   1      -0.564  -1.935   1.009  0.00  0.00     0.002 A 
ATOM      4  C5  UNL d   1      -1.563  -1.250   1.709  0.00  0.00    -0.080 A 
ATOM      5  C6  UNL d   1      -2.453  -1.964   2.684  0.00  0.00     0.076 C 
ATOM      6  C7  UNL d   1      -1.729   0.121   1.488  0.00  0.00     0.002 A 
ATOM      7  C8  UNL d   1      -0.926   0.792   0.563  0.00  0.00     0.006 A 
ENDROOT
BRANCH   1   8
ATOM      8  C1  UNL d   1       0.882   0.815  -1.196  0.00  0.00     0.054 C 
ATOM      9  C   UNL d   1       2.356   0.843  -0.817  0.00  0.00     0.018 C 
ENDBRANCH   1   8
TORSDOF 1
ENDMDL
