MODEL 1
REMARK minimizedAffinity -2.28687739
REMARK minimizedRMSD -1
REMARK  1 active torsions:
REMARK  status: ('A' for Active; 'I' for Inactive)
REMARK    1  A    between atoms: C1_2  and  C2_3 
ROOT
ATOM      1  C2  UNL d   1      -0.887   0.671  -0.896  0.00  0.00    -0.081 A 
ATOM      2  C3  UNL d   1      -0.940   0.573   0.500  0.00  0.00     0.006 A 
ATOM      3  C4  UNL d   1      -0.161  -0.370   1.174  0.00  0.00     0.002 A 
ATOM      4  C5  UNL d   1       0.690  -1.225   0.465  0.00  0.00    -0.080 A 
ATOM      5  C6  UNL d   1       1.554  -2.222   1.179  0.00  0.00     0.076 C 
ATOM      6  C7  UNL d   1       0.730  -1.139  -0.931  0.00  0.00     0.002 A 
ATOM      7  C8  UNL d   1      -0.049  -0.196  -1.606  0.00  0.00     0.006 A 
ENDROOT
BRANCH   1   8
ATOM      8  C1  UNL d   1      -1.677   1.731  -1.621  0.00  0.00     0.054 C 
ATOM      9  C   UNL d   1      -2.691   1.111  -2.572  0.00  0.00     0.018 C 
ENDBRANCH   1   8
TORSDOF 1
ENDMDL
