MODEL 1
REMARK minimizedAffinity -2.99752307
REMARK minimizedRMSD -1
REMARK  1 active torsions:
REMARK  status: ('A' for Active; 'I' for Inactive)
REMARK    1  A    between atoms: C1_2  and  C2_3 
ROOT
ATOM      1  C2  UNL d   1      -0.879   0.557   3.121  0.00  0.00    -0.077 A 
ATOM      2  C3  UNL d   1      -1.897   1.316   3.714  0.00  0.00     0.002 A 
ATOM      3  C4  UNL d   1      -3.157   1.395   3.118  0.00  0.00     0.002 A 
ATOM      4  C5  UNL d   1      -3.411   0.716   1.928  0.00  0.00    -0.004 A 
ATOM      5  C6  UNL d   1      -2.404  -0.039   1.329  0.00  0.00     0.002 A 
ATOM      6  C7  UNL d   1      -1.143  -0.119   1.923  0.00  0.00     0.002 A 
ENDROOT
BRANCH   1   7
ATOM      7  C1  UNL d   1       0.466   0.431   3.788  0.00  0.00     0.055 C 
ATOM      8  C   UNL d   1       1.423   1.515   3.316  0.00  0.00     0.019 C 
ENDBRANCH   1   7
TORSDOF 1
ENDMDL
