MODEL 1
REMARK minimizedAffinity -0.827137649
REMARK minimizedRMSD -1
REMARK  1 active torsions:
REMARK  status: ('A' for Active; 'I' for Inactive)
REMARK    1  A    between atoms: C1_2  and  C2_3 
ROOT
ATOM      1  C2  UNL d   1      -3.361   3.566  -5.578  0.00  0.00    -0.077 A 
ATOM      2  C3  UNL d   1      -4.411   2.638  -5.599  0.00  0.00     0.002 A 
ATOM      3  C4  UNL d   1      -5.725   3.063  -5.806  0.00  0.00     0.002 A 
ATOM      4  C5  UNL d   1      -6.000   4.415  -5.998  0.00  0.00    -0.004 A 
ATOM      5  C6  UNL d   1      -4.962   5.346  -5.977  0.00  0.00     0.002 A 
ATOM      6  C7  UNL d   1      -3.649   4.924  -5.769  0.00  0.00     0.002 A 
ENDROOT
BRANCH   1   7
ATOM      7  C1  UNL d   1      -1.938   3.105  -5.404  0.00  0.00     0.055 C 
ATOM      8  C   UNL d   1      -1.879   1.695  -4.834  0.00  0.00     0.019 C 
ENDBRANCH   1   7
TORSDOF 1
ENDMDL
