MODEL 1
REMARK minimizedAffinity -1.35711396
REMARK minimizedRMSD -1
REMARK  1 active torsions:
REMARK  status: ('A' for Active; 'I' for Inactive)
REMARK    1  A    between atoms: C1_2  and  C2_3 
ROOT
ATOM      1  C2  UNL d   1      -0.548  -0.663   0.293  0.00  0.00    -0.077 A 
ATOM      2  C3  UNL d   1      -0.398  -2.010   0.650  0.00  0.00     0.002 A 
ATOM      3  C4  UNL d   1      -0.052  -2.961  -0.312  0.00  0.00     0.002 A 
ATOM      4  C5  UNL d   1       0.151  -2.575  -1.635  0.00  0.00    -0.004 A 
ATOM      5  C6  UNL d   1       0.002  -1.238  -2.000  0.00  0.00     0.002 A 
ATOM      6  C7  UNL d   1      -0.345  -0.286  -1.041  0.00  0.00     0.002 A 
ENDROOT
BRANCH   1   7
ATOM      7  C1  UNL d   1      -0.873   0.372   1.338  0.00  0.00     0.055 C 
ATOM      8  C   UNL d   1      -2.360   0.383   1.663  0.00  0.00     0.019 C 
ENDBRANCH   1   7
TORSDOF 1
ENDMDL
