MODEL 1
REMARK minimizedAffinity -0.0778396726
REMARK minimizedRMSD -1
REMARK  1 active torsions:
REMARK  status: ('A' for Active; 'I' for Inactive)
REMARK    1  A    between atoms: C1_2  and  C2_3 
ROOT
ATOM      1  C2  UNL d   1       0.924   1.131   1.525  0.00  0.00    -0.077 A 
ATOM      2  C3  UNL d   1       0.044   0.177   0.994  0.00  0.00     0.002 A 
ATOM      3  C4  UNL d   1      -0.041  -0.013  -0.387  0.00  0.00     0.002 A 
ATOM      4  C5  UNL d   1       0.753   0.743  -1.246  0.00  0.00    -0.004 A 
ATOM      5  C6  UNL d   1       1.629   1.695  -0.728  0.00  0.00     0.002 A 
ATOM      6  C7  UNL d   1       1.715   1.888   0.651  0.00  0.00     0.002 A 
ENDROOT
BRANCH   1   7
ATOM      7  C1  UNL d   1       1.054   1.303   3.016  0.00  0.00     0.055 C 
ATOM      8  C   UNL d   1       2.410   1.884   3.390  0.00  0.00     0.019 C 
ENDBRANCH   1   7
TORSDOF 1
ENDMDL
