MODEL 1
REMARK minimizedAffinity -2.70118356
REMARK minimizedRMSD -1
REMARK  1 active torsions:
REMARK  status: ('A' for Active; 'I' for Inactive)
REMARK    1  A    between atoms: C1_2  and  C2_3 
ROOT
ATOM      1  C2  UNL d   1       0.726  -0.313  -1.189  0.00  0.00    -0.077 A 
ATOM      2  C3  UNL d   1       0.242   0.577  -0.220  0.00  0.00     0.002 A 
ATOM      3  C4  UNL d   1      -0.367   0.094   0.941  0.00  0.00     0.002 A 
ATOM      4  C5  UNL d   1      -0.492  -1.278   1.144  0.00  0.00    -0.004 A 
ATOM      5  C6  UNL d   1      -0.016  -2.171   0.185  0.00  0.00     0.002 A 
ATOM      6  C7  UNL d   1       0.591  -1.691  -0.976  0.00  0.00     0.002 A 
ENDROOT
BRANCH   1   7
ATOM      7  C1  UNL d   1       1.426   0.204  -2.419  0.00  0.00     0.055 C 
ATOM      8  C   UNL d   1       2.820   0.716  -2.087  0.00  0.00     0.019 C 
ENDBRANCH   1   7
TORSDOF 1
ENDMDL
