MODEL 1
REMARK minimizedAffinity -4.13652611
REMARK minimizedRMSD -1
REMARK  1 active torsions:
REMARK  status: ('A' for Active; 'I' for Inactive)
REMARK    1  A    between atoms: C1_2  and  C2_3 
ROOT
ATOM      1  C2  UNL d   1       0.359  -0.011  -0.285  0.00  0.00    -0.077 A 
ATOM      2  C3  UNL d   1       0.456  -1.234  -0.965  0.00  0.00     0.002 A 
ATOM      3  C4  UNL d   1       1.215  -1.334  -2.132  0.00  0.00     0.002 A 
ATOM      4  C5  UNL d   1       1.886  -0.218  -2.627  0.00  0.00    -0.004 A 
ATOM      5  C6  UNL d   1       1.795   1.003  -1.959  0.00  0.00     0.002 A 
ATOM      6  C7  UNL d   1       1.035   1.105  -0.793  0.00  0.00     0.002 A 
ENDROOT
BRANCH   1   7
ATOM      7  C1  UNL d   1      -0.419   0.087   1.001  0.00  0.00     0.055 C 
ATOM      8  C   UNL d   1      -1.917   0.141   0.739  0.00  0.00     0.019 C 
ENDBRANCH   1   7
TORSDOF 1
ENDMDL
