MODEL 1
REMARK minimizedAffinity -4.30582333
REMARK minimizedRMSD -1
REMARK  1 active torsions:
REMARK  status: ('A' for Active; 'I' for Inactive)
REMARK    1  A    between atoms: C1_2  and  C2_3 
ROOT
ATOM      1  C2  UNL d   1       0.196   0.037  -0.074  0.00  0.00    -0.077 A 
ATOM      2  C3  UNL d   1      -0.027  -1.039  -0.944  0.00  0.00     0.002 A 
ATOM      3  C4  UNL d   1       0.589  -1.076  -2.196  0.00  0.00     0.002 A 
ATOM      4  C5  UNL d   1       1.436  -0.042  -2.588  0.00  0.00    -0.004 A 
ATOM      5  C6  UNL d   1       1.664   1.034  -1.731  0.00  0.00     0.002 A 
ATOM      6  C7  UNL d   1       1.047   1.073  -0.480  0.00  0.00     0.002 A 
ENDROOT
BRANCH   1   7
ATOM      7  C1  UNL d   1      -0.429   0.055   1.296  0.00  0.00     0.055 C 
ATOM      8  C   UNL d   1      -1.926   0.317   1.218  0.00  0.00     0.019 C 
ENDBRANCH   1   7
TORSDOF 1
ENDMDL
