MODEL 1
REMARK minimizedAffinity -1.92258179
REMARK minimizedRMSD -1
REMARK  1 active torsions:
REMARK  status: ('A' for Active; 'I' for Inactive)
REMARK    1  A    between atoms: C1_2  and  C2_3 
ROOT
ATOM      1  C2  UNL d   1       0.538   0.160  -0.742  0.00  0.00    -0.077 A 
ATOM      2  C3  UNL d   1      -0.108  -0.088  -1.961  0.00  0.00     0.002 A 
ATOM      3  C4  UNL d   1       0.529   0.202  -3.169  0.00  0.00     0.002 A 
ATOM      4  C5  UNL d   1       1.816   0.737  -3.170  0.00  0.00    -0.004 A 
ATOM      5  C6  UNL d   1       2.466   0.988  -1.962  0.00  0.00     0.002 A 
ATOM      6  C7  UNL d   1       1.830   0.700  -0.754  0.00  0.00     0.002 A 
ENDROOT
BRANCH   1   7
ATOM      7  C1  UNL d   1      -0.128  -0.198   0.561  0.00  0.00     0.055 C 
ATOM      8  C   UNL d   1      -0.204  -1.706   0.749  0.00  0.00     0.019 C 
ENDBRANCH   1   7
TORSDOF 1
ENDMDL
