MODEL 1
REMARK minimizedAffinity -0.890621364
REMARK minimizedRMSD -1
REMARK  1 active torsions:
REMARK  status: ('A' for Active; 'I' for Inactive)
REMARK    1  A    between atoms: C1_2  and  C2_3 
ROOT
ATOM      1  C2  UNL d   1      -3.755  -2.895  -3.559  0.00  0.00    -0.077 A 
ATOM      2  C3  UNL d   1      -2.998  -4.074  -3.583  0.00  0.00     0.002 A 
ATOM      3  C4  UNL d   1      -2.617  -4.644  -4.800  0.00  0.00     0.002 A 
ATOM      4  C5  UNL d   1      -2.985  -4.040  -6.000  0.00  0.00    -0.004 A 
ATOM      5  C6  UNL d   1      -3.740  -2.868  -5.986  0.00  0.00     0.002 A 
ATOM      6  C7  UNL d   1      -4.123  -2.297  -4.772  0.00  0.00     0.002 A 
ENDROOT
BRANCH   1   7
ATOM      7  C1  UNL d   1      -4.125  -2.251  -2.248  0.00  0.00     0.055 C 
ATOM      8  C   UNL d   1      -2.951  -2.253  -1.280  0.00  0.00     0.019 C 
ENDBRANCH   1   7
TORSDOF 1
ENDMDL
