MODEL 1
REMARK minimizedAffinity -0.331199467
REMARK minimizedRMSD -1
REMARK  1 active torsions:
REMARK  status: ('A' for Active; 'I' for Inactive)
REMARK    1  A    between atoms: C1_2  and  C2_3 
ROOT
ATOM      1  C2  UNL d   1       3.160  -0.020  -0.646  0.00  0.00    -0.077 A 
ATOM      2  C3  UNL d   1       3.273   1.298  -1.109  0.00  0.00     0.002 A 
ATOM      3  C4  UNL d   1       2.186   2.170  -1.030  0.00  0.00     0.002 A 
ATOM      4  C5  UNL d   1       0.979   1.734  -0.486  0.00  0.00    -0.004 A 
ATOM      5  C6  UNL d   1       0.856   0.424  -0.025  0.00  0.00     0.002 A 
ATOM      6  C7  UNL d   1       1.942  -0.449  -0.104  0.00  0.00     0.002 A 
ENDROOT
BRANCH   1   7
ATOM      7  C1  UNL d   1       4.347  -0.947  -0.685  0.00  0.00     0.055 C 
ATOM      8  C   UNL d   1       3.937  -2.354  -1.095  0.00  0.00     0.019 C 
ENDBRANCH   1   7
TORSDOF 1
ENDMDL
