MODEL 1
REMARK minimizedAffinity 4.26409054
REMARK minimizedRMSD -1
REMARK  1 active torsions:
REMARK  status: ('A' for Active; 'I' for Inactive)
REMARK    1  A    between atoms: C1_2  and  C2_3 
ROOT
ATOM      1  C2  UNL d   1      -4.792   3.008  -5.743  0.00  0.00    -0.077 A 
ATOM      2  C3  UNL d   1      -5.515   4.196  -5.917  0.00  0.00     0.002 A 
ATOM      3  C4  UNL d   1      -4.852   5.422  -5.993  0.00  0.00     0.002 A 
ATOM      4  C5  UNL d   1      -3.462   5.471  -5.901  0.00  0.00    -0.004 A 
ATOM      5  C6  UNL d   1      -2.734   4.295  -5.726  0.00  0.00     0.002 A 
ATOM      6  C7  UNL d   1      -3.396   3.069  -5.648  0.00  0.00     0.002 A 
ENDROOT
BRANCH   1   7
ATOM      7  C1  UNL d   1      -5.502   1.680  -5.710  0.00  0.00     0.055 C 
ATOM      8  C   UNL d   1      -5.119   0.878  -4.474  0.00  0.00     0.019 C 
ENDBRANCH   1   7
TORSDOF 1
ENDMDL
