MODEL 1
REMARK minimizedAffinity 1.99124444
REMARK minimizedRMSD -1
REMARK  1 active torsions:
REMARK  status: ('A' for Active; 'I' for Inactive)
REMARK    1  A    between atoms: N_2  and  C1_3 
ROOT
ATOM      1  C1  UNL d   1       3.332   1.050  -1.630  0.00  0.00     0.143 A 
ATOM      2  C2  UNL d   1       3.431   0.297  -2.805  0.00  0.00    -0.057 A 
ATOM      3  C3  UNL d   1       2.838  -0.967  -2.909  0.00  0.00     0.033 A 
ATOM      4  C4  UNL d   1       2.159  -1.514  -1.825  0.00  0.00    -0.042 A 
ATOM      5  C5  UNL d   1       2.069  -0.795  -0.639  0.00  0.00     0.033 A 
ATOM      6  C6  UNL d   1       2.658   0.470  -0.544  0.00  0.00    -0.057 A 
ENDROOT
BRANCH   1   7
ATOM      7  N   UNL d   1       3.983   2.271  -1.431  0.00  0.00    -0.732 N 
ATOM      8  C   UNL d   1       5.428   2.337  -1.388  0.00  0.00     0.284 C 
ATOM      9  H3  UNL d   1       3.547   3.032  -1.946  0.00  0.00     0.395 HD
ENDBRANCH   1   7
TORSDOF 1
ENDMDL
