MODEL 1
REMARK minimizedAffinity 0.531625211
REMARK minimizedRMSD -1
REMARK  1 active torsions:
REMARK  status: ('A' for Active; 'I' for Inactive)
REMARK    1  A    between atoms: N_2  and  C1_3 
ROOT
ATOM      1  C1  UNL d   1       3.312   0.974  -1.111  0.00  0.00     0.143 A 
ATOM      2  C2  UNL d   1       3.047  -0.170  -1.872  0.00  0.00    -0.057 A 
ATOM      3  C3  UNL d   1       2.098  -1.113  -1.459  0.00  0.00     0.033 A 
ATOM      4  C4  UNL d   1       1.416  -0.943  -0.259  0.00  0.00    -0.042 A 
ATOM      5  C5  UNL d   1       1.682   0.173   0.526  0.00  0.00     0.033 A 
ATOM      6  C6  UNL d   1       2.626   1.115   0.105  0.00  0.00    -0.057 A 
ENDROOT
BRANCH   1   7
ATOM      7  N   UNL d   1       4.314   1.898  -1.418  0.00  0.00    -0.732 N 
ATOM      8  C   UNL d   1       5.144   2.459  -0.374  0.00  0.00     0.284 C 
ATOM      9  H3  UNL d   1       4.821   1.654  -2.266  0.00  0.00     0.395 HD
ENDBRANCH   1   7
TORSDOF 1
ENDMDL
