MODEL 1
REMARK minimizedAffinity 2.57989931
REMARK minimizedRMSD -1
REMARK  1 active torsions:
REMARK  status: ('A' for Active; 'I' for Inactive)
REMARK    1  A    between atoms: N_2  and  C1_3 
ROOT
ATOM      1  C1  UNL d   1       2.531   0.812   0.743  0.00  0.00     0.143 A 
ATOM      2  C2  UNL d   1       1.737  -0.191   0.178  0.00  0.00    -0.057 A 
ATOM      3  C3  UNL d   1       1.922  -0.604  -1.147  0.00  0.00     0.033 A 
ATOM      4  C4  UNL d   1       2.890   0.002  -1.942  0.00  0.00    -0.042 A 
ATOM      5  C5  UNL d   1       3.675   1.018  -1.408  0.00  0.00     0.033 A 
ATOM      6  C6  UNL d   1       3.489   1.422  -0.083  0.00  0.00    -0.057 A 
ENDROOT
BRANCH   1   7
ATOM      7  N   UNL d   1       2.330   1.335   2.023  0.00  0.00    -0.732 N 
ATOM      8  C   UNL d   1       1.786   0.509   3.079  0.00  0.00     0.284 C 
ATOM      9  H3  UNL d   1       3.092   1.940   2.320  0.00  0.00     0.395 HD
ENDBRANCH   1   7
TORSDOF 1
ENDMDL
