MODEL 1
REMARK minimizedAffinity 4.23254347
REMARK minimizedRMSD -1
REMARK  1 active torsions:
REMARK  status: ('A' for Active; 'I' for Inactive)
REMARK    1  A    between atoms: N_2  and  C1_3 
ROOT
ATOM      1  C1  UNL d   1       2.702   0.383  -0.553  0.00  0.00     0.143 A 
ATOM      2  C2  UNL d   1       2.023   1.454   0.037  0.00  0.00    -0.057 A 
ATOM      3  C3  UNL d   1       2.604   2.725   0.121  0.00  0.00     0.033 A 
ATOM      4  C4  UNL d   1       3.892   2.941  -0.360  0.00  0.00    -0.042 A 
ATOM      5  C5  UNL d   1       4.596   1.885  -0.927  0.00  0.00     0.033 A 
ATOM      6  C6  UNL d   1       4.007   0.619  -1.014  0.00  0.00    -0.057 A 
ENDROOT
BRANCH   1   7
ATOM      7  N   UNL d   1       2.218  -0.927  -0.577  0.00  0.00    -0.732 N 
ATOM      8  C   UNL d   1       2.161  -1.669  -1.818  0.00  0.00     0.284 C 
ATOM      9  H3  UNL d   1       2.535  -1.474   0.220  0.00  0.00     0.395 HD
ENDBRANCH   1   7
TORSDOF 1
ENDMDL
