MODEL 1
REMARK minimizedAffinity -1.22865391
REMARK minimizedRMSD -1
REMARK  1 active torsions:
REMARK  status: ('A' for Active; 'I' for Inactive)
REMARK    1  A    between atoms: N_2  and  C1_3 
ROOT
ATOM      1  C1  UNL d   1       4.221   1.118  -0.583  0.00  0.00     0.143 A 
ATOM      2  C2  UNL d   1       3.784  -0.209  -0.500  0.00  0.00    -0.057 A 
ATOM      3  C3  UNL d   1       2.433  -0.518  -0.302  0.00  0.00     0.033 A 
ATOM      4  C4  UNL d   1       1.495   0.499  -0.154  0.00  0.00    -0.042 A 
ATOM      5  C5  UNL d   1       1.910   1.825  -0.208  0.00  0.00     0.033 A 
ATOM      6  C6  UNL d   1       3.260   2.127  -0.412  0.00  0.00    -0.057 A 
ENDROOT
BRANCH   1   7
ATOM      7  N   UNL d   1       5.563   1.490  -0.680  0.00  0.00    -0.732 N 
ATOM      8  C   UNL d   1       6.000   2.797  -0.235  0.00  0.00     0.284 C 
ATOM      9  H3  UNL d   1       6.196   0.733  -0.430  0.00  0.00     0.395 HD
ENDBRANCH   1   7
TORSDOF 1
ENDMDL
