MODEL 1
REMARK minimizedAffinity 8.5854702
REMARK minimizedRMSD -1
REMARK  1 active torsions:
REMARK  status: ('A' for Active; 'I' for Inactive)
REMARK    1  A    between atoms: N_2  and  C1_3 
ROOT
ATOM      1  C1  UNL d   1       0.443  -2.550   5.246  0.00  0.00     0.143 A 
ATOM      2  C2  UNL d   1      -0.947  -2.701   5.246  0.00  0.00    -0.057 A 
ATOM      3  C3  UNL d   1      -1.546  -3.906   5.632  0.00  0.00     0.033 A 
ATOM      4  C4  UNL d   1      -0.761  -4.994   6.000  0.00  0.00    -0.042 A 
ATOM      5  C5  UNL d   1       0.624  -4.874   5.984  0.00  0.00     0.033 A 
ATOM      6  C6  UNL d   1       1.216  -3.666   5.604  0.00  0.00    -0.057 A 
ENDROOT
BRANCH   1   7
ATOM      7  N   UNL d   1       1.102  -1.410   4.779  0.00  0.00    -0.732 N 
ATOM      8  C   UNL d   1       0.727  -0.095   5.254  0.00  0.00     0.284 C 
ATOM      9  H3  UNL d   1       2.106  -1.549   4.691  0.00  0.00     0.395 HD
ENDBRANCH   1   7
TORSDOF 1
ENDMDL
