MODEL 1
REMARK minimizedAffinity -1.60269797
REMARK minimizedRMSD -1
REMARK  0 active torsions:
REMARK  status: ('A' for Active; 'I' for Inactive)
ROOT
ATOM      1  C4' PXY d   1       0.358  -0.844   0.727  0.00  0.00     0.077 C 
ATOM      2  C1' PXY d   1       4.618  -1.186   4.619  0.00  0.00     0.077 C 
ATOM      3  C1  PXY d   1       3.495  -1.107   3.604  0.00  0.00    -0.082 A 
ATOM      4  C2  PXY d   1       3.713  -0.537   2.430  0.00  0.00     0.003 A 
ATOM      5  C3  PXY d   1       2.700  -0.428   1.513  0.00  0.00     0.003 A 
ATOM      6  C4  PXY d   1       1.465  -0.955   1.779  0.00  0.00    -0.082 A 
ATOM      7  C5  PXY d   1       1.237  -1.547   2.971  0.00  0.00     0.003 A 
ATOM      8  C6  PXY d   1       2.267  -1.611   3.904  0.00  0.00     0.003 A 
ENDROOT
TORSDOF 0
ENDMDL
