MODEL 1
REMARK minimizedAffinity -1.0844115
REMARK minimizedRMSD -1
REMARK  0 active torsions:
REMARK  status: ('A' for Active; 'I' for Inactive)
ROOT
ATOM      1  C4' PXY d   1       5.692  -0.544   2.309  0.00  0.00     0.077 C 
ATOM      2  C1' PXY d   1       0.038  -1.424   3.132  0.00  0.00     0.077 C 
ATOM      3  C1  PXY d   1       1.523  -1.191   2.929  0.00  0.00    -0.082 A 
ATOM      4  C2  PXY d   1       1.966  -0.790   1.749  0.00  0.00     0.003 A 
ATOM      5  C3  PXY d   1       3.309  -0.605   1.539  0.00  0.00     0.003 A 
ATOM      6  C4  PXY d   1       4.201  -0.782   2.562  0.00  0.00    -0.082 A 
ATOM      7  C5  PXY d   1       3.755  -1.181   3.772  0.00  0.00     0.003 A 
ATOM      8  C6  PXY d   1       2.393  -1.403   3.954  0.00  0.00     0.003 A 
ENDROOT
TORSDOF 0
ENDMDL
