MODEL 1
REMARK minimizedAffinity -4.05599308
REMARK minimizedRMSD -1
REMARK  0 active torsions:
REMARK  status: ('A' for Active; 'I' for Inactive)
ROOT
ATOM      1  C4' PXY d   1      -5.922   0.868  -0.535  0.00  0.00     0.077 C 
ATOM      2  C1' PXY d   1      -1.315   1.904  -3.870  0.00  0.00     0.077 C 
ATOM      3  C1  PXY d   1      -2.519   1.620  -2.993  0.00  0.00    -0.082 A 
ATOM      4  C2  PXY d   1      -3.622   2.335  -3.146  0.00  0.00     0.003 A 
ATOM      5  C3  PXY d   1      -4.709   2.113  -2.340  0.00  0.00     0.003 A 
ATOM      6  C4  PXY d   1      -4.685   1.114  -1.404  0.00  0.00    -0.082 A 
ATOM      7  C5  PXY d   1      -3.567   0.373  -1.250  0.00  0.00     0.003 A 
ATOM      8  C6  PXY d   1      -2.460   0.642  -2.050  0.00  0.00     0.003 A 
ENDROOT
TORSDOF 0
ENDMDL
