MODEL 1
REMARK minimizedAffinity 2.03840637
REMARK minimizedRMSD -1
REMARK  0 active torsions:
REMARK  status: ('A' for Active; 'I' for Inactive)
ROOT
ATOM      1  C4' PXY d   1      -4.058   0.178  -2.188  0.00  0.00     0.077 C 
ATOM      2  C1' PXY d   1      -0.963   3.858  -5.396  0.00  0.00     0.077 C 
ATOM      3  C1  PXY d   1      -1.785   2.901  -4.556  0.00  0.00    -0.082 A 
ATOM      4  C2  PXY d   1      -1.180   2.110  -3.685  0.00  0.00     0.003 A 
ATOM      5  C3  PXY d   1      -1.905   1.215  -2.940  0.00  0.00     0.003 A 
ATOM      6  C4  PXY d   1      -3.269   1.167  -3.050  0.00  0.00    -0.082 A 
ATOM      7  C5  PXY d   1      -3.895   1.978  -3.929  0.00  0.00     0.003 A 
ATOM      8  C6  PXY d   1      -3.137   2.850  -4.705  0.00  0.00     0.003 A 
ENDROOT
TORSDOF 0
ENDMDL
