MODEL 1
REMARK minimizedAffinity -0.993969202
REMARK minimizedRMSD -1
REMARK  0 active torsions:
REMARK  status: ('A' for Active; 'I' for Inactive)
ROOT
ATOM      1  C4' PXY d   1       0.329  -1.845   0.363  0.00  0.00     0.077 C 
ATOM      2  C1' PXY d   1       4.170  -0.393   4.432  0.00  0.00     0.077 C 
ATOM      3  C1  PXY d   1       3.157  -0.782   3.373  0.00  0.00    -0.082 A 
ATOM      4  C2  PXY d   1       3.465  -0.650   2.093  0.00  0.00     0.003 A 
ATOM      5  C3  PXY d   1       2.549  -0.967   1.123  0.00  0.00     0.003 A 
ATOM      6  C4  PXY d   1       1.324  -1.474   1.466  0.00  0.00    -0.082 A 
ATOM      7  C5  PXY d   1       1.006  -1.622   2.769  0.00  0.00     0.003 A 
ATOM      8  C6  PXY d   1       1.935  -1.255   3.739  0.00  0.00     0.003 A 
ENDROOT
TORSDOF 0
ENDMDL
