MODEL 1
REMARK minimizedAffinity -0.68432492
REMARK minimizedRMSD -1
REMARK  0 active torsions:
REMARK  status: ('A' for Active; 'I' for Inactive)
ROOT
ATOM      1  C4' PXY d   1       0.019  -1.006   1.093  0.00  0.00     0.077 C 
ATOM      2  C1' PXY d   1       5.318  -0.777   3.392  0.00  0.00     0.077 C 
ATOM      3  C1  PXY d   1       3.925  -0.847   2.797  0.00  0.00    -0.082 A 
ATOM      4  C2  PXY d   1       3.719  -0.419   1.562  0.00  0.00     0.003 A 
ATOM      5  C3  PXY d   1       2.460  -0.445   1.020  0.00  0.00     0.003 A 
ATOM      6  C4  PXY d   1       1.411  -0.964   1.730  0.00  0.00    -0.082 A 
ATOM      7  C5  PXY d   1       1.615  -1.412   2.987  0.00  0.00     0.003 A 
ATOM      8  C6  PXY d   1       2.893  -1.339   3.534  0.00  0.00     0.003 A 
ENDROOT
TORSDOF 0
ENDMDL
