MODEL 1
REMARK minimizedAffinity -1.95408559
REMARK minimizedRMSD -1
REMARK  0 active torsions:
REMARK  status: ('A' for Active; 'I' for Inactive)
ROOT
ATOM      1  C4' PXY d   1       0.078   0.805   0.380  0.00  0.00     0.077 C 
ATOM      2  C1' PXY d   1       2.335  -3.698   3.216  0.00  0.00     0.077 C 
ATOM      3  C1  PXY d   1       1.754  -2.517   2.464  0.00  0.00    -0.082 A 
ATOM      4  C2  PXY d   1       0.897  -1.712   3.072  0.00  0.00     0.003 A 
ATOM      5  C3  PXY d   1       0.337  -0.658   2.397  0.00  0.00     0.003 A 
ATOM      6  C4  PXY d   1       0.697  -0.394   1.103  0.00  0.00    -0.082 A 
ATOM      7  C5  PXY d   1       1.579  -1.204   0.480  0.00  0.00     0.003 A 
ATOM      8  C6  PXY d   1       2.105  -2.292   1.169  0.00  0.00     0.003 A 
ENDROOT
TORSDOF 0
ENDMDL
