MODEL 1
REMARK minimizedAffinity 2.96616554
REMARK minimizedRMSD -1
REMARK  0 active torsions:
REMARK  status: ('A' for Active; 'I' for Inactive)
ROOT
ATOM      1  C4' PXY d   1       2.246  -1.695   4.176  0.00  0.00     0.077 C 
ATOM      2  C1' PXY d   1       1.713   0.522  -1.136  0.00  0.00     0.077 C 
ATOM      3  C1  PXY d   1       1.864  -0.066   0.254  0.00  0.00    -0.082 A 
ATOM      4  C2  PXY d   1       0.796  -0.215   1.020  0.00  0.00     0.003 A 
ATOM      5  C3  PXY d   1       0.918  -0.714   2.291  0.00  0.00     0.003 A 
ATOM      6  C4  PXY d   1       2.139  -1.115   2.763  0.00  0.00    -0.082 A 
ATOM      7  C5  PXY d   1       3.232  -0.977   1.983  0.00  0.00     0.003 A 
ATOM      8  C6  PXY d   1       3.093  -0.429   0.711  0.00  0.00     0.003 A 
ENDROOT
TORSDOF 0
ENDMDL
