MODEL 1
REMARK minimizedAffinity 1.69932044
REMARK minimizedRMSD -1
REMARK  0 active torsions:
REMARK  status: ('A' for Active; 'I' for Inactive)
ROOT
ATOM      1  C4' PXY d   1      -1.432   5.994   0.652  0.00  0.00     0.077 C 
ATOM      2  C1' PXY d   1       3.976   3.967   0.405  0.00  0.00     0.077 C 
ATOM      3  C1  PXY d   1       2.557   4.497   0.457  0.00  0.00    -0.082 A 
ATOM      4  C2  PXY d   1       2.197   5.311   1.436  0.00  0.00     0.003 A 
ATOM      5  C3  PXY d   1       0.909   5.774   1.516  0.00  0.00     0.003 A 
ATOM      6  C4  PXY d   1      -0.007   5.443   0.554  0.00  0.00    -0.082 A 
ATOM      7  C5  PXY d   1       0.355   4.621  -0.454  0.00  0.00     0.003 A 
ATOM      8  C6  PXY d   1       1.656   4.129  -0.495  0.00  0.00     0.003 A 
ENDROOT
TORSDOF 0
ENDMDL
