MODEL 1
REMARK minimizedAffinity 2.51358104
REMARK minimizedRMSD -1
REMARK  0 active torsions:
REMARK  status: ('A' for Active; 'I' for Inactive)
ROOT
ATOM      1  C4' PXY d   1      -3.750   0.007  -1.290  0.00  0.00     0.077 C 
ATOM      2  C1' PXY d   1      -0.375   3.750  -4.122  0.00  0.00     0.077 C 
ATOM      3  C1  PXY d   1      -1.268   2.778  -3.376  0.00  0.00    -0.082 A 
ATOM      4  C2  PXY d   1      -0.758   1.655  -2.899  0.00  0.00     0.003 A 
ATOM      5  C3  PXY d   1      -1.558   0.750  -2.250  0.00  0.00     0.003 A 
ATOM      6  C4  PXY d   1      -2.883   1.022  -2.041  0.00  0.00    -0.082 A 
ATOM      7  C5  PXY d   1      -3.410   2.171  -2.516  0.00  0.00     0.003 A 
ATOM      8  C6  PXY d   1      -2.589   3.057  -3.208  0.00  0.00     0.003 A 
ENDROOT
TORSDOF 0
ENDMDL
