MODEL 1
REMARK minimizedAffinity -3.65811276
REMARK minimizedRMSD -1
REMARK  0 active torsions:
REMARK  status: ('A' for Active; 'I' for Inactive)
ROOT
ATOM      1  C4' PXY d   1      -3.314  -2.749   0.005  0.00  0.00     0.077 C 
ATOM      2  C1' PXY d   1      -5.988   1.950  -2.039  0.00  0.00     0.077 C 
ATOM      3  C1  PXY d   1      -5.290   0.722  -1.490  0.00  0.00    -0.082 A 
ATOM      4  C2  PXY d   1      -4.359   0.121  -2.214  0.00  0.00     0.003 A 
ATOM      5  C3  PXY d   1      -3.740  -1.010  -1.747  0.00  0.00     0.003 A 
ATOM      6  C4  PXY d   1      -4.039  -1.501  -0.504  0.00  0.00    -0.082 A 
ATOM      7  C5  PXY d   1      -4.980  -0.887   0.245  0.00  0.00     0.003 A 
ATOM      8  C6  PXY d   1      -5.626   0.236  -0.265  0.00  0.00     0.003 A 
ENDROOT
TORSDOF 0
ENDMDL
