MODEL 1
REMARK minimizedAffinity 7.80570269
REMARK minimizedRMSD -1
REMARK  0 active torsions:
REMARK  status: ('A' for Active; 'I' for Inactive)
ROOT
ATOM      1  C4' PXY d   1      -2.856  -3.954   0.181  0.00  0.00     0.077 C 
ATOM      2  C1' PXY d   1       1.564  -0.235   0.397  0.00  0.00     0.077 C 
ATOM      3  C1  PXY d   1       0.398  -1.203   0.350  0.00  0.00    -0.082 A 
ATOM      4  C2  PXY d   1       0.595  -2.443  -0.068  0.00  0.00     0.003 A 
ATOM      5  C3  PXY d   1      -0.454  -3.323  -0.148  0.00  0.00     0.003 A 
ATOM      6  C4  PXY d   1      -1.707  -2.945   0.254  0.00  0.00    -0.082 A 
ATOM      7  C5  PXY d   1      -1.914  -1.685   0.692  0.00  0.00     0.003 A 
ATOM      8  C6  PXY d   1      -0.844  -0.795   0.726  0.00  0.00     0.003 A 
ENDROOT
TORSDOF 0
ENDMDL
