MODEL 1
REMARK minimizedAffinity -2.8189826
REMARK minimizedRMSD -1
REMARK  0 active torsions:
REMARK  status: ('A' for Active; 'I' for Inactive)
ROOT
ATOM      1  C4' PXY d   1       5.230   3.829  -0.816  0.00  0.00     0.077 C 
ATOM      2  C1' PXY d   1       0.772   0.264   0.101  0.00  0.00     0.077 C 
ATOM      3  C1  PXY d   1       1.933   1.209  -0.140  0.00  0.00    -0.082 A 
ATOM      4  C2  PXY d   1       3.076   0.735  -0.610  0.00  0.00     0.003 A 
ATOM      5  C3  PXY d   1       4.146   1.570  -0.804  0.00  0.00     0.003 A 
ATOM      6  C4  PXY d   1       4.028   2.913  -0.565  0.00  0.00    -0.082 A 
ATOM      7  C5  PXY d   1       2.862   3.406  -0.097  0.00  0.00     0.003 A 
ATOM      8  C6  PXY d   1       1.801   2.535   0.133  0.00  0.00     0.003 A 
ENDROOT
TORSDOF 0
ENDMDL
