MODEL 1
REMARK minimizedAffinity 2.5323
REMARK minimizedRMSD -1
REMARK  0 active torsions:
REMARK  status: ('A' for Active; 'I' for Inactive)
ROOT
ATOM      1  C4' PXY d   1      -2.024  -3.580   0.750  0.00  0.00     0.077 C 
ATOM      2  C1' PXY d   1       2.419  -0.096  -0.491  0.00  0.00     0.077 C 
ATOM      3  C1  PXY d   1       1.252  -1.004  -0.154  0.00  0.00    -0.082 A 
ATOM      4  C2  PXY d   1       1.146  -2.180  -0.750  0.00  0.00     0.003 A 
ATOM      5  C3  PXY d   1       0.080  -3.000  -0.481  0.00  0.00     0.003 A 
ATOM      6  C4  PXY d   1      -0.858  -2.635   0.448  0.00  0.00    -0.082 A 
ATOM      7  C5  PXY d   1      -0.750  -1.440   1.068  0.00  0.00     0.003 A 
ATOM      8  C6  PXY d   1       0.317  -0.605   0.750  0.00  0.00     0.003 A 
ENDROOT
TORSDOF 0
ENDMDL
