MODEL 1
REMARK minimizedAffinity 7.28563404
REMARK minimizedRMSD -1
REMARK  0 active torsions:
REMARK  status: ('A' for Active; 'I' for Inactive)
ROOT
ATOM      1  C4' PXY d   1       0.748  -0.480  -0.333  0.00  0.00     0.077 C 
ATOM      2  C1' PXY d   1       4.762  -1.217   3.762  0.00  0.00     0.077 C 
ATOM      3  C1  PXY d   1       3.701  -1.032   2.694  0.00  0.00    -0.082 A 
ATOM      4  C2  PXY d   1       4.052  -0.611   1.490  0.00  0.00     0.003 A 
ATOM      5  C3  PXY d   1       3.102  -0.408   0.522  0.00  0.00     0.003 A 
ATOM      6  C4  PXY d   1       1.786  -0.690   0.773  0.00  0.00    -0.082 A 
ATOM      7  C5  PXY d   1       1.422  -1.130   1.996  0.00  0.00     0.003 A 
ATOM      8  C6  PXY d   1       2.396  -1.290   2.977  0.00  0.00     0.003 A 
ENDROOT
TORSDOF 0
ENDMDL
