MODEL 1
REMARK minimizedAffinity 7.18674755
REMARK minimizedRMSD -1
REMARK  0 active torsions:
REMARK  status: ('A' for Active; 'I' for Inactive)
ROOT
ATOM      1  C4' PXY d   1       4.399   3.614  -0.782  0.00  0.00     0.077 C 
ATOM      2  C1' PXY d   1       0.074  -0.001   0.500  0.00  0.00     0.077 C 
ATOM      3  C1  PXY d   1       1.199   0.956   0.161  0.00  0.00    -0.082 A 
ATOM      4  C2  PXY d   1       2.380   0.478  -0.196  0.00  0.00     0.003 A 
ATOM      5  C3  PXY d   1       3.418   1.329  -0.476  0.00  0.00     0.003 A 
ATOM      6  C4  PXY d   1       3.231   2.685  -0.440  0.00  0.00    -0.082 A 
ATOM      7  C5  PXY d   1       2.026   3.181  -0.086  0.00  0.00     0.003 A 
ATOM      8  C6  PXY d   1       0.997   2.300   0.233  0.00  0.00     0.003 A 
ENDROOT
TORSDOF 0
ENDMDL
