MODEL 1
REMARK minimizedAffinity 8.45444012
REMARK minimizedRMSD -1
REMARK  0 active torsions:
REMARK  status: ('A' for Active; 'I' for Inactive)
ROOT
ATOM      1  C4' PXY d   1      -1.837  -3.861   0.857  0.00  0.00     0.077 C 
ATOM      2  C1' PXY d   1       0.974   1.179   0.526  0.00  0.00     0.077 C 
ATOM      3  C1  PXY d   1       0.246  -0.148   0.606  0.00  0.00    -0.082 A 
ATOM      4  C2  PXY d   1      -1.066  -0.166   0.771  0.00  0.00     0.003 A 
ATOM      5  C3  PXY d   1      -1.736  -1.358   0.878  0.00  0.00     0.003 A 
ATOM      6  C4  PXY d   1      -1.062  -2.544   0.761  0.00  0.00    -0.082 A 
ATOM      7  C5  PXY d   1       0.276  -2.534   0.582  0.00  0.00     0.003 A 
ATOM      8  C6  PXY d   1       0.943  -1.314   0.517  0.00  0.00     0.003 A 
ENDROOT
TORSDOF 0
ENDMDL
