MODEL 1
REMARK minimizedAffinity 8.48189163
REMARK minimizedRMSD -1
REMARK  0 active torsions:
REMARK  status: ('A' for Active; 'I' for Inactive)
ROOT
ATOM      1  C4' PXY d   1       0.009   3.910  -3.735  0.00  0.00     0.077 C 
ATOM      2  C1' PXY d   1      -4.016  -0.108  -2.700  0.00  0.00     0.077 C 
ATOM      3  C1  PXY d   1      -2.953   0.941  -2.962  0.00  0.00    -0.082 A 
ATOM      4  C2  PXY d   1      -3.287   2.077  -3.552  0.00  0.00     0.003 A 
ATOM      5  C3  PXY d   1      -2.333   3.023  -3.825  0.00  0.00     0.003 A 
ATOM      6  C4  PXY d   1      -1.033   2.827  -3.443  0.00  0.00    -0.082 A 
ATOM      7  C5  PXY d   1      -0.686   1.675  -2.830  0.00  0.00     0.003 A 
ATOM      8  C6  PXY d   1      -1.662   0.710  -2.599  0.00  0.00     0.003 A 
ENDROOT
TORSDOF 0
ENDMDL
