MODEL 1
REMARK minimizedAffinity 6.12636042
REMARK minimizedRMSD -1
REMARK  0 active torsions:
REMARK  status: ('A' for Active; 'I' for Inactive)
ROOT
ATOM      1  C4' PXY d   1      -2.553  -4.447   4.074  0.00  0.00     0.077 C 
ATOM      2  C1' PXY d   1      -2.796  -4.947  -1.679  0.00  0.00     0.077 C 
ATOM      3  C1  PXY d   1      -2.741  -4.826  -0.169  0.00  0.00    -0.082 A 
ATOM      4  C2  PXY d   1      -2.376  -3.679   0.382  0.00  0.00     0.003 A 
ATOM      5  C3  PXY d   1      -2.290  -3.562   1.745  0.00  0.00     0.003 A 
ATOM      6  C4  PXY d   1      -2.632  -4.612   2.554  0.00  0.00    -0.082 A 
ATOM      7  C5  PXY d   1      -3.015  -5.782   2.000  0.00  0.00     0.003 A 
ATOM      8  C6  PXY d   1      -3.057  -5.893   0.613  0.00  0.00     0.003 A 
ENDROOT
TORSDOF 0
ENDMDL
