MODEL 1
REMARK minimizedAffinity 2.51561618
REMARK minimizedRMSD -1
REMARK  0 active torsions:
REMARK  status: ('A' for Active; 'I' for Inactive)
ROOT
ATOM      1  C4' PXY d   1       5.302  -0.880   2.103  0.00  0.00     0.077 C 
ATOM      2  C1' PXY d   1      -0.303  -0.586   0.721  0.00  0.00     0.077 C 
ATOM      3  C1  PXY d   1       1.164  -0.659   1.095  0.00  0.00    -0.082 A 
ATOM      4  C2  PXY d   1       2.086  -0.526   0.156  0.00  0.00     0.003 A 
ATOM      5  C3  PXY d   1       3.417  -0.622   0.473  0.00  0.00     0.003 A 
ATOM      6  C4  PXY d   1       3.809  -0.803   1.772  0.00  0.00    -0.082 A 
ATOM      7  C5  PXY d   1       2.874  -0.930   2.737  0.00  0.00     0.003 A 
ATOM      8  C6  PXY d   1       1.528  -0.871   2.389  0.00  0.00     0.003 A 
ENDROOT
TORSDOF 0
ENDMDL
