MODEL 1
REMARK minimizedAffinity -3.06600332
REMARK minimizedRMSD -1
REMARK  2 active torsions:
REMARK  status: ('A' for Active; 'I' for Inactive)
REMARK    1  A    between atoms: C2'_3  and  C1'_4 
REMARK    2  A    between atoms: C1'_4  and  C1_5 
ROOT
ATOM      1  C1  I4B d   1      -0.298  -0.365  -0.089  0.00  0.00    -0.075 A 
ATOM      2  C2  I4B d   1       0.643   0.509   0.396  0.00  0.00     0.003 A 
ATOM      3  C3  I4B d   1       0.344   1.889   0.507  0.00  0.00     0.002 A 
ATOM      4  C4  I4B d   1      -0.882   2.355   0.078  0.00  0.00    -0.004 A 
ATOM      5  C5  I4B d   1      -1.843   1.464  -0.391  0.00  0.00     0.002 A 
ATOM      6  C6  I4B d   1      -1.554   0.094  -0.464  0.00  0.00     0.003 A 
ENDROOT
BRANCH   1   7
ATOM      7  C1' I4B d   1       0.063  -1.810  -0.224  0.00  0.00     0.060 C 
BRANCH   7   8
ATOM      8  C2' I4B d   1      -0.708  -2.376  -1.400  0.00  0.00    -0.013 C 
ATOM      9  C4' I4B d   1       0.202  -2.646  -2.569  0.00  0.00     0.013 C 
ATOM     10  C3' I4B d   1      -1.392  -3.631  -0.944  0.00  0.00     0.013 C 
ENDBRANCH   7   8
ENDBRANCH   1   7
TORSDOF 2
ENDMDL
