MODEL 1
REMARK minimizedAffinity -2.21536779
REMARK minimizedRMSD -1
REMARK  2 active torsions:
REMARK  status: ('A' for Active; 'I' for Inactive)
REMARK    1  A    between atoms: C2'_3  and  C1'_4 
REMARK    2  A    between atoms: C1'_4  and  C1_5 
ROOT
ATOM      1  C1  I4B d   1      -0.558  -2.500  -0.862  0.00  0.00    -0.075 A 
ATOM      2  C2  I4B d   1      -1.770  -3.138  -0.783  0.00  0.00     0.003 A 
ATOM      3  C3  I4B d   1      -2.291  -3.821  -1.909  0.00  0.00     0.002 A 
ATOM      4  C4  I4B d   1      -1.594  -3.799  -3.100  0.00  0.00    -0.004 A 
ATOM      5  C5  I4B d   1      -0.354  -3.171  -3.172  0.00  0.00     0.002 A 
ATOM      6  C6  I4B d   1       0.174  -2.528  -2.043  0.00  0.00     0.003 A 
ENDROOT
BRANCH   1   7
ATOM      7  C1' I4B d   1      -0.053  -1.760   0.336  0.00  0.00     0.060 C 
BRANCH   7   8
ATOM      8  C2' I4B d   1       0.513  -0.437  -0.137  0.00  0.00    -0.013 C 
ATOM      9  C4' I4B d   1      -0.420   0.701   0.183  0.00  0.00     0.013 C 
ATOM     10  C3' I4B d   1       1.848  -0.243   0.518  0.00  0.00     0.013 C 
ENDBRANCH   7   8
ENDBRANCH   1   7
TORSDOF 2
ENDMDL
