MODEL 1
REMARK minimizedAffinity -5.69419765
REMARK minimizedRMSD -1
REMARK  2 active torsions:
REMARK  status: ('A' for Active; 'I' for Inactive)
REMARK    1  A    between atoms: C2'_3  and  C1'_4 
REMARK    2  A    between atoms: C1'_4  and  C1_5 
ROOT
ATOM      1  C1  I4B d   1      -0.507  -0.992  -0.383  0.00  0.00    -0.075 A 
ATOM      2  C2  I4B d   1       0.110  -2.125   0.084  0.00  0.00     0.003 A 
ATOM      3  C3  I4B d   1       0.189  -3.281  -0.731  0.00  0.00     0.002 A 
ATOM      4  C4  I4B d   1      -0.403  -3.275  -1.977  0.00  0.00    -0.004 A 
ATOM      5  C5  I4B d   1      -1.009  -2.118  -2.457  0.00  0.00     0.002 A 
ATOM      6  C6  I4B d   1      -1.051  -0.965  -1.660  0.00  0.00     0.003 A 
ENDROOT
BRANCH   1   7
ATOM      7  C1' I4B d   1      -0.602   0.200   0.517  0.00  0.00     0.060 C 
BRANCH   7   8
ATOM      8  C2' I4B d   1       0.198   1.323  -0.112  0.00  0.00    -0.013 C 
ATOM      9  C4' I4B d   1      -0.218   2.662   0.439  0.00  0.00     0.013 C 
ATOM     10  C3' I4B d   1       1.651   1.059   0.148  0.00  0.00     0.013 C 
ENDBRANCH   7   8
ENDBRANCH   1   7
TORSDOF 2
ENDMDL
