MODEL 1
REMARK minimizedAffinity -2.12873173
REMARK minimizedRMSD -1
REMARK  2 active torsions:
REMARK  status: ('A' for Active; 'I' for Inactive)
REMARK    1  A    between atoms: C2'_3  and  C1'_4 
REMARK    2  A    between atoms: C1'_4  and  C1_5 
ROOT
ATOM      1  C1  I4B d   1      -0.641   0.378  -0.027  0.00  0.00    -0.075 A 
ATOM      2  C2  I4B d   1      -1.496  -0.627   0.351  0.00  0.00     0.003 A 
ATOM      3  C3  I4B d   1      -1.068  -1.977   0.319  0.00  0.00     0.002 A 
ATOM      4  C4  I4B d   1       0.197  -2.278  -0.142  0.00  0.00    -0.004 A 
ATOM      5  C5  I4B d   1       1.070  -1.256  -0.503  0.00  0.00     0.002 A 
ATOM      6  C6  I4B d   1       0.654   0.081  -0.433  0.00  0.00     0.003 A 
ENDROOT
BRANCH   1   7
ATOM      7  C1' I4B d   1      -1.136   1.789  -0.012  0.00  0.00     0.060 C 
BRANCH   7   8
ATOM      8  C2' I4B d   1      -0.139   2.626   0.763  0.00  0.00    -0.013 C 
ATOM      9  C4' I4B d   1       0.246   3.864  -0.002  0.00  0.00     0.013 C 
ATOM     10  C3' I4B d   1      -0.757   2.976   2.084  0.00  0.00     0.013 C 
ENDBRANCH   7   8
ENDBRANCH   1   7
TORSDOF 2
ENDMDL
