MODEL 1
REMARK minimizedAffinity -3.92002845
REMARK minimizedRMSD -1
REMARK  2 active torsions:
REMARK  status: ('A' for Active; 'I' for Inactive)
REMARK    1  A    between atoms: C2'_3  and  C1'_4 
REMARK    2  A    between atoms: C1'_4  and  C1_5 
ROOT
ATOM      1  C1  I4B d   1      -0.670  -0.819  -1.032  0.00  0.00    -0.075 A 
ATOM      2  C2  I4B d   1      -0.873  -2.034  -0.426  0.00  0.00     0.003 A 
ATOM      3  C3  I4B d   1      -0.882  -3.222  -1.196  0.00  0.00     0.002 A 
ATOM      4  C4  I4B d   1      -0.734  -3.145  -2.566  0.00  0.00    -0.004 A 
ATOM      5  C5  I4B d   1      -0.505  -1.915  -3.176  0.00  0.00     0.002 A 
ATOM      6  C6  I4B d   1      -0.461  -0.746  -2.403  0.00  0.00     0.003 A 
ENDROOT
BRANCH   1   7
ATOM      7  C1' I4B d   1      -0.700   0.419  -0.194  0.00  0.00     0.060 C 
BRANCH   7   8
ATOM      8  C2' I4B d   1       0.362   1.364  -0.717  0.00  0.00    -0.013 C 
ATOM      9  C4' I4B d   1      -0.034   2.801  -0.506  0.00  0.00     0.013 C 
ATOM     10  C3' I4B d   1       1.649   1.048  -0.015  0.00  0.00     0.013 C 
ENDBRANCH   7   8
ENDBRANCH   1   7
TORSDOF 2
ENDMDL
