MODEL 1
REMARK minimizedAffinity -2.80880213
REMARK minimizedRMSD -1
REMARK  2 active torsions:
REMARK  status: ('A' for Active; 'I' for Inactive)
REMARK    1  A    between atoms: C2'_3  and  C1'_4 
REMARK    2  A    between atoms: C1'_4  and  C1_5 
ROOT
ATOM      1  C1  I4B d   1      -0.526   0.002   0.029  0.00  0.00    -0.075 A 
ATOM      2  C2  I4B d   1       0.358   1.029   0.249  0.00  0.00     0.003 A 
ATOM      3  C3  I4B d   1      -0.096   2.258   0.785  0.00  0.00     0.002 A 
ATOM      4  C4  I4B d   1      -1.441   2.434   1.038  0.00  0.00    -0.004 A 
ATOM      5  C5  I4B d   1      -2.332   1.384   0.837  0.00  0.00     0.002 A 
ATOM      6  C6  I4B d   1      -1.870   0.156   0.341  0.00  0.00     0.003 A 
ENDROOT
BRANCH   1   7
ATOM      7  C1' I4B d   1      -0.017  -1.271  -0.569  0.00  0.00     0.060 C 
BRANCH   7   8
ATOM      8  C2' I4B d   1      -1.213  -2.143  -0.897  0.00  0.00    -0.013 C 
ATOM      9  C4' I4B d   1      -1.021  -2.862  -2.205  0.00  0.00     0.013 C 
ATOM     10  C3' I4B d   1      -1.402  -3.112   0.232  0.00  0.00     0.013 C 
ENDBRANCH   7   8
ENDBRANCH   1   7
TORSDOF 2
ENDMDL
