MODEL 1
REMARK minimizedAffinity -2.30883408
REMARK minimizedRMSD -1
REMARK  2 active torsions:
REMARK  status: ('A' for Active; 'I' for Inactive)
REMARK    1  A    between atoms: C2'_3  and  C1'_4 
REMARK    2  A    between atoms: C1'_4  and  C1_5 
ROOT
ATOM      1  C1  I4B d   1      -0.077   1.482  -0.354  0.00  0.00    -0.075 A 
ATOM      2  C2  I4B d   1       1.129   0.846  -0.199  0.00  0.00     0.003 A 
ATOM      3  C3  I4B d   1       1.188  -0.435   0.403  0.00  0.00     0.002 A 
ATOM      4  C4  I4B d   1       0.030  -1.017   0.877  0.00  0.00    -0.004 A 
ATOM      5  C5  I4B d   1      -1.195  -0.381   0.697  0.00  0.00     0.002 A 
ATOM      6  C6  I4B d   1      -1.251   0.871   0.067  0.00  0.00     0.003 A 
ENDROOT
BRANCH   1   7
ATOM      7  C1' I4B d   1      -0.099   2.847  -0.964  0.00  0.00     0.060 C 
BRANCH   7   8
ATOM      8  C2' I4B d   1      -0.102   3.861   0.162  0.00  0.00    -0.013 C 
ATOM      9  C4' I4B d   1      -0.489   3.222   1.470  0.00  0.00     0.013 C 
ATOM     10  C3' I4B d   1       1.266   4.470   0.240  0.00  0.00     0.013 C 
ENDBRANCH   7   8
ENDBRANCH   1   7
TORSDOF 2
ENDMDL
