MODEL 1
REMARK minimizedAffinity -4.85119247
REMARK minimizedRMSD -1
REMARK  2 active torsions:
REMARK  status: ('A' for Active; 'I' for Inactive)
REMARK    1  A    between atoms: C2'_3  and  C1'_4 
REMARK    2  A    between atoms: C1'_4  and  C1_5 
ROOT
ATOM      1  C1  I4B d   1       0.468   0.947  -0.758  0.00  0.00    -0.075 A 
ATOM      2  C2  I4B d   1      -0.360   1.897  -1.301  0.00  0.00     0.003 A 
ATOM      3  C3  I4B d   1      -0.200   3.262  -0.958  0.00  0.00     0.002 A 
ATOM      4  C4  I4B d   1       0.762   3.623  -0.037  0.00  0.00    -0.004 A 
ATOM      5  C5  I4B d   1       1.616   2.661   0.494  0.00  0.00     0.002 A 
ATOM      6  C6  I4B d   1       1.477   1.316   0.122  0.00  0.00     0.003 A 
ENDROOT
BRANCH   1   7
ATOM      7  C1' I4B d   1       0.250  -0.489  -1.117  0.00  0.00     0.060 C 
BRANCH   7   8
ATOM      8  C2' I4B d   1      -0.133  -1.232   0.146  0.00  0.00    -0.013 C 
ATOM      9  C4' I4B d   1      -1.200  -0.494   0.911  0.00  0.00     0.013 C 
ATOM     10  C3' I4B d   1      -0.599  -2.603  -0.246  0.00  0.00     0.013 C 
ENDBRANCH   7   8
ENDBRANCH   1   7
TORSDOF 2
ENDMDL
