MODEL 1
REMARK minimizedAffinity -5.42723942
REMARK minimizedRMSD -1
REMARK  2 active torsions:
REMARK  status: ('A' for Active; 'I' for Inactive)
REMARK    1  A    between atoms: C2'_3  and  C1'_4 
REMARK    2  A    between atoms: C1'_4  and  C1_5 
ROOT
ATOM      1  C1  I4B d   1       0.417   0.819   0.515  0.00  0.00    -0.075 A 
ATOM      2  C2  I4B d   1      -0.111   2.075   0.688  0.00  0.00     0.003 A 
ATOM      3  C3  I4B d   1       0.744   3.197   0.810  0.00  0.00     0.002 A 
ATOM      4  C4  I4B d   1       2.112   3.013   0.804  0.00  0.00    -0.004 A 
ATOM      5  C5  I4B d   1       2.645   1.743   0.605  0.00  0.00     0.002 A 
ATOM      6  C6  I4B d   1       1.793   0.640   0.447  0.00  0.00     0.003 A 
ENDROOT
BRANCH   1   7
ATOM      7  C1' I4B d   1      -0.514  -0.348   0.422  0.00  0.00     0.060 C 
BRANCH   7   8
ATOM      8  C2' I4B d   1       0.077  -1.340  -0.558  0.00  0.00    -0.013 C 
ATOM      9  C4' I4B d   1      -0.391  -2.741  -0.265  0.00  0.00     0.013 C 
ATOM     10  C3' I4B d   1      -0.318  -0.916  -1.941  0.00  0.00     0.013 C 
ENDBRANCH   7   8
ENDBRANCH   1   7
TORSDOF 2
ENDMDL
