MODEL 1
REMARK minimizedAffinity -3.24076557
REMARK minimizedRMSD -1
REMARK  2 active torsions:
REMARK  status: ('A' for Active; 'I' for Inactive)
REMARK    1  A    between atoms: C2'_3  and  C1'_4 
REMARK    2  A    between atoms: C1'_4  and  C1_5 
ROOT
ATOM      1  C1  I4B d   1      -0.355   1.009  -0.405  0.00  0.00    -0.075 A 
ATOM      2  C2  I4B d   1      -0.177  -0.332  -0.172  0.00  0.00     0.003 A 
ATOM      3  C3  I4B d   1      -1.000  -1.009   0.761  0.00  0.00     0.002 A 
ATOM      4  C4  I4B d   1      -1.949  -0.301   1.470  0.00  0.00    -0.004 A 
ATOM      5  C5  I4B d   1      -2.143   1.053   1.215  0.00  0.00     0.002 A 
ATOM      6  C6  I4B d   1      -1.350   1.710   0.264  0.00  0.00     0.003 A 
ENDROOT
BRANCH   1   7
ATOM      7  C1' I4B d   1       0.554   1.699  -1.371  0.00  0.00     0.060 C 
BRANCH   7   8
ATOM      8  C2' I4B d   1       1.573   2.487  -0.573  0.00  0.00    -0.013 C 
ATOM      9  C4' I4B d   1       0.902   3.490   0.328  0.00  0.00     0.013 C 
ATOM     10  C3' I4B d   1       2.395   1.514   0.217  0.00  0.00     0.013 C 
ENDBRANCH   7   8
ENDBRANCH   1   7
TORSDOF 2
ENDMDL
