MODEL 1
REMARK minimizedAffinity 0.715417802
REMARK minimizedRMSD -1
REMARK  2 active torsions:
REMARK  status: ('A' for Active; 'I' for Inactive)
REMARK    1  A    between atoms: C2'_3  and  C1'_4 
REMARK    2  A    between atoms: C1'_4  and  C1_5 
ROOT
ATOM      1  C1  I4B d   1      -0.703   1.244   0.184  0.00  0.00    -0.075 A 
ATOM      2  C2  I4B d   1      -1.206   1.233   1.461  0.00  0.00     0.003 A 
ATOM      3  C3  I4B d   1      -1.005   2.343   2.316  0.00  0.00     0.002 A 
ATOM      4  C4  I4B d   1      -0.256   3.415   1.874  0.00  0.00    -0.004 A 
ATOM      5  C5  I4B d   1       0.234   3.434   0.571  0.00  0.00     0.002 A 
ATOM      6  C6  I4B d   1      -0.001   2.347  -0.284  0.00  0.00     0.003 A 
ENDROOT
BRANCH   1   7
ATOM      7  C1' I4B d   1      -0.906   0.041  -0.681  0.00  0.00     0.060 C 
BRANCH   7   8
ATOM      8  C2' I4B d   1      -0.270  -1.146   0.013  0.00  0.00    -0.013 C 
ATOM      9  C4' I4B d   1      -0.683  -2.442  -0.634  0.00  0.00     0.013 C 
ATOM     10  C3' I4B d   1       1.218  -0.968  -0.034  0.00  0.00     0.013 C 
ENDBRANCH   7   8
ENDBRANCH   1   7
TORSDOF 2
ENDMDL
