MODEL 1
REMARK minimizedAffinity 6.88674355
REMARK minimizedRMSD -1
REMARK  2 active torsions:
REMARK  status: ('A' for Active; 'I' for Inactive)
REMARK    1  A    between atoms: C2'_3  and  C1'_4 
REMARK    2  A    between atoms: C1'_4  and  C1_5 
ROOT
ATOM      1  C1  I4B d   1       0.592  -2.198  -0.795  0.00  0.00    -0.075 A 
ATOM      2  C2  I4B d   1       1.431  -2.218  -1.882  0.00  0.00     0.003 A 
ATOM      3  C3  I4B d   1       1.128  -3.031  -3.000  0.00  0.00     0.002 A 
ATOM      4  C4  I4B d   1       0.012  -3.842  -2.969  0.00  0.00    -0.004 A 
ATOM      5  C5  I4B d   1      -0.849  -3.803  -1.876  0.00  0.00     0.002 A 
ATOM      6  C6  I4B d   1      -0.564  -2.967  -0.787  0.00  0.00     0.003 A 
ENDROOT
BRANCH   1   7
ATOM      7  C1' I4B d   1       0.959  -1.352   0.383  0.00  0.00     0.060 C 
BRANCH   7   8
ATOM      8  C2' I4B d   1       2.138  -0.486  -0.013  0.00  0.00    -0.013 C 
ATOM      9  C4' I4B d   1       1.830   0.975   0.178  0.00  0.00     0.013 C 
ATOM     10  C3' I4B d   1       3.317  -0.903   0.814  0.00  0.00     0.013 C 
ENDBRANCH   7   8
ENDBRANCH   1   7
TORSDOF 2
ENDMDL
