MODEL 1
REMARK minimizedAffinity -1.24888253
REMARK minimizedRMSD -1
REMARK  2 active torsions:
REMARK  status: ('A' for Active; 'I' for Inactive)
REMARK    1  A    between atoms: C2'_3  and  C1'_4 
REMARK    2  A    between atoms: C1'_4  and  C1_5 
ROOT
ATOM      1  C1  I4B d   1      -0.321  -0.518   0.096  0.00  0.00    -0.075 A 
ATOM      2  C2  I4B d   1      -0.537   0.080   1.312  0.00  0.00     0.003 A 
ATOM      3  C3  I4B d   1      -1.035   1.404   1.377  0.00  0.00     0.002 A 
ATOM      4  C4  I4B d   1      -1.254   2.106   0.209  0.00  0.00    -0.004 A 
ATOM      5  C5  I4B d   1      -1.056   1.490  -1.023  0.00  0.00     0.002 A 
ATOM      6  C6  I4B d   1      -0.598   0.166  -1.081  0.00  0.00     0.003 A 
ENDROOT
BRANCH   1   7
ATOM      7  C1' I4B d   1       0.237  -1.905   0.064  0.00  0.00     0.060 C 
BRANCH   7   8
ATOM      8  C2' I4B d   1      -0.566  -2.708  -0.939  0.00  0.00    -0.013 C 
ATOM      9  C4' I4B d   1       0.330  -3.361  -1.958  0.00  0.00     0.013 C 
ATOM     10  C3' I4B d   1      -1.361  -3.731  -0.182  0.00  0.00     0.013 C 
ENDBRANCH   7   8
ENDBRANCH   1   7
TORSDOF 2
ENDMDL
