MODEL 1
REMARK minimizedAffinity 11.6239986
REMARK minimizedRMSD -1
REMARK  1 active torsions:
REMARK  status: ('A' for Active; 'I' for Inactive)
REMARK    1  A    between atoms: C1_2  and  C2_3 
ROOT
ATOM      1  C2  UNL d   1       0.186   0.973   1.276  0.00  0.00    -0.076 A 
ATOM      2  C3  UNL d   1      -0.371  -0.195   0.726  0.00  0.00     0.004 A 
ATOM      3  C4  UNL d   1       0.319  -1.405   0.764  0.00  0.00    -0.003 A 
ATOM      4  C5  UNL d   1       1.577  -1.468   1.354  0.00  0.00     0.000 A 
ATOM      5  C6  UNL d   1       2.136  -0.323   1.921  0.00  0.00     0.000 A 
ATOM      6  C7  UNL d   1       1.447   0.902   1.905  0.00  0.00    -0.073 A 
ATOM      7  C8  UNL d   1       2.100   2.106   2.526  0.00  0.00     0.078 C 
ENDROOT
BRANCH   1   8
ATOM      8  C1  UNL d   1      -0.598   2.263   1.181  0.00  0.00     0.053 C 
ATOM      9  C   UNL d   1      -1.913   2.092   0.437  0.00  0.00     0.018 C 
ENDBRANCH   1   8
TORSDOF 1
ENDMDL
