MODEL 1
REMARK minimizedAffinity 6.4536829
REMARK minimizedRMSD -1
REMARK  1 active torsions:
REMARK  status: ('A' for Active; 'I' for Inactive)
REMARK    1  A    between atoms: C1_2  and  C2_3 
ROOT
ATOM      1  C2  UNL d   1       2.322   0.913   1.087  0.00  0.00    -0.076 A 
ATOM      2  C3  UNL d   1       1.800  -0.318   0.656  0.00  0.00     0.004 A 
ATOM      3  C4  UNL d   1       1.674  -1.392   1.536  0.00  0.00    -0.003 A 
ATOM      4  C5  UNL d   1       2.066  -1.250   2.863  0.00  0.00     0.000 A 
ATOM      5  C6  UNL d   1       2.570  -0.030   3.312  0.00  0.00     0.000 A 
ATOM      6  C7  UNL d   1       2.689   1.067   2.442  0.00  0.00    -0.073 A 
ATOM      7  C8  UNL d   1       3.244   2.357   2.978  0.00  0.00     0.078 C 
ENDROOT
BRANCH   1   8
ATOM      8  C1  UNL d   1       2.462   2.033   0.081  0.00  0.00     0.053 C 
ATOM      9  C   UNL d   1       1.180   2.836  -0.078  0.00  0.00     0.018 C 
ENDBRANCH   1   8
TORSDOF 1
ENDMDL
