MODEL 1
REMARK minimizedAffinity 11.36026
REMARK minimizedRMSD -1
REMARK  1 active torsions:
REMARK  status: ('A' for Active; 'I' for Inactive)
REMARK    1  A    between atoms: C1_2  and  C2_3 
ROOT
ATOM      1  C2  UNL d   1       1.719  -5.911  -0.723  0.00  0.00    -0.076 A 
ATOM      2  C3  UNL d   1       3.020  -6.000  -1.249  0.00  0.00     0.004 A 
ATOM      3  C4  UNL d   1       3.242  -5.950  -2.624  0.00  0.00    -0.003 A 
ATOM      4  C5  UNL d   1       2.167  -5.809  -3.495  0.00  0.00     0.000 A 
ATOM      5  C6  UNL d   1       0.872  -5.702  -2.990  0.00  0.00     0.000 A 
ATOM      6  C7  UNL d   1       0.632  -5.734  -1.605  0.00  0.00    -0.073 A 
ATOM      7  C8  UNL d   1      -0.785  -5.620  -1.115  0.00  0.00     0.078 C 
ENDROOT
BRANCH   1   8
ATOM      8  C1  UNL d   1       1.537  -5.999   0.776  0.00  0.00     0.053 C 
ATOM      9  C   UNL d   1       2.860  -5.994   1.525  0.00  0.00     0.018 C 
ENDBRANCH   1   8
TORSDOF 1
ENDMDL
