MODEL 1
REMARK minimizedAffinity 18.6143894
REMARK minimizedRMSD -1
REMARK  1 active torsions:
REMARK  status: ('A' for Active; 'I' for Inactive)
REMARK    1  A    between atoms: C1_2  and  C2_3 
ROOT
ATOM      1  C2  UNL d   1       3.881  -1.175  -4.232  0.00  0.00    -0.076 A 
ATOM      2  C3  UNL d   1       2.949  -0.123  -4.259  0.00  0.00     0.004 A 
ATOM      3  C4  UNL d   1       3.103   0.949  -5.135  0.00  0.00    -0.003 A 
ATOM      4  C5  UNL d   1       4.192   0.987  -6.000  0.00  0.00     0.000 A 
ATOM      5  C6  UNL d   1       5.116  -0.056  -5.999  0.00  0.00     0.000 A 
ATOM      6  C7  UNL d   1       4.967  -1.153  -5.133  0.00  0.00    -0.073 A 
ATOM      7  C8  UNL d   1       5.998  -2.248  -5.170  0.00  0.00     0.078 C 
ENDROOT
BRANCH   1   8
ATOM      8  C1  UNL d   1       3.677  -2.299  -3.241  0.00  0.00     0.053 C 
ATOM      9  C   UNL d   1       2.206  -2.597  -2.993  0.00  0.00     0.018 C 
ENDBRANCH   1   8
TORSDOF 1
ENDMDL
