MODEL 1
REMARK minimizedAffinity 8.9973278
REMARK minimizedRMSD -1
REMARK  1 active torsions:
REMARK  status: ('A' for Active; 'I' for Inactive)
REMARK    1  A    between atoms: C1_2  and  C2_3 
ROOT
ATOM      1  C2  UNL d   1      -3.829   2.410  -3.408  0.00  0.00    -0.076 A 
ATOM      2  C3  UNL d   1      -3.661   3.380  -2.404  0.00  0.00     0.004 A 
ATOM      3  C4  UNL d   1      -3.085   3.051  -1.178  0.00  0.00    -0.003 A 
ATOM      4  C5  UNL d   1      -2.667   1.747  -0.936  0.00  0.00     0.000 A 
ATOM      5  C6  UNL d   1      -2.810   0.776  -1.927  0.00  0.00     0.000 A 
ATOM      6  C7  UNL d   1      -3.374   1.095  -3.175  0.00  0.00    -0.073 A 
ATOM      7  C8  UNL d   1      -3.509   0.007  -4.205  0.00  0.00     0.078 C 
ENDROOT
BRANCH   1   8
ATOM      8  C1  UNL d   1      -4.484   2.819  -4.708  0.00  0.00     0.053 C 
ATOM      9  C   UNL d   1      -5.631   3.797  -4.500  0.00  0.00     0.018 C 
ENDBRANCH   1   8
TORSDOF 1
ENDMDL
