MODEL 1
REMARK minimizedAffinity 13.1385183
REMARK minimizedRMSD -1
REMARK  1 active torsions:
REMARK  status: ('A' for Active; 'I' for Inactive)
REMARK    1  A    between atoms: C1_2  and  C2_3 
ROOT
ATOM      1  C2  UNL d   1      -3.317   3.107  -0.061  0.00  0.00    -0.076 A 
ATOM      2  C3  UNL d   1      -4.560   3.757  -0.155  0.00  0.00     0.004 A 
ATOM      3  C4  UNL d   1      -5.254   4.147   0.989  0.00  0.00    -0.003 A 
ATOM      4  C5  UNL d   1      -4.716   3.894   2.246  0.00  0.00     0.000 A 
ATOM      5  C6  UNL d   1      -3.476   3.266   2.358  0.00  0.00     0.000 A 
ATOM      6  C7  UNL d   1      -2.755   2.881   1.214  0.00  0.00    -0.073 A 
ATOM      7  C8  UNL d   1      -1.425   2.202   1.393  0.00  0.00     0.078 C 
ENDROOT
BRANCH   1   8
ATOM      8  C1  UNL d   1      -2.623   2.683  -1.336  0.00  0.00     0.053 C 
ATOM      9  C   UNL d   1      -3.473   1.742  -2.176  0.00  0.00     0.018 C 
ENDBRANCH   1   8
TORSDOF 1
ENDMDL
