MODEL 1
REMARK minimizedAffinity 5.35173082
REMARK minimizedRMSD -1
REMARK  1 active torsions:
REMARK  status: ('A' for Active; 'I' for Inactive)
REMARK    1  A    between atoms: C1_2  and  C2_3 
ROOT
ATOM      1  C2  UNL d   1      -5.296  -4.119  -3.613  0.00  0.00    -0.076 A 
ATOM      2  C3  UNL d   1      -5.938  -3.777  -4.816  0.00  0.00     0.004 A 
ATOM      3  C4  UNL d   1      -5.651  -4.454  -6.000  0.00  0.00    -0.003 A 
ATOM      4  C5  UNL d   1      -4.718  -5.485  -6.000  0.00  0.00     0.000 A 
ATOM      5  C6  UNL d   1      -4.084  -5.849  -4.812  0.00  0.00     0.000 A 
ATOM      6  C7  UNL d   1      -4.374  -5.187  -3.607  0.00  0.00    -0.073 A 
ATOM      7  C8  UNL d   1      -3.656  -5.617  -2.357  0.00  0.00     0.078 C 
ENDROOT
BRANCH   1   8
ATOM      8  C1  UNL d   1      -5.627  -3.331  -2.366  0.00  0.00     0.053 C 
ATOM      9  C   UNL d   1      -5.199  -1.875  -2.466  0.00  0.00     0.018 C 
ENDBRANCH   1   8
TORSDOF 1
ENDMDL
