MODEL 1
REMARK minimizedAffinity 14.5775003
REMARK minimizedRMSD -1
REMARK  1 active torsions:
REMARK  status: ('A' for Active; 'I' for Inactive)
REMARK    1  A    between atoms: C1_2  and  C2_3 
ROOT
ATOM      1  C2  UNL d   1       3.149  -1.787   3.243  0.00  0.00    -0.076 A 
ATOM      2  C3  UNL d   1       3.432  -0.978   2.129  0.00  0.00     0.004 A 
ATOM      3  C4  UNL d   1       2.411  -0.346   1.423  0.00  0.00    -0.003 A 
ATOM      4  C5  UNL d   1       1.088  -0.510   1.820  0.00  0.00     0.000 A 
ATOM      5  C6  UNL d   1       0.790  -1.295   2.934  0.00  0.00     0.000 A 
ATOM      6  C7  UNL d   1       1.810  -1.927   3.666  0.00  0.00    -0.073 A 
ATOM      7  C8  UNL d   1       1.430  -2.766   4.856  0.00  0.00     0.078 C 
ENDROOT
BRANCH   1   8
ATOM      8  C1  UNL d   1       4.296  -2.470   3.953  0.00  0.00     0.053 C 
ATOM      9  C   UNL d   1       5.603  -2.366   3.183  0.00  0.00     0.018 C 
ENDBRANCH   1   8
TORSDOF 1
ENDMDL
