MODEL 1
REMARK minimizedAffinity 10.9475155
REMARK minimizedRMSD -1
REMARK  1 active torsions:
REMARK  status: ('A' for Active; 'I' for Inactive)
REMARK    1  A    between atoms: C1_2  and  C2_3 
ROOT
ATOM      1  C2  UNL d   1       1.470  -1.350   3.266  0.00  0.00    -0.076 A 
ATOM      2  C3  UNL d   1       1.570   0.025   3.543  0.00  0.00     0.004 A 
ATOM      3  C4  UNL d   1       2.249   0.883   2.680  0.00  0.00    -0.003 A 
ATOM      4  C5  UNL d   1       2.838   0.381   1.525  0.00  0.00     0.000 A 
ATOM      5  C6  UNL d   1       2.734  -0.977   1.226  0.00  0.00     0.000 A 
ATOM      6  C7  UNL d   1       2.039  -1.853   2.077  0.00  0.00    -0.073 A 
ATOM      7  C8  UNL d   1       1.963  -3.310   1.708  0.00  0.00     0.078 C 
ENDROOT
BRANCH   1   8
ATOM      8  C1  UNL d   1       0.745  -2.236   4.253  0.00  0.00     0.053 C 
ATOM      9  C   UNL d   1       1.045  -1.868   5.698  0.00  0.00     0.018 C 
ENDBRANCH   1   8
TORSDOF 1
ENDMDL
