MODEL 1
REMARK minimizedAffinity 6.84844494
REMARK minimizedRMSD -1
REMARK  1 active torsions:
REMARK  status: ('A' for Active; 'I' for Inactive)
REMARK    1  A    between atoms: C1_2  and  C2_3 
ROOT
ATOM      1  C2  UNL d   1       4.268  -2.790  -4.123  0.00  0.00    -0.076 A 
ATOM      2  C3  UNL d   1       3.308  -2.103  -3.360  0.00  0.00     0.004 A 
ATOM      3  C4  UNL d   1       3.065  -0.746  -3.567  0.00  0.00    -0.003 A 
ATOM      4  C5  UNL d   1       3.777  -0.055  -4.541  0.00  0.00     0.000 A 
ATOM      5  C6  UNL d   1       4.720  -0.725  -5.320  0.00  0.00     0.000 A 
ATOM      6  C7  UNL d   1       4.966  -2.097  -5.134  0.00  0.00    -0.073 A 
ATOM      7  C8  UNL d   1       5.999  -2.768  -5.998  0.00  0.00     0.078 C 
ENDROOT
BRANCH   1   8
ATOM      8  C1  UNL d   1       4.508  -4.255  -3.835  0.00  0.00     0.053 C 
ATOM      9  C   UNL d   1       5.940  -4.679  -4.123  0.00  0.00     0.018 C 
ENDBRANCH   1   8
TORSDOF 1
ENDMDL
