MODEL 1
REMARK minimizedAffinity 4.49779177
REMARK minimizedRMSD -1
REMARK  1 active torsions:
REMARK  status: ('A' for Active; 'I' for Inactive)
REMARK    1  A    between atoms: C1_2  and  C2_3 
ROOT
ATOM      1  C2  UNL d   1       4.701  -2.054  -4.307  0.00  0.00    -0.076 A 
ATOM      2  C3  UNL d   1       5.848  -1.300  -4.608  0.00  0.00     0.004 A 
ATOM      3  C4  UNL d   1       6.000  -0.001  -4.125  0.00  0.00    -0.003 A 
ATOM      4  C5  UNL d   1       5.007   0.564  -3.332  0.00  0.00     0.000 A 
ATOM      5  C6  UNL d   1       3.870  -0.177  -3.009  0.00  0.00     0.000 A 
ATOM      6  C7  UNL d   1       3.709  -1.493  -3.474  0.00  0.00    -0.073 A 
ATOM      7  C8  UNL d   1       2.461  -2.243  -3.099  0.00  0.00     0.078 C 
ENDROOT
BRANCH   1   8
ATOM      8  C1  UNL d   1       4.579  -3.448  -4.881  0.00  0.00     0.053 C 
ATOM      9  C   UNL d   1       5.834  -3.884  -5.621  0.00  0.00     0.018 C 
ENDBRANCH   1   8
TORSDOF 1
ENDMDL
