MODEL 1
REMARK minimizedAffinity -3.15999794
REMARK minimizedRMSD -1
REMARK  1 active torsions:
REMARK  status: ('A' for Active; 'I' for Inactive)
REMARK    1  A    between atoms: C1_2  and  C2_3 
ROOT
ATOM      1  C2  UNL d   1      -2.934   3.464  -3.621  0.00  0.00    -0.076 A 
ATOM      2  C3  UNL d   1      -2.410   3.548  -4.923  0.00  0.00     0.004 A 
ATOM      3  C4  UNL d   1      -1.970   4.765  -5.442  0.00  0.00    -0.003 A 
ATOM      4  C5  UNL d   1      -2.046   5.917  -4.666  0.00  0.00     0.000 A 
ATOM      5  C6  UNL d   1      -2.546   5.848  -3.367  0.00  0.00     0.000 A 
ATOM      6  C7  UNL d   1      -2.979   4.626  -2.823  0.00  0.00    -0.073 A 
ATOM      7  C8  UNL d   1      -3.515   4.611  -1.418  0.00  0.00     0.078 C 
ENDROOT
BRANCH   1   8
ATOM      8  C1  UNL d   1      -3.420   2.122  -3.123  0.00  0.00     0.053 C 
ATOM      9  C   UNL d   1      -2.307   1.291  -2.504  0.00  0.00     0.018 C 
ENDBRANCH   1   8
TORSDOF 1
ENDMDL
