MODEL 1
REMARK minimizedAffinity 2.34769964
REMARK minimizedRMSD -1
REMARK  1 active torsions:
REMARK  status: ('A' for Active; 'I' for Inactive)
REMARK    1  A    between atoms: C1_2  and  C2_3 
ROOT
ATOM      1  C2  UNL d   1      -2.412   4.190  -3.415  0.00  0.00    -0.076 A 
ATOM      2  C3  UNL d   1      -2.066   3.779  -4.714  0.00  0.00     0.004 A 
ATOM      3  C4  UNL d   1      -2.542   4.460  -5.833  0.00  0.00    -0.003 A 
ATOM      4  C5  UNL d   1      -3.372   5.564  -5.671  0.00  0.00     0.000 A 
ATOM      5  C6  UNL d   1      -3.711   5.996  -4.390  0.00  0.00     0.000 A 
ATOM      6  C7  UNL d   1      -3.226   5.331  -3.251  0.00  0.00    -0.073 A 
ATOM      7  C8  UNL d   1      -3.629   5.838  -1.893  0.00  0.00     0.078 C 
ENDROOT
BRANCH   1   8
ATOM      8  C1  UNL d   1      -1.887   3.397  -2.240  0.00  0.00     0.053 C 
ATOM      9  C   UNL d   1      -2.278   1.929  -2.307  0.00  0.00     0.018 C 
ENDBRANCH   1   8
TORSDOF 1
ENDMDL
