MODEL 1
REMARK minimizedAffinity 0.110710934
REMARK minimizedRMSD -1
REMARK  1 active torsions:
REMARK  status: ('A' for Active; 'I' for Inactive)
REMARK    1  A    between atoms: C1_2  and  C2_3 
ROOT
ATOM      1  C2  UNL d   1      -3.079   3.970  -2.612  0.00  0.00    -0.076 A 
ATOM      2  C3  UNL d   1      -3.024   5.362  -2.802  0.00  0.00     0.004 A 
ATOM      3  C4  UNL d   1      -2.847   5.906  -4.073  0.00  0.00    -0.003 A 
ATOM      4  C5  UNL d   1      -2.723   5.067  -5.175  0.00  0.00     0.000 A 
ATOM      5  C6  UNL d   1      -2.793   3.685  -5.007  0.00  0.00     0.000 A 
ATOM      6  C7  UNL d   1      -2.987   3.120  -3.735  0.00  0.00    -0.073 A 
ATOM      7  C8  UNL d   1      -3.048   1.623  -3.611  0.00  0.00     0.078 C 
ENDROOT
BRANCH   1   8
ATOM      8  C1  UNL d   1      -3.244   3.437  -1.207  0.00  0.00     0.053 C 
ATOM      9  C   UNL d   1      -4.701   3.195  -0.844  0.00  0.00     0.018 C 
ENDBRANCH   1   8
TORSDOF 1
ENDMDL
