MODEL 1
REMARK minimizedAffinity -3.62519217
REMARK minimizedRMSD -1
REMARK  1 active torsions:
REMARK  status: ('A' for Active; 'I' for Inactive)
REMARK    1  A    between atoms: C1_2  and  C2_3 
ROOT
ATOM      1  C2  UNL d   1      -0.645  -1.490   1.519  0.00  0.00    -0.076 A 
ATOM      2  C3  UNL d   1      -0.508  -1.135   2.872  0.00  0.00     0.004 A 
ATOM      3  C4  UNL d   1      -1.523  -0.452   3.540  0.00  0.00    -0.003 A 
ATOM      4  C5  UNL d   1      -2.692  -0.114   2.866  0.00  0.00     0.000 A 
ATOM      5  C6  UNL d   1      -2.851  -0.474   1.528  0.00  0.00     0.000 A 
ATOM      6  C7  UNL d   1      -1.844  -1.176   0.844  0.00  0.00    -0.073 A 
ATOM      7  C8  UNL d   1      -2.067  -1.534  -0.600  0.00  0.00     0.078 C 
ENDROOT
BRANCH   1   8
ATOM      8  C1  UNL d   1       0.501  -2.205   0.839  0.00  0.00     0.053 C 
ATOM      9  C   UNL d   1       1.824  -2.007   1.563  0.00  0.00     0.018 C 
ENDBRANCH   1   8
TORSDOF 1
ENDMDL
