MODEL 1
REMARK minimizedAffinity -2.0708549
REMARK minimizedRMSD -1
REMARK  1 active torsions:
REMARK  status: ('A' for Active; 'I' for Inactive)
REMARK    1  A    between atoms: C1_2  and  C2_3 
ROOT
ATOM      1  C2  UNL d   1      -2.057   3.861  -3.532  0.00  0.00    -0.076 A 
ATOM      2  C3  UNL d   1      -1.364   3.938  -4.753  0.00  0.00     0.004 A 
ATOM      3  C4  UNL d   1      -1.579   4.996  -5.634  0.00  0.00    -0.003 A 
ATOM      4  C5  UNL d   1      -2.490   5.995  -5.308  0.00  0.00     0.000 A 
ATOM      5  C6  UNL d   1      -3.172   5.944  -4.093  0.00  0.00     0.000 A 
ATOM      6  C7  UNL d   1      -2.955   4.893  -3.186  0.00  0.00    -0.073 A 
ATOM      7  C8  UNL d   1      -3.723   4.885  -1.893  0.00  0.00     0.078 C 
ENDROOT
BRANCH   1   8
ATOM      8  C1  UNL d   1      -1.802   2.675  -2.628  0.00  0.00     0.053 C 
ATOM      9  C   UNL d   1      -2.644   1.465  -3.004  0.00  0.00     0.018 C 
ENDBRANCH   1   8
TORSDOF 1
ENDMDL
