MODEL 1
REMARK minimizedAffinity -0.328988612
REMARK minimizedRMSD -1
REMARK  1 active torsions:
REMARK  status: ('A' for Active; 'I' for Inactive)
REMARK    1  A    between atoms: C1_2  and  C2_3 
ROOT
ATOM      1  C2  UNL d   1      -3.336   3.683  -1.970  0.00  0.00    -0.076 A 
ATOM      2  C3  UNL d   1      -3.451   5.063  -2.212  0.00  0.00     0.004 A 
ATOM      3  C4  UNL d   1      -2.945   5.631  -3.381  0.00  0.00    -0.003 A 
ATOM      4  C5  UNL d   1      -2.318   4.827  -4.326  0.00  0.00     0.000 A 
ATOM      5  C6  UNL d   1      -2.212   3.454  -4.111  0.00  0.00     0.000 A 
ATOM      6  C7  UNL d   1      -2.730   2.863  -2.945  0.00  0.00    -0.073 A 
ATOM      7  C8  UNL d   1      -2.582   1.378  -2.761  0.00  0.00     0.078 C 
ENDROOT
BRANCH   1   8
ATOM      8  C1  UNL d   1      -3.879   3.128  -0.672  0.00  0.00     0.053 C 
ATOM      9  C   UNL d   1      -5.387   3.288  -0.555  0.00  0.00     0.018 C 
ENDBRANCH   1   8
TORSDOF 1
ENDMDL
