MODEL 1
REMARK minimizedAffinity 3.57785606
REMARK minimizedRMSD -1
REMARK  1 active torsions:
REMARK  status: ('A' for Active; 'I' for Inactive)
REMARK    1  A    between atoms: C1_2  and  C2_3 
ROOT
ATOM      1  C2  UNL d   1      -3.628   3.502  -2.475  0.00  0.00    -0.076 A 
ATOM      2  C3  UNL d   1      -3.451   4.894  -2.388  0.00  0.00     0.004 A 
ATOM      3  C4  UNL d   1      -3.145   5.650  -3.518  0.00  0.00    -0.003 A 
ATOM      4  C5  UNL d   1      -3.011   5.027  -4.754  0.00  0.00     0.000 A 
ATOM      5  C6  UNL d   1      -3.201   3.650  -4.862  0.00  0.00     0.000 A 
ATOM      6  C7  UNL d   1      -3.526   2.875  -3.736  0.00  0.00    -0.073 A 
ATOM      7  C8  UNL d   1      -3.713   1.393  -3.909  0.00  0.00     0.078 C 
ENDROOT
BRANCH   1   8
ATOM      8  C1  UNL d   1      -3.932   2.730  -1.211  0.00  0.00     0.053 C 
ATOM      9  C   UNL d   1      -5.328   3.012  -0.678  0.00  0.00     0.018 C 
ENDBRANCH   1   8
TORSDOF 1
ENDMDL
