MODEL 1
REMARK minimizedAffinity 3.52650499
REMARK minimizedRMSD -1
REMARK  1 active torsions:
REMARK  status: ('A' for Active; 'I' for Inactive)
REMARK    1  A    between atoms: C1_2  and  C2_3 
ROOT
ATOM      1  C2  UNL d   1       0.431  -1.991  -1.378  0.00  0.00    -0.076 A 
ATOM      2  C3  UNL d   1       1.609  -2.371  -0.712  0.00  0.00     0.004 A 
ATOM      3  C4  UNL d   1       1.697  -2.313   0.678  0.00  0.00    -0.003 A 
ATOM      4  C5  UNL d   1       0.609  -1.875   1.424  0.00  0.00     0.000 A 
ATOM      5  C6  UNL d   1      -0.574  -1.511   0.781  0.00  0.00     0.000 A 
ATOM      6  C7  UNL d   1      -0.685  -1.579  -0.618  0.00  0.00    -0.073 A 
ATOM      7  C8  UNL d   1      -1.982  -1.168  -1.260  0.00  0.00     0.078 C 
ENDROOT
BRANCH   1   8
ATOM      8  C1  UNL d   1       0.402  -2.049  -2.889  0.00  0.00     0.053 C 
ATOM      9  C   UNL d   1       1.663  -1.476  -3.518  0.00  0.00     0.018 C 
ENDBRANCH   1   8
TORSDOF 1
ENDMDL
