MODEL 1
REMARK minimizedAffinity 3.05156374
REMARK minimizedRMSD -1
REMARK  1 active torsions:
REMARK  status: ('A' for Active; 'I' for Inactive)
REMARK    1  A    between atoms: C1_2  and  C2_3 
ROOT
ATOM      1  C2  UNL d   1      -1.823  -1.116   1.597  0.00  0.00    -0.076 A 
ATOM      2  C3  UNL d   1      -3.036  -0.523   1.985  0.00  0.00     0.004 A 
ATOM      3  C4  UNL d   1      -3.302  -0.244   3.325  0.00  0.00    -0.003 A 
ATOM      4  C5  UNL d   1      -2.359  -0.554   4.298  0.00  0.00     0.000 A 
ATOM      5  C6  UNL d   1      -1.142  -1.127   3.929  0.00  0.00     0.000 A 
ATOM      6  C7  UNL d   1      -0.852  -1.400   2.581  0.00  0.00    -0.073 A 
ATOM      7  C8  UNL d   1       0.474  -2.024   2.240  0.00  0.00     0.078 C 
ENDROOT
BRANCH   1   8
ATOM      8  C1  UNL d   1      -1.602  -1.420   0.132  0.00  0.00     0.053 C 
ATOM      9  C   UNL d   1      -1.534  -0.163  -0.720  0.00  0.00     0.018 C 
ENDBRANCH   1   8
TORSDOF 1
ENDMDL
