MODEL 1
REMARK minimizedAffinity -1.73503101
REMARK minimizedRMSD -1
REMARK  1 active torsions:
REMARK  status: ('A' for Active; 'I' for Inactive)
REMARK    1  A    between atoms: C1_2  and  C2_3 
ROOT
ATOM      1  C2  UNL d   1      -2.062   3.192  -3.225  0.00  0.00    -0.076 A 
ATOM      2  C3  UNL d   1      -2.990   2.147  -3.379  0.00  0.00     0.004 A 
ATOM      3  C4  UNL d   1      -2.715   0.867  -2.901  0.00  0.00    -0.003 A 
ATOM      4  C5  UNL d   1      -1.507   0.612  -2.259  0.00  0.00     0.000 A 
ATOM      5  C6  UNL d   1      -0.583   1.641  -2.082  0.00  0.00     0.000 A 
ATOM      6  C7  UNL d   1      -0.851   2.940  -2.545  0.00  0.00    -0.073 A 
ATOM      7  C8  UNL d   1       0.184   4.010  -2.332  0.00  0.00     0.078 C 
ENDROOT
BRANCH   1   8
ATOM      8  C1  UNL d   1      -2.403   4.553  -3.789  0.00  0.00     0.053 C 
ATOM      9  C   UNL d   1      -3.699   5.111  -3.221  0.00  0.00     0.018 C 
ENDBRANCH   1   8
TORSDOF 1
ENDMDL
