MODEL 1
REMARK minimizedAffinity 4.95124197
REMARK minimizedRMSD -1
REMARK  0 active torsions:
REMARK  status: ('A' for Active; 'I' for Inactive)
ROOT
ATOM      1  C   UNL d   1       2.840   1.235  -0.297  0.00  0.00     0.023 A 
ATOM      2  C1  UNL d   1       1.484   0.906  -0.269  0.00  0.00     0.003 A 
ATOM      3  C2  UNL d   1       0.527   1.900  -0.057  0.00  0.00     0.048 A 
ATOM      4  C3  UNL d   1       0.932   3.222   0.124  0.00  0.00     0.023 A 
ATOM      5  C4  UNL d   1       2.287   3.557   0.096  0.00  0.00     0.048 A 
ATOM      6  C5  UNL d   1       3.240   2.559  -0.115  0.00  0.00     0.003 A 
ATOM      7  I   UNL d   1      -0.491   4.704   0.439  0.00  0.00    -0.146 I 
ENDROOT
TORSDOF 0
ENDMDL
