MODEL 1
REMARK minimizedAffinity 7.89067602
REMARK minimizedRMSD -1
REMARK  0 active torsions:
REMARK  status: ('A' for Active; 'I' for Inactive)
ROOT
ATOM      1  C   UNL d   1      -1.799   2.756  -3.564  0.00  0.00     0.023 A 
ATOM      2  C1  UNL d   1      -1.885   2.261  -4.865  0.00  0.00     0.003 A 
ATOM      3  C2  UNL d   1      -3.090   2.340  -5.565  0.00  0.00     0.048 A 
ATOM      4  C3  UNL d   1      -4.205   2.918  -4.959  0.00  0.00     0.023 A 
ATOM      5  C4  UNL d   1      -4.123   3.416  -3.658  0.00  0.00     0.048 A 
ATOM      6  C5  UNL d   1      -2.916   3.333  -2.961  0.00  0.00     0.003 A 
ATOM      7  I   UNL d   1      -6.000   3.038  -6.000  0.00  0.00    -0.146 I 
ENDROOT
TORSDOF 0
ENDMDL
