MODEL 1
REMARK minimizedAffinity 1.77863991
REMARK minimizedRMSD -1
REMARK  0 active torsions:
REMARK  status: ('A' for Active; 'I' for Inactive)
ROOT
ATOM      1  C   UNL d   1      -3.458   2.618  -5.928  0.00  0.00     0.023 A 
ATOM      2  C1  UNL d   1      -2.617   2.838  -4.838  0.00  0.00     0.003 A 
ATOM      3  C2  UNL d   1      -3.009   3.706  -3.816  0.00  0.00     0.048 A 
ATOM      4  C3  UNL d   1      -4.244   4.349  -3.891  0.00  0.00     0.023 A 
ATOM      5  C4  UNL d   1      -5.089   4.131  -4.980  0.00  0.00     0.048 A 
ATOM      6  C5  UNL d   1      -4.693   3.263  -6.000  0.00  0.00     0.003 A 
ATOM      7  I   UNL d   1      -4.830   5.641  -2.372  0.00  0.00    -0.146 I 
ENDROOT
TORSDOF 0
ENDMDL
