MODEL 1
REMARK minimizedAffinity 1.18318748
REMARK minimizedRMSD -1
REMARK  0 active torsions:
REMARK  status: ('A' for Active; 'I' for Inactive)
ROOT
ATOM      1  C   UNL d   1      -6.000   1.866  -1.253  0.00  0.00     0.023 A 
ATOM      2  C1  UNL d   1      -5.785   2.573  -2.436  0.00  0.00     0.003 A 
ATOM      3  C2  UNL d   1      -4.859   2.107  -3.372  0.00  0.00     0.048 A 
ATOM      4  C3  UNL d   1      -4.152   0.932  -3.118  0.00  0.00     0.023 A 
ATOM      5  C4  UNL d   1      -4.364   0.220  -1.936  0.00  0.00     0.048 A 
ATOM      6  C5  UNL d   1      -5.291   0.691  -1.004  0.00  0.00     0.003 A 
ATOM      7  I   UNL d   1      -2.773   0.235  -4.509  0.00  0.00    -0.146 I 
ENDROOT
TORSDOF 0
ENDMDL
