MODEL 1
REMARK minimizedAffinity 1.61718142
REMARK minimizedRMSD -1
REMARK  0 active torsions:
REMARK  status: ('A' for Active; 'I' for Inactive)
ROOT
ATOM      1  C   UNL d   1      -3.602   1.111  -4.547  0.00  0.00     0.023 A 
ATOM      2  C1  UNL d   1      -3.040   0.149  -3.707  0.00  0.00     0.003 A 
ATOM      3  C2  UNL d   1      -3.615  -0.115  -2.463  0.00  0.00     0.048 A 
ATOM      4  C3  UNL d   1      -4.753   0.586  -2.064  0.00  0.00     0.023 A 
ATOM      5  C4  UNL d   1      -5.319   1.549  -2.902  0.00  0.00     0.048 A 
ATOM      6  C5  UNL d   1      -4.740   1.810  -4.145  0.00  0.00     0.003 A 
ATOM      7  I   UNL d   1      -5.612   0.196  -0.212  0.00  0.00    -0.146 I 
ENDROOT
TORSDOF 0
ENDMDL
