MODEL 1
REMARK minimizedAffinity 2.57849312
REMARK minimizedRMSD -1
REMARK  0 active torsions:
REMARK  status: ('A' for Active; 'I' for Inactive)
ROOT
ATOM      1  C   UNL d   1       1.326   0.377   0.373  0.00  0.00     0.023 A 
ATOM      2  C1  UNL d   1       2.196  -0.377  -0.415  0.00  0.00     0.003 A 
ATOM      3  C2  UNL d   1       3.538  -0.006  -0.528  0.00  0.00     0.048 A 
ATOM      4  C3  UNL d   1       4.003   1.119   0.152  0.00  0.00     0.023 A 
ATOM      5  C4  UNL d   1       3.137   1.876   0.942  0.00  0.00     0.048 A 
ATOM      6  C5  UNL d   1       1.796   1.502   1.051  0.00  0.00     0.003 A 
ATOM      7  I   UNL d   1       5.999   1.673  -0.014  0.00  0.00    -0.146 I 
ENDROOT
TORSDOF 0
ENDMDL
