MODEL 1
REMARK minimizedAffinity 2.61085844
REMARK minimizedRMSD -1
REMARK  0 active torsions:
REMARK  status: ('A' for Active; 'I' for Inactive)
ROOT
ATOM      1  C   UNL d   1      -5.747   2.780  -4.334  0.00  0.00     0.023 A 
ATOM      2  C1  UNL d   1      -5.104   3.307  -3.214  0.00  0.00     0.003 A 
ATOM      3  C2  UNL d   1      -4.061   2.602  -2.610  0.00  0.00     0.048 A 
ATOM      4  C3  UNL d   1      -3.665   1.371  -3.131  0.00  0.00     0.023 A 
ATOM      5  C4  UNL d   1      -4.304   0.840  -4.253  0.00  0.00     0.048 A 
ATOM      6  C5  UNL d   1      -5.348   1.548  -4.853  0.00  0.00     0.003 A 
ATOM      7  I   UNL d   1      -2.112   0.320  -2.234  0.00  0.00    -0.146 I 
ENDROOT
TORSDOF 0
ENDMDL
