MODEL 1
REMARK minimizedAffinity 2.25636744
REMARK minimizedRMSD -1
REMARK  0 active torsions:
REMARK  status: ('A' for Active; 'I' for Inactive)
ROOT
ATOM      1  C   UNL d   1      -6.000   1.619  -0.742  0.00  0.00     0.023 A 
ATOM      2  C1  UNL d   1      -5.377   0.373  -0.684  0.00  0.00     0.003 A 
ATOM      3  C2  UNL d   1      -4.399   0.035  -1.622  0.00  0.00     0.048 A 
ATOM      4  C3  UNL d   1      -4.047   0.949  -2.614  0.00  0.00     0.023 A 
ATOM      5  C4  UNL d   1      -4.667   2.198  -2.676  0.00  0.00     0.048 A 
ATOM      6  C5  UNL d   1      -5.645   2.531  -1.737  0.00  0.00     0.003 A 
ATOM      7  I   UNL d   1      -2.592   0.449  -4.011  0.00  0.00    -0.146 I 
ENDROOT
TORSDOF 0
ENDMDL
