MODEL 1
REMARK minimizedAffinity 5.04587173
REMARK minimizedRMSD -1
REMARK  0 active torsions:
REMARK  status: ('A' for Active; 'I' for Inactive)
ROOT
ATOM      1  C   UNL d   1      -3.494   1.635  -4.441  0.00  0.00     0.023 A 
ATOM      2  C1  UNL d   1      -3.551   0.339  -3.927  0.00  0.00     0.003 A 
ATOM      3  C2  UNL d   1      -4.269   0.080  -2.758  0.00  0.00     0.048 A 
ATOM      4  C3  UNL d   1      -4.930   1.122  -2.108  0.00  0.00     0.023 A 
ATOM      5  C4  UNL d   1      -4.877   2.420  -2.618  0.00  0.00     0.048 A 
ATOM      6  C5  UNL d   1      -4.157   2.674  -3.787  0.00  0.00     0.003 A 
ATOM      7  I   UNL d   1      -6.000   0.740  -0.368  0.00  0.00    -0.146 I 
ENDROOT
TORSDOF 0
ENDMDL
