MODEL 1
REMARK minimizedAffinity 6.45364714
REMARK minimizedRMSD -1
REMARK  0 active torsions:
REMARK  status: ('A' for Active; 'I' for Inactive)
ROOT
ATOM      1  C   UNL d   1      -3.001   1.148  -4.320  0.00  0.00     0.023 A 
ATOM      2  C1  UNL d   1      -3.640   2.280  -3.813  0.00  0.00     0.003 A 
ATOM      3  C2  UNL d   1      -4.501   2.166  -2.720  0.00  0.00     0.048 A 
ATOM      4  C3  UNL d   1      -4.718   0.918  -2.138  0.00  0.00     0.023 A 
ATOM      5  C4  UNL d   1      -4.080  -0.217  -2.641  0.00  0.00     0.048 A 
ATOM      6  C5  UNL d   1      -3.220  -0.098  -3.734  0.00  0.00     0.003 A 
ATOM      7  I   UNL d   1      -6.000   0.747  -0.511  0.00  0.00    -0.146 I 
ENDROOT
TORSDOF 0
ENDMDL
