MODEL 1
REMARK minimizedAffinity 6.75678015
REMARK minimizedRMSD -1
REMARK  0 active torsions:
REMARK  status: ('A' for Active; 'I' for Inactive)
ROOT
ATOM      1  C   UNL d   1       4.456   1.379  -0.032  0.00  0.00     0.077 C 
ATOM      2  C1  UNL d   1       4.382  -0.119  -0.043  0.00  0.00    -0.074 A 
ATOM      3  C2  UNL d   1       5.516  -0.892  -0.311  0.00  0.00    -0.005 A 
ATOM      4  C3  UNL d   1       5.435  -2.285  -0.308  0.00  0.00     0.006 A 
ATOM      5  C4  UNL d   1       4.221  -2.917  -0.037  0.00  0.00    -0.005 A 
ATOM      6  C5  UNL d   1       3.076  -2.160   0.234  0.00  0.00    -0.074 A 
ATOM      7  C6  UNL d   1       1.766  -2.824   0.537  0.00  0.00     0.077 C 
ATOM      8  C7  UNL d   1       3.168  -0.761   0.236  0.00  0.00    -0.001 A 
ENDROOT
TORSDOF 0
ENDMDL
