MODEL 1
REMARK minimizedAffinity -0.311768591
REMARK minimizedRMSD -1
REMARK  0 active torsions:
REMARK  status: ('A' for Active; 'I' for Inactive)
ROOT
ATOM      1  C   UNL d   1       1.883   2.220   2.989  0.00  0.00     0.077 C 
ATOM      2  C1  UNL d   1       1.713   3.541   3.679  0.00  0.00    -0.074 A 
ATOM      3  C2  UNL d   1       0.478   4.196   3.684  0.00  0.00    -0.005 A 
ATOM      4  C3  UNL d   1       0.333   5.420   4.338  0.00  0.00     0.006 A 
ATOM      5  C4  UNL d   1       1.421   5.999   4.993  0.00  0.00    -0.005 A 
ATOM      6  C5  UNL d   1       2.663   5.358   4.999  0.00  0.00    -0.074 A 
ATOM      7  C6  UNL d   1       3.840   5.963   5.706  0.00  0.00     0.077 C 
ATOM      8  C7  UNL d   1       2.799   4.126   4.346  0.00  0.00    -0.001 A 
ENDROOT
TORSDOF 0
ENDMDL
