MODEL 1
REMARK minimizedAffinity 12.2877932
REMARK minimizedRMSD -1
REMARK  0 active torsions:
REMARK  status: ('A' for Active; 'I' for Inactive)
ROOT
ATOM      1  C   UNL d   1       5.599   5.999   5.644  0.00  0.00     0.077 C 
ATOM      2  C1  UNL d   1       4.388   5.206   5.250  0.00  0.00    -0.074 A 
ATOM      3  C2  UNL d   1       3.210   5.273   5.999  0.00  0.00    -0.005 A 
ATOM      4  C3  UNL d   1       2.089   4.537   5.615  0.00  0.00     0.006 A 
ATOM      5  C4  UNL d   1       2.136   3.728   4.479  0.00  0.00    -0.005 A 
ATOM      6  C5  UNL d   1       3.305   3.649   3.716  0.00  0.00    -0.074 A 
ATOM      7  C6  UNL d   1       3.369   2.792   2.487  0.00  0.00     0.077 C 
ATOM      8  C7  UNL d   1       4.425   4.397   4.105  0.00  0.00    -0.001 A 
ENDROOT
TORSDOF 0
ENDMDL
