MODEL 1
REMARK minimizedAffinity -3.30248618
REMARK minimizedRMSD -1
REMARK  0 active torsions:
REMARK  status: ('A' for Active; 'I' for Inactive)
ROOT
ATOM      1  C   UNL d   1      -1.061   5.833   3.773  0.00  0.00     0.077 C 
ATOM      2  C1  UNL d   1       0.363   5.449   4.046  0.00  0.00    -0.074 A 
ATOM      3  C2  UNL d   1       1.060   5.999   5.127  0.00  0.00    -0.005 A 
ATOM      4  C3  UNL d   1       2.381   5.626   5.375  0.00  0.00     0.006 A 
ATOM      5  C4  UNL d   1       3.017   4.701   4.546  0.00  0.00    -0.005 A 
ATOM      6  C5  UNL d   1       2.335   4.139   3.462  0.00  0.00    -0.074 A 
ATOM      7  C6  UNL d   1       3.001   3.136   2.567  0.00  0.00     0.077 C 
ATOM      8  C7  UNL d   1       1.006   4.514   3.223  0.00  0.00    -0.001 A 
ENDROOT
TORSDOF 0
ENDMDL
