MODEL 1
REMARK minimizedAffinity 2.47445846
REMARK minimizedRMSD -1
REMARK  0 active torsions:
REMARK  status: ('A' for Active; 'I' for Inactive)
ROOT
ATOM      1  C   UNL d   1      -1.232   5.802   4.608  0.00  0.00     0.077 C 
ATOM      2  C1  UNL d   1       0.253   5.613   4.528  0.00  0.00    -0.074 A 
ATOM      3  C2  UNL d   1       1.085   5.998   5.584  0.00  0.00    -0.005 A 
ATOM      4  C3  UNL d   1       2.464   5.807   5.499  0.00  0.00     0.006 A 
ATOM      5  C4  UNL d   1       3.025   5.230   4.359  0.00  0.00    -0.005 A 
ATOM      6  C5  UNL d   1       2.209   4.837   3.293  0.00  0.00    -0.074 A 
ATOM      7  C6  UNL d   1       2.794   4.207   2.064  0.00  0.00     0.077 C 
ATOM      8  C7  UNL d   1       0.823   5.026   3.389  0.00  0.00    -0.001 A 
ENDROOT
TORSDOF 0
ENDMDL
