MODEL 1
REMARK minimizedAffinity 2.86578941
REMARK minimizedRMSD -1
REMARK  0 active torsions:
REMARK  status: ('A' for Active; 'I' for Inactive)
ROOT
ATOM      1  C   UNL d   1       5.736   1.376  -5.878  0.00  0.00     0.077 C 
ATOM      2  C1  UNL d   1       4.458   2.161  -5.901  0.00  0.00    -0.074 A 
ATOM      3  C2  UNL d   1       4.474   3.559  -5.934  0.00  0.00    -0.005 A 
ATOM      4  C3  UNL d   1       3.277   4.275  -5.966  0.00  0.00     0.006 A 
ATOM      5  C4  UNL d   1       2.055   3.602  -5.964  0.00  0.00    -0.005 A 
ATOM      6  C5  UNL d   1       2.020   2.204  -5.933  0.00  0.00    -0.074 A 
ATOM      7  C6  UNL d   1       0.715   1.465  -5.941  0.00  0.00     0.077 C 
ATOM      8  C7  UNL d   1       3.226   1.492  -5.908  0.00  0.00    -0.001 A 
ENDROOT
TORSDOF 0
ENDMDL
