MODEL 1
REMARK minimizedAffinity -0.369289607
REMARK minimizedRMSD -1
REMARK  0 active torsions:
REMARK  status: ('A' for Active; 'I' for Inactive)
ROOT
ATOM      1  C   UNL d   1       1.874   2.432   2.628  0.00  0.00     0.077 C 
ATOM      2  C1  UNL d   1       1.622   3.678   3.423  0.00  0.00    -0.074 A 
ATOM      3  C2  UNL d   1       0.358   4.277   3.440  0.00  0.00    -0.005 A 
ATOM      4  C3  UNL d   1       0.137   5.431   4.192  0.00  0.00     0.006 A 
ATOM      5  C4  UNL d   1       1.175   5.996   4.934  0.00  0.00    -0.005 A 
ATOM      6  C5  UNL d   1       2.445   5.410   4.930  0.00  0.00    -0.074 A 
ATOM      7  C6  UNL d   1       3.569   5.999   5.730  0.00  0.00     0.077 C 
ATOM      8  C7  UNL d   1       2.658   4.247   4.178  0.00  0.00    -0.001 A 
ENDROOT
TORSDOF 0
ENDMDL
