MODEL 1
REMARK minimizedAffinity 2.93149424
REMARK minimizedRMSD -1
REMARK  0 active torsions:
REMARK  status: ('A' for Active; 'I' for Inactive)
ROOT
ATOM      1  C   UNL d   1      -0.413   6.000   4.881  0.00  0.00     0.077 C 
ATOM      2  C1  UNL d   1       1.021   5.563   4.935  0.00  0.00    -0.074 A 
ATOM      3  C2  UNL d   1       1.868   6.000   5.958  0.00  0.00    -0.005 A 
ATOM      4  C3  UNL d   1       3.197   5.577   6.000  0.00  0.00     0.006 A 
ATOM      5  C4  UNL d   1       3.691   4.715   5.021  0.00  0.00    -0.005 A 
ATOM      6  C5  UNL d   1       2.859   4.267   3.990  0.00  0.00    -0.074 A 
ATOM      7  C6  UNL d   1       3.371   3.332   2.935  0.00  0.00     0.077 C 
ATOM      8  C7  UNL d   1       1.523   4.690   3.959  0.00  0.00    -0.001 A 
ENDROOT
TORSDOF 0
ENDMDL
