MODEL 1
REMARK minimizedAffinity 0.861763239
REMARK minimizedRMSD -1
REMARK  0 active torsions:
REMARK  status: ('A' for Active; 'I' for Inactive)
ROOT
ATOM      1  C   UNL d   1      -1.280   5.689   4.178  0.00  0.00     0.077 C 
ATOM      2  C1  UNL d   1       0.170   5.305   4.164  0.00  0.00    -0.074 A 
ATOM      3  C2  UNL d   1       1.105   6.000   4.938  0.00  0.00    -0.005 A 
ATOM      4  C3  UNL d   1       2.449   5.625   4.922  0.00  0.00     0.006 A 
ATOM      5  C4  UNL d   1       2.870   4.554   4.133  0.00  0.00    -0.005 A 
ATOM      6  C5  UNL d   1       1.949   3.847   3.353  0.00  0.00    -0.074 A 
ATOM      7  C6  UNL d   1       2.384   2.688   2.507  0.00  0.00     0.077 C 
ATOM      8  C7  UNL d   1       0.600   4.226   3.380  0.00  0.00    -0.001 A 
ENDROOT
TORSDOF 0
ENDMDL
