MODEL 1
REMARK minimizedAffinity -2.72684979
REMARK minimizedRMSD -1
REMARK  0 active torsions:
REMARK  status: ('A' for Active; 'I' for Inactive)
ROOT
ATOM      1  C   UNL d   1       5.958   2.299  -5.943  0.00  0.00     0.077 C 
ATOM      2  C1  UNL d   1       5.177   3.579  -5.957  0.00  0.00    -0.074 A 
ATOM      3  C2  UNL d   1       5.827   4.817  -5.976  0.00  0.00    -0.005 A 
ATOM      4  C3  UNL d   1       5.087   6.000  -5.998  0.00  0.00     0.006 A 
ATOM      5  C4  UNL d   1       3.693   5.956  -6.000  0.00  0.00    -0.005 A 
ATOM      6  C5  UNL d   1       3.025   4.727  -5.982  0.00  0.00    -0.074 A 
ATOM      7  C6  UNL d   1       1.527   4.663  -5.994  0.00  0.00     0.077 C 
ATOM      8  C7  UNL d   1       3.775   3.544  -5.967  0.00  0.00    -0.001 A 
ENDROOT
TORSDOF 0
ENDMDL
