MODEL 1
REMARK minimizedAffinity 0.856692612
REMARK minimizedRMSD -1
REMARK  0 active torsions:
REMARK  status: ('A' for Active; 'I' for Inactive)
ROOT
ATOM      1  C   UNL d   1       0.939   2.709   2.350  0.00  0.00     0.078 C 
ATOM      2  C1  UNL d   1       0.269   3.303   1.148  0.00  0.00    -0.077 A 
ATOM      3  C2  UNL d   1      -1.126   3.395   1.070  0.00  0.00    -0.001 A 
ATOM      4  C3  UNL d   1      -1.736   3.942  -0.060  0.00  0.00     0.003 A 
ATOM      5  C4  UNL d   1      -0.959   4.401  -1.121  0.00  0.00    -0.005 A 
ATOM      6  C5  UNL d   1       0.430   4.311  -1.055  0.00  0.00     0.003 A 
ATOM      7  C6  UNL d   1       1.042   3.764   0.074  0.00  0.00    -0.001 A 
ENDROOT
TORSDOF 0
ENDMDL
