MODEL 1
REMARK minimizedAffinity 1.92640507
REMARK minimizedRMSD -1
REMARK  0 active torsions:
REMARK  status: ('A' for Active; 'I' for Inactive)
ROOT
ATOM      1  C   UNL d   1       5.549  -5.550   0.098  0.00  0.00     0.078 C 
ATOM      2  C1  UNL d   1       5.132  -4.761  -1.107  0.00  0.00    -0.077 A 
ATOM      3  C2  UNL d   1       5.327  -3.376  -1.165  0.00  0.00    -0.001 A 
ATOM      4  C3  UNL d   1       4.926  -2.652  -2.289  0.00  0.00     0.003 A 
ATOM      5  C4  UNL d   1       4.325  -3.305  -3.363  0.00  0.00    -0.005 A 
ATOM      6  C5  UNL d   1       4.125  -4.683  -3.314  0.00  0.00     0.003 A 
ATOM      7  C6  UNL d   1       4.526  -5.408  -2.191  0.00  0.00    -0.001 A 
ENDROOT
TORSDOF 0
ENDMDL
