MODEL 1
REMARK minimizedAffinity -3.07518291
REMARK minimizedRMSD -1
REMARK  0 active torsions:
REMARK  status: ('A' for Active; 'I' for Inactive)
ROOT
ATOM      1  C   UNL d   1      -4.124   0.150   1.327  0.00  0.00     0.078 C 
ATOM      2  C1  UNL d   1      -4.420   1.126   0.228  0.00  0.00    -0.077 A 
ATOM      3  C2  UNL d   1      -5.739   1.436  -0.127  0.00  0.00    -0.001 A 
ATOM      4  C3  UNL d   1      -5.999   2.338  -1.159  0.00  0.00     0.003 A 
ATOM      5  C4  UNL d   1      -4.946   2.938  -1.846  0.00  0.00    -0.005 A 
ATOM      6  C5  UNL d   1      -3.630   2.635  -1.502  0.00  0.00     0.003 A 
ATOM      7  C6  UNL d   1      -3.368   1.733  -0.470  0.00  0.00    -0.001 A 
ENDROOT
TORSDOF 0
ENDMDL
