MODEL 1
REMARK minimizedAffinity -3.89292479
REMARK minimizedRMSD -1
REMARK  0 active torsions:
REMARK  status: ('A' for Active; 'I' for Inactive)
ROOT
ATOM      1  C   UNL d   1      -5.625   2.282  -1.941  0.00  0.00     0.078 C 
ATOM      2  C1  UNL d   1      -5.236   3.168  -3.087  0.00  0.00    -0.077 A 
ATOM      3  C2  UNL d   1      -4.107   2.887  -3.866  0.00  0.00    -0.001 A 
ATOM      4  C3  UNL d   1      -3.752   3.726  -4.923  0.00  0.00     0.003 A 
ATOM      5  C4  UNL d   1      -4.519   4.853  -5.210  0.00  0.00    -0.005 A 
ATOM      6  C5  UNL d   1      -5.643   5.143  -4.439  0.00  0.00     0.003 A 
ATOM      7  C6  UNL d   1      -6.000   4.305  -3.381  0.00  0.00    -0.001 A 
ENDROOT
TORSDOF 0
ENDMDL
