MODEL 1
REMARK minimizedAffinity 2.67233515
REMARK minimizedRMSD -1
REMARK  0 active torsions:
REMARK  status: ('A' for Active; 'I' for Inactive)
ROOT
ATOM      1  C   UNL d   1      -5.925   3.011  -1.413  0.00  0.00     0.078 C 
ATOM      2  C1  UNL d   1      -5.249   3.419  -2.688  0.00  0.00    -0.077 A 
ATOM      3  C2  UNL d   1      -5.994   3.835  -3.798  0.00  0.00    -0.001 A 
ATOM      4  C3  UNL d   1      -5.352   4.203  -4.982  0.00  0.00     0.003 A 
ATOM      5  C4  UNL d   1      -3.962   4.158  -5.066  0.00  0.00    -0.005 A 
ATOM      6  C5  UNL d   1      -3.212   3.744  -3.967  0.00  0.00     0.003 A 
ATOM      7  C6  UNL d   1      -3.853   3.376  -2.783  0.00  0.00    -0.001 A 
ENDROOT
TORSDOF 0
ENDMDL
