MODEL 1
REMARK minimizedAffinity -2.74548626
REMARK minimizedRMSD -1
REMARK  0 active torsions:
REMARK  status: ('A' for Active; 'I' for Inactive)
ROOT
ATOM      1  C   UNL d   1       0.556   0.134  -1.262  0.00  0.00     0.078 C 
ATOM      2  C1  UNL d   1       0.337  -1.294  -1.665  0.00  0.00    -0.077 A 
ATOM      3  C2  UNL d   1       0.593  -2.342  -0.773  0.00  0.00    -0.001 A 
ATOM      4  C3  UNL d   1       0.395  -3.667  -1.166  0.00  0.00     0.003 A 
ATOM      5  C4  UNL d   1      -0.060  -3.956  -2.451  0.00  0.00    -0.005 A 
ATOM      6  C5  UNL d   1      -0.315  -2.919  -3.346  0.00  0.00     0.003 A 
ATOM      7  C6  UNL d   1      -0.117  -1.594  -2.956  0.00  0.00    -0.001 A 
ENDROOT
TORSDOF 0
ENDMDL
