MODEL 1
REMARK minimizedAffinity -4.23628807
REMARK minimizedRMSD -1
REMARK  0 active torsions:
REMARK  status: ('A' for Active; 'I' for Inactive)
ROOT
ATOM      1  C   UNL d   1      -3.367   1.189  -5.249  0.00  0.00     0.078 C 
ATOM      2  C1  UNL d   1      -4.286   2.265  -4.752  0.00  0.00    -0.077 A 
ATOM      3  C2  UNL d   1      -4.291   3.537  -5.337  0.00  0.00    -0.001 A 
ATOM      4  C3  UNL d   1      -5.145   4.531  -4.858  0.00  0.00     0.003 A 
ATOM      5  C4  UNL d   1      -5.999   4.265  -3.790  0.00  0.00    -0.005 A 
ATOM      6  C5  UNL d   1      -6.000   3.002  -3.200  0.00  0.00     0.003 A 
ATOM      7  C6  UNL d   1      -5.147   2.007  -3.678  0.00  0.00    -0.001 A 
ENDROOT
TORSDOF 0
ENDMDL
