MODEL 1
REMARK minimizedAffinity 1.20772481
REMARK minimizedRMSD -1
REMARK  0 active torsions:
REMARK  status: ('A' for Active; 'I' for Inactive)
ROOT
ATOM      1  C2' OXE d   1      -1.379   0.710  -0.417  0.00  0.00     0.078 C 
ATOM      2  C1' OXE d   1      -0.243  -1.592  -1.554  0.00  0.00     0.078 C 
ATOM      3  C1  OXE d   1      -0.612  -1.638  -0.093  0.00  0.00    -0.078 A 
ATOM      4  C2  OXE d   1      -1.125  -0.492   0.467  0.00  0.00    -0.078 A 
ATOM      5  C3  OXE d   1      -1.533  -0.497   1.797  0.00  0.00     0.003 A 
ATOM      6  C4  OXE d   1      -1.285  -1.610   2.610  0.00  0.00    -0.002 A 
ATOM      7  C5  OXE d   1      -0.728  -2.774   2.071  0.00  0.00    -0.002 A 
ATOM      8  C6  OXE d   1      -0.426  -2.819   0.714  0.00  0.00     0.003 A 
ENDROOT
TORSDOF 0
ENDMDL
