MODEL 1
REMARK minimizedAffinity -0.732189834
REMARK minimizedRMSD -1
REMARK  0 active torsions:
REMARK  status: ('A' for Active; 'I' for Inactive)
ROOT
ATOM      1  C2' OXE d   1      -1.868  -1.141   0.572  0.00  0.00     0.078 C 
ATOM      2  C1' OXE d   1      -0.749  -2.509   2.752  0.00  0.00     0.078 C 
ATOM      3  C1  OXE d   1      -0.348  -2.948   1.366  0.00  0.00    -0.078 A 
ATOM      4  C2  OXE d   1      -0.936  -2.303   0.304  0.00  0.00    -0.078 A 
ATOM      5  C3  OXE d   1      -0.560  -2.631  -0.995  0.00  0.00     0.003 A 
ATOM      6  C4  OXE d   1       0.295  -3.714  -1.234  0.00  0.00    -0.002 A 
ATOM      7  C5  OXE d   1       0.874  -4.410  -0.167  0.00  0.00    -0.002 A 
ATOM      8  C6  OXE d   1       0.597  -4.013   1.136  0.00  0.00     0.003 A 
ENDROOT
TORSDOF 0
ENDMDL
