MODEL 1
REMARK minimizedAffinity 5.19348764
REMARK minimizedRMSD -1
REMARK  0 active torsions:
REMARK  status: ('A' for Active; 'I' for Inactive)
ROOT
ATOM      1  C2' OXE d   1      -0.763   1.884  -1.115  0.00  0.00     0.078 C 
ATOM      2  C1' OXE d   1      -0.264   3.771   0.902  0.00  0.00     0.078 C 
ATOM      3  C1  OXE d   1      -1.500   3.954   0.058  0.00  0.00    -0.078 A 
ATOM      4  C2  OXE d   1      -1.712   3.053  -0.957  0.00  0.00    -0.078 A 
ATOM      5  C3  OXE d   1      -2.866   3.144  -1.730  0.00  0.00     0.003 A 
ATOM      6  C4  OXE d   1      -3.733   4.233  -1.584  0.00  0.00    -0.002 A 
ATOM      7  C5  OXE d   1      -3.515   5.185  -0.582  0.00  0.00    -0.002 A 
ATOM      8  C6  OXE d   1      -2.428   5.037   0.273  0.00  0.00     0.003 A 
ENDROOT
TORSDOF 0
ENDMDL
