MODEL 1
REMARK minimizedAffinity -1.42152774
REMARK minimizedRMSD -1
REMARK  0 active torsions:
REMARK  status: ('A' for Active; 'I' for Inactive)
ROOT
ATOM      1  C2' OXE d   1      -0.597  -2.302   0.270  0.00  0.00     0.078 C 
ATOM      2  C1' OXE d   1      -0.200   0.030  -1.241  0.00  0.00     0.078 C 
ATOM      3  C1  OXE d   1       0.114  -1.292  -1.894  0.00  0.00    -0.078 A 
ATOM      4  C2  OXE d   1      -0.039  -2.426  -1.131  0.00  0.00    -0.078 A 
ATOM      5  C3  OXE d   1       0.185  -3.675  -1.702  0.00  0.00     0.003 A 
ATOM      6  C4  OXE d   1       0.711  -3.780  -2.995  0.00  0.00    -0.002 A 
ATOM      7  C5  OXE d   1       0.912  -2.636  -3.775  0.00  0.00    -0.002 A 
ATOM      8  C6  OXE d   1       0.579  -1.390  -3.255  0.00  0.00     0.003 A 
ENDROOT
TORSDOF 0
ENDMDL
