MODEL 1
REMARK minimizedAffinity 1.73707843
REMARK minimizedRMSD -1
REMARK  0 active torsions:
REMARK  status: ('A' for Active; 'I' for Inactive)
ROOT
ATOM      1  C2' OXE d   1       0.358  -0.384  -1.844  0.00  0.00     0.078 C 
ATOM      2  C1' OXE d   1       0.870  -2.494  -3.624  0.00  0.00     0.078 C 
ATOM      3  C1  OXE d   1       0.591  -2.841  -2.183  0.00  0.00    -0.078 A 
ATOM      4  C2  OXE d   1       0.388  -1.800  -1.309  0.00  0.00    -0.078 A 
ATOM      5  C3  OXE d   1       0.072  -2.067   0.020  0.00  0.00     0.003 A 
ATOM      6  C4  OXE d   1       0.111  -3.379   0.508  0.00  0.00    -0.002 A 
ATOM      7  C5  OXE d   1       0.355  -4.451  -0.356  0.00  0.00    -0.002 A 
ATOM      8  C6  OXE d   1       0.554  -4.203  -1.710  0.00  0.00     0.003 A 
ENDROOT
TORSDOF 0
ENDMDL
