MODEL 1
REMARK minimizedAffinity 9.290205
REMARK minimizedRMSD -1
REMARK  0 active torsions:
REMARK  status: ('A' for Active; 'I' for Inactive)
ROOT
ATOM      1  C2' OXE d   1       0.555  -2.473  -2.110  0.00  0.00     0.078 C 
ATOM      2  C1' OXE d   1      -2.210  -2.949  -2.010  0.00  0.00     0.078 C 
ATOM      3  C1  OXE d   1      -1.436  -3.024  -0.718  0.00  0.00    -0.078 A 
ATOM      4  C2  OXE d   1      -0.076  -2.836  -0.783  0.00  0.00    -0.078 A 
ATOM      5  C3  OXE d   1       0.677  -2.840   0.387  0.00  0.00     0.003 A 
ATOM      6  C4  OXE d   1       0.087  -3.186   1.609  0.00  0.00    -0.002 A 
ATOM      7  C5  OXE d   1      -1.289  -3.421   1.691  0.00  0.00    -0.002 A 
ATOM      8  C6  OXE d   1      -2.070  -3.303   0.547  0.00  0.00     0.003 A 
ENDROOT
TORSDOF 0
ENDMDL
