MODEL 1
REMARK minimizedAffinity 4.486938
REMARK minimizedRMSD -1
REMARK  0 active torsions:
REMARK  status: ('A' for Active; 'I' for Inactive)
ROOT
ATOM      1  C2' OXE d   1       0.211  -1.597  -4.548  0.00  0.00     0.078 C 
ATOM      2  C1' OXE d   1       0.817   0.413  -2.685  0.00  0.00     0.078 C 
ATOM      3  C1  OXE d   1       0.361  -0.924  -2.155  0.00  0.00    -0.078 A 
ATOM      4  C2  OXE d   1       0.022  -1.887  -3.075  0.00  0.00    -0.078 A 
ATOM      5  C3  OXE d   1      -0.352  -3.155  -2.639  0.00  0.00     0.003 A 
ATOM      6  C4  OXE d   1      -0.534  -3.411  -1.275  0.00  0.00    -0.002 A 
ATOM      7  C5  OXE d   1      -0.233  -2.432  -0.323  0.00  0.00    -0.002 A 
ATOM      8  C6  OXE d   1       0.256  -1.200  -0.743  0.00  0.00     0.003 A 
ENDROOT
TORSDOF 0
ENDMDL
