MODEL 1
REMARK minimizedAffinity 4.78098392
REMARK minimizedRMSD -1
REMARK  0 active torsions:
REMARK  status: ('A' for Active; 'I' for Inactive)
ROOT
ATOM      1  C2' OXE d   1      -1.457   1.065  -0.410  0.00  0.00     0.078 C 
ATOM      2  C1' OXE d   1       0.411  -0.098  -2.153  0.00  0.00     0.078 C 
ATOM      3  C1  OXE d   1      -0.139  -0.953  -1.039  0.00  0.00    -0.078 A 
ATOM      4  C2  OXE d   1      -1.017  -0.362  -0.163  0.00  0.00    -0.078 A 
ATOM      5  C3  OXE d   1      -1.597  -1.122   0.849  0.00  0.00     0.003 A 
ATOM      6  C4  OXE d   1      -1.177  -2.438   1.077  0.00  0.00    -0.002 A 
ATOM      7  C5  OXE d   1      -0.254  -3.047   0.220  0.00  0.00    -0.002 A 
ATOM      8  C6  OXE d   1       0.242  -2.333  -0.865  0.00  0.00     0.003 A 
ENDROOT
TORSDOF 0
ENDMDL
