MODEL 1
REMARK minimizedAffinity 10.1150866
REMARK minimizedRMSD -1
REMARK  0 active torsions:
REMARK  status: ('A' for Active; 'I' for Inactive)
ROOT
ATOM      1  C2' OXE d   1      -0.518  -2.967  -0.287  0.00  0.00     0.078 C 
ATOM      2  C1' OXE d   1      -0.103  -3.464  -3.018  0.00  0.00     0.078 C 
ATOM      3  C1  OXE d   1       0.375  -2.146  -2.463  0.00  0.00    -0.078 A 
ATOM      4  C2  OXE d   1       0.126  -1.892  -1.135  0.00  0.00    -0.078 A 
ATOM      5  C3  OXE d   1       0.594  -0.715  -0.559  0.00  0.00     0.003 A 
ATOM      6  C4  OXE d   1       1.180   0.279  -1.353  0.00  0.00    -0.002 A 
ATOM      7  C5  OXE d   1       1.407   0.057  -2.715  0.00  0.00    -0.002 A 
ATOM      8  C6  OXE d   1       1.050  -1.165  -3.276  0.00  0.00     0.003 A 
ENDROOT
TORSDOF 0
ENDMDL
