MODEL 1
REMARK minimizedAffinity 7.17247629
REMARK minimizedRMSD -1
REMARK  0 active torsions:
REMARK  status: ('A' for Active; 'I' for Inactive)
ROOT
ATOM      1  C2' OXE d   1      -2.240   1.505   0.009  0.00  0.00     0.078 C 
ATOM      2  C1' OXE d   1      -1.194   3.442   1.751  0.00  0.00     0.078 C 
ATOM      3  C1  OXE d   1      -2.199   3.892   0.720  0.00  0.00    -0.078 A 
ATOM      4  C2  OXE d   1      -2.670   2.946  -0.158  0.00  0.00    -0.078 A 
ATOM      5  C3  OXE d   1      -3.640   3.297  -1.094  0.00  0.00     0.003 A 
ATOM      6  C4  OXE d   1      -4.024   4.634  -1.249  0.00  0.00    -0.002 A 
ATOM      7  C5  OXE d   1      -3.526   5.620  -0.391  0.00  0.00    -0.002 A 
ATOM      8  C6  OXE d   1      -2.647   5.259   0.624  0.00  0.00     0.003 A 
ENDROOT
TORSDOF 0
ENDMDL
