MODEL 1
REMARK minimizedAffinity 3.44518256
REMARK minimizedRMSD -1
REMARK  0 active torsions:
REMARK  status: ('A' for Active; 'I' for Inactive)
ROOT
ATOM      1  C2' OXE d   1       1.085   0.359  -0.866  0.00  0.00     0.078 C 
ATOM      2  C1' OXE d   1       1.256  -0.724  -3.451  0.00  0.00     0.078 C 
ATOM      3  C1  OXE d   1       0.674  -1.590  -2.362  0.00  0.00    -0.078 A 
ATOM      4  C2  OXE d   1       0.637  -1.069  -1.091  0.00  0.00    -0.078 A 
ATOM      5  C3  OXE d   1       0.061  -1.806  -0.060  0.00  0.00     0.003 A 
ATOM      6  C4  OXE d   1      -0.342  -3.130  -0.274  0.00  0.00    -0.002 A 
ATOM      7  C5  OXE d   1      -0.276  -3.694  -1.553  0.00  0.00    -0.002 A 
ATOM      8  C6  OXE d   1       0.188  -2.925  -2.614  0.00  0.00     0.003 A 
ENDROOT
TORSDOF 0
ENDMDL
