MODEL 1
REMARK minimizedAffinity 7.7498641
REMARK minimizedRMSD -1
REMARK  0 active torsions:
REMARK  status: ('A' for Active; 'I' for Inactive)
ROOT
ATOM      1  C2' OXE d   1       0.400  -1.835  -1.262  0.00  0.00     0.078 C 
ATOM      2  C1' OXE d   1       1.492  -1.666  -3.843  0.00  0.00     0.078 C 
ATOM      3  C1  OXE d   1       2.002  -0.705  -2.798  0.00  0.00    -0.078 A 
ATOM      4  C2  OXE d   1       1.429  -0.763  -1.551  0.00  0.00    -0.078 A 
ATOM      5  C3  OXE d   1       1.901   0.064  -0.536  0.00  0.00     0.003 A 
ATOM      6  C4  OXE d   1       2.846   1.059  -0.814  0.00  0.00    -0.002 A 
ATOM      7  C5  OXE d   1       3.414   1.162  -2.088  0.00  0.00    -0.002 A 
ATOM      8  C6  OXE d   1       3.035   0.262  -3.078  0.00  0.00     0.003 A 
ENDROOT
TORSDOF 0
ENDMDL
