MODEL 1
REMARK minimizedAffinity 7.19141817
REMARK minimizedRMSD -1
REMARK  0 active torsions:
REMARK  status: ('A' for Active; 'I' for Inactive)
ROOT
ATOM      1  C2' OXE d   1       1.051  -1.306  -3.030  0.00  0.00     0.078 C 
ATOM      2  C1' OXE d   1       0.037   0.857  -1.555  0.00  0.00     0.078 C 
ATOM      3  C1  OXE d   1       1.453   0.418  -1.277  0.00  0.00    -0.078 A 
ATOM      4  C2  OXE d   1       1.925  -0.671  -1.970  0.00  0.00    -0.078 A 
ATOM      5  C3  OXE d   1       3.242  -1.083  -1.792  0.00  0.00     0.003 A 
ATOM      6  C4  OXE d   1       4.041  -0.497  -0.802  0.00  0.00    -0.002 A 
ATOM      7  C5  OXE d   1       3.566   0.588  -0.057  0.00  0.00    -0.002 A 
ATOM      8  C6  OXE d   1       2.292   1.084  -0.312  0.00  0.00     0.003 A 
ENDROOT
TORSDOF 0
ENDMDL
