MODEL 1
REMARK minimizedAffinity 9.91081142
REMARK minimizedRMSD -1
REMARK  0 active torsions:
REMARK  status: ('A' for Active; 'I' for Inactive)
ROOT
ATOM      1  C2' OXE d   1      -0.637  -2.683  -0.159  0.00  0.00     0.078 C 
ATOM      2  C1' OXE d   1      -0.677  -3.929  -2.674  0.00  0.00     0.078 C 
ATOM      3  C1  OXE d   1      -0.028  -2.571  -2.572  0.00  0.00    -0.078 A 
ATOM      4  C2  OXE d   1      -0.054  -1.948  -1.347  0.00  0.00    -0.078 A 
ATOM      5  C3  OXE d   1       0.579  -0.719  -1.185  0.00  0.00     0.003 A 
ATOM      6  C4  OXE d   1       1.107  -0.042  -2.291  0.00  0.00    -0.002 A 
ATOM      7  C5  OXE d   1       1.109  -0.642  -3.555  0.00  0.00    -0.002 A 
ATOM      8  C6  OXE d   1       0.585  -1.921  -3.704  0.00  0.00     0.003 A 
ENDROOT
TORSDOF 0
ENDMDL
