MODEL 1
REMARK minimizedAffinity 2.11366415
REMARK minimizedRMSD -1
REMARK  0 active torsions:
REMARK  status: ('A' for Active; 'I' for Inactive)
ROOT
ATOM      1  C2' OXE d   1      -2.448  -0.483  -0.363  0.00  0.00     0.078 C 
ATOM      2  C1' OXE d   1      -2.400  -3.139  -1.271  0.00  0.00     0.078 C 
ATOM      3  C1  OXE d   1      -1.699  -2.827   0.027  0.00  0.00    -0.078 A 
ATOM      4  C2  OXE d   1      -1.687  -1.516   0.440  0.00  0.00    -0.078 A 
ATOM      5  C3  OXE d   1      -1.101  -1.182   1.658  0.00  0.00     0.003 A 
ATOM      6  C4  OXE d   1      -0.391  -2.142   2.389  0.00  0.00    -0.002 A 
ATOM      7  C5  OXE d   1      -0.356  -3.475   1.966  0.00  0.00    -0.002 A 
ATOM      8  C6  OXE d   1      -1.039  -3.841   0.812  0.00  0.00     0.003 A 
ENDROOT
TORSDOF 0
ENDMDL
