MODEL 1
REMARK minimizedAffinity 17.7225037
REMARK minimizedRMSD -1
REMARK  0 active torsions:
REMARK  status: ('A' for Active; 'I' for Inactive)
ROOT
ATOM      1  C2' OXE d   1       1.140  -1.108  -2.167  0.00  0.00     0.078 C 
ATOM      2  C1' OXE d   1       1.776   1.515  -1.396  0.00  0.00     0.078 C 
ATOM      3  C1  OXE d   1       2.502   0.384  -0.710  0.00  0.00    -0.078 A 
ATOM      4  C2  OXE d   1       2.150  -0.897  -1.061  0.00  0.00    -0.078 A 
ATOM      5  C3  OXE d   1       2.827  -1.976  -0.498  0.00  0.00     0.003 A 
ATOM      6  C4  OXE d   1       3.753  -1.772   0.532  0.00  0.00    -0.002 A 
ATOM      7  C5  OXE d   1       4.097  -0.477   0.932  0.00  0.00    -0.002 A 
ATOM      8  C6  OXE d   1       3.513   0.611   0.293  0.00  0.00     0.003 A 
ENDROOT
TORSDOF 0
ENDMDL
