MODEL 1
REMARK minimizedAffinity 2.44208646
REMARK minimizedRMSD -1
REMARK  0 active torsions:
REMARK  status: ('A' for Active; 'I' for Inactive)
ROOT
ATOM      1  C2' OXE d   1      -0.762  -3.577   1.132  0.00  0.00     0.078 C 
ATOM      2  C1' OXE d   1      -3.537  -3.317   0.801  0.00  0.00     0.078 C 
ATOM      3  C1  OXE d   1      -2.669  -2.149   0.404  0.00  0.00    -0.078 A 
ATOM      4  C2  OXE d   1      -1.316  -2.267   0.613  0.00  0.00    -0.078 A 
ATOM      5  C3  OXE d   1      -0.465  -1.241   0.215  0.00  0.00     0.003 A 
ATOM      6  C4  OXE d   1      -0.986  -0.029  -0.255  0.00  0.00    -0.002 A 
ATOM      7  C5  OXE d   1      -2.364   0.127  -0.439  0.00  0.00    -0.002 A 
ATOM      8  C6  OXE d   1      -3.214  -0.937  -0.155  0.00  0.00     0.003 A 
ENDROOT
TORSDOF 0
ENDMDL
