MODEL 1
REMARK minimizedAffinity -0.276769638
REMARK minimizedRMSD -1
REMARK  0 active torsions:
REMARK  status: ('A' for Active; 'I' for Inactive)
ROOT
ATOM      1  C2' OXE d   1      -1.106   4.425   0.769  0.00  0.00     0.078 C 
ATOM      2  C1' OXE d   1      -3.147   5.991   1.893  0.00  0.00     0.078 C 
ATOM      3  C1  OXE d   1      -3.272   5.610   0.438  0.00  0.00    -0.078 A 
ATOM      4  C2  OXE d   1      -2.246   4.884  -0.115  0.00  0.00    -0.078 A 
ATOM      5  C3  OXE d   1      -2.336   4.460  -1.438  0.00  0.00     0.003 A 
ATOM      6  C4  OXE d   1      -3.389   4.897  -2.252  0.00  0.00    -0.002 A 
ATOM      7  C5  OXE d   1      -4.425   5.671  -1.718  0.00  0.00    -0.002 A 
ATOM      8  C6  OXE d   1      -4.403   6.000  -0.367  0.00  0.00     0.003 A 
ENDROOT
TORSDOF 0
ENDMDL
