MODEL 1
REMARK minimizedAffinity 7.59660339
REMARK minimizedRMSD -1
REMARK  0 active torsions:
REMARK  status: ('A' for Active; 'I' for Inactive)
ROOT
ATOM      1  C2' OXE d   1       1.667   0.015  -2.873  0.00  0.00     0.078 C 
ATOM      2  C1' OXE d   1       2.871  -0.619  -0.418  0.00  0.00     0.078 C 
ATOM      3  C1  OXE d   1       1.739  -1.495  -0.893  0.00  0.00    -0.078 A 
ATOM      4  C2  OXE d   1       1.125  -1.150  -2.073  0.00  0.00    -0.078 A 
ATOM      5  C3  OXE d   1       0.112  -1.956  -2.584  0.00  0.00     0.003 A 
ATOM      6  C4  OXE d   1      -0.390  -3.025  -1.833  0.00  0.00    -0.002 A 
ATOM      7  C5  OXE d   1       0.194  -3.370  -0.610  0.00  0.00    -0.002 A 
ATOM      8  C6  OXE d   1       1.285  -2.642  -0.147  0.00  0.00     0.003 A 
ENDROOT
TORSDOF 0
ENDMDL
