MODEL 1
REMARK minimizedAffinity 1.76468849
REMARK minimizedRMSD -1
REMARK  0 active torsions:
REMARK  status: ('A' for Active; 'I' for Inactive)
ROOT
ATOM      1  C1  BNZ d   1      -6.000  -2.990  -3.795  0.00  0.00     0.000 A 
ATOM      2  C2  BNZ d   1      -5.999  -3.885  -4.831  0.00  0.00     0.000 A 
ATOM      3  C3  BNZ d   1      -5.127  -3.747  -5.875  0.00  0.00     0.000 A 
ATOM      4  C4  BNZ d   1      -4.286  -2.693  -5.901  0.00  0.00     0.000 A 
ATOM      5  C5  BNZ d   1      -4.281  -1.777  -4.868  0.00  0.00     0.000 A 
ATOM      6  C6  BNZ d   1      -5.133  -1.940  -3.800  0.00  0.00     0.000 A 
ENDROOT
TORSDOF 0
ENDMDL
