MODEL 1
REMARK minimizedAffinity 12.2247868
REMARK minimizedRMSD -1
REMARK  0 active torsions:
REMARK  status: ('A' for Active; 'I' for Inactive)
ROOT
ATOM      1  C1  BNZ d   1      -3.621   5.619   5.174  0.00  0.00     0.000 A 
ATOM      2  C2  BNZ d   1      -4.650   6.000   5.994  0.00  0.00     0.000 A 
ATOM      3  C3  BNZ d   1      -5.832   5.313   6.000  0.00  0.00     0.000 A 
ATOM      4  C4  BNZ d   1      -5.998   4.273   5.157  0.00  0.00     0.000 A 
ATOM      5  C5  BNZ d   1      -4.974   3.883   4.317  0.00  0.00     0.000 A 
ATOM      6  C6  BNZ d   1      -3.772   4.552   4.342  0.00  0.00     0.000 A 
ENDROOT
TORSDOF 0
ENDMDL
