MODEL 1
REMARK minimizedAffinity -1.61485922
REMARK minimizedRMSD -1
REMARK  0 active torsions:
REMARK  status: ('A' for Active; 'I' for Inactive)
ROOT
ATOM      1  C1  BNZ d   1      -4.231  -3.387  -5.445  0.00  0.00     0.000 A 
ATOM      2  C2  BNZ d   1      -5.130  -3.100  -4.453  0.00  0.00     0.000 A 
ATOM      3  C3  BNZ d   1      -6.000  -4.052  -3.999  0.00  0.00     0.000 A 
ATOM      4  C4  BNZ d   1      -5.996  -5.277  -4.565  0.00  0.00     0.000 A 
ATOM      5  C5  BNZ d   1      -5.102  -5.579  -5.572  0.00  0.00     0.000 A 
ATOM      6  C6  BNZ d   1      -4.202  -4.630  -5.999  0.00  0.00     0.000 A 
ENDROOT
TORSDOF 0
ENDMDL
