MODEL 1
REMARK minimizedAffinity 0.088828437
REMARK minimizedRMSD -1
REMARK  0 active torsions:
REMARK  status: ('A' for Active; 'I' for Inactive)
ROOT
ATOM      1  C1  BNZ d   1      -5.898  -2.330  -0.102  0.00  0.00     0.000 A 
ATOM      2  C2  BNZ d   1      -5.280  -3.396  -0.700  0.00  0.00     0.000 A 
ATOM      3  C3  BNZ d   1      -4.682  -4.370   0.051  0.00  0.00     0.000 A 
ATOM      4  C4  BNZ d   1      -4.667  -4.255   1.395  0.00  0.00     0.000 A 
ATOM      5  C5  BNZ d   1      -5.277  -3.181   2.012  0.00  0.00     0.000 A 
ATOM      6  C6  BNZ d   1      -5.912  -2.223   1.254  0.00  0.00     0.000 A 
ENDROOT
TORSDOF 0
ENDMDL
