MODEL 1
REMARK minimizedAffinity 10.4052973
REMARK minimizedRMSD -1
REMARK  0 active torsions:
REMARK  status: ('A' for Active; 'I' for Inactive)
ROOT
ATOM      1  C1  BNZ d   1       1.650   0.094  -2.515  0.00  0.00     0.000 A 
ATOM      2  C2  BNZ d   1       1.384  -1.082  -3.163  0.00  0.00     0.000 A 
ATOM      3  C3  BNZ d   1       1.531  -1.184  -4.518  0.00  0.00     0.000 A 
ATOM      4  C4  BNZ d   1       1.905  -0.099  -5.227  0.00  0.00     0.000 A 
ATOM      5  C5  BNZ d   1       2.168   1.097  -4.589  0.00  0.00     0.000 A 
ATOM      6  C6  BNZ d   1       2.056   1.184  -3.221  0.00  0.00     0.000 A 
ENDROOT
TORSDOF 0
ENDMDL
