MODEL 1
REMARK minimizedAffinity -1.43715453
REMARK minimizedRMSD -1
REMARK  0 active torsions:
REMARK  status: ('A' for Active; 'I' for Inactive)
ROOT
ATOM      1  C1  BNZ d   1      -4.888  -3.612  -0.675  0.00  0.00     0.000 A 
ATOM      2  C2  BNZ d   1      -5.463  -2.515  -0.090  0.00  0.00     0.000 A 
ATOM      3  C3  BNZ d   1      -6.000  -2.592   1.164  0.00  0.00     0.000 A 
ATOM      4  C4  BNZ d   1      -5.998  -3.773   1.815  0.00  0.00     0.000 A 
ATOM      5  C5  BNZ d   1      -5.430  -4.890   1.236  0.00  0.00     0.000 A 
ATOM      6  C6  BNZ d   1      -4.855  -4.800  -0.012  0.00  0.00     0.000 A 
ENDROOT
TORSDOF 0
ENDMDL
