MODEL 1
REMARK minimizedAffinity 7.44283009
REMARK minimizedRMSD -1
REMARK  0 active torsions:
REMARK  status: ('A' for Active; 'I' for Inactive)
ROOT
ATOM      1  C1  BNZ d   1       0.565  -1.118  -5.720  0.00  0.00     0.000 A 
ATOM      2  C2  BNZ d   1       1.481  -1.676  -4.868  0.00  0.00     0.000 A 
ATOM      3  C3  BNZ d   1       2.449  -0.909  -4.282  0.00  0.00     0.000 A 
ATOM      4  C4  BNZ d   1       2.524   0.404  -4.578  0.00  0.00     0.000 A 
ATOM      5  C5  BNZ d   1       1.613   0.980  -5.441  0.00  0.00     0.000 A 
ATOM      6  C6  BNZ d   1       0.617   0.212  -6.000  0.00  0.00     0.000 A 
ENDROOT
TORSDOF 0
ENDMDL
