MODEL 1
REMARK minimizedAffinity -0.240011752
REMARK minimizedRMSD -1
REMARK  0 active torsions:
REMARK  status: ('A' for Active; 'I' for Inactive)
ROOT
ATOM      1  C1  BNZ d   1      -3.654  -5.257  -6.000  0.00  0.00     0.000 A 
ATOM      2  C2  BNZ d   1      -4.821  -5.972  -5.962  0.00  0.00     0.000 A 
ATOM      3  C3  BNZ d   1      -5.998  -5.373  -5.610  0.00  0.00     0.000 A 
ATOM      4  C4  BNZ d   1      -6.000  -4.071  -5.258  0.00  0.00     0.000 A 
ATOM      5  C5  BNZ d   1      -4.830  -3.339  -5.283  0.00  0.00     0.000 A 
ATOM      6  C6  BNZ d   1      -3.654  -3.935  -5.675  0.00  0.00     0.000 A 
ENDROOT
TORSDOF 0
ENDMDL
