MODEL 1
REMARK minimizedAffinity 0.689900994
REMARK minimizedRMSD -1
REMARK  0 active torsions:
REMARK  status: ('A' for Active; 'I' for Inactive)
ROOT
ATOM      1  C1  BNZ d   1       2.698  -6.000   4.125  0.00  0.00     0.000 A 
ATOM      2  C2  BNZ d   1       3.459  -6.000   2.986  0.00  0.00     0.000 A 
ATOM      3  C3  BNZ d   1       2.989  -5.440   1.831  0.00  0.00     0.000 A 
ATOM      4  C4  BNZ d   1       1.746  -4.917   1.805  0.00  0.00     0.000 A 
ATOM      5  C5  BNZ d   1       0.964  -4.917   2.943  0.00  0.00     0.000 A 
ATOM      6  C6  BNZ d   1       1.455  -5.447   4.114  0.00  0.00     0.000 A 
ENDROOT
TORSDOF 0
ENDMDL
