MODEL 1
REMARK minimizedAffinity 1.18856227
REMARK minimizedRMSD -1
REMARK  0 active torsions:
REMARK  status: ('A' for Active; 'I' for Inactive)
ROOT
ATOM      1  C1  BNZ d   1      -4.226   1.168   0.784  0.00  0.00     0.000 A 
ATOM      2  C2  BNZ d   1      -3.010   1.602   1.240  0.00  0.00     0.000 A 
ATOM      3  C3  BNZ d   1      -1.990   0.720   1.462  0.00  0.00     0.000 A 
ATOM      4  C4  BNZ d   1      -2.199  -0.598   1.267  0.00  0.00     0.000 A 
ATOM      5  C5  BNZ d   1      -3.423  -1.053   0.817  0.00  0.00     0.000 A 
ATOM      6  C6  BNZ d   1      -4.435  -0.157   0.557  0.00  0.00     0.000 A 
ENDROOT
TORSDOF 0
ENDMDL
