MODEL 1
REMARK minimizedAffinity 3.61366153
REMARK minimizedRMSD -1
REMARK  0 active torsions:
REMARK  status: ('A' for Active; 'I' for Inactive)
ROOT
ATOM      1  C1  BNZ d   1      -3.863   4.665   4.216  0.00  0.00     0.000 A 
ATOM      2  C2  BNZ d   1      -4.976   3.868   4.224  0.00  0.00     0.000 A 
ATOM      3  C3  BNZ d   1      -6.000   4.104   5.099  0.00  0.00     0.000 A 
ATOM      4  C4  BNZ d   1      -5.892   5.111   5.989  0.00  0.00     0.000 A 
ATOM      5  C5  BNZ d   1      -4.771   5.918   6.000  0.00  0.00     0.000 A 
ATOM      6  C6  BNZ d   1      -3.760   5.701   5.092  0.00  0.00     0.000 A 
ENDROOT
TORSDOF 0
ENDMDL
