MODEL 1
REMARK minimizedAffinity 5.6405139
REMARK minimizedRMSD -1
REMARK  0 active torsions:
REMARK  status: ('A' for Active; 'I' for Inactive)
ROOT
ATOM      1  C1  BNZ d   1      -3.167   0.626   0.984  0.00  0.00     0.000 A 
ATOM      2  C2  BNZ d   1      -2.991  -0.706   1.247  0.00  0.00     0.000 A 
ATOM      3  C3  BNZ d   1      -2.009  -1.128   2.098  0.00  0.00     0.000 A 
ATOM      4  C4  BNZ d   1      -1.178  -0.222   2.653  0.00  0.00     0.000 A 
ATOM      5  C5  BNZ d   1      -1.336   1.124   2.391  0.00  0.00     0.000 A 
ATOM      6  C6  BNZ d   1      -2.352   1.548   1.564  0.00  0.00     0.000 A 
ENDROOT
TORSDOF 0
ENDMDL
