MODEL 1
REMARK minimizedAffinity 7.86103392
REMARK minimizedRMSD -1
REMARK  0 active torsions:
REMARK  status: ('A' for Active; 'I' for Inactive)
ROOT
ATOM      1  C1  BNZ d   1       2.138   5.153  -2.652  0.00  0.00     0.000 A 
ATOM      2  C2  BNZ d   1       2.887   5.528  -3.735  0.00  0.00     0.000 A 
ATOM      3  C3  BNZ d   1       3.741   4.646  -4.336  0.00  0.00     0.000 A 
ATOM      4  C4  BNZ d   1       3.873   3.403  -3.829  0.00  0.00     0.000 A 
ATOM      5  C5  BNZ d   1       3.132   3.012  -2.732  0.00  0.00     0.000 A 
ATOM      6  C6  BNZ d   1       2.245   3.891  -2.154  0.00  0.00     0.000 A 
ENDROOT
TORSDOF 0
ENDMDL
