MODEL 1
REMARK minimizedAffinity -0.198490962
REMARK minimizedRMSD -1
REMARK  0 active torsions:
REMARK  status: ('A' for Active; 'I' for Inactive)
ROOT
ATOM      1  C1  BNZ d   1      -4.437  -3.018  -0.512  0.00  0.00     0.000 A 
ATOM      2  C2  BNZ d   1      -4.693  -1.842   0.142  0.00  0.00     0.000 A 
ATOM      3  C3  BNZ d   1      -3.680  -1.124   0.712  0.00  0.00     0.000 A 
ATOM      4  C4  BNZ d   1      -2.419  -1.601   0.662  0.00  0.00     0.000 A 
ATOM      5  C5  BNZ d   1      -2.146  -2.789   0.015  0.00  0.00     0.000 A 
ATOM      6  C6  BNZ d   1      -3.163  -3.490  -0.591  0.00  0.00     0.000 A 
ENDROOT
TORSDOF 0
ENDMDL
