MODEL 1
REMARK minimizedAffinity 0.257724047
REMARK minimizedRMSD -1
REMARK  0 active torsions:
REMARK  status: ('A' for Active; 'I' for Inactive)
ROOT
ATOM      1  C1  BNZ d   1      -3.007   1.087   1.104  0.00  0.00     0.000 A 
ATOM      2  C2  BNZ d   1      -1.652   0.912   1.195  0.00  0.00     0.000 A 
ATOM      3  C3  BNZ d   1      -1.079   0.474   2.356  0.00  0.00     0.000 A 
ATOM      4  C4  BNZ d   1      -1.856   0.252   3.436  0.00  0.00     0.000 A 
ATOM      5  C5  BNZ d   1      -3.222   0.434   3.364  0.00  0.00     0.000 A 
ATOM      6  C6  BNZ d   1      -3.800   0.836   2.181  0.00  0.00     0.000 A 
ENDROOT
TORSDOF 0
ENDMDL
