MODEL 1
REMARK minimizedAffinity 3.8257513
REMARK minimizedRMSD -1
REMARK  0 active torsions:
REMARK  status: ('A' for Active; 'I' for Inactive)
ROOT
ATOM      1  C   UNL d   1       0.161  -2.258   0.214  0.00  0.00     0.078 C 
ATOM      2  C1  UNL d   1       1.584  -2.672  -0.012  0.00  0.00    -0.077 A 
ATOM      3  C2  UNL d   1       1.906  -3.990  -0.359  0.00  0.00    -0.001 A 
ATOM      4  C3  UNL d   1       3.236  -4.364  -0.556  0.00  0.00     0.003 A 
ATOM      5  C4  UNL d   1       4.256  -3.425  -0.409  0.00  0.00    -0.005 A 
ATOM      6  C5  UNL d   1       3.946  -2.112  -0.063  0.00  0.00     0.003 A 
ATOM      7  C6  UNL d   1       2.616  -1.736   0.135  0.00  0.00    -0.001 A 
ENDROOT
TORSDOF 0
ENDMDL
