MODEL 1
REMARK minimizedAffinity 0.836448729
REMARK minimizedRMSD -1
REMARK  0 active torsions:
REMARK  status: ('A' for Active; 'I' for Inactive)
ROOT
ATOM      1  C   UNL d   1       3.710  -0.798   1.989  0.00  0.00     0.078 C 
ATOM      2  C1  UNL d   1       2.243  -0.795   1.678  0.00  0.00    -0.077 A 
ATOM      3  C2  UNL d   1       1.297  -0.484   2.663  0.00  0.00    -0.001 A 
ATOM      4  C3  UNL d   1      -0.065  -0.495   2.361  0.00  0.00     0.003 A 
ATOM      5  C4  UNL d   1      -0.495  -0.817   1.076  0.00  0.00    -0.005 A 
ATOM      6  C5  UNL d   1       0.438  -1.130   0.090  0.00  0.00     0.003 A 
ATOM      7  C6  UNL d   1       1.801  -1.120   0.389  0.00  0.00    -0.001 A 
ENDROOT
TORSDOF 0
ENDMDL
