MODEL 1
REMARK minimizedAffinity -3.13783646
REMARK minimizedRMSD -1
REMARK  0 active torsions:
REMARK  status: ('A' for Active; 'I' for Inactive)
ROOT
ATOM      1  C   UNL d   1       6.000   4.842  -1.839  0.00  0.00     0.078 C 
ATOM      2  C1  UNL d   1       5.090   5.250  -0.720  0.00  0.00    -0.077 A 
ATOM      3  C2  UNL d   1       5.536   5.253   0.608  0.00  0.00    -0.001 A 
ATOM      4  C3  UNL d   1       4.675   5.626   1.641  0.00  0.00     0.003 A 
ATOM      5  C4  UNL d   1       3.362   5.997   1.358  0.00  0.00    -0.005 A 
ATOM      6  C5  UNL d   1       2.908   5.995   0.040  0.00  0.00     0.003 A 
ATOM      7  C6  UNL d   1       3.768   5.623  -0.994  0.00  0.00    -0.001 A 
ENDROOT
TORSDOF 0
ENDMDL
