MODEL 1
REMARK minimizedAffinity -3.02889442
REMARK minimizedRMSD -1
REMARK  0 active torsions:
REMARK  status: ('A' for Active; 'I' for Inactive)
ROOT
ATOM      1  C   UNL d   1       4.365   3.978  -1.893  0.00  0.00     0.078 C 
ATOM      2  C1  UNL d   1       4.587   4.684  -0.589  0.00  0.00    -0.077 A 
ATOM      3  C2  UNL d   1       5.788   5.353  -0.326  0.00  0.00    -0.001 A 
ATOM      4  C3  UNL d   1       5.985   5.998   0.896  0.00  0.00     0.003 A 
ATOM      5  C4  UNL d   1       4.985   5.979   1.866  0.00  0.00    -0.005 A 
ATOM      6  C5  UNL d   1       3.786   5.314   1.615  0.00  0.00     0.003 A 
ATOM      7  C6  UNL d   1       3.588   4.669   0.393  0.00  0.00    -0.001 A 
ENDROOT
TORSDOF 0
ENDMDL
