MODEL 1
REMARK minimizedAffinity -2.49100113
REMARK minimizedRMSD -1
REMARK  0 active torsions:
REMARK  status: ('A' for Active; 'I' for Inactive)
ROOT
ATOM      1  C   UNL d   1       2.305   0.192   1.071  0.00  0.00     0.078 C 
ATOM      2  C1  UNL d   1       1.387  -0.938   0.708  0.00  0.00    -0.077 A 
ATOM      3  C2  UNL d   1       0.009  -0.849   0.938  0.00  0.00    -0.001 A 
ATOM      4  C3  UNL d   1      -0.832  -1.911   0.605  0.00  0.00     0.003 A 
ATOM      5  C4  UNL d   1      -0.304  -3.071   0.041  0.00  0.00    -0.005 A 
ATOM      6  C5  UNL d   1       1.066  -3.170  -0.189  0.00  0.00     0.003 A 
ATOM      7  C6  UNL d   1       1.909  -2.108   0.143  0.00  0.00    -0.001 A 
ENDROOT
TORSDOF 0
ENDMDL
