MODEL 1
REMARK minimizedAffinity -0.457463413
REMARK minimizedRMSD -1
REMARK  0 active torsions:
REMARK  status: ('A' for Active; 'I' for Inactive)
ROOT
ATOM      1  C   UNL d   1       3.892  -1.387   0.108  0.00  0.00     0.078 C 
ATOM      2  C1  UNL d   1       2.474  -1.208   0.561  0.00  0.00    -0.077 A 
ATOM      3  C2  UNL d   1       2.156  -0.330   1.605  0.00  0.00    -0.001 A 
ATOM      4  C3  UNL d   1       0.832  -0.182   2.023  0.00  0.00     0.003 A 
ATOM      5  C4  UNL d   1      -0.183  -0.909   1.404  0.00  0.00    -0.005 A 
ATOM      6  C5  UNL d   1       0.125  -1.787   0.367  0.00  0.00     0.003 A 
ATOM      7  C6  UNL d   1       1.448  -1.937  -0.053  0.00  0.00    -0.001 A 
ENDROOT
TORSDOF 0
ENDMDL
