MODEL 1
REMARK minimizedAffinity -1.16104281
REMARK minimizedRMSD -1
REMARK  0 active torsions:
REMARK  status: ('A' for Active; 'I' for Inactive)
ROOT
ATOM      1  C   UNL d   1       1.936  -3.940  -0.165  0.00  0.00     0.078 C 
ATOM      2  C1  UNL d   1       1.241  -2.684   0.270  0.00  0.00    -0.077 A 
ATOM      3  C2  UNL d   1      -0.107  -2.462  -0.037  0.00  0.00    -0.001 A 
ATOM      4  C3  UNL d   1      -0.738  -1.284   0.365  0.00  0.00     0.003 A 
ATOM      5  C4  UNL d   1      -0.028  -0.318   1.075  0.00  0.00    -0.005 A 
ATOM      6  C5  UNL d   1       1.314  -0.528   1.383  0.00  0.00     0.003 A 
ATOM      7  C6  UNL d   1       1.947  -1.706   0.982  0.00  0.00    -0.001 A 
ENDROOT
TORSDOF 0
ENDMDL
