MODEL 1
REMARK minimizedAffinity -4.50711966
REMARK minimizedRMSD -1
REMARK  0 active torsions:
REMARK  status: ('A' for Active; 'I' for Inactive)
ROOT
ATOM      1  C   UNL d   1      -0.522  -0.328   1.343  0.00  0.00     0.078 C 
ATOM      2  C1  UNL d   1       0.391  -1.373   0.774  0.00  0.00    -0.077 A 
ATOM      3  C2  UNL d   1      -0.018  -2.708   0.671  0.00  0.00    -0.001 A 
ATOM      4  C3  UNL d   1       0.846  -3.672   0.148  0.00  0.00     0.003 A 
ATOM      5  C4  UNL d   1       2.124  -3.311  -0.275  0.00  0.00    -0.005 A 
ATOM      6  C5  UNL d   1       2.540  -1.985  -0.174  0.00  0.00     0.003 A 
ATOM      7  C6  UNL d   1       1.678  -1.020   0.349  0.00  0.00    -0.001 A 
ENDROOT
TORSDOF 0
ENDMDL
