MODEL 1
REMARK minimizedAffinity -3.11117458
REMARK minimizedRMSD -1
REMARK  0 active torsions:
REMARK  status: ('A' for Active; 'I' for Inactive)
ROOT
ATOM      1  C   UNL d   1      -1.153  -0.004   1.308  0.00  0.00     0.078 C 
ATOM      2  C1  UNL d   1       0.051  -0.843   0.998  0.00  0.00    -0.077 A 
ATOM      3  C2  UNL d   1       1.301  -0.255   0.770  0.00  0.00    -0.001 A 
ATOM      4  C3  UNL d   1       2.410  -1.047   0.472  0.00  0.00     0.003 A 
ATOM      5  C4  UNL d   1       2.281  -2.433   0.399  0.00  0.00    -0.005 A 
ATOM      6  C5  UNL d   1       1.041  -3.027   0.623  0.00  0.00     0.003 A 
ATOM      7  C6  UNL d   1      -0.070  -2.236   0.921  0.00  0.00    -0.001 A 
ENDROOT
TORSDOF 0
ENDMDL
