MODEL 1
REMARK minimizedAffinity 2.9666996
REMARK minimizedRMSD -1
REMARK  0 active torsions:
REMARK  status: ('A' for Active; 'I' for Inactive)
ROOT
ATOM      1  C   UNL d   1       4.384   3.629  -0.970  0.00  0.00     0.078 C 
ATOM      2  C1  UNL d   1       3.673   2.932  -2.091  0.00  0.00    -0.077 A 
ATOM      3  C2  UNL d   1       2.869   3.645  -2.990  0.00  0.00    -0.001 A 
ATOM      4  C3  UNL d   1       2.206   2.982  -4.023  0.00  0.00     0.003 A 
ATOM      5  C4  UNL d   1       2.337   1.603  -4.167  0.00  0.00    -0.005 A 
ATOM      6  C5  UNL d   1       3.132   0.884  -3.277  0.00  0.00     0.003 A 
ATOM      7  C6  UNL d   1       3.797   1.545  -2.243  0.00  0.00    -0.001 A 
ENDROOT
TORSDOF 0
ENDMDL
