MODEL 1
REMARK minimizedAffinity -0.265373319
REMARK minimizedRMSD -1
REMARK  0 active torsions:
REMARK  status: ('A' for Active; 'I' for Inactive)
ROOT
ATOM      1  C   UNL d   1       1.641  -3.647  -0.687  0.00  0.00     0.078 C 
ATOM      2  C1  UNL d   1       1.007  -2.485   0.018  0.00  0.00    -0.077 A 
ATOM      3  C2  UNL d   1      -0.374  -2.447   0.249  0.00  0.00    -0.001 A 
ATOM      4  C3  UNL d   1      -0.951  -1.355   0.897  0.00  0.00     0.003 A 
ATOM      5  C4  UNL d   1      -0.156  -0.291   1.319  0.00  0.00    -0.005 A 
ATOM      6  C5  UNL d   1       1.218  -0.318   1.091  0.00  0.00     0.003 A 
ATOM      7  C6  UNL d   1       1.798  -1.410   0.443  0.00  0.00    -0.001 A 
ENDROOT
TORSDOF 0
ENDMDL
