MODEL 1
REMARK minimizedAffinity 2.60280514
REMARK minimizedRMSD -1
REMARK  0 active torsions:
REMARK  status: ('A' for Active; 'I' for Inactive)
ROOT
ATOM      1  C   UNL d   1       1.703  -4.212   0.276  0.00  0.00     0.078 C 
ATOM      2  C1  UNL d   1       1.129  -2.871   0.620  0.00  0.00    -0.077 A 
ATOM      3  C2  UNL d   1       1.875  -1.699   0.441  0.00  0.00    -0.001 A 
ATOM      4  C3  UNL d   1       1.331  -0.458   0.775  0.00  0.00     0.003 A 
ATOM      5  C4  UNL d   1       0.039  -0.376   1.292  0.00  0.00    -0.005 A 
ATOM      6  C5  UNL d   1      -0.710  -1.537   1.476  0.00  0.00     0.003 A 
ATOM      7  C6  UNL d   1      -0.168  -2.779   1.142  0.00  0.00    -0.001 A 
ENDROOT
TORSDOF 0
ENDMDL
