MODEL 1
REMARK minimizedAffinity 3.64788604
REMARK minimizedRMSD -1
REMARK  1 active torsions:
REMARK  status: ('A' for Active; 'I' for Inactive)
REMARK    1  A    between atoms: C1_2  and  C2_3 
ROOT
ATOM      1  C2  UNL d   1      -1.138   1.690  -1.784  0.00  0.00    -0.077 A 
ATOM      2  C3  UNL d   1      -2.520   1.472  -1.879  0.00  0.00     0.002 A 
ATOM      3  C4  UNL d   1      -3.024   0.176  -2.003  0.00  0.00     0.002 A 
ATOM      4  C5  UNL d   1      -2.154  -0.912  -2.030  0.00  0.00    -0.004 A 
ATOM      5  C6  UNL d   1      -0.778  -0.706  -1.939  0.00  0.00     0.002 A 
ATOM      6  C7  UNL d   1      -0.272   0.589  -1.816  0.00  0.00     0.002 A 
ENDROOT
BRANCH   1   7
ATOM      7  C1  UNL d   1      -0.595   3.083  -1.600  0.00  0.00     0.055 C 
ATOM      8  C   UNL d   1      -0.203   3.337  -0.152  0.00  0.00     0.019 C 
ENDBRANCH   1   7
TORSDOF 1
ENDMDL
