MODEL 1
REMARK minimizedAffinity 3.08358955
REMARK minimizedRMSD -1
REMARK  1 active torsions:
REMARK  status: ('A' for Active; 'I' for Inactive)
REMARK    1  A    between atoms: C1_2  and  C2_3 
ROOT
ATOM      1  C2  UNL d   1       0.458  -4.532  -5.269  0.00  0.00    -0.077 A 
ATOM      2  C3  UNL d   1       0.032  -5.637  -4.519  0.00  0.00     0.002 A 
ATOM      3  C4  UNL d   1      -1.316  -6.000  -4.498  0.00  0.00     0.002 A 
ATOM      4  C5  UNL d   1      -2.248  -5.266  -5.230  0.00  0.00    -0.004 A 
ATOM      5  C6  UNL d   1      -1.835  -4.165  -5.978  0.00  0.00     0.002 A 
ATOM      6  C7  UNL d   1      -0.488  -3.799  -5.998  0.00  0.00     0.002 A 
ENDROOT
BRANCH   1   7
ATOM      7  C1  UNL d   1       1.918  -4.168  -5.331  0.00  0.00     0.055 C 
ATOM      8  C   UNL d   1       2.307  -3.239  -4.190  0.00  0.00     0.019 C 
ENDBRANCH   1   7
TORSDOF 1
ENDMDL
