MODEL 1
REMARK minimizedAffinity 7.42455053
REMARK minimizedRMSD -1
REMARK  1 active torsions:
REMARK  status: ('A' for Active; 'I' for Inactive)
REMARK    1  A    between atoms: C1_2  and  C2_3 
ROOT
ATOM      1  C2  UNL d   1       3.914  -2.175  -0.891  0.00  0.00    -0.077 A 
ATOM      2  C3  UNL d   1       3.373  -1.962  -2.167  0.00  0.00     0.002 A 
ATOM      3  C4  UNL d   1       4.139  -2.207  -3.308  0.00  0.00     0.002 A 
ATOM      4  C5  UNL d   1       5.447  -2.668  -3.186  0.00  0.00    -0.004 A 
ATOM      5  C6  UNL d   1       5.995  -2.881  -1.922  0.00  0.00     0.002 A 
ATOM      6  C7  UNL d   1       5.232  -2.636  -0.779  0.00  0.00     0.002 A 
ENDROOT
BRANCH   1   7
ATOM      7  C1  UNL d   1       3.074  -1.959   0.341  0.00  0.00     0.055 C 
ATOM      8  C   UNL d   1       2.642  -3.283   0.955  0.00  0.00     0.019 C 
ENDBRANCH   1   7
TORSDOF 1
ENDMDL
