MODEL 1
REMARK minimizedAffinity -0.497383028
REMARK minimizedRMSD -1
REMARK  1 active torsions:
REMARK  status: ('A' for Active; 'I' for Inactive)
REMARK    1  A    between atoms: C1_2  and  C2_3 
ROOT
ATOM      1  C2  UNL d   1       3.772  -3.125  -2.265  0.00  0.00    -0.077 A 
ATOM      2  C3  UNL d   1       2.793  -4.043  -2.667  0.00  0.00     0.002 A 
ATOM      3  C4  UNL d   1       3.099  -5.402  -2.770  0.00  0.00     0.002 A 
ATOM      4  C5  UNL d   1       4.382  -5.854  -2.470  0.00  0.00    -0.004 A 
ATOM      5  C6  UNL d   1       5.364  -4.948  -2.071  0.00  0.00     0.002 A 
ATOM      6  C7  UNL d   1       5.060  -3.589  -1.968  0.00  0.00     0.002 A 
ENDROOT
BRANCH   1   7
ATOM      7  C1  UNL d   1       3.431  -1.666  -2.105  0.00  0.00     0.055 C 
ATOM      8  C   UNL d   1       2.726  -1.404  -0.782  0.00  0.00     0.019 C 
ENDBRANCH   1   7
TORSDOF 1
ENDMDL
