MODEL 1
REMARK minimizedAffinity 28.7768116
REMARK minimizedRMSD -1
REMARK  0 active torsions:
REMARK  status: ('A' for Active; 'I' for Inactive)
ROOT
ATOM      1  C   UNL d   1      -1.940   0.263   2.117  0.00  0.00     0.124 A 
ATOM      2  C1  UNL d   1      -3.063   0.274   2.933  0.00  0.00     0.062 A 
ATOM      3  C2  UNL d   1      -4.223  -0.384   2.536  0.00  0.00     0.162 A 
ATOM      4  C3  UNL d   1      -4.267  -1.060   1.316  0.00  0.00    -0.034 A 
ATOM      5  C4  UNL d   1      -3.134  -1.065   0.500  0.00  0.00     0.162 A 
ATOM      6  C5  UNL d   1      -1.976  -0.406   0.902  0.00  0.00     0.062 A 
ATOM      7  F   UNL d   1      -0.893  -0.417   0.112  0.00  0.00    -0.097 F 
ATOM      8  F1  UNL d   1      -3.141  -1.705  -0.679  0.00  0.00    -0.096 F 
ATOM      9  I   UNL d   1      -6.000  -2.045   0.718  0.00  0.00    -0.060 I 
ATOM     10  F2  UNL d   1      -5.293  -0.357   3.344  0.00  0.00    -0.096 F 
ATOM     11  F3  UNL d   1      -3.030   0.920   4.107  0.00  0.00    -0.097 F 
ATOM     12  F4  UNL d   1      -0.825   0.898   2.501  0.00  0.00    -0.092 F 
ENDROOT
TORSDOF 0
ENDMDL
