MODEL 1
REMARK minimizedAffinity 40.2646179
REMARK minimizedRMSD -1
REMARK  0 active torsions:
REMARK  status: ('A' for Active; 'I' for Inactive)
ROOT
ATOM      1  C   UNL d   1       0.983  -3.010  -2.968  0.00  0.00     0.124 A 
ATOM      2  C1  UNL d   1      -0.071  -3.867  -2.682  0.00  0.00     0.062 A 
ATOM      3  C2  UNL d   1      -1.112  -3.446  -1.860  0.00  0.00     0.162 A 
ATOM      4  C3  UNL d   1      -1.105  -2.161  -1.318  0.00  0.00    -0.034 A 
ATOM      5  C4  UNL d   1      -0.041  -1.305  -1.609  0.00  0.00     0.162 A 
ATOM      6  C5  UNL d   1       0.997  -1.731  -2.431  0.00  0.00     0.062 A 
ATOM      7  F   UNL d   1       2.015  -0.902  -2.706  0.00  0.00    -0.097 F 
ATOM      8  F1  UNL d   1      -0.003  -0.063  -1.105  0.00  0.00    -0.096 F 
ATOM      9  I   UNL d   1      -2.660  -1.527  -0.089  0.00  0.00    -0.060 I 
ATOM     10  F2  UNL d   1      -2.118  -4.295  -1.601  0.00  0.00    -0.096 F 
ATOM     11  F3  UNL d   1      -0.086  -5.104  -3.199  0.00  0.00    -0.097 F 
ATOM     12  F4  UNL d   1       1.984  -3.419  -3.758  0.00  0.00    -0.092 F 
ENDROOT
TORSDOF 0
ENDMDL
