MODEL 1
REMARK minimizedAffinity 21.2197704
REMARK minimizedRMSD -1
REMARK  0 active torsions:
REMARK  status: ('A' for Active; 'I' for Inactive)
ROOT
ATOM      1  C   UNL d   1       0.633  -0.725  -3.401  0.00  0.00     0.124 A 
ATOM      2  C1  UNL d   1       1.221  -1.923  -3.020  0.00  0.00     0.062 A 
ATOM      3  C2  UNL d   1       2.073  -1.966  -1.920  0.00  0.00     0.162 A 
ATOM      4  C3  UNL d   1       2.343  -0.806  -1.193  0.00  0.00    -0.034 A 
ATOM      5  C4  UNL d   1       1.749   0.395  -1.584  0.00  0.00     0.162 A 
ATOM      6  C5  UNL d   1       0.897   0.432  -2.683  0.00  0.00     0.062 A 
ATOM      7  F   UNL d   1       0.331   1.591  -3.050  0.00  0.00    -0.097 F 
ATOM      8  F1  UNL d   1       1.986   1.529  -0.907  0.00  0.00    -0.096 F 
ATOM      9  I   UNL d   1       3.617  -0.866   0.451  0.00  0.00    -0.060 I 
ATOM     10  F2  UNL d   1       2.627  -3.137  -1.574  0.00  0.00    -0.096 F 
ATOM     11  F3  UNL d   1       0.968  -3.043  -3.712  0.00  0.00    -0.097 F 
ATOM     12  F4  UNL d   1      -0.186  -0.687  -4.460  0.00  0.00    -0.092 F 
ENDROOT
TORSDOF 0
ENDMDL
