MODEL 1
REMARK minimizedAffinity 23.8963661
REMARK minimizedRMSD -1
REMARK  0 active torsions:
REMARK  status: ('A' for Active; 'I' for Inactive)
ROOT
ATOM      1  C   UNL d   1      -0.676   4.884  -0.469  0.00  0.00     0.124 A 
ATOM      2  C1  UNL d   1       0.706   4.887  -0.348  0.00  0.00     0.062 A 
ATOM      3  C2  UNL d   1       1.437   3.738  -0.640  0.00  0.00     0.162 A 
ATOM      4  C3  UNL d   1       0.786   2.577  -1.057  0.00  0.00    -0.034 A 
ATOM      5  C4  UNL d   1      -0.605   2.582  -1.176  0.00  0.00     0.162 A 
ATOM      6  C5  UNL d   1      -1.331   3.732  -0.883  0.00  0.00     0.062 A 
ATOM      7  F   UNL d   1      -2.666   3.728  -1.000  0.00  0.00    -0.097 F 
ATOM      8  F1  UNL d   1      -1.263   1.483  -1.574  0.00  0.00    -0.096 F 
ATOM      9  I   UNL d   1       1.875   0.858  -1.495  0.00  0.00    -0.060 I 
ATOM     10  F2  UNL d   1       2.772   3.770  -0.515  0.00  0.00    -0.096 F 
ATOM     11  F3  UNL d   1       1.341   5.998   0.052  0.00  0.00    -0.097 F 
ATOM     12  F4  UNL d   1      -1.377   5.990  -0.186  0.00  0.00    -0.092 F 
ENDROOT
TORSDOF 0
ENDMDL
