MODEL 1
REMARK minimizedAffinity 29.8155785
REMARK minimizedRMSD -1
REMARK  0 active torsions:
REMARK  status: ('A' for Active; 'I' for Inactive)
ROOT
ATOM      1  C   UNL d   1      -3.679  -1.645  -0.450  0.00  0.00     0.124 A 
ATOM      2  C1  UNL d   1      -4.852  -1.609   0.292  0.00  0.00     0.062 A 
ATOM      3  C2  UNL d   1      -4.852  -1.070   1.576  0.00  0.00     0.162 A 
ATOM      4  C3  UNL d   1      -3.675  -0.562   2.126  0.00  0.00    -0.034 A 
ATOM      5  C4  UNL d   1      -2.500  -0.603   1.374  0.00  0.00     0.162 A 
ATOM      6  C5  UNL d   1      -2.504  -1.143   0.092  0.00  0.00     0.062 A 
ATOM      7  F   UNL d   1      -1.370  -1.177  -0.623  0.00  0.00    -0.097 F 
ATOM      8  F1  UNL d   1      -1.350  -0.124   1.873  0.00  0.00    -0.096 F 
ATOM      9  I   UNL d   1      -3.671   0.244   4.045  0.00  0.00    -0.060 I 
ATOM     10  F2  UNL d   1      -6.000  -1.048   2.269  0.00  0.00    -0.096 F 
ATOM     11  F3  UNL d   1      -5.988  -2.095  -0.229  0.00  0.00    -0.097 F 
ATOM     12  F4  UNL d   1      -3.682  -2.165  -1.684  0.00  0.00    -0.092 F 
ENDROOT
TORSDOF 0
ENDMDL
