MODEL 1
REMARK minimizedAffinity 25.2090092
REMARK minimizedRMSD -1
REMARK  0 active torsions:
REMARK  status: ('A' for Active; 'I' for Inactive)
ROOT
ATOM      1  C   UNL d   1       2.650   5.151  -1.094  0.00  0.00     0.124 A 
ATOM      2  C1  UNL d   1       3.957   4.704  -0.960  0.00  0.00     0.062 A 
ATOM      3  C2  UNL d   1       4.560   4.670   0.294  0.00  0.00     0.162 A 
ATOM      4  C3  UNL d   1       3.857   5.086   1.425  0.00  0.00    -0.034 A 
ATOM      5  C4  UNL d   1       2.543   5.536   1.282  0.00  0.00     0.162 A 
ATOM      6  C5  UNL d   1       1.945   5.567   0.026  0.00  0.00     0.062 A 
ATOM      7  F   UNL d   1       0.682   6.000  -0.102  0.00  0.00    -0.097 F 
ATOM      8  F1  UNL d   1       1.837   5.942   2.348  0.00  0.00    -0.096 F 
ATOM      9  I   UNL d   1       4.755   5.038   3.302  0.00  0.00    -0.060 I 
ATOM     10  F2  UNL d   1       5.824   4.233   0.395  0.00  0.00    -0.096 F 
ATOM     11  F3  UNL d   1       4.642   4.303  -2.041  0.00  0.00    -0.097 F 
ATOM     12  F4  UNL d   1       2.073   5.183  -2.302  0.00  0.00    -0.092 F 
ENDROOT
TORSDOF 0
ENDMDL
