MODEL 1
REMARK minimizedAffinity 31.4541283
REMARK minimizedRMSD -1
REMARK  0 active torsions:
REMARK  status: ('A' for Active; 'I' for Inactive)
ROOT
ATOM      1  C   UNL d   1       2.429   4.102  -0.797  0.00  0.00     0.124 A 
ATOM      2  C1  UNL d   1       2.101   2.837  -1.264  0.00  0.00     0.062 A 
ATOM      3  C2  UNL d   1       3.088   2.006  -1.787  0.00  0.00     0.162 A 
ATOM      4  C3  UNL d   1       4.413   2.437  -1.844  0.00  0.00    -0.034 A 
ATOM      5  C4  UNL d   1       4.735   3.711  -1.374  0.00  0.00     0.162 A 
ATOM      6  C5  UNL d   1       3.746   4.538  -0.852  0.00  0.00     0.062 A 
ATOM      7  F   UNL d   1       4.065   5.760  -0.401  0.00  0.00    -0.097 F 
ATOM      8  F1  UNL d   1       6.000   4.157  -1.414  0.00  0.00    -0.096 F 
ATOM      9  I   UNL d   1       5.891   1.197  -2.625  0.00  0.00    -0.060 I 
ATOM     10  F2  UNL d   1       2.742   0.788  -2.231  0.00  0.00    -0.096 F 
ATOM     11  F3  UNL d   1       0.830   2.414  -1.212  0.00  0.00    -0.097 F 
ATOM     12  F4  UNL d   1       1.478   4.900  -0.295  0.00  0.00    -0.092 F 
ENDROOT
TORSDOF 0
ENDMDL
