MODEL 1
REMARK minimizedAffinity 8.74810886
REMARK minimizedRMSD -1
REMARK  0 active torsions:
REMARK  status: ('A' for Active; 'I' for Inactive)
ROOT
ATOM      1  C   UNL d   1       2.550   5.629  -1.352  0.00  0.00     0.124 A 
ATOM      2  C1  UNL d   1       1.934   5.756  -0.115  0.00  0.00     0.062 A 
ATOM      3  C2  UNL d   1       2.679   5.630   1.054  0.00  0.00     0.162 A 
ATOM      4  C3  UNL d   1       4.049   5.376   0.992  0.00  0.00    -0.034 A 
ATOM      5  C4  UNL d   1       4.662   5.249  -0.256  0.00  0.00     0.162 A 
ATOM      6  C5  UNL d   1       3.913   5.376  -1.422  0.00  0.00     0.062 A 
ATOM      7  F   UNL d   1       4.510   5.254  -2.616  0.00  0.00    -0.097 F 
ATOM      8  F1  UNL d   1       5.977   5.006  -0.353  0.00  0.00    -0.096 F 
ATOM      9  I   UNL d   1       5.166   5.187   2.737  0.00  0.00    -0.060 I 
ATOM     10  F2  UNL d   1       2.057   5.756   2.236  0.00  0.00    -0.096 F 
ATOM     11  F3  UNL d   1       0.617   5.999  -0.045  0.00  0.00    -0.097 F 
ATOM     12  F4  UNL d   1       1.831   5.750  -2.475  0.00  0.00    -0.092 F 
ENDROOT
TORSDOF 0
ENDMDL
