MODEL 1
REMARK minimizedAffinity 29.3967342
REMARK minimizedRMSD -1
REMARK  0 active torsions:
REMARK  status: ('A' for Active; 'I' for Inactive)
ROOT
ATOM      1  C   UNL d   1      -2.549  -0.808   1.420  0.00  0.00     0.124 A 
ATOM      2  C1  UNL d   1      -2.275  -0.043   2.546  0.00  0.00     0.062 A 
ATOM      3  C2  UNL d   1      -3.259   0.160   3.510  0.00  0.00     0.162 A 
ATOM      4  C3  UNL d   1      -4.525  -0.404   3.353  0.00  0.00    -0.034 A 
ATOM      5  C4  UNL d   1      -4.793  -1.171   2.217  0.00  0.00     0.162 A 
ATOM      6  C5  UNL d   1      -3.806  -1.370   1.257  0.00  0.00     0.062 A 
ATOM      7  F   UNL d   1      -4.072  -2.109   0.170  0.00  0.00    -0.097 F 
ATOM      8  F1  UNL d   1      -5.999  -1.727   2.035  0.00  0.00    -0.096 F 
ATOM      9  I   UNL d   1      -5.998  -0.103   4.792  0.00  0.00    -0.060 I 
ATOM     10  F2  UNL d   1      -2.967   0.903   4.588  0.00  0.00    -0.096 F 
ATOM     11  F3  UNL d   1      -1.061   0.503   2.706  0.00  0.00    -0.097 F 
ATOM     12  F4  UNL d   1      -1.601  -1.000   0.494  0.00  0.00    -0.092 F 
ENDROOT
TORSDOF 0
ENDMDL
