MODEL 1
REMARK minimizedAffinity 36.1850548
REMARK minimizedRMSD -1
REMARK  0 active torsions:
REMARK  status: ('A' for Active; 'I' for Inactive)
ROOT
ATOM      1  C   UNL d   1       0.286  -0.692  -3.308  0.00  0.00     0.124 A 
ATOM      2  C1  UNL d   1       0.706   0.493  -2.720  0.00  0.00     0.062 A 
ATOM      3  C2  UNL d   1       1.622   0.468  -1.672  0.00  0.00     0.162 A 
ATOM      4  C3  UNL d   1       2.125  -0.747  -1.206  0.00  0.00    -0.034 A 
ATOM      5  C4  UNL d   1       1.696  -1.934  -1.802  0.00  0.00     0.162 A 
ATOM      6  C5  UNL d   1       0.781  -1.904  -2.849  0.00  0.00     0.062 A 
ATOM      7  F   UNL d   1       0.376  -3.050  -3.416  0.00  0.00    -0.097 F 
ATOM      8  F1  UNL d   1       2.159  -3.120  -1.378  0.00  0.00    -0.096 F 
ATOM      9  I   UNL d   1       3.494  -0.789   0.361  0.00  0.00    -0.060 I 
ATOM     10  F2  UNL d   1       2.011   1.628  -1.123  0.00  0.00    -0.096 F 
ATOM     11  F3  UNL d   1       0.229   1.666  -3.162  0.00  0.00    -0.097 F 
ATOM     12  F4  UNL d   1      -0.596  -0.665  -4.316  0.00  0.00    -0.092 F 
ENDROOT
TORSDOF 0
ENDMDL
