MODEL 1
REMARK minimizedAffinity 24.0124474
REMARK minimizedRMSD -1
REMARK  0 active torsions:
REMARK  status: ('A' for Active; 'I' for Inactive)
ROOT
ATOM      1  C   UNL d   1       1.597   2.277  -3.708  0.00  0.00     0.124 A 
ATOM      2  C1  UNL d   1       0.688   1.727  -2.815  0.00  0.00     0.062 A 
ATOM      3  C2  UNL d   1       1.048   0.631  -2.036  0.00  0.00     0.162 A 
ATOM      4  C3  UNL d   1       2.324   0.078  -2.145  0.00  0.00    -0.034 A 
ATOM      5  C4  UNL d   1       3.233   0.637  -3.046  0.00  0.00     0.162 A 
ATOM      6  C5  UNL d   1       2.868   1.732  -3.823  0.00  0.00     0.062 A 
ATOM      7  F   UNL d   1       3.748   2.262  -4.685  0.00  0.00    -0.097 F 
ATOM      8  F1  UNL d   1       4.468   0.130  -3.176  0.00  0.00    -0.096 F 
ATOM      9  I   UNL d   1       2.866  -1.560  -0.982  0.00  0.00    -0.060 I 
ATOM     10  F2  UNL d   1       0.149   0.120  -1.181  0.00  0.00    -0.096 F 
ATOM     11  F3  UNL d   1      -0.541   2.251  -2.703  0.00  0.00    -0.097 F 
ATOM     12  F4  UNL d   1       1.248   3.331  -4.457  0.00  0.00    -0.092 F 
ENDROOT
TORSDOF 0
ENDMDL
