MODEL 1
REMARK minimizedAffinity 15.3235188
REMARK minimizedRMSD -1
REMARK  0 active torsions:
REMARK  status: ('A' for Active; 'I' for Inactive)
ROOT
ATOM      1  C   UNL d   1       1.505   1.986  -2.343  0.00  0.00     0.124 A 
ATOM      2  C1  UNL d   1       0.749   1.785  -3.489  0.00  0.00     0.062 A 
ATOM      3  C2  UNL d   1       0.473   0.494  -3.928  0.00  0.00     0.162 A 
ATOM      4  C3  UNL d   1       0.952  -0.608  -3.220  0.00  0.00    -0.034 A 
ATOM      5  C4  UNL d   1       1.713  -0.398  -2.068  0.00  0.00     0.162 A 
ATOM      6  C5  UNL d   1       1.986   0.894  -1.633  0.00  0.00     0.062 A 
ATOM      7  F   UNL d   1       2.717   1.086  -0.526  0.00  0.00    -0.097 F 
ATOM      8  F1  UNL d   1       2.189  -1.435  -1.363  0.00  0.00    -0.096 F 
ATOM      9  I   UNL d   1       0.541  -2.541  -3.873  0.00  0.00    -0.060 I 
ATOM     10  F2  UNL d   1      -0.261   0.329  -5.039  0.00  0.00    -0.096 F 
ATOM     11  F3  UNL d   1       0.284   2.838  -4.177  0.00  0.00    -0.097 F 
ATOM     12  F4  UNL d   1       1.771   3.230  -1.923  0.00  0.00    -0.092 F 
ENDROOT
TORSDOF 0
ENDMDL
