MODEL 1
REMARK minimizedAffinity 12.7942829
REMARK minimizedRMSD -1
REMARK  0 active torsions:
REMARK  status: ('A' for Active; 'I' for Inactive)
ROOT
ATOM      1  C   UNL d   1       3.368  -1.606   3.528  0.00  0.00     0.124 A 
ATOM      2  C1  UNL d   1       3.026  -2.922   3.250  0.00  0.00     0.062 A 
ATOM      3  C2  UNL d   1       3.679  -3.966   3.899  0.00  0.00     0.162 A 
ATOM      4  C3  UNL d   1       4.679  -3.698   4.834  0.00  0.00    -0.034 A 
ATOM      5  C4  UNL d   1       5.018  -2.372   5.107  0.00  0.00     0.162 A 
ATOM      6  C5  UNL d   1       4.363  -1.332   4.456  0.00  0.00     0.062 A 
ATOM      7  F   UNL d   1       4.694  -0.061   4.725  0.00  0.00    -0.097 F 
ATOM      8  F1  UNL d   1       5.975  -2.079   6.000  0.00  0.00    -0.096 F 
ATOM      9  I   UNL d   1       5.657  -5.257   5.806  0.00  0.00    -0.060 I 
ATOM     10  F2  UNL d   1       3.328  -5.229   3.612  0.00  0.00    -0.096 F 
ATOM     11  F3  UNL d   1       2.066  -3.189   2.354  0.00  0.00    -0.097 F 
ATOM     12  F4  UNL d   1       2.739  -0.603   2.901  0.00  0.00    -0.092 F 
ENDROOT
TORSDOF 0
ENDMDL
