MODEL 1
REMARK minimizedAffinity 27.198698
REMARK minimizedRMSD -1
REMARK  0 active torsions:
REMARK  status: ('A' for Active; 'I' for Inactive)
ROOT
ATOM      1  C   UNL d   1       3.331  -1.638   3.703  0.00  0.00     0.124 A 
ATOM      2  C1  UNL d   1       4.408  -1.517   4.571  0.00  0.00     0.062 A 
ATOM      3  C2  UNL d   1       4.959  -2.648   5.165  0.00  0.00     0.162 A 
ATOM      4  C3  UNL d   1       4.434  -3.912   4.894  0.00  0.00    -0.034 A 
ATOM      5  C4  UNL d   1       3.351  -4.026   4.021  0.00  0.00     0.162 A 
ATOM      6  C5  UNL d   1       2.804  -2.892   3.429  0.00  0.00     0.062 A 
ATOM      7  F   UNL d   1       1.763  -3.011   2.591  0.00  0.00    -0.097 F 
ATOM      8  F1  UNL d   1       2.822  -5.225   3.738  0.00  0.00    -0.096 F 
ATOM      9  I   UNL d   1       5.255  -5.606   5.781  0.00  0.00    -0.060 I 
ATOM     10  F2  UNL d   1       5.999  -2.501   5.999  0.00  0.00    -0.096 F 
ATOM     11  F3  UNL d   1       4.919  -0.306   4.838  0.00  0.00    -0.097 F 
ATOM     12  F4  UNL d   1       2.802  -0.547   3.133  0.00  0.00    -0.092 F 
ENDROOT
TORSDOF 0
ENDMDL
