MODEL 1
REMARK minimizedAffinity 36.5569611
REMARK minimizedRMSD -1
REMARK  0 active torsions:
REMARK  status: ('A' for Active; 'I' for Inactive)
ROOT
ATOM      1  C   UNL d   1       4.396  -0.019   3.727  0.00  0.00     0.124 A 
ATOM      2  C1  UNL d   1       5.183  -0.557   4.736  0.00  0.00     0.062 A 
ATOM      3  C2  UNL d   1       5.127  -1.919   5.017  0.00  0.00     0.162 A 
ATOM      4  C3  UNL d   1       4.281  -2.753   4.286  0.00  0.00    -0.034 A 
ATOM      5  C4  UNL d   1       3.492  -2.205   3.274  0.00  0.00     0.162 A 
ATOM      6  C5  UNL d   1       3.552  -0.843   2.997  0.00  0.00     0.062 A 
ATOM      7  F   UNL d   1       2.791  -0.325   2.022  0.00  0.00    -0.097 F 
ATOM      8  F1  UNL d   1       2.668  -2.979   2.552  0.00  0.00    -0.096 F 
ATOM      9  I   UNL d   1       4.194  -4.791   4.703  0.00  0.00    -0.060 I 
ATOM     10  F2  UNL d   1       5.898  -2.411   5.997  0.00  0.00    -0.096 F 
ATOM     11  F3  UNL d   1       5.999   0.238   5.444  0.00  0.00    -0.097 F 
ATOM     12  F4  UNL d   1       4.452   1.292   3.460  0.00  0.00    -0.092 F 
ENDROOT
TORSDOF 0
ENDMDL
