MODEL 1
REMARK minimizedAffinity 18.0486813
REMARK minimizedRMSD -1
REMARK  0 active torsions:
REMARK  status: ('A' for Active; 'I' for Inactive)
ROOT
ATOM      1  C   UNL d   1       1.626   3.917  -2.130  0.00  0.00     0.124 A 
ATOM      2  C1  UNL d   1       2.127   3.211  -1.046  0.00  0.00     0.062 A 
ATOM      3  C2  UNL d   1       1.935   1.835  -0.958  0.00  0.00     0.162 A 
ATOM      4  C3  UNL d   1       1.240   1.156  -1.959  0.00  0.00    -0.034 A 
ATOM      5  C4  UNL d   1       0.738   1.874  -3.046  0.00  0.00     0.162 A 
ATOM      6  C5  UNL d   1       0.932   3.249  -3.129  0.00  0.00     0.062 A 
ATOM      7  F   UNL d   1       0.447   3.930  -4.177  0.00  0.00    -0.097 F 
ATOM      8  F1  UNL d   1       0.065   1.252  -4.026  0.00  0.00    -0.096 F 
ATOM      9  I   UNL d   1       0.952  -0.901  -1.831  0.00  0.00    -0.060 I 
ATOM     10  F2  UNL d   1       2.431   1.178   0.101  0.00  0.00    -0.096 F 
ATOM     11  F3  UNL d   1       2.797   3.855  -0.079  0.00  0.00    -0.097 F 
ATOM     12  F4  UNL d   1       1.811   5.241  -2.212  0.00  0.00    -0.092 F 
ENDROOT
TORSDOF 0
ENDMDL
