MODEL 1
REMARK minimizedAffinity 7.51254797
REMARK minimizedRMSD -1
REMARK  0 active torsions:
REMARK  status: ('A' for Active; 'I' for Inactive)
ROOT
ATOM      1  C   UNL d   1       1.121   0.442  -1.574  0.00  0.00     0.124 A 
ATOM      2  C1  UNL d   1       0.424  -0.746  -1.744  0.00  0.00     0.062 A 
ATOM      3  C2  UNL d   1      -0.931  -0.814  -1.431  0.00  0.00     0.162 A 
ATOM      4  C3  UNL d   1      -1.598   0.311  -0.945  0.00  0.00    -0.034 A 
ATOM      5  C4  UNL d   1      -0.890   1.502  -0.776  0.00  0.00     0.162 A 
ATOM      6  C5  UNL d   1       0.464   1.565  -1.090  0.00  0.00     0.062 A 
ATOM      7  F   UNL d   1       1.136   2.713  -0.925  0.00  0.00    -0.097 F 
ATOM      8  F1  UNL d   1      -1.500   2.602  -0.311  0.00  0.00    -0.096 F 
ATOM      9  I   UNL d   1      -3.623   0.214  -0.476  0.00  0.00    -0.060 I 
ATOM     10  F2  UNL d   1      -1.579  -1.975  -1.606  0.00  0.00    -0.096 F 
ATOM     11  F3  UNL d   1       1.057  -1.832  -2.211  0.00  0.00    -0.097 F 
ATOM     12  F4  UNL d   1       2.425   0.505  -1.875  0.00  0.00    -0.092 F 
ENDROOT
TORSDOF 0
ENDMDL
