MODEL 1
REMARK minimizedAffinity -2.62905169
REMARK minimizedRMSD -1
REMARK  0 active torsions:
REMARK  status: ('A' for Active; 'I' for Inactive)
ROOT
ATOM      1  C   UNL d   1      -0.092   1.001   1.078  0.00  0.00     0.020 A 
ATOM      2  C1  UNL d   1      -0.148   0.907   2.468  0.00  0.00     0.020 A 
ATOM      3  C2  UNL d   1      -1.181   0.192   3.078  0.00  0.00     0.034 A 
ATOM      4  C3  UNL d   1      -2.162  -0.432   2.298  0.00  0.00     0.017 A 
ATOM      5  C4  UNL d   1      -2.104  -0.337   0.903  0.00  0.00     0.017 A 
ATOM      6  C5  UNL d   1      -1.068   0.380   0.297  0.00  0.00     0.034 A 
ATOM      7 Cl   UNL d   1      -3.278  -1.080  -0.126  0.00  0.00    -0.070 Cl
ATOM      8 Cl1  UNL d   1      -3.410  -1.300   3.119  0.00  0.00    -0.070 Cl
ENDROOT
TORSDOF 0
ENDMDL
