MODEL 1
REMARK minimizedAffinity -1.55314469
REMARK minimizedRMSD -1
REMARK  0 active torsions:
REMARK  status: ('A' for Active; 'I' for Inactive)
ROOT
ATOM      1  C   UNL d   1      -0.923  -0.303  -0.679  0.00  0.00     0.020 A 
ATOM      2  C1  UNL d   1       0.350  -0.814  -0.931  0.00  0.00     0.020 A 
ATOM      3  C2  UNL d   1       1.385  -0.588  -0.020  0.00  0.00     0.034 A 
ATOM      4  C3  UNL d   1       1.149   0.150   1.145  0.00  0.00     0.017 A 
ATOM      5  C4  UNL d   1      -0.129   0.662   1.396  0.00  0.00     0.017 A 
ATOM      6  C5  UNL d   1      -1.162   0.434   0.482  0.00  0.00     0.034 A 
ATOM      7 Cl   UNL d   1      -0.497   1.583   2.812  0.00  0.00    -0.070 Cl
ATOM      8 Cl1  UNL d   1       2.475   0.390   2.227  0.00  0.00    -0.070 Cl
ENDROOT
TORSDOF 0
ENDMDL
