MODEL 1
REMARK minimizedAffinity -1.6917547
REMARK minimizedRMSD -1
REMARK  0 active torsions:
REMARK  status: ('A' for Active; 'I' for Inactive)
ROOT
ATOM      1  C   UNL d   1      -0.808  -0.218  -0.997  0.00  0.00     0.020 A 
ATOM      2  C1  UNL d   1       0.445  -0.776  -1.248  0.00  0.00     0.020 A 
ATOM      3  C2  UNL d   1       1.454  -0.686  -0.288  0.00  0.00     0.034 A 
ATOM      4  C3  UNL d   1       1.212  -0.037   0.929  0.00  0.00     0.017 A 
ATOM      5  C4  UNL d   1      -0.045   0.523   1.180  0.00  0.00     0.017 A 
ATOM      6  C5  UNL d   1      -1.053   0.430   0.214  0.00  0.00     0.034 A 
ATOM      7 Cl   UNL d   1      -0.419   1.340   2.657  0.00  0.00    -0.070 Cl
ATOM      8 Cl1  UNL d   1       2.507   0.036   2.071  0.00  0.00    -0.070 Cl
ENDROOT
TORSDOF 0
ENDMDL
