MODEL 1
REMARK minimizedAffinity -2.24640083
REMARK minimizedRMSD -1
REMARK  0 active torsions:
REMARK  status: ('A' for Active; 'I' for Inactive)
ROOT
ATOM      1  C   UNL d   1      -1.393   0.698   2.373  0.00  0.00     0.020 A 
ATOM      2  C1  UNL d   1      -0.120   1.183   2.076  0.00  0.00     0.020 A 
ATOM      3  C2  UNL d   1       0.469   0.889   0.845  0.00  0.00     0.034 A 
ATOM      4  C3  UNL d   1      -0.214   0.107  -0.094  0.00  0.00     0.017 A 
ATOM      5  C4  UNL d   1      -1.492  -0.380   0.206  0.00  0.00     0.017 A 
ATOM      6  C5  UNL d   1      -2.077  -0.081   1.440  0.00  0.00     0.034 A 
ATOM      7 Cl   UNL d   1      -2.397  -1.351  -0.901  0.00  0.00    -0.070 Cl
ATOM      8 Cl1  UNL d   1       0.575  -0.218  -1.596  0.00  0.00    -0.070 Cl
ENDROOT
TORSDOF 0
ENDMDL
