MODEL 1
REMARK minimizedAffinity -3.13226867
REMARK minimizedRMSD -1
REMARK  0 active torsions:
REMARK  status: ('A' for Active; 'I' for Inactive)
ROOT
ATOM      1  C   UNL d   1       0.048   2.043   2.693  0.00  0.00     0.020 A 
ATOM      2  C1  UNL d   1       0.466   1.882   1.373  0.00  0.00     0.020 A 
ATOM      3  C2  UNL d   1      -0.183   0.966   0.541  0.00  0.00     0.034 A 
ATOM      4  C3  UNL d   1      -1.253   0.208   1.029  0.00  0.00     0.017 A 
ATOM      5  C4  UNL d   1      -1.672   0.370   2.355  0.00  0.00     0.017 A 
ATOM      6  C5  UNL d   1      -1.019   1.288   3.183  0.00  0.00     0.034 A 
ATOM      7 Cl   UNL d   1      -2.985  -0.530   3.028  0.00  0.00    -0.070 Cl
ATOM      8 Cl1  UNL d   1      -2.009  -0.905  -0.055  0.00  0.00    -0.070 Cl
ENDROOT
TORSDOF 0
ENDMDL
