MODEL 1
REMARK minimizedAffinity -4.00334597
REMARK minimizedRMSD -1
REMARK  0 active torsions:
REMARK  status: ('A' for Active; 'I' for Inactive)
ROOT
ATOM      1  C   UNL d   1      -1.650   0.395   2.489  0.00  0.00     0.020 A 
ATOM      2  C1  UNL d   1      -0.332   0.748   2.202  0.00  0.00     0.020 A 
ATOM      3  C2  UNL d   1       0.184   0.538   0.921  0.00  0.00     0.034 A 
ATOM      4  C3  UNL d   1      -0.619  -0.027  -0.077  0.00  0.00     0.017 A 
ATOM      5  C4  UNL d   1      -1.941  -0.381   0.212  0.00  0.00     0.017 A 
ATOM      6  C5  UNL d   1      -2.453  -0.169   1.496  0.00  0.00     0.034 A 
ATOM      7 Cl   UNL d   1      -2.992  -1.082  -0.967  0.00  0.00    -0.070 Cl
ATOM      8 Cl1  UNL d   1       0.085  -0.258  -1.638  0.00  0.00    -0.070 Cl
ENDROOT
TORSDOF 0
ENDMDL
