MODEL 1
REMARK minimizedAffinity 0.503592372
REMARK minimizedRMSD -1
REMARK  0 active torsions:
REMARK  status: ('A' for Active; 'I' for Inactive)
ROOT
ATOM      1  C   UNL d   1      -1.425  -0.046   2.390  0.00  0.00     0.020 A 
ATOM      2  C1  UNL d   1      -2.119   0.365   1.253  0.00  0.00     0.020 A 
ATOM      3  C2  UNL d   1      -1.520   0.267  -0.004  0.00  0.00     0.034 A 
ATOM      4  C3  UNL d   1      -0.223  -0.244  -0.128  0.00  0.00     0.017 A 
ATOM      5  C4  UNL d   1       0.474  -0.657   1.014  0.00  0.00     0.017 A 
ATOM      6  C5  UNL d   1      -0.131  -0.556   2.270  0.00  0.00     0.034 A 
ATOM      7 Cl   UNL d   1       2.077  -1.298   0.940  0.00  0.00    -0.070 Cl
ATOM      8 Cl1  UNL d   1       0.456  -0.337  -1.714  0.00  0.00    -0.070 Cl
ENDROOT
TORSDOF 0
ENDMDL
