MODEL 1
REMARK minimizedAffinity -2.26532149
REMARK minimizedRMSD -1
REMARK  0 active torsions:
REMARK  status: ('A' for Active; 'I' for Inactive)
ROOT
ATOM      1  C   UNL d   1      -1.471   0.704   1.739  0.00  0.00     0.020 A 
ATOM      2  C1  UNL d   1      -0.685   0.754   2.890  0.00  0.00     0.020 A 
ATOM      3  C2  UNL d   1       0.589   0.181   2.890  0.00  0.00     0.034 A 
ATOM      4  C3  UNL d   1       1.080  -0.445   1.739  0.00  0.00     0.017 A 
ATOM      5  C4  UNL d   1       0.289  -0.495   0.585  0.00  0.00     0.017 A 
ATOM      6  C5  UNL d   1      -0.985   0.081   0.589  0.00  0.00     0.034 A 
ATOM      7 Cl   UNL d   1       0.826  -1.250  -0.875  0.00  0.00    -0.070 Cl
ATOM      8 Cl1  UNL d   1       2.663  -1.132   1.810  0.00  0.00    -0.070 Cl
ENDROOT
TORSDOF 0
ENDMDL
