MODEL 1
REMARK minimizedAffinity -2.17458415
REMARK minimizedRMSD -1
REMARK  0 active torsions:
REMARK  status: ('A' for Active; 'I' for Inactive)
ROOT
ATOM      1  C   UNL d   1       1.924  -0.793   0.163  0.00  0.00    -0.002 A 
ATOM      2  C1  UNL d   1       1.201  -1.960  -0.039  0.00  0.00     0.010 A 
ATOM      3  C2  UNL d   1      -0.184  -1.917  -0.205  0.00  0.00     0.041 A 
ATOM      4  C3  UNL d   1      -0.838  -0.670  -0.165  0.00  0.00    -0.075 A 
ATOM      5  S   UNL d   1      -2.527  -0.375  -0.344  0.00  0.00     0.015 SA
ATOM      6  C4  UNL d   1      -2.329   1.308  -0.156  0.00  0.00     0.022 A 
ATOM      7  C5  UNL d   1      -1.013   1.653   0.039  0.00  0.00     0.026 A 
ATOM      8  C6  UNL d   1      -0.131   0.519   0.037  0.00  0.00    -0.082 A 
ATOM      9  C7  UNL d   1       1.273   0.443   0.203  0.00  0.00     0.045 A 
ENDROOT
TORSDOF 0
ENDMDL
