MODEL 1
REMARK minimizedAffinity -3.9126246
REMARK minimizedRMSD -1
REMARK  0 active torsions:
REMARK  status: ('A' for Active; 'I' for Inactive)
ROOT
ATOM      1  C   UNL d   1      -2.873   1.631   1.732  0.00  0.00    -0.002 A 
ATOM      2  C1  UNL d   1      -3.209   2.026   0.445  0.00  0.00     0.010 A 
ATOM      3  C2  UNL d   1      -2.506   1.533  -0.656  0.00  0.00     0.041 A 
ATOM      4  C3  UNL d   1      -1.449   0.626  -0.439  0.00  0.00    -0.075 A 
ATOM      5  S   UNL d   1      -0.448  -0.109  -1.635  0.00  0.00     0.015 SA
ATOM      6  C4  UNL d   1       0.449  -0.965  -0.466  0.00  0.00     0.022 A 
ATOM      7  C5  UNL d   1       0.009  -0.707   0.811  0.00  0.00     0.026 A 
ATOM      8  C6  UNL d   1      -1.092   0.213   0.847  0.00  0.00    -0.082 A 
ATOM      9  C7  UNL d   1      -1.824   0.732   1.943  0.00  0.00     0.045 A 
ENDROOT
TORSDOF 0
ENDMDL
