MODEL 1
REMARK minimizedAffinity -0.275075704
REMARK minimizedRMSD -1
REMARK  0 active torsions:
REMARK  status: ('A' for Active; 'I' for Inactive)
ROOT
ATOM      1  C   UNL d   1       2.740  -1.570  -0.154  0.00  0.00    -0.002 A 
ATOM      2  C1  UNL d   1       3.453  -0.382  -0.071  0.00  0.00     0.010 A 
ATOM      3  C2  UNL d   1       2.787   0.845  -0.065  0.00  0.00     0.041 A 
ATOM      4  C3  UNL d   1       1.381   0.859  -0.142  0.00  0.00    -0.075 A 
ATOM      5  S   UNL d   1       0.353   2.243  -0.149  0.00  0.00     0.015 SA
ATOM      6  C4  UNL d   1      -1.055   1.290  -0.261  0.00  0.00     0.022 A 
ATOM      7  C5  UNL d   1      -0.767  -0.054  -0.293  0.00  0.00     0.026 A 
ATOM      8  C6  UNL d   1       0.642  -0.325  -0.225  0.00  0.00    -0.082 A 
ATOM      9  C7  UNL d   1       1.345  -1.553  -0.230  0.00  0.00     0.045 A 
ENDROOT
TORSDOF 0
ENDMDL
