MODEL 1
REMARK minimizedAffinity -3.96993709
REMARK minimizedRMSD -1
REMARK  0 active torsions:
REMARK  status: ('A' for Active; 'I' for Inactive)
ROOT
ATOM      1  C   UNL d   1       3.426  -0.835   0.317  0.00  0.00    -0.002 A 
ATOM      2  C1  UNL d   1       3.452   0.546   0.180  0.00  0.00     0.010 A 
ATOM      3  C2  UNL d   1       2.279   1.257  -0.081  0.00  0.00     0.041 A 
ATOM      4  C3  UNL d   1       1.067   0.550  -0.202  0.00  0.00    -0.075 A 
ATOM      5  S   UNL d   1      -0.494   1.210  -0.519  0.00  0.00     0.015 SA
ATOM      6  C4  UNL d   1      -1.233  -0.325  -0.479  0.00  0.00     0.022 A 
ATOM      7  C5  UNL d   1      -0.326  -1.328  -0.231  0.00  0.00     0.026 A 
ATOM      8  C6  UNL d   1       1.014  -0.840  -0.067  0.00  0.00    -0.082 A 
ATOM      9  C7  UNL d   1       2.221  -1.532   0.197  0.00  0.00     0.045 A 
ENDROOT
TORSDOF 0
ENDMDL
