MODEL 1
REMARK minimizedAffinity -2.10426211
REMARK minimizedRMSD -1
REMARK  0 active torsions:
REMARK  status: ('A' for Active; 'I' for Inactive)
ROOT
ATOM      1  C   UNL d   1       1.256  -1.442  -0.466  0.00  0.00    -0.002 A 
ATOM      2  C1  UNL d   1       1.808  -0.423   0.297  0.00  0.00     0.010 A 
ATOM      3  C2  UNL d   1       1.048   0.695   0.646  0.00  0.00     0.041 A 
ATOM      4  C3  UNL d   1      -0.290   0.772   0.212  0.00  0.00    -0.075 A 
ATOM      5  S   UNL d   1      -1.411   2.045   0.520  0.00  0.00     0.015 SA
ATOM      6  C4  UNL d   1      -2.650   1.266  -0.353  0.00  0.00     0.022 A 
ATOM      7  C5  UNL d   1      -2.236   0.063  -0.874  0.00  0.00     0.026 A 
ATOM      8  C6  UNL d   1      -0.869  -0.242  -0.556  0.00  0.00    -0.082 A 
ATOM      9  C7  UNL d   1      -0.072  -1.363  -0.894  0.00  0.00     0.045 A 
ENDROOT
TORSDOF 0
ENDMDL
