MODEL 1
REMARK minimizedAffinity -4.17441082
REMARK minimizedRMSD -1
REMARK  0 active torsions:
REMARK  status: ('A' for Active; 'I' for Inactive)
ROOT
ATOM      1  C   UNL d   1       3.241  -0.761   0.760  0.00  0.00    -0.002 A 
ATOM      2  C1  UNL d   1       3.035   0.590   1.004  0.00  0.00     0.010 A 
ATOM      3  C2  UNL d   1       1.809   1.187   0.703  0.00  0.00     0.041 A 
ATOM      4  C3  UNL d   1       0.784   0.396   0.148  0.00  0.00    -0.075 A 
ATOM      5  S   UNL d   1      -0.799   0.912  -0.301  0.00  0.00     0.015 SA
ATOM      6  C4  UNL d   1      -1.239  -0.649  -0.826  0.00  0.00     0.022 A 
ATOM      7  C5  UNL d   1      -0.216  -1.553  -0.670  0.00  0.00     0.026 A 
ATOM      8  C6  UNL d   1       0.967  -0.966  -0.106  0.00  0.00    -0.082 A 
ATOM      9  C7  UNL d   1       2.221  -1.542   0.210  0.00  0.00     0.045 A 
ENDROOT
TORSDOF 0
ENDMDL
