MODEL 1
REMARK minimizedAffinity -3.96922612
REMARK minimizedRMSD -1
REMARK  3 active torsions:
REMARK  status: ('A' for Active; 'I' for Inactive)
REMARK    1  A    between atoms: C3'_2  and  C2'_3 
REMARK    2  A    between atoms: C2'_3  and  C1'_4 
REMARK    3  A    between atoms: C1'_4  and  C1_5 
ROOT
ATOM      1  C1  N4B d   1       0.059  -0.178   0.724  0.00  0.00    -0.075 A 
ATOM      2  C2  N4B d   1      -0.803  -0.644   1.741  0.00  0.00     0.002 A 
ATOM      3  C3  N4B d   1      -0.328  -0.818   3.018  0.00  0.00     0.002 A 
ATOM      4  C4  N4B d   1       1.005  -0.553   3.295  0.00  0.00    -0.004 A 
ATOM      5  C5  N4B d   1       1.825  -0.079   2.313  0.00  0.00     0.002 A 
ATOM      6  C6  N4B d   1       1.360   0.104   1.027  0.00  0.00     0.002 A 
ENDROOT
BRANCH   1   7
ATOM      7  C1' N4B d   1      -0.393  -0.054  -0.705  0.00  0.00     0.057 C 
BRANCH   7   8
ATOM      8  C2' N4B d   1       0.054   1.297  -1.256  0.00  0.00     0.009 C 
BRANCH   8   9
ATOM      9  C3' N4B d   1      -1.090   2.049  -1.914  0.00  0.00     0.004 C 
ATOM     10  C4' N4B d   1      -0.729   3.460  -2.270  0.00  0.00     0.003 C 
ENDBRANCH   8   9
ENDBRANCH   7   8
ENDBRANCH   1   7
TORSDOF 3
ENDMDL
