MODEL 1
REMARK minimizedAffinity -4.96629763
REMARK minimizedRMSD -1
REMARK  3 active torsions:
REMARK  status: ('A' for Active; 'I' for Inactive)
REMARK    1  A    between atoms: C3'_2  and  C2'_3 
REMARK    2  A    between atoms: C2'_3  and  C1'_4 
REMARK    3  A    between atoms: C1'_4  and  C1_5 
ROOT
ATOM      1  C1  N4B d   1      -0.239  -0.345   0.530  0.00  0.00    -0.075 A 
ATOM      2  C2  N4B d   1      -0.749  -0.815   1.761  0.00  0.00     0.002 A 
ATOM      3  C3  N4B d   1       0.111  -1.130   2.784  0.00  0.00     0.002 A 
ATOM      4  C4  N4B d   1       1.479  -1.003   2.595  0.00  0.00    -0.004 A 
ATOM      5  C5  N4B d   1       1.962  -0.524   1.412  0.00  0.00     0.002 A 
ATOM      6  C6  N4B d   1       1.109  -0.199   0.376  0.00  0.00     0.002 A 
ENDROOT
BRANCH   1   7
ATOM      7  C1' N4B d   1      -1.135  -0.069  -0.646  0.00  0.00     0.057 C 
BRANCH   7   8
ATOM      8  C2' N4B d   1      -0.491   0.999  -1.526  0.00  0.00     0.009 C 
BRANCH   8   9
ATOM      9  C3' N4B d   1      -1.527   1.807  -2.289  0.00  0.00     0.004 C 
ATOM     10  C4' N4B d   1      -1.003   3.133  -2.754  0.00  0.00     0.003 C 
ENDBRANCH   8   9
ENDBRANCH   7   8
ENDBRANCH   1   7
TORSDOF 3
ENDMDL
