MODEL 1
REMARK minimizedAffinity -5.33227205
REMARK minimizedRMSD -1
REMARK  3 active torsions:
REMARK  status: ('A' for Active; 'I' for Inactive)
REMARK    1  A    between atoms: C3'_2  and  C2'_3 
REMARK    2  A    between atoms: C2'_3  and  C1'_4 
REMARK    3  A    between atoms: C1'_4  and  C1_5 
ROOT
ATOM      1  C1  N4B d   1       0.073   0.179   0.054  0.00  0.00    -0.075 A 
ATOM      2  C2  N4B d   1      -0.990  -0.256   0.876  0.00  0.00     0.002 A 
ATOM      3  C3  N4B d   1      -0.753  -0.586   2.188  0.00  0.00     0.002 A 
ATOM      4  C4  N4B d   1       0.536  -0.507   2.692  0.00  0.00    -0.004 A 
ATOM      5  C5  N4B d   1       1.553  -0.062   1.899  0.00  0.00     0.002 A 
ATOM      6  C6  N4B d   1       1.328   0.277   0.580  0.00  0.00     0.002 A 
ENDROOT
BRANCH   1   7
ATOM      7  C1' N4B d   1      -0.122   0.468  -1.409  0.00  0.00     0.057 C 
BRANCH   7   8
ATOM      8  C2' N4B d   1      -1.223   1.512  -1.571  0.00  0.00     0.009 C 
BRANCH   8   9
ATOM      9  C3' N4B d   1      -0.660   2.889  -1.878  0.00  0.00     0.004 C 
ATOM     10  C4' N4B d   1       0.623   2.832  -2.651  0.00  0.00     0.003 C 
ENDBRANCH   8   9
ENDBRANCH   7   8
ENDBRANCH   1   7
TORSDOF 3
ENDMDL
