MODEL 1
REMARK minimizedAffinity -4.59302902
REMARK minimizedRMSD -1
REMARK  3 active torsions:
REMARK  status: ('A' for Active; 'I' for Inactive)
REMARK    1  A    between atoms: C3'_2  and  C2'_3 
REMARK    2  A    between atoms: C2'_3  and  C1'_4 
REMARK    3  A    between atoms: C1'_4  and  C1_5 
ROOT
ATOM      1  C1  N4B d   1       0.033   0.397  -0.010  0.00  0.00    -0.075 A 
ATOM      2  C2  N4B d   1       1.090   0.096   0.878  0.00  0.00     0.002 A 
ATOM      3  C3  N4B d   1       0.849  -0.659   2.000  0.00  0.00     0.002 A 
ATOM      4  C4  N4B d   1      -0.437  -1.106   2.263  0.00  0.00    -0.004 A 
ATOM      5  C5  N4B d   1      -1.446  -0.832   1.387  0.00  0.00     0.002 A 
ATOM      6  C6  N4B d   1      -1.219  -0.078   0.254  0.00  0.00     0.002 A 
ENDROOT
BRANCH   1   7
ATOM      7  C1' N4B d   1       0.230   1.291  -1.204  0.00  0.00     0.057 C 
BRANCH   7   8
ATOM      8  C2' N4B d   1      -1.118   1.532  -1.877  0.00  0.00     0.009 C 
BRANCH   8   9
ATOM      9  C3' N4B d   1      -1.315   2.992  -2.248  0.00  0.00     0.004 C 
ATOM     10  C4' N4B d   1      -0.021   3.711  -2.483  0.00  0.00     0.003 C 
ENDBRANCH   8   9
ENDBRANCH   7   8
ENDBRANCH   1   7
TORSDOF 3
ENDMDL
