MODEL 1
REMARK minimizedAffinity -3.84357905
REMARK minimizedRMSD -1
REMARK  3 active torsions:
REMARK  status: ('A' for Active; 'I' for Inactive)
REMARK    1  A    between atoms: C3'_2  and  C2'_3 
REMARK    2  A    between atoms: C2'_3  and  C1'_4 
REMARK    3  A    between atoms: C1'_4  and  C1_5 
ROOT
ATOM      1  C1  N4B d   1       0.348   0.003  -0.223  0.00  0.00    -0.075 A 
ATOM      2  C2  N4B d   1       1.615  -0.264   0.342  0.00  0.00     0.002 A 
ATOM      3  C3  N4B d   1       1.740  -0.434   1.699  0.00  0.00     0.002 A 
ATOM      4  C4  N4B d   1       0.620  -0.325   2.510  0.00  0.00    -0.004 A 
ATOM      5  C5  N4B d   1      -0.604  -0.093   1.954  0.00  0.00     0.002 A 
ATOM      6  C6  N4B d   1      -0.745   0.077   0.592  0.00  0.00     0.002 A 
ENDROOT
BRANCH   1   7
ATOM      7  C1' N4B d   1       0.175   0.282  -1.691  0.00  0.00     0.057 C 
BRANCH   7   8
ATOM      8  C2' N4B d   1      -1.117   1.065  -1.903  0.00  0.00     0.009 C 
BRANCH   8   9
ATOM      9  C3' N4B d   1      -0.893   2.315  -2.738  0.00  0.00     0.004 C 
ATOM     10  C4' N4B d   1      -1.787   3.449  -2.336  0.00  0.00     0.003 C 
ENDBRANCH   8   9
ENDBRANCH   7   8
ENDBRANCH   1   7
TORSDOF 3
ENDMDL
