MODEL 1
REMARK minimizedAffinity -4.05410194
REMARK minimizedRMSD -1
REMARK  3 active torsions:
REMARK  status: ('A' for Active; 'I' for Inactive)
REMARK    1  A    between atoms: C3'_2  and  C2'_3 
REMARK    2  A    between atoms: C2'_3  and  C1'_4 
REMARK    3  A    between atoms: C1'_4  and  C1_5 
ROOT
ATOM      1  C1  N4B d   1      -0.094   1.104  -1.315  0.00  0.00    -0.075 A 
ATOM      2  C2  N4B d   1       0.882   2.067  -1.657  0.00  0.00     0.002 A 
ATOM      3  C3  N4B d   1       0.526   3.175  -2.386  0.00  0.00     0.002 A 
ATOM      4  C4  N4B d   1      -0.789   3.332  -2.798  0.00  0.00    -0.004 A 
ATOM      5  C5  N4B d   1      -1.730   2.411  -2.441  0.00  0.00     0.002 A 
ATOM      6  C6  N4B d   1      -1.387   1.294  -1.706  0.00  0.00     0.002 A 
ENDROOT
BRANCH   1   7
ATOM      7  C1' N4B d   1       0.264  -0.166  -0.593  0.00  0.00     0.057 C 
BRANCH   7   8
ATOM      8  C2' N4B d   1      -0.217  -0.074   0.852  0.00  0.00     0.009 C 
BRANCH   8   9
ATOM      9  C3' N4B d   1       0.853  -0.514   1.836  0.00  0.00     0.004 C 
ATOM     10  C4' N4B d   1       0.351  -1.522   2.827  0.00  0.00     0.003 C 
ENDBRANCH   8   9
ENDBRANCH   7   8
ENDBRANCH   1   7
TORSDOF 3
ENDMDL
