MODEL 1
REMARK minimizedAffinity -5.63620996
REMARK minimizedRMSD -1
REMARK  3 active torsions:
REMARK  status: ('A' for Active; 'I' for Inactive)
REMARK    1  A    between atoms: C3'_2  and  C2'_3 
REMARK    2  A    between atoms: C2'_3  and  C1'_4 
REMARK    3  A    between atoms: C1'_4  and  C1_5 
ROOT
ATOM      1  C1  N4B d   1       0.241  -0.479  -0.304  0.00  0.00    -0.075 A 
ATOM      2  C2  N4B d   1      -0.647  -0.185   0.755  0.00  0.00     0.002 A 
ATOM      3  C3  N4B d   1      -0.405  -0.684   2.011  0.00  0.00     0.002 A 
ATOM      4  C4  N4B d   1       0.702  -1.490   2.228  0.00  0.00    -0.004 A 
ATOM      5  C5  N4B d   1       1.568  -1.747   1.206  0.00  0.00     0.002 A 
ATOM      6  C6  N4B d   1       1.340  -1.250  -0.061  0.00  0.00     0.002 A 
ENDROOT
BRANCH   1   7
ATOM      7  C1' N4B d   1      -0.028  -0.027  -1.714  0.00  0.00     0.057 C 
BRANCH   7   8
ATOM      8  C2' N4B d   1      -0.822   1.275  -1.680  0.00  0.00     0.009 C 
BRANCH   8   9
ATOM      9  C3' N4B d   1      -0.034   2.436  -2.261  0.00  0.00     0.004 C 
ATOM     10  C4' N4B d   1      -0.830   3.705  -2.325  0.00  0.00     0.003 C 
ENDBRANCH   8   9
ENDBRANCH   7   8
ENDBRANCH   1   7
TORSDOF 3
ENDMDL
