MODEL 1
REMARK minimizedAffinity 6.11164427
REMARK minimizedRMSD -1
REMARK  0 active torsions:
REMARK  status: ('A' for Active; 'I' for Inactive)
ROOT
ATOM      1  C   UNL d   1       0.950   3.040   0.166  0.00  0.00     0.023 A 
ATOM      2  C1  UNL d   1       1.205   4.237  -0.504  0.00  0.00     0.003 A 
ATOM      3  C2  UNL d   1       0.230   4.797  -1.332  0.00  0.00     0.048 A 
ATOM      4  C3  UNL d   1      -0.999   4.155  -1.485  0.00  0.00     0.023 A 
ATOM      5  C4  UNL d   1      -1.259   2.958  -0.816  0.00  0.00     0.048 A 
ATOM      6  C5  UNL d   1      -0.280   2.401   0.010  0.00  0.00     0.003 A 
ATOM      7  I   UNL d   1      -2.452   4.986  -2.716  0.00  0.00    -0.146 I 
ENDROOT
TORSDOF 0
ENDMDL
