MODEL 1
REMARK minimizedAffinity 6.20007467
REMARK minimizedRMSD -1
REMARK  0 active torsions:
REMARK  status: ('A' for Active; 'I' for Inactive)
ROOT
ATOM      1  C   UNL d   1       0.750   3.154  -1.093  0.00  0.00     0.023 A 
ATOM      2  C1  UNL d   1       0.065   2.636   0.007  0.00  0.00     0.003 A 
ATOM      3  C2  UNL d   1      -0.798   3.451   0.741  0.00  0.00     0.048 A 
ATOM      4  C3  UNL d   1      -0.974   4.784   0.369  0.00  0.00     0.023 A 
ATOM      5  C4  UNL d   1      -0.292   5.306  -0.731  0.00  0.00     0.048 A 
ATOM      6  C5  UNL d   1       0.571   4.488  -1.461  0.00  0.00     0.003 A 
ATOM      7  I   UNL d   1      -2.259   5.999   1.460  0.00  0.00    -0.146 I 
ENDROOT
TORSDOF 0
ENDMDL
