MODEL 1
REMARK minimizedAffinity 7.43515587
REMARK minimizedRMSD -1
REMARK  0 active torsions:
REMARK  status: ('A' for Active; 'I' for Inactive)
ROOT
ATOM      1  C   UNL d   1       4.604  -5.057  -0.122  0.00  0.00     0.023 A 
ATOM      2  C1  UNL d   1       5.786  -4.632  -0.730  0.00  0.00     0.003 A 
ATOM      3  C2  UNL d   1       5.999  -4.873  -2.089  0.00  0.00     0.048 A 
ATOM      4  C3  UNL d   1       5.027  -5.539  -2.834  0.00  0.00     0.023 A 
ATOM      5  C4  UNL d   1       3.843  -5.966  -2.230  0.00  0.00     0.048 A 
ATOM      6  C5  UNL d   1       3.634  -5.723  -0.871  0.00  0.00     0.003 A 
ATOM      7  I   UNL d   1       5.342  -5.899  -4.857  0.00  0.00    -0.146 I 
ENDROOT
TORSDOF 0
ENDMDL
