MODEL 1
REMARK minimizedAffinity 7.43298244
REMARK minimizedRMSD -1
REMARK  0 active torsions:
REMARK  status: ('A' for Active; 'I' for Inactive)
ROOT
ATOM      1  C   UNL d   1      -0.567  -4.597  -4.573  0.00  0.00     0.023 A 
ATOM      2  C1  UNL d   1      -1.663  -3.961  -3.990  0.00  0.00     0.003 A 
ATOM      3  C2  UNL d   1      -2.959  -4.289  -4.394  0.00  0.00     0.048 A 
ATOM      4  C3  UNL d   1      -3.151  -5.256  -5.381  0.00  0.00     0.023 A 
ATOM      5  C4  UNL d   1      -2.057  -5.896  -5.966  0.00  0.00     0.048 A 
ATOM      6  C5  UNL d   1      -0.764  -5.563  -5.560  0.00  0.00     0.003 A 
ATOM      7  I   UNL d   1      -5.079  -5.746  -5.984  0.00  0.00    -0.146 I 
ENDROOT
TORSDOF 0
ENDMDL
