MODEL 1
REMARK minimizedAffinity -3.03395033
REMARK minimizedRMSD -1
REMARK  0 active torsions:
REMARK  status: ('A' for Active; 'I' for Inactive)
ROOT
ATOM      1  C   UNL d   1       1.843  -1.653  -0.154  0.00  0.00     0.172 C 
ATOM      2  N   UNL d   1       0.736  -0.755  -0.387  0.00  0.00    -0.070 N 
ATOM      3  C1  UNL d   1      -0.434  -1.077  -1.022  0.00  0.00    -0.004 A 
ATOM      4  C2  UNL d   1      -1.228   0.049  -1.042  0.00  0.00    -0.047 A 
ATOM      5  C3  UNL d   1      -0.510   1.085  -0.397  0.00  0.00    -0.047 A 
ATOM      6  C4  UNL d   1       0.702   0.560  -0.002  0.00  0.00    -0.004 A 
ENDROOT
TORSDOF 0
ENDMDL
