MODEL 1
REMARK minimizedAffinity -2.08576632
REMARK minimizedRMSD -1
REMARK  0 active torsions:
REMARK  status: ('A' for Active; 'I' for Inactive)
ROOT
ATOM      1  C   UNL d   1      -0.896   1.051  -0.302  0.00  0.00     0.172 C 
ATOM      2  N   UNL d   1      -2.185   1.101   0.346  0.00  0.00    -0.070 N 
ATOM      3  C1  UNL d   1      -3.333   0.512  -0.113  0.00  0.00    -0.004 A 
ATOM      4  C2  UNL d   1      -4.340   0.791   0.786  0.00  0.00    -0.047 A 
ATOM      5  C3  UNL d   1      -3.778   1.576   1.820  0.00  0.00    -0.047 A 
ATOM      6  C4  UNL d   1      -2.443   1.753   1.523  0.00  0.00    -0.004 A 
ENDROOT
TORSDOF 0
ENDMDL
