MODEL 1
REMARK minimizedAffinity -2.05342317
REMARK minimizedRMSD -1
REMARK  0 active torsions:
REMARK  status: ('A' for Active; 'I' for Inactive)
ROOT
ATOM      1  C   UNL d   1      -0.977   0.595   0.265  0.00  0.00     0.172 C 
ATOM      2  N   UNL d   1      -0.007  -0.435  -0.025  0.00  0.00    -0.070 N 
ATOM      3  C1  UNL d   1      -0.196  -1.780   0.145  0.00  0.00    -0.004 A 
ATOM      4  C2  UNL d   1       0.960  -2.422  -0.245  0.00  0.00    -0.047 A 
ATOM      5  C3  UNL d   1       1.876  -1.427  -0.663  0.00  0.00    -0.047 A 
ATOM      6  C4  UNL d   1       1.251  -0.207  -0.517  0.00  0.00    -0.004 A 
ENDROOT
TORSDOF 0
ENDMDL
