MODEL 1
REMARK minimizedAffinity -3.36875486
REMARK minimizedRMSD -1
REMARK  0 active torsions:
REMARK  status: ('A' for Active; 'I' for Inactive)
ROOT
ATOM      1  C   UNL d   1       2.022  -1.432  -0.027  0.00  0.00     0.172 C 
ATOM      2  N   UNL d   1       0.903  -0.530  -0.163  0.00  0.00    -0.070 N 
ATOM      3  C1  UNL d   1      -0.339  -0.864  -0.633  0.00  0.00    -0.004 A 
ATOM      4  C2  UNL d   1      -1.120   0.271  -0.607  0.00  0.00    -0.047 A 
ATOM      5  C3  UNL d   1      -0.319   1.324  -0.104  0.00  0.00    -0.047 A 
ATOM      6  C4  UNL d   1       0.928   0.800   0.162  0.00  0.00    -0.004 A 
ENDROOT
TORSDOF 0
ENDMDL
