MODEL 1
REMARK minimizedAffinity -0.752044857
REMARK minimizedRMSD -1
REMARK  0 active torsions:
REMARK  status: ('A' for Active; 'I' for Inactive)
ROOT
ATOM      1  C   UNL d   1      -0.731   0.301  -0.590  0.00  0.00     0.172 C 
ATOM      2  N   UNL d   1       0.472  -0.489  -0.467  0.00  0.00    -0.070 N 
ATOM      3  C1  UNL d   1       1.699  -0.020  -0.081  0.00  0.00    -0.004 A 
ATOM      4  C2  UNL d   1       2.578  -1.081  -0.089  0.00  0.00    -0.047 A 
ATOM      5  C3  UNL d   1       1.855  -2.228  -0.496  0.00  0.00    -0.047 A 
ATOM      6  C4  UNL d   1       0.553  -1.832  -0.723  0.00  0.00    -0.004 A 
ENDROOT
TORSDOF 0
ENDMDL
