MODEL 1
REMARK minimizedAffinity -2.19768596
REMARK minimizedRMSD -1
REMARK  0 active torsions:
REMARK  status: ('A' for Active; 'I' for Inactive)
ROOT
ATOM      1  C   UNL d   1       2.124  -1.922  -0.435  0.00  0.00     0.172 C 
ATOM      2  N   UNL d   1       0.934  -1.104  -0.470  0.00  0.00    -0.070 N 
ATOM      3  C1  UNL d   1      -0.318  -1.531  -0.823  0.00  0.00    -0.004 A 
ATOM      4  C2  UNL d   1      -1.173  -0.455  -0.728  0.00  0.00    -0.047 A 
ATOM      5  C3  UNL d   1      -0.409   0.658  -0.304  0.00  0.00    -0.047 A 
ATOM      6  C4  UNL d   1       0.893   0.228  -0.152  0.00  0.00    -0.004 A 
ENDROOT
TORSDOF 0
ENDMDL
