MODEL 1
REMARK minimizedAffinity -2.92106009
REMARK minimizedRMSD -1
REMARK  0 active torsions:
REMARK  status: ('A' for Active; 'I' for Inactive)
ROOT
ATOM      1  C   UNL d   1      -1.277   1.705  -1.205  0.00  0.00     0.172 C 
ATOM      2  N   UNL d   1      -0.621   0.491  -0.780  0.00  0.00    -0.070 N 
ATOM      3  C1  UNL d   1      -0.315   0.160   0.513  0.00  0.00    -0.004 A 
ATOM      4  C2  UNL d   1       0.301  -1.073   0.499  0.00  0.00    -0.047 A 
ATOM      5  C3  UNL d   1       0.369  -1.496  -0.850  0.00  0.00    -0.047 A 
ATOM      6  C4  UNL d   1      -0.210  -0.509  -1.620  0.00  0.00    -0.004 A 
ENDROOT
TORSDOF 0
ENDMDL
