MODEL 1
REMARK minimizedAffinity -2.9071095
REMARK minimizedRMSD -1
REMARK  0 active torsions:
REMARK  status: ('A' for Active; 'I' for Inactive)
ROOT
ATOM      1  C   UNL d   1      -0.417  -1.268  -0.637  0.00  0.00     0.172 C 
ATOM      2  N   UNL d   1       0.998  -1.036  -0.472  0.00  0.00    -0.070 N 
ATOM      3  C1  UNL d   1       1.584   0.176  -0.218  0.00  0.00    -0.004 A 
ATOM      4  C2  UNL d   1       2.945  -0.024  -0.129  0.00  0.00    -0.047 A 
ATOM      5  C3  UNL d   1       3.185  -1.403  -0.338  0.00  0.00    -0.047 A 
ATOM      6  C4  UNL d   1       1.963  -2.006  -0.548  0.00  0.00    -0.004 A 
ENDROOT
TORSDOF 0
ENDMDL
