MODEL 1
REMARK minimizedAffinity -0.643539488
REMARK minimizedRMSD -1
REMARK  0 active torsions:
REMARK  status: ('A' for Active; 'I' for Inactive)
ROOT
ATOM      1  C   UNL d   1      -1.700   1.709   1.983  0.00  0.00    -0.002 A 
ATOM      2  C1  UNL d   1      -1.860   2.296   0.736  0.00  0.00     0.010 A 
ATOM      3  C2  UNL d   1      -1.209   1.774  -0.384  0.00  0.00     0.041 A 
ATOM      4  C3  UNL d   1      -0.387   0.640  -0.227  0.00  0.00    -0.075 A 
ATOM      5  S   UNL d   1       0.509  -0.172  -1.456  0.00  0.00     0.015 SA
ATOM      6  C4  UNL d   1       1.125  -1.317  -0.354  0.00  0.00     0.022 A 
ATOM      7  C5  UNL d   1       0.669  -1.100   0.925  0.00  0.00     0.026 A 
ATOM      8  C6  UNL d   1      -0.210   0.032   1.019  0.00  0.00    -0.082 A 
ATOM      9  C7  UNL d   1      -0.884   0.585   2.135  0.00  0.00     0.045 A 
ENDROOT
TORSDOF 0
ENDMDL
