MODEL 1
REMARK minimizedAffinity 0.540704131
REMARK minimizedRMSD -1
REMARK  0 active torsions:
REMARK  status: ('A' for Active; 'I' for Inactive)
ROOT
ATOM      1  C   UNL d   1      -2.120   2.094   1.978  0.00  0.00    -0.002 A 
ATOM      2  C1  UNL d   1      -1.232   1.291   2.679  0.00  0.00     0.010 A 
ATOM      3  C2  UNL d   1      -0.263   0.546   2.005  0.00  0.00     0.041 A 
ATOM      4  C3  UNL d   1      -0.199   0.624   0.600  0.00  0.00    -0.075 A 
ATOM      5  S   UNL d   1       0.905  -0.198  -0.438  0.00  0.00     0.015 SA
ATOM      6  C4  UNL d   1       0.225   0.498  -1.837  0.00  0.00     0.022 A 
ATOM      7  C5  UNL d   1      -0.821   1.340  -1.538  0.00  0.00     0.026 A 
ATOM      8  C6  UNL d   1      -1.082   1.427  -0.129  0.00  0.00    -0.082 A 
ATOM      9  C7  UNL d   1      -2.054   2.169   0.584  0.00  0.00     0.045 A 
ENDROOT
TORSDOF 0
ENDMDL
