MODEL 1
REMARK minimizedAffinity -2.20435143
REMARK minimizedRMSD -1
REMARK  0 active torsions:
REMARK  status: ('A' for Active; 'I' for Inactive)
ROOT
ATOM      1  C   UNL d   1      -1.949   2.219   1.728  0.00  0.00    -0.002 A 
ATOM      2  C1  UNL d   1      -2.280   2.380   0.390  0.00  0.00     0.010 A 
ATOM      3  C2  UNL d   1      -1.664   1.604  -0.593  0.00  0.00     0.041 A 
ATOM      4  C3  UNL d   1      -0.701   0.652  -0.205  0.00  0.00    -0.075 A 
ATOM      5  S   UNL d   1       0.184  -0.411  -1.235  0.00  0.00     0.015 SA
ATOM      6  C4  UNL d   1       1.022  -1.105   0.077  0.00  0.00     0.022 A 
ATOM      7  C5  UNL d   1       0.649  -0.551   1.279  0.00  0.00     0.026 A 
ATOM      8  C6  UNL d   1      -0.350   0.471   1.136  0.00  0.00    -0.082 A 
ATOM      9  C7  UNL d   1      -0.992   1.274   2.109  0.00  0.00     0.045 A 
ENDROOT
TORSDOF 0
ENDMDL
