MODEL 1
REMARK minimizedAffinity -2.01873231
REMARK minimizedRMSD -1
REMARK  0 active torsions:
REMARK  status: ('A' for Active; 'I' for Inactive)
ROOT
ATOM      1  C   UNL d   1       1.433   1.038  -1.828  0.00  0.00    -0.002 A 
ATOM      2  C1  UNL d   1       1.478  -0.335  -1.632  0.00  0.00     0.010 A 
ATOM      3  C2  UNL d   1       0.841  -0.917  -0.534  0.00  0.00     0.041 A 
ATOM      4  C3  UNL d   1       0.149  -0.087   0.371  0.00  0.00    -0.075 A 
ATOM      5  S   UNL d   1      -0.707  -0.577   1.785  0.00  0.00     0.015 SA
ATOM      6  C4  UNL d   1      -1.153   1.025   2.160  0.00  0.00     0.022 A 
ATOM      7  C5  UNL d   1      -0.669   1.924   1.240  0.00  0.00     0.026 A 
ATOM      8  C6  UNL d   1       0.089   1.298   0.193  0.00  0.00    -0.082 A 
ATOM      9  C7  UNL d   1       0.746   1.857  -0.929  0.00  0.00     0.045 A 
ENDROOT
TORSDOF 0
ENDMDL
