MODEL 1
REMARK minimizedAffinity -3.90114069
REMARK minimizedRMSD -1
REMARK  0 active torsions:
REMARK  status: ('A' for Active; 'I' for Inactive)
ROOT
ATOM      1  C   UNL d   1      -1.636   1.962   1.151  0.00  0.00    -0.002 A 
ATOM      2  C1  UNL d   1      -1.549   2.327  -0.185  0.00  0.00     0.010 A 
ATOM      3  C2  UNL d   1      -0.754   1.596  -1.070  0.00  0.00     0.041 A 
ATOM      4  C3  UNL d   1      -0.043   0.481  -0.586  0.00  0.00    -0.075 A 
ATOM      5  S   UNL d   1       0.993  -0.563  -1.486  0.00  0.00     0.015 SA
ATOM      6  C4  UNL d   1       1.342  -1.519  -0.119  0.00  0.00     0.022 A 
ATOM      7  C5  UNL d   1       0.693  -1.067   1.006  0.00  0.00     0.026 A 
ATOM      8  C6  UNL d   1      -0.116   0.093   0.755  0.00  0.00    -0.082 A 
ATOM      9  C7  UNL d   1      -0.930   0.854   1.628  0.00  0.00     0.045 A 
ENDROOT
TORSDOF 0
ENDMDL
