MODEL 1
REMARK minimizedAffinity -1.57504523
REMARK minimizedRMSD -1
REMARK  0 active torsions:
REMARK  status: ('A' for Active; 'I' for Inactive)
ROOT
ATOM      1  C   UNL d   1      -1.559   2.607   1.729  0.00  0.00    -0.002 A 
ATOM      2  C1  UNL d   1      -1.543   2.639   0.342  0.00  0.00     0.010 A 
ATOM      3  C2  UNL d   1      -1.059   1.551  -0.388  0.00  0.00     0.041 A 
ATOM      4  C3  UNL d   1      -0.588   0.420   0.307  0.00  0.00    -0.075 A 
ATOM      5  S   UNL d   1       0.049  -1.029  -0.376  0.00  0.00     0.015 SA
ATOM      6  C4  UNL d   1       0.315  -1.724   1.157  0.00  0.00     0.022 A 
ATOM      7  C5  UNL d   1      -0.068  -0.885   2.177  0.00  0.00     0.026 A 
ATOM      8  C6  UNL d   1      -0.595   0.364   1.704  0.00  0.00    -0.082 A 
ATOM      9  C7  UNL d   1      -1.091   1.483   2.415  0.00  0.00     0.045 A 
ENDROOT
TORSDOF 0
ENDMDL
