MODEL 1
REMARK minimizedAffinity -2.40362406
REMARK minimizedRMSD -1
REMARK  0 active torsions:
REMARK  status: ('A' for Active; 'I' for Inactive)
ROOT
ATOM      1  C   UNL d   1      -1.730   1.086   2.438  0.00  0.00    -0.002 A 
ATOM      2  C1  UNL d   1      -1.889   2.013   1.419  0.00  0.00     0.010 A 
ATOM      3  C2  UNL d   1      -1.274   1.819   0.180  0.00  0.00     0.041 A 
ATOM      4  C3  UNL d   1      -0.491   0.666  -0.019  0.00  0.00    -0.075 A 
ATOM      5  S   UNL d   1       0.356   0.218  -1.453  0.00  0.00     0.015 SA
ATOM      6  C4  UNL d   1       0.948  -1.215  -0.745  0.00  0.00     0.022 A 
ATOM      7  C5  UNL d   1       0.520  -1.364   0.553  0.00  0.00     0.026 A 
ATOM      8  C6  UNL d   1      -0.317  -0.283   0.993  0.00  0.00    -0.082 A 
ATOM      9  C7  UNL d   1      -0.952  -0.058   2.237  0.00  0.00     0.045 A 
ENDROOT
TORSDOF 0
ENDMDL
