MODEL 1
REMARK minimizedAffinity -0.469438344
REMARK minimizedRMSD -1
REMARK  0 active torsions:
REMARK  status: ('A' for Active; 'I' for Inactive)
ROOT
ATOM      1  C   UNL d   1      -1.212   1.450   2.387  0.00  0.00    -0.002 A 
ATOM      2  C1  UNL d   1      -1.506   2.228   1.275  0.00  0.00     0.010 A 
ATOM      3  C2  UNL d   1      -1.199   1.775  -0.009  0.00  0.00     0.041 A 
ATOM      4  C3  UNL d   1      -0.587   0.515  -0.160  0.00  0.00    -0.075 A 
ATOM      5  S   UNL d   1      -0.121  -0.245  -1.636  0.00  0.00     0.015 SA
ATOM      6  C4  UNL d   1       0.478  -1.620  -0.825  0.00  0.00     0.022 A 
ATOM      7  C5  UNL d   1       0.334  -1.518   0.538  0.00  0.00     0.026 A 
ATOM      8  C6  UNL d   1      -0.283  -0.287   0.944  0.00  0.00    -0.082 A 
ATOM      9  C7  UNL d   1      -0.606   0.201   2.233  0.00  0.00     0.045 A 
ENDROOT
TORSDOF 0
ENDMDL
