MODEL 1
REMARK minimizedAffinity -4.44172239
REMARK minimizedRMSD -1
REMARK  0 active torsions:
REMARK  status: ('A' for Active; 'I' for Inactive)
ROOT
ATOM      1  C   UNL d   1      -1.478   3.354   0.076  0.00  0.00    -0.002 A 
ATOM      2  C1  UNL d   1      -2.233   2.820   1.111  0.00  0.00     0.010 A 
ATOM      3  C2  UNL d   1      -2.089   1.480   1.477  0.00  0.00     0.041 A 
ATOM      4  C3  UNL d   1      -1.164   0.679   0.779  0.00  0.00    -0.075 A 
ATOM      5  S   UNL d   1      -0.818  -0.988   1.054  0.00  0.00     0.015 SA
ATOM      6  C4  UNL d   1       0.340  -1.030  -0.196  0.00  0.00     0.022 A 
ATOM      7  C5  UNL d   1       0.472   0.189  -0.818  0.00  0.00     0.026 A 
ATOM      8  C6  UNL d   1      -0.392   1.194  -0.266  0.00  0.00    -0.082 A 
ATOM      9  C7  UNL d   1      -0.561   2.556  -0.614  0.00  0.00     0.045 A 
ENDROOT
TORSDOF 0
ENDMDL
