MODEL 1
REMARK minimizedAffinity -1.10880029
REMARK minimizedRMSD -1
REMARK  2 active torsions:
REMARK  status: ('A' for Active; 'I' for Inactive)
REMARK    1  A    between atoms: C2'_3  and  C1'_4 
REMARK    2  A    between atoms: C1'_4  and  C1_5 
ROOT
ATOM      1  C1  I4B d   1      -2.890   1.290   3.008  0.00  0.00    -0.075 A 
ATOM      2  C2  I4B d   1      -2.608   0.138   2.319  0.00  0.00     0.003 A 
ATOM      3  C3  I4B d   1      -1.403   0.024   1.584  0.00  0.00     0.002 A 
ATOM      4  C4  I4B d   1      -0.539   1.098   1.525  0.00  0.00    -0.004 A 
ATOM      5  C5  I4B d   1      -0.816   2.258   2.243  0.00  0.00     0.002 A 
ATOM      6  C6  I4B d   1      -1.993   2.351   2.999  0.00  0.00     0.003 A 
ENDROOT
BRANCH   1   7
ATOM      7  C1' I4B d   1      -4.187   1.389   3.747  0.00  0.00     0.060 C 
BRANCH   7   8
ATOM      8  C2' I4B d   1      -4.126   2.614   4.636  0.00  0.00    -0.013 C 
ATOM      9  C4' I4B d   1      -4.933   3.747   4.060  0.00  0.00     0.013 C 
ATOM     10  C3' I4B d   1      -4.631   2.226   5.994  0.00  0.00     0.013 C 
ENDBRANCH   7   8
ENDBRANCH   1   7
TORSDOF 2
ENDMDL
