MODEL 1
REMARK minimizedAffinity -1.23549402
REMARK minimizedRMSD -1
REMARK  2 active torsions:
REMARK  status: ('A' for Active; 'I' for Inactive)
REMARK    1  A    between atoms: C2'_3  and  C1'_4 
REMARK    2  A    between atoms: C1'_4  and  C1_5 
ROOT
ATOM      1  C1  I4B d   1      -1.969   1.079   2.966  0.00  0.00    -0.075 A 
ATOM      2  C2  I4B d   1      -1.043   1.846   2.303  0.00  0.00     0.003 A 
ATOM      3  C3  I4B d   1      -0.123   1.242   1.413  0.00  0.00     0.002 A 
ATOM      4  C4  I4B d   1      -0.131  -0.129   1.254  0.00  0.00    -0.004 A 
ATOM      5  C5  I4B d   1      -1.085  -0.902   1.909  0.00  0.00     0.002 A 
ATOM      6  C6  I4B d   1      -2.018  -0.293   2.761  0.00  0.00     0.003 A 
ENDROOT
BRANCH   1   7
ATOM      7  C1' I4B d   1      -2.904   1.746   3.924  0.00  0.00     0.060 C 
BRANCH   7   8
ATOM      8  C2' I4B d   1      -4.239   1.034   3.846  0.00  0.00    -0.013 C 
ATOM      9  C4' I4B d   1      -4.116  -0.404   4.276  0.00  0.00     0.013 C 
ATOM     10  C3' I4B d   1      -5.212   1.777   4.712  0.00  0.00     0.013 C 
ENDBRANCH   7   8
ENDBRANCH   1   7
TORSDOF 2
ENDMDL
