MODEL 1
REMARK minimizedAffinity 1.43984199
REMARK minimizedRMSD -1
REMARK  2 active torsions:
REMARK  status: ('A' for Active; 'I' for Inactive)
REMARK    1  A    between atoms: C2'_3  and  C1'_4 
REMARK    2  A    between atoms: C1'_4  and  C1_5 
ROOT
ATOM      1  C1  I4B d   1      -3.139   1.782   3.419  0.00  0.00    -0.075 A 
ATOM      2  C2  I4B d   1      -2.951   0.457   3.115  0.00  0.00     0.003 A 
ATOM      3  C3  I4B d   1      -1.717   0.016   2.580  0.00  0.00     0.002 A 
ATOM      4  C4  I4B d   1      -0.722   0.937   2.318  0.00  0.00    -0.004 A 
ATOM      5  C5  I4B d   1      -0.907   2.277   2.647  0.00  0.00     0.002 A 
ATOM      6  C6  I4B d   1      -2.118   2.701   3.212  0.00  0.00     0.003 A 
ENDROOT
BRANCH   1   7
ATOM      7  C1' I4B d   1      -4.467   2.218   3.952  0.00  0.00     0.060 C 
BRANCH   7   8
ATOM      8  C2' I4B d   1      -4.382   2.225   5.465  0.00  0.00    -0.013 C 
ATOM      9  C4' I4B d   1      -4.284   3.629   6.000  0.00  0.00     0.013 C 
ATOM     10  C3' I4B d   1      -5.597   1.525   5.999  0.00  0.00     0.013 C 
ENDBRANCH   7   8
ENDBRANCH   1   7
TORSDOF 2
ENDMDL
