MODEL 1
REMARK minimizedAffinity -0.868560731
REMARK minimizedRMSD -1
REMARK  2 active torsions:
REMARK  status: ('A' for Active; 'I' for Inactive)
REMARK    1  A    between atoms: C2'_3  and  C1'_4 
REMARK    2  A    between atoms: C1'_4  and  C1_5 
ROOT
ATOM      1  C1  I4B d   1      -0.825   1.371   2.228  0.00  0.00    -0.075 A 
ATOM      2  C2  I4B d   1      -0.995   1.653   0.896  0.00  0.00     0.003 A 
ATOM      3  C3  I4B d   1      -0.157   1.049  -0.073  0.00  0.00     0.002 A 
ATOM      4  C4  I4B d   1       0.863   0.214   0.336  0.00  0.00    -0.004 A 
ATOM      5  C5  I4B d   1       1.019  -0.088   1.685  0.00  0.00     0.002 A 
ATOM      6  C6  I4B d   1       0.162   0.484   2.637  0.00  0.00     0.003 A 
ENDROOT
BRANCH   1   7
ATOM      7  C1' I4B d   1      -1.706   2.052   3.227  0.00  0.00     0.060 C 
BRANCH   7   8
ATOM      8  C2' I4B d   1      -3.117   1.537   3.033  0.00  0.00    -0.013 C 
ATOM      9  C4' I4B d   1      -3.166   0.034   3.122  0.00  0.00     0.013 C 
ATOM     10  C3' I4B d   1      -3.989   2.169   4.077  0.00  0.00     0.013 C 
ENDBRANCH   7   8
ENDBRANCH   1   7
TORSDOF 2
ENDMDL
