MODEL 1
REMARK minimizedAffinity -4.41082096
REMARK minimizedRMSD -1
REMARK  2 active torsions:
REMARK  status: ('A' for Active; 'I' for Inactive)
REMARK    1  A    between atoms: C2'_3  and  C1'_4 
REMARK    2  A    between atoms: C1'_4  and  C1_5 
ROOT
ATOM      1  C1  I4B d   1      -1.797   1.723   1.936  0.00  0.00    -0.075 A 
ATOM      2  C2  I4B d   1      -0.565   2.326   1.989  0.00  0.00     0.003 A 
ATOM      3  C3  I4B d   1       0.570   1.677   1.445  0.00  0.00     0.002 A 
ATOM      4  C4  I4B d   1       0.438   0.413   0.908  0.00  0.00    -0.004 A 
ATOM      5  C5  I4B d   1      -0.816  -0.187   0.835  0.00  0.00     0.002 A 
ATOM      6  C6  I4B d   1      -1.943   0.476   1.341  0.00  0.00     0.003 A 
ENDROOT
BRANCH   1   7
ATOM      7  C1' I4B d   1      -2.969   2.422   2.549  0.00  0.00     0.060 C 
BRANCH   7   8
ATOM      8  C2' I4B d   1      -3.490   1.557   3.679  0.00  0.00    -0.013 C 
ATOM      9  C4' I4B d   1      -4.398   2.339   4.590  0.00  0.00     0.013 C 
ATOM     10  C3' I4B d   1      -4.207   0.387   3.074  0.00  0.00     0.013 C 
ENDBRANCH   7   8
ENDBRANCH   1   7
TORSDOF 2
ENDMDL
