MODEL 1
REMARK minimizedAffinity 4.71390438
REMARK minimizedRMSD -1
REMARK  2 active torsions:
REMARK  status: ('A' for Active; 'I' for Inactive)
REMARK    1  A    between atoms: C2'_3  and  C1'_4 
REMARK    2  A    between atoms: C1'_4  and  C1_5 
ROOT
ATOM      1  C1  I4B d   1       1.614   0.721   0.416  0.00  0.00    -0.075 A 
ATOM      2  C2  I4B d   1       1.129  -0.259   1.246  0.00  0.00     0.003 A 
ATOM      3  C3  I4B d   1      -0.070  -0.050   1.970  0.00  0.00     0.002 A 
ATOM      4  C4  I4B d   1      -0.719   1.164   1.875  0.00  0.00    -0.004 A 
ATOM      5  C5  I4B d   1      -0.238   2.148   1.016  0.00  0.00     0.002 A 
ATOM      6  C6  I4B d   1       0.930   1.921   0.272  0.00  0.00     0.003 A 
ENDROOT
BRANCH   1   7
ATOM      7  C1' I4B d   1       2.900   0.480  -0.308  0.00  0.00     0.060 C 
BRANCH   7   8
ATOM      8  C2' I4B d   1       2.634   0.624  -1.793  0.00  0.00    -0.013 C 
ATOM      9  C4' I4B d   1       3.014   1.996  -2.284  0.00  0.00     0.013 C 
ATOM     10  C3' I4B d   1       3.410  -0.442  -2.508  0.00  0.00     0.013 C 
ENDBRANCH   7   8
ENDBRANCH   1   7
TORSDOF 2
ENDMDL
