MODEL 1
REMARK minimizedAffinity -1.55664146
REMARK minimizedRMSD -1
REMARK  2 active torsions:
REMARK  status: ('A' for Active; 'I' for Inactive)
REMARK    1  A    between atoms: C2'_3  and  C1'_4 
REMARK    2  A    between atoms: C1'_4  and  C1_5 
ROOT
ATOM      1  C1  I4B d   1       1.278   0.621   0.763  0.00  0.00    -0.075 A 
ATOM      2  C2  I4B d   1       0.987  -0.568   1.385  0.00  0.00     0.003 A 
ATOM      3  C3  I4B d   1      -0.277  -0.763   1.993  0.00  0.00     0.002 A 
ATOM      4  C4  I4B d   1      -1.195   0.268   2.000  0.00  0.00    -0.004 A 
ATOM      5  C5  I4B d   1      -0.907   1.464   1.349  0.00  0.00     0.002 A 
ATOM      6  C6  I4B d   1       0.333   1.637   0.716  0.00  0.00     0.003 A 
ENDROOT
BRANCH   1   7
ATOM      7  C1' I4B d   1       2.634   0.805   0.160  0.00  0.00     0.060 C 
BRANCH   7   8
ATOM      8  C2' I4B d   1       2.733  -0.100  -1.051  0.00  0.00    -0.013 C 
ATOM      9  C4' I4B d   1       3.146   0.672  -2.276  0.00  0.00     0.013 C 
ATOM     10  C3' I4B d   1       3.719  -1.186  -0.738  0.00  0.00     0.013 C 
ENDBRANCH   7   8
ENDBRANCH   1   7
TORSDOF 2
ENDMDL
