MODEL 1
REMARK minimizedAffinity 0.0874266103
REMARK minimizedRMSD -1
REMARK  2 active torsions:
REMARK  status: ('A' for Active; 'I' for Inactive)
REMARK    1  A    between atoms: C2'_3  and  C1'_4 
REMARK    2  A    between atoms: C1'_4  and  C1_5 
ROOT
ATOM      1  C1  I4B d   1      -1.022   0.972   2.355  0.00  0.00    -0.075 A 
ATOM      2  C2  I4B d   1      -1.743   1.851   3.124  0.00  0.00     0.003 A 
ATOM      3  C3  I4B d   1      -3.040   1.506   3.574  0.00  0.00     0.002 A 
ATOM      4  C4  I4B d   1      -3.594   0.301   3.194  0.00  0.00    -0.004 A 
ATOM      5  C5  I4B d   1      -2.852  -0.599   2.433  0.00  0.00     0.002 A 
ATOM      6  C6  I4B d   1      -1.554  -0.267   2.021  0.00  0.00     0.003 A 
ENDROOT
BRANCH   1   7
ATOM      7  C1' I4B d   1       0.331   1.383   1.868  0.00  0.00     0.060 C 
BRANCH   7   8
ATOM      8  C2' I4B d   1       0.189   2.713   1.158  0.00  0.00    -0.013 C 
ATOM      9  C4' I4B d   1       1.532   3.349   0.916  0.00  0.00     0.013 C 
ATOM     10  C3' I4B d   1      -0.538   2.475  -0.131  0.00  0.00     0.013 C 
ENDBRANCH   7   8
ENDBRANCH   1   7
TORSDOF 2
ENDMDL
