MODEL 1
REMARK minimizedAffinity -3.11272192
REMARK minimizedRMSD -1
REMARK  1 active torsions:
REMARK  status: ('A' for Active; 'I' for Inactive)
REMARK    1  A    between atoms: C1_2  and  C2_3 
ROOT
ATOM      1  C2  UNL d   1       0.898  -1.794  -0.223  0.00  0.00    -0.081 A 
ATOM      2  C3  UNL d   1       1.662  -1.541   0.923  0.00  0.00     0.006 A 
ATOM      3  C4  UNL d   1       1.486  -0.357   1.644  0.00  0.00     0.002 A 
ATOM      4  C5  UNL d   1       0.539   0.589   1.236  0.00  0.00    -0.080 A 
ATOM      5  C6  UNL d   1       0.320   1.849   2.019  0.00  0.00     0.076 C 
ATOM      6  C7  UNL d   1      -0.212   0.344   0.082  0.00  0.00     0.002 A 
ATOM      7  C8  UNL d   1      -0.036  -0.839  -0.640  0.00  0.00     0.006 A 
ENDROOT
BRANCH   1   8
ATOM      8  C1  UNL d   1       1.039  -3.097  -0.966  0.00  0.00     0.054 C 
ATOM      9  C   UNL d   1      -0.316  -3.748  -1.204  0.00  0.00     0.018 C 
ENDBRANCH   1   8
TORSDOF 1
ENDMDL
