MODEL 1
REMARK minimizedAffinity -3.71900249
REMARK minimizedRMSD -1
REMARK  1 active torsions:
REMARK  status: ('A' for Active; 'I' for Inactive)
REMARK    1  A    between atoms: C1_2  and  C2_3 
ROOT
ATOM      1  C2  UNL d   1       0.348   1.076   0.581  0.00  0.00    -0.081 A 
ATOM      2  C3  UNL d   1       0.670   0.859  -0.764  0.00  0.00     0.006 A 
ATOM      3  C4  UNL d   1       0.527  -0.409  -1.331  0.00  0.00     0.002 A 
ATOM      4  C5  UNL d   1       0.053  -1.480  -0.565  0.00  0.00    -0.080 A 
ATOM      5  C6  UNL d   1      -0.133  -2.840  -1.170  0.00  0.00     0.076 C 
ATOM      6  C7  UNL d   1      -0.252  -1.267   0.783  0.00  0.00     0.002 A 
ATOM      7  C8  UNL d   1      -0.109   0.001   1.351  0.00  0.00     0.006 A 
ENDROOT
BRANCH   1   8
ATOM      8  C1  UNL d   1       0.439   2.457   1.179  0.00  0.00     0.054 C 
ATOM      9  C   UNL d   1       0.258   3.532   0.117  0.00  0.00     0.018 C 
ENDBRANCH   1   8
TORSDOF 1
ENDMDL
