MODEL 1
REMARK minimizedAffinity -3.64615226
REMARK minimizedRMSD -1
REMARK  1 active torsions:
REMARK  status: ('A' for Active; 'I' for Inactive)
REMARK    1  A    between atoms: C1_2  and  C2_3 
ROOT
ATOM      1  C2  UNL d   1      -0.024  -1.864  -0.803  0.00  0.00    -0.081 A 
ATOM      2  C3  UNL d   1       1.036  -0.951  -0.748  0.00  0.00     0.006 A 
ATOM      3  C4  UNL d   1       1.082   0.021   0.253  0.00  0.00     0.002 A 
ATOM      4  C5  UNL d   1       0.074   0.093   1.220  0.00  0.00    -0.080 A 
ATOM      5  C6  UNL d   1       0.127   1.113   2.319  0.00  0.00     0.076 C 
ATOM      6  C7  UNL d   1      -0.994  -0.808   1.156  0.00  0.00     0.002 A 
ATOM      7  C8  UNL d   1      -1.042  -1.780   0.154  0.00  0.00     0.006 A 
ENDROOT
BRANCH   1   8
ATOM      8  C1  UNL d   1      -0.044  -2.955  -1.843  0.00  0.00     0.054 C 
ATOM      9  C   UNL d   1      -0.388  -4.303  -1.225  0.00  0.00     0.018 C 
ENDBRANCH   1   8
TORSDOF 1
ENDMDL
