MODEL 1
REMARK minimizedAffinity 1.50762916
REMARK minimizedRMSD -1
REMARK  1 active torsions:
REMARK  status: ('A' for Active; 'I' for Inactive)
REMARK    1  A    between atoms: C1_2  and  C2_3 
ROOT
ATOM      1  C2  UNL d   1       0.055   2.098   0.618  0.00  0.00    -0.081 A 
ATOM      2  C3  UNL d   1       0.453   1.251   1.660  0.00  0.00     0.006 A 
ATOM      3  C4  UNL d   1       0.745  -0.092   1.407  0.00  0.00     0.002 A 
ATOM      4  C5  UNL d   1       0.653  -0.607   0.110  0.00  0.00    -0.080 A 
ATOM      5  C6  UNL d   1       0.993  -2.038  -0.180  0.00  0.00     0.076 C 
ATOM      6  C7  UNL d   1       0.239   0.236  -0.928  0.00  0.00     0.002 A 
ATOM      7  C8  UNL d   1      -0.054   1.578  -0.676  0.00  0.00     0.006 A 
ENDROOT
BRANCH   1   8
ATOM      8  C1  UNL d   1      -0.198   3.562   0.876  0.00  0.00     0.054 C 
ATOM      9  C   UNL d   1       0.054   4.395  -0.372  0.00  0.00     0.018 C 
ENDBRANCH   1   8
TORSDOF 1
ENDMDL
