MODEL 1
REMARK minimizedAffinity -4.79332304
REMARK minimizedRMSD -1
REMARK  1 active torsions:
REMARK  status: ('A' for Active; 'I' for Inactive)
REMARK    1  A    between atoms: C1_2  and  C2_3 
ROOT
ATOM      1  C2  UNL d   1       0.278  -0.590  -0.431  0.00  0.00    -0.081 A 
ATOM      2  C3  UNL d   1       0.428  -0.498   0.958  0.00  0.00     0.006 A 
ATOM      3  C4  UNL d   1      -0.100   0.591   1.657  0.00  0.00     0.002 A 
ATOM      4  C5  UNL d   1      -0.793   1.600   0.979  0.00  0.00    -0.080 A 
ATOM      5  C6  UNL d   1      -1.391   2.758   1.721  0.00  0.00     0.076 C 
ATOM      6  C7  UNL d   1      -0.928   1.516  -0.411  0.00  0.00     0.002 A 
ATOM      7  C8  UNL d   1      -0.400   0.428  -1.109  0.00  0.00     0.006 A 
ENDROOT
BRANCH   1   8
ATOM      8  C1  UNL d   1       0.790  -1.795  -1.178  0.00  0.00     0.054 C 
ATOM      9  C   UNL d   1      -0.329  -2.786  -1.464  0.00  0.00     0.018 C 
ENDBRANCH   1   8
TORSDOF 1
ENDMDL
