MODEL 1
REMARK minimizedAffinity 1.43749869
REMARK minimizedRMSD -1
REMARK  1 active torsions:
REMARK  status: ('A' for Active; 'I' for Inactive)
REMARK    1  A    between atoms: C1_2  and  C2_3 
ROOT
ATOM      1  C2  UNL d   1       0.622  -1.409  -0.382  0.00  0.00    -0.081 A 
ATOM      2  C3  UNL d   1       0.225  -0.159  -0.872  0.00  0.00     0.006 A 
ATOM      3  C4  UNL d   1      -0.094   0.878   0.008  0.00  0.00     0.002 A 
ATOM      4  C5  UNL d   1      -0.014   0.685   1.391  0.00  0.00    -0.080 A 
ATOM      5  C6  UNL d   1      -0.324   1.798   2.347  0.00  0.00     0.076 C 
ATOM      6  C7  UNL d   1       0.367  -0.569   1.881  0.00  0.00     0.002 A 
ATOM      7  C8  UNL d   1       0.685  -1.607   1.002  0.00  0.00     0.006 A 
ENDROOT
BRANCH   1   8
ATOM      8  C1  UNL d   1       1.029  -2.509  -1.329  0.00  0.00     0.054 C 
ATOM      9  C   UNL d   1       0.785  -3.882  -0.720  0.00  0.00     0.018 C 
ENDBRANCH   1   8
TORSDOF 1
ENDMDL
