MODEL 1
REMARK minimizedAffinity 11.0960226
REMARK minimizedRMSD -1
REMARK  1 active torsions:
REMARK  status: ('A' for Active; 'I' for Inactive)
REMARK    1  A    between atoms: C1_2  and  C2_3 
ROOT
ATOM      1  C2  UNL d   1       0.540   3.304   0.900  0.00  0.00    -0.081 A 
ATOM      2  C3  UNL d   1       0.701   3.081   2.273  0.00  0.00     0.006 A 
ATOM      3  C4  UNL d   1       0.601   1.790   2.797  0.00  0.00     0.002 A 
ATOM      4  C5  UNL d   1       0.346   0.701   1.957  0.00  0.00    -0.080 A 
ATOM      5  C6  UNL d   1       0.265  -0.694   2.502  0.00  0.00     0.076 C 
ATOM      6  C7  UNL d   1       0.167   0.926   0.588  0.00  0.00     0.002 A 
ATOM      7  C8  UNL d   1       0.267   2.217   0.063  0.00  0.00     0.006 A 
ENDROOT
BRANCH   1   8
ATOM      8  C1  UNL d   1       0.712   4.686   0.324  0.00  0.00     0.054 C 
ATOM      9  C   UNL d   1      -0.518   5.547   0.574  0.00  0.00     0.018 C 
ENDBRANCH   1   8
TORSDOF 1
ENDMDL
