MODEL 1
REMARK minimizedAffinity -2.75263381
REMARK minimizedRMSD -1
REMARK  0 active torsions:
REMARK  status: ('A' for Active; 'I' for Inactive)
ROOT
ATOM      1  C2' OXE d   1      -0.430  -0.114  -1.125  0.00  0.00     0.078 C 
ATOM      2  C1' OXE d   1      -1.744  -1.798   0.696  0.00  0.00     0.078 C 
ATOM      3  C1  OXE d   1      -0.673  -0.883   1.232  0.00  0.00    -0.078 A 
ATOM      4  C2  OXE d   1      -0.003  -0.095   0.326  0.00  0.00    -0.078 A 
ATOM      5  C3  OXE d   1       0.957   0.807   0.775  0.00  0.00     0.003 A 
ATOM      6  C4  OXE d   1       1.354   0.811   2.118  0.00  0.00    -0.002 A 
ATOM      7  C5  OXE d   1       0.712  -0.011   3.050  0.00  0.00    -0.002 A 
ATOM      8  C6  OXE d   1      -0.330  -0.831   2.632  0.00  0.00     0.003 A 
ENDROOT
TORSDOF 0
ENDMDL
