MODEL 1
REMARK minimizedAffinity 0.0770965591
REMARK minimizedRMSD -1
REMARK  0 active torsions:
REMARK  status: ('A' for Active; 'I' for Inactive)
ROOT
ATOM      1  C2' OXE d   1       2.247  -1.490   0.042  0.00  0.00     0.078 C 
ATOM      2  C1' OXE d   1       0.673  -1.500   2.366  0.00  0.00     0.078 C 
ATOM      3  C1  OXE d   1       0.150  -0.752   1.165  0.00  0.00    -0.078 A 
ATOM      4  C2  OXE d   1       0.948  -0.713   0.047  0.00  0.00    -0.078 A 
ATOM      5  C3  OXE d   1       0.489  -0.084  -1.106  0.00  0.00     0.003 A 
ATOM      6  C4  OXE d   1      -0.709   0.641  -1.089  0.00  0.00    -0.002 A 
ATOM      7  C5  OXE d   1      -1.518   0.647   0.051  0.00  0.00    -0.002 A 
ATOM      8  C6  OXE d   1      -1.125  -0.078   1.171  0.00  0.00     0.003 A 
ENDROOT
TORSDOF 0
ENDMDL
