MODEL 1
REMARK minimizedAffinity -3.07182074
REMARK minimizedRMSD -1
REMARK  0 active torsions:
REMARK  status: ('A' for Active; 'I' for Inactive)
ROOT
ATOM      1  C2' OXE d   1      -0.715   3.637  -3.447  0.00  0.00     0.078 C 
ATOM      2  C1' OXE d   1      -1.216   1.029  -2.537  0.00  0.00     0.078 C 
ATOM      3  C1  OXE d   1      -2.385   1.977  -2.633  0.00  0.00    -0.078 A 
ATOM      4  C2  OXE d   1      -2.123   3.265  -3.034  0.00  0.00    -0.078 A 
ATOM      5  C3  OXE d   1      -3.173   4.165  -3.192  0.00  0.00     0.003 A 
ATOM      6  C4  OXE d   1      -4.471   3.816  -2.799  0.00  0.00    -0.002 A 
ATOM      7  C5  OXE d   1      -4.753   2.522  -2.349  0.00  0.00    -0.002 A 
ATOM      8  C6  OXE d   1      -3.731   1.580  -2.301  0.00  0.00     0.003 A 
ENDROOT
TORSDOF 0
ENDMDL
