MODEL 1
REMARK minimizedAffinity -0.637690544
REMARK minimizedRMSD -1
REMARK  0 active torsions:
REMARK  status: ('A' for Active; 'I' for Inactive)
ROOT
ATOM      1  C2' OXE d   1       0.697   3.068  -3.156  0.00  0.00     0.078 C 
ATOM      2  C1' OXE d   1      -0.651   0.957  -1.889  0.00  0.00     0.078 C 
ATOM      3  C1  OXE d   1      -1.450   2.183  -2.255  0.00  0.00    -0.078 A 
ATOM      4  C2  OXE d   1      -0.772   3.230  -2.832  0.00  0.00    -0.078 A 
ATOM      5  C3  OXE d   1      -1.471   4.362  -3.239  0.00  0.00     0.003 A 
ATOM      6  C4  OXE d   1      -2.828   4.508  -2.927  0.00  0.00    -0.002 A 
ATOM      7  C5  OXE d   1      -3.529   3.471  -2.303  0.00  0.00    -0.002 A 
ATOM      8  C6  OXE d   1      -2.865   2.287  -1.999  0.00  0.00     0.003 A 
ENDROOT
TORSDOF 0
ENDMDL
