MODEL 1
REMARK minimizedAffinity -3.67821026
REMARK minimizedRMSD -1
REMARK  0 active torsions:
REMARK  status: ('A' for Active; 'I' for Inactive)
ROOT
ATOM      1  C2' OXE d   1      -0.195  -0.043  -0.791  0.00  0.00     0.078 C 
ATOM      2  C1' OXE d   1       1.893  -1.735  -1.601  0.00  0.00     0.078 C 
ATOM      3  C1  OXE d   1       1.483  -1.768  -0.150  0.00  0.00    -0.078 A 
ATOM      4  C2  OXE d   1       0.492  -0.903   0.247  0.00  0.00    -0.078 A 
ATOM      5  C3  OXE d   1       0.038  -0.933   1.563  0.00  0.00     0.003 A 
ATOM      6  C4  OXE d   1       0.685  -1.724   2.519  0.00  0.00    -0.002 A 
ATOM      7  C5  OXE d   1       1.724  -2.583   2.144  0.00  0.00    -0.002 A 
ATOM      8  C6  OXE d   1       2.105  -2.649   0.808  0.00  0.00     0.003 A 
ENDROOT
TORSDOF 0
ENDMDL
