MODEL 1
REMARK minimizedAffinity -5.13534689
REMARK minimizedRMSD -1
REMARK  0 active torsions:
REMARK  status: ('A' for Active; 'I' for Inactive)
ROOT
ATOM      1  C2' OXE d   1      -0.365   1.369  -1.083  0.00  0.00     0.078 C 
ATOM      2  C1' OXE d   1      -1.276  -1.217  -0.481  0.00  0.00     0.078 C 
ATOM      3  C1  OXE d   1      -0.472  -0.492   0.570  0.00  0.00    -0.078 A 
ATOM      4  C2  OXE d   1       0.009   0.754   0.249  0.00  0.00    -0.078 A 
ATOM      5  C3  OXE d   1       0.710   1.489   1.201  0.00  0.00     0.003 A 
ATOM      6  C4  OXE d   1       1.060   0.909   2.426  0.00  0.00    -0.002 A 
ATOM      7  C5  OXE d   1       0.614  -0.375   2.758  0.00  0.00    -0.002 A 
ATOM      8  C6  OXE d   1      -0.187  -1.071   1.859  0.00  0.00     0.003 A 
ENDROOT
TORSDOF 0
ENDMDL
