MODEL 1
REMARK minimizedAffinity -3.47554755
REMARK minimizedRMSD -1
REMARK  0 active torsions:
REMARK  status: ('A' for Active; 'I' for Inactive)
ROOT
ATOM      1  C2' OXE d   1       1.551  -1.123  -0.904  0.00  0.00     0.078 C 
ATOM      2  C1' OXE d   1      -1.123  -0.427  -0.409  0.00  0.00     0.078 C 
ATOM      3  C1  OXE d   1      -0.173  -0.450   0.763  0.00  0.00    -0.078 A 
ATOM      4  C2  OXE d   1       1.122  -0.837   0.519  0.00  0.00    -0.078 A 
ATOM      5  C3  OXE d   1       2.052  -0.824   1.555  0.00  0.00     0.003 A 
ATOM      6  C4  OXE d   1       1.645  -0.568   2.870  0.00  0.00    -0.002 A 
ATOM      7  C5  OXE d   1       0.321  -0.210   3.146  0.00  0.00    -0.002 A 
ATOM      8  C6  OXE d   1      -0.589  -0.105   2.100  0.00  0.00     0.003 A 
ENDROOT
TORSDOF 0
ENDMDL
