MODEL 1
REMARK minimizedAffinity -4.2901144
REMARK minimizedRMSD -1
REMARK  0 active torsions:
REMARK  status: ('A' for Active; 'I' for Inactive)
ROOT
ATOM      1  C2' OXE d   1       2.591  -0.870  -0.087  0.00  0.00     0.078 C 
ATOM      2  C1' OXE d   1       1.875  -0.767   2.626  0.00  0.00     0.078 C 
ATOM      3  C1  OXE d   1       0.786  -0.561   1.602  0.00  0.00    -0.078 A 
ATOM      4  C2  OXE d   1       1.153  -0.567   0.278  0.00  0.00    -0.078 A 
ATOM      5  C3  OXE d   1       0.180  -0.436  -0.708  0.00  0.00     0.003 A 
ATOM      6  C4  OXE d   1      -1.145  -0.146  -0.362  0.00  0.00    -0.002 A 
ATOM      7  C5  OXE d   1      -1.534  -0.096   0.981  0.00  0.00    -0.002 A 
ATOM      8  C6  OXE d   1      -0.591  -0.343   1.973  0.00  0.00     0.003 A 
ENDROOT
TORSDOF 0
ENDMDL
