MODEL 1
REMARK minimizedAffinity -4.98910427
REMARK minimizedRMSD -1
REMARK  3 active torsions:
REMARK  status: ('A' for Active; 'I' for Inactive)
REMARK    1  A    between atoms: C3'_2  and  C2'_3 
REMARK    2  A    between atoms: C2'_3  and  C1'_4 
REMARK    3  A    between atoms: C1'_4  and  C1_5 
ROOT
ATOM      1  C1  N4B d   1       0.028   0.407   0.426  0.00  0.00    -0.075 A 
ATOM      2  C2  N4B d   1      -0.303  -0.291  -0.756  0.00  0.00     0.002 A 
ATOM      3  C3  N4B d   1      -0.748  -1.589  -0.685  0.00  0.00     0.002 A 
ATOM      4  C4  N4B d   1      -0.851  -2.212   0.549  0.00  0.00    -0.004 A 
ATOM      5  C5  N4B d   1      -0.554  -1.522   1.688  0.00  0.00     0.002 A 
ATOM      6  C6  N4B d   1      -0.110  -0.216   1.632  0.00  0.00     0.002 A 
ENDROOT
BRANCH   1   7
ATOM      7  C1' N4B d   1       0.600   1.798   0.392  0.00  0.00     0.057 C 
BRANCH   7   8
ATOM      8  C2' N4B d   1       1.886   1.830   1.212  0.00  0.00     0.009 C 
BRANCH   8   9
ATOM      9  C3' N4B d   1       2.596   3.169   1.103  0.00  0.00     0.004 C 
ATOM     10  C4' N4B d   1       1.645   4.324   1.001  0.00  0.00     0.003 C 
ENDBRANCH   8   9
ENDBRANCH   7   8
ENDBRANCH   1   7
TORSDOF 3
ENDMDL
