MODEL 1
REMARK minimizedAffinity -6.19410276
REMARK minimizedRMSD -1
REMARK  3 active torsions:
REMARK  status: ('A' for Active; 'I' for Inactive)
REMARK    1  A    between atoms: C3'_2  and  C2'_3 
REMARK    2  A    between atoms: C2'_3  and  C1'_4 
REMARK    3  A    between atoms: C1'_4  and  C1_5 
ROOT
ATOM      1  C1  N4B d   1       0.611  -1.341  -0.576  0.00  0.00    -0.075 A 
ATOM      2  C2  N4B d   1      -0.305  -0.612  -1.365  0.00  0.00     0.002 A 
ATOM      3  C3  N4B d   1      -0.464   0.737  -1.163  0.00  0.00     0.002 A 
ATOM      4  C4  N4B d   1       0.266   1.372  -0.169  0.00  0.00    -0.004 A 
ATOM      5  C5  N4B d   1       1.168   0.666   0.571  0.00  0.00     0.002 A 
ATOM      6  C6  N4B d   1       1.340  -0.690   0.377  0.00  0.00     0.002 A 
ENDROOT
BRANCH   1   7
ATOM      7  C1' N4B d   1       0.756  -2.833  -0.701  0.00  0.00     0.057 C 
BRANCH   7   8
ATOM      8  C2' N4B d   1       0.092  -3.294  -1.995  0.00  0.00     0.009 C 
BRANCH   8   9
ATOM      9  C3' N4B d   1      -1.319  -3.806  -1.759  0.00  0.00     0.004 C 
ATOM     10  C4' N4B d   1      -2.258  -3.459  -2.875  0.00  0.00     0.003 C 
ENDBRANCH   8   9
ENDBRANCH   7   8
ENDBRANCH   1   7
TORSDOF 3
ENDMDL
