MODEL 1
REMARK minimizedAffinity -5.38323689
REMARK minimizedRMSD -1
REMARK  3 active torsions:
REMARK  status: ('A' for Active; 'I' for Inactive)
REMARK    1  A    between atoms: C3'_2  and  C2'_3 
REMARK    2  A    between atoms: C2'_3  and  C1'_4 
REMARK    3  A    between atoms: C1'_4  and  C1_5 
ROOT
ATOM      1  C1  N4B d   1       0.301  -0.872  -0.829  0.00  0.00    -0.075 A 
ATOM      2  C2  N4B d   1       0.776  -1.374   0.403  0.00  0.00     0.002 A 
ATOM      3  C3  N4B d   1       0.697  -2.718   0.673  0.00  0.00     0.002 A 
ATOM      4  C4  N4B d   1       0.133  -3.574  -0.262  0.00  0.00    -0.004 A 
ATOM      5  C5  N4B d   1      -0.299  -3.085  -1.460  0.00  0.00     0.002 A 
ATOM      6  C6  N4B d   1      -0.223  -1.736  -1.746  0.00  0.00     0.002 A 
ENDROOT
BRANCH   1   7
ATOM      7  C1' N4B d   1       0.287   0.601  -1.134  0.00  0.00     0.057 C 
BRANCH   7   8
ATOM      8  C2' N4B d   1      -0.295   1.354   0.059  0.00  0.00     0.009 C 
BRANCH   8   9
ATOM      9  C3' N4B d   1      -1.810   1.255   0.110  0.00  0.00     0.004 C 
ATOM     10  C4' N4B d   1      -2.307   0.607   1.367  0.00  0.00     0.003 C 
ENDBRANCH   8   9
ENDBRANCH   7   8
ENDBRANCH   1   7
TORSDOF 3
ENDMDL
