MODEL 1
REMARK minimizedAffinity -5.71470213
REMARK minimizedRMSD -1
REMARK  3 active torsions:
REMARK  status: ('A' for Active; 'I' for Inactive)
REMARK    1  A    between atoms: C3'_2  and  C2'_3 
REMARK    2  A    between atoms: C2'_3  and  C1'_4 
REMARK    3  A    between atoms: C1'_4  and  C1_5 
ROOT
ATOM      1  C1  N4B d   1      -0.804  -1.268  -0.137  0.00  0.00    -0.075 A 
ATOM      2  C2  N4B d   1      -1.218  -2.607  -0.313  0.00  0.00     0.002 A 
ATOM      3  C3  N4B d   1      -0.990  -3.245  -1.508  0.00  0.00     0.002 A 
ATOM      4  C4  N4B d   1      -0.370  -2.561  -2.543  0.00  0.00    -0.004 A 
ATOM      5  C5  N4B d   1       0.049  -1.276  -2.356  0.00  0.00     0.002 A 
ATOM      6  C6  N4B d   1      -0.169  -0.624  -1.160  0.00  0.00     0.002 A 
ENDROOT
BRANCH   1   7
ATOM      7  C1' N4B d   1      -1.108  -0.502   1.121  0.00  0.00     0.057 C 
BRANCH   7   8
ATOM      8  C2' N4B d   1      -1.826   0.794   0.757  0.00  0.00     0.009 C 
BRANCH   8   9
ATOM      9  C3' N4B d   1      -3.334   0.665   0.892  0.00  0.00     0.004 C 
ATOM     10  C4' N4B d   1      -3.878   1.420   2.068  0.00  0.00     0.003 C 
ENDBRANCH   8   9
ENDBRANCH   7   8
ENDBRANCH   1   7
TORSDOF 3
ENDMDL
