MODEL 1
REMARK minimizedAffinity -5.07092476
REMARK minimizedRMSD -1
REMARK  3 active torsions:
REMARK  status: ('A' for Active; 'I' for Inactive)
REMARK    1  A    between atoms: C3'_2  and  C2'_3 
REMARK    2  A    between atoms: C2'_3  and  C1'_4 
REMARK    3  A    between atoms: C1'_4  and  C1_5 
ROOT
ATOM      1  C1  N4B d   1      -0.084   0.521   0.201  0.00  0.00    -0.075 A 
ATOM      2  C2  N4B d   1      -0.734   1.664  -0.314  0.00  0.00     0.002 A 
ATOM      3  C3  N4B d   1      -0.937   2.758   0.491  0.00  0.00     0.002 A 
ATOM      4  C4  N4B d   1      -0.518   2.725   1.813  0.00  0.00    -0.004 A 
ATOM      5  C5  N4B d   1       0.132   1.627   2.294  0.00  0.00     0.002 A 
ATOM      6  C6  N4B d   1       0.346   0.521   1.496  0.00  0.00     0.002 A 
ENDROOT
BRANCH   1   7
ATOM      7  C1' N4B d   1       0.084  -0.732  -0.616  0.00  0.00     0.057 C 
BRANCH   7   8
ATOM      8  C2' N4B d   1      -1.103  -1.657  -0.364  0.00  0.00     0.009 C 
BRANCH   8   9
ATOM      9  C3' N4B d   1      -1.345  -2.600  -1.529  0.00  0.00     0.004 C 
ATOM     10  C4' N4B d   1      -1.088  -4.035  -1.178  0.00  0.00     0.003 C 
ENDBRANCH   8   9
ENDBRANCH   7   8
ENDBRANCH   1   7
TORSDOF 3
ENDMDL
