MODEL 1
REMARK minimizedAffinity -4.22649527
REMARK minimizedRMSD -1
REMARK  3 active torsions:
REMARK  status: ('A' for Active; 'I' for Inactive)
REMARK    1  A    between atoms: C3'_2  and  C2'_3 
REMARK    2  A    between atoms: C2'_3  and  C1'_4 
REMARK    3  A    between atoms: C1'_4  and  C1_5 
ROOT
ATOM      1  C1  N4B d   1       0.057   0.201   0.461  0.00  0.00    -0.075 A 
ATOM      2  C2  N4B d   1       1.018  -0.222   1.406  0.00  0.00     0.002 A 
ATOM      3  C3  N4B d   1       1.115   0.416   2.619  0.00  0.00     0.002 A 
ATOM      4  C4  N4B d   1       0.279   1.486   2.900  0.00  0.00    -0.004 A 
ATOM      5  C5  N4B d   1      -0.664   1.871   1.992  0.00  0.00     0.002 A 
ATOM      6  C6  N4B d   1      -0.776   1.237   0.771  0.00  0.00     0.002 A 
ENDROOT
BRANCH   1   7
ATOM      7  C1' N4B d   1      -0.030  -0.410  -0.911  0.00  0.00     0.057 C 
BRANCH   7   8
ATOM      8  C2' N4B d   1       0.335  -1.889  -0.825  0.00  0.00     0.009 C 
BRANCH   8   9
ATOM      9  C3' N4B d   1      -0.690  -2.768  -1.520  0.00  0.00     0.004 C 
ATOM     10  C4' N4B d   1      -0.602  -4.206  -1.101  0.00  0.00     0.003 C 
ENDBRANCH   8   9
ENDBRANCH   7   8
ENDBRANCH   1   7
TORSDOF 3
ENDMDL
