MODEL 1
REMARK minimizedAffinity 3.25924492
REMARK minimizedRMSD -1
REMARK  3 active torsions:
REMARK  status: ('A' for Active; 'I' for Inactive)
REMARK    1  A    between atoms: C3'_2  and  C2'_3 
REMARK    2  A    between atoms: C2'_3  and  C1'_4 
REMARK    3  A    between atoms: C1'_4  and  C1_5 
ROOT
ATOM      1  C1  N4B d   1       3.724  -1.418  -0.448  0.00  0.00    -0.075 A 
ATOM      2  C2  N4B d   1       4.549  -0.553  -1.200  0.00  0.00     0.002 A 
ATOM      3  C3  N4B d   1       5.642  -1.053  -1.864  0.00  0.00     0.002 A 
ATOM      4  C4  N4B d   1       5.939  -2.405  -1.776  0.00  0.00    -0.004 A 
ATOM      5  C5  N4B d   1       5.123  -3.237  -1.068  0.00  0.00     0.002 A 
ATOM      6  C6  N4B d   1       4.019  -2.750  -0.399  0.00  0.00     0.002 A 
ENDROOT
BRANCH   1   7
ATOM      7  C1' N4B d   1       2.568  -0.904   0.366  0.00  0.00     0.057 C 
BRANCH   7   8
ATOM      8  C2' N4B d   1       1.306  -0.917  -0.493  0.00  0.00     0.009 C 
BRANCH   8   9
ATOM      9  C3' N4B d   1       0.998   0.453  -1.071  0.00  0.00     0.004 C 
ATOM     10  C4' N4B d   1      -0.192   0.444  -1.984  0.00  0.00     0.003 C 
ENDBRANCH   8   9
ENDBRANCH   7   8
ENDBRANCH   1   7
TORSDOF 3
ENDMDL
