MODEL 1
REMARK minimizedAffinity 4.60331869
REMARK minimizedRMSD -1
REMARK  0 active torsions:
REMARK  status: ('A' for Active; 'I' for Inactive)
ROOT
ATOM      1  O1  BZF d   1      -1.451   2.522  -0.777  0.00  0.00    -0.204 OA
ATOM      2  C2  BZF d   1      -1.808   1.190  -0.689  0.00  0.00     0.174 A 
ATOM      3  C3  BZF d   1      -0.981   0.527   0.145  0.00  0.00    -0.012 A 
ATOM      4  C3A BZF d   1      -0.105   1.524   0.678  0.00  0.00    -0.107 A 
ATOM      5  C4  BZF d   1       0.926   1.487   1.573  0.00  0.00     0.055 A 
ATOM      6  C5  BZF d   1       1.626   2.625   1.822  0.00  0.00    -0.016 A 
ATOM      7  C6  BZF d   1       1.325   3.815   1.192  0.00  0.00     0.022 A 
ATOM      8  C7  BZF d   1       0.309   3.902   0.300  0.00  0.00     0.029 A 
ATOM      9  C7A BZF d   1      -0.421   2.762   0.070  0.00  0.00     0.058 A 
ENDROOT
TORSDOF 0
ENDMDL
