MODEL 1
REMARK minimizedAffinity 11.1231947
REMARK minimizedRMSD -1
REMARK  0 active torsions:
REMARK  status: ('A' for Active; 'I' for Inactive)
ROOT
ATOM      1  O1  BZF d   1      -4.115   6.000   4.025  0.00  0.00    -0.204 OA
ATOM      2  C2  BZF d   1      -5.476   5.781   4.109  0.00  0.00     0.174 A 
ATOM      3  C3  BZF d   1      -6.000   5.546   2.889  0.00  0.00    -0.012 A 
ATOM      4  C3A BZF d   1      -4.882   5.531   1.996  0.00  0.00    -0.107 A 
ATOM      5  C4  BZF d   1      -4.757   5.330   0.651  0.00  0.00     0.055 A 
ATOM      6  C5  BZF d   1      -3.532   5.453   0.076  0.00  0.00    -0.016 A 
ATOM      7  C6  BZF d   1      -2.413   5.781   0.814  0.00  0.00     0.022 A 
ATOM      8  C7  BZF d   1      -2.487   5.985   2.151  0.00  0.00     0.029 A 
ATOM      9  C7A BZF d   1      -3.717   5.829   2.741  0.00  0.00     0.058 A 
ENDROOT
TORSDOF 0
ENDMDL
