MODEL 1
REMARK minimizedAffinity 1.68248272
REMARK minimizedRMSD -1
REMARK  0 active torsions:
REMARK  status: ('A' for Active; 'I' for Inactive)
ROOT
ATOM      1  O1  BZF d   1      -5.770   2.439   5.999  0.00  0.00    -0.204 OA
ATOM      2  C2  BZF d   1      -5.799   1.480   5.006  0.00  0.00     0.174 A 
ATOM      3  C3  BZF d   1      -5.937   2.052   3.792  0.00  0.00    -0.012 A 
ATOM      4  C3A BZF d   1      -5.907   3.461   4.035  0.00  0.00    -0.107 A 
ATOM      5  C4  BZF d   1      -5.983   4.556   3.222  0.00  0.00     0.055 A 
ATOM      6  C5  BZF d   1      -5.996   5.794   3.781  0.00  0.00    -0.016 A 
ATOM      7  C6  BZF d   1      -5.940   5.975   5.148  0.00  0.00     0.022 A 
ATOM      8  C7  BZF d   1      -5.857   4.920   5.994  0.00  0.00     0.029 A 
ATOM      9  C7A BZF d   1      -5.811   3.668   5.431  0.00  0.00     0.058 A 
ENDROOT
TORSDOF 0
ENDMDL
