MODEL 1
REMARK minimizedAffinity 3.29151607
REMARK minimizedRMSD -1
REMARK  0 active torsions:
REMARK  status: ('A' for Active; 'I' for Inactive)
ROOT
ATOM      1  O1  BZF d   1       0.811  -1.650  -0.112  0.00  0.00    -0.204 OA
ATOM      2  C2  BZF d   1       1.517  -2.786  -0.459  0.00  0.00     0.174 A 
ATOM      3  C3  BZF d   1       2.826  -2.504  -0.625  0.00  0.00    -0.012 A 
ATOM      4  C3A BZF d   1       2.960  -1.123  -0.277  0.00  0.00    -0.107 A 
ATOM      5  C4  BZF d   1       4.022  -0.266  -0.227  0.00  0.00     0.055 A 
ATOM      6  C5  BZF d   1       3.805   1.039   0.083  0.00  0.00    -0.016 A 
ATOM      7  C6  BZF d   1       2.539   1.522   0.343  0.00  0.00     0.022 A 
ATOM      8  C7  BZF d   1       1.455   0.709   0.310  0.00  0.00     0.029 A 
ATOM      9  C7A BZF d   1       1.676  -0.617   0.030  0.00  0.00     0.058 A 
ENDROOT
TORSDOF 0
ENDMDL
