MODEL 1
REMARK minimizedAffinity 4.71760893
REMARK minimizedRMSD -1
REMARK  0 active torsions:
REMARK  status: ('A' for Active; 'I' for Inactive)
ROOT
ATOM      1  O1  BZF d   1      -5.968   1.196   0.012  0.00  0.00    -0.204 OA
ATOM      2  C2  BZF d   1      -5.998   0.249   1.018  0.00  0.00     0.174 A 
ATOM      3  C3  BZF d   1      -4.931  -0.572   0.933  0.00  0.00    -0.012 A 
ATOM      4  C3A BZF d   1      -4.140  -0.053  -0.140  0.00  0.00    -0.107 A 
ATOM      5  C4  BZF d   1      -2.950  -0.427  -0.696  0.00  0.00     0.055 A 
ATOM      6  C5  BZF d   1      -2.487   0.248  -1.780  0.00  0.00    -0.016 A 
ATOM      7  C6  BZF d   1      -3.188   1.297  -2.337  0.00  0.00     0.022 A 
ATOM      8  C7  BZF d   1      -4.370   1.709  -1.817  0.00  0.00     0.029 A 
ATOM      9  C7A BZF d   1      -4.825   1.050  -0.701  0.00  0.00     0.058 A 
ENDROOT
TORSDOF 0
ENDMDL
