MODEL 1
REMARK minimizedAffinity 0.31051144
REMARK minimizedRMSD -1
REMARK  0 active torsions:
REMARK  status: ('A' for Active; 'I' for Inactive)
ROOT
ATOM      1  O1  BZF d   1      -4.515  -0.752   1.215  0.00  0.00    -0.204 OA
ATOM      2  C2  BZF d   1      -5.833  -0.337   1.209  0.00  0.00     0.174 A 
ATOM      3  C3  BZF d   1      -5.991   0.740   0.413  0.00  0.00    -0.012 A 
ATOM      4  C3A BZF d   1      -4.710   0.959  -0.184  0.00  0.00    -0.107 A 
ATOM      5  C4  BZF d   1      -4.235   1.874  -1.080  0.00  0.00     0.055 A 
ATOM      6  C5  BZF d   1      -2.915   1.860  -1.402  0.00  0.00    -0.016 A 
ATOM      7  C6  BZF d   1      -2.041   0.952  -0.842  0.00  0.00     0.022 A 
ATOM      8  C7  BZF d   1      -2.466   0.022   0.048  0.00  0.00     0.029 A 
ATOM      9  C7A BZF d   1      -3.805   0.012   0.350  0.00  0.00     0.058 A 
ENDROOT
TORSDOF 0
ENDMDL
