MODEL 1
REMARK minimizedAffinity -1.5578295
REMARK minimizedRMSD -1
REMARK  0 active torsions:
REMARK  status: ('A' for Active; 'I' for Inactive)
ROOT
ATOM      1  O1  BZF d   1       2.761  -1.801  -0.722  0.00  0.00    -0.204 OA
ATOM      2  C2  BZF d   1       2.175  -0.598  -1.066  0.00  0.00     0.174 A 
ATOM      3  C3  BZF d   1       0.925  -0.791  -1.533  0.00  0.00    -0.012 A 
ATOM      4  C3A BZF d   1       0.682  -2.194  -1.391  0.00  0.00    -0.107 A 
ATOM      5  C4  BZF d   1      -0.390  -2.994  -1.667  0.00  0.00     0.055 A 
ATOM      6  C5  BZF d   1      -0.278  -4.335  -1.480  0.00  0.00    -0.016 A 
ATOM      7  C6  BZF d   1       0.890  -4.910  -1.025  0.00  0.00     0.022 A 
ATOM      8  C7  BZF d   1       1.978  -4.157  -0.733  0.00  0.00     0.029 A 
ATOM      9  C7A BZF d   1       1.858  -2.798  -0.889  0.00  0.00     0.058 A 
ENDROOT
TORSDOF 0
ENDMDL
