MODEL 1
REMARK minimizedAffinity -2.47703743
REMARK minimizedRMSD -1
REMARK  0 active torsions:
REMARK  status: ('A' for Active; 'I' for Inactive)
ROOT
ATOM      1  O1  BZF d   1       2.629  -2.972  -1.187  0.00  0.00    -0.204 OA
ATOM      2  C2  BZF d   1       1.632  -3.924  -1.089  0.00  0.00     0.174 A 
ATOM      3  C3  BZF d   1       0.417  -3.342  -1.040  0.00  0.00    -0.012 A 
ATOM      4  C3A BZF d   1       0.664  -1.942  -1.206  0.00  0.00    -0.107 A 
ATOM      5  C4  BZF d   1      -0.149  -0.846  -1.261  0.00  0.00     0.055 A 
ATOM      6  C5  BZF d   1       0.413   0.388  -1.357  0.00  0.00    -0.016 A 
ATOM      7  C6  BZF d   1       1.781   0.562  -1.395  0.00  0.00     0.022 A 
ATOM      8  C7  BZF d   1       2.627  -0.495  -1.349  0.00  0.00     0.029 A 
ATOM      9  C7A BZF d   1       2.062  -1.746  -1.285  0.00  0.00     0.058 A 
ENDROOT
TORSDOF 0
ENDMDL
