MODEL 1
REMARK minimizedAffinity -3.89897227
REMARK minimizedRMSD -1
REMARK  3 active torsions:
REMARK  status: ('A' for Active; 'I' for Inactive)
REMARK    1  A    between atoms: C3'_2  and  C2'_3 
REMARK    2  A    between atoms: C2'_3  and  C1'_4 
REMARK    3  A    between atoms: C1'_4  and  C1_5 
ROOT
ATOM      1  C1  N4B d   1       0.010   0.216   0.002  0.00  0.00    -0.075 A 
ATOM      2  C2  N4B d   1       0.059  -0.029   1.392  0.00  0.00     0.002 A 
ATOM      3  C3  N4B d   1      -0.799   0.634   2.236  0.00  0.00     0.002 A 
ATOM      4  C4  N4B d   1      -1.696   1.556   1.717  0.00  0.00    -0.004 A 
ATOM      5  C5  N4B d   1      -1.753   1.767   0.370  0.00  0.00     0.002 A 
ATOM      6  C6  N4B d   1      -0.900   1.105  -0.490  0.00  0.00     0.002 A 
ENDROOT
BRANCH   1   7
ATOM      7  C1' N4B d   1       0.985  -0.421  -0.950  0.00  0.00     0.057 C 
BRANCH   7   8
ATOM      8  C2' N4B d   1       0.780  -1.933  -0.941  0.00  0.00     0.009 C 
BRANCH   8   9
ATOM      9  C3' N4B d   1       0.440  -2.468  -2.322  0.00  0.00     0.004 C 
ATOM     10  C4' N4B d   1      -0.292  -3.776  -2.273  0.00  0.00     0.003 C 
ENDBRANCH   8   9
ENDBRANCH   7   8
ENDBRANCH   1   7
TORSDOF 3
ENDMDL
