MODEL 1
REMARK minimizedAffinity -5.11289597
REMARK minimizedRMSD -1
REMARK  3 active torsions:
REMARK  status: ('A' for Active; 'I' for Inactive)
REMARK    1  A    between atoms: C3'_2  and  C2'_3 
REMARK    2  A    between atoms: C2'_3  and  C1'_4 
REMARK    3  A    between atoms: C1'_4  and  C1_5 
ROOT
ATOM      1  C1  N4B d   1      -0.140   0.090   0.007  0.00  0.00    -0.075 A 
ATOM      2  C2  N4B d   1       0.022   0.462   1.360  0.00  0.00     0.002 A 
ATOM      3  C3  N4B d   1      -1.031   1.007   2.053  0.00  0.00     0.002 A 
ATOM      4  C4  N4B d   1      -2.244   1.205   1.412  0.00  0.00    -0.004 A 
ATOM      5  C5  N4B d   1      -2.400   0.819   0.112  0.00  0.00     0.002 A 
ATOM      6  C6  N4B d   1      -1.352   0.267  -0.595  0.00  0.00     0.002 A 
ENDROOT
BRANCH   1   7
ATOM      7  C1' N4B d   1       1.007  -0.430  -0.816  0.00  0.00     0.057 C 
BRANCH   7   8
ATOM      8  C2' N4B d   1       1.011  -1.955  -0.763  0.00  0.00     0.009 C 
BRANCH   8   9
ATOM      9  C3' N4B d   1       0.314  -2.568  -1.966  0.00  0.00     0.004 C 
ATOM     10  C4' N4B d   1      -0.583  -3.711  -1.598  0.00  0.00     0.003 C 
ENDBRANCH   8   9
ENDBRANCH   7   8
ENDBRANCH   1   7
TORSDOF 3
ENDMDL
