MODEL 1
REMARK minimizedAffinity -4.55960464
REMARK minimizedRMSD -1
REMARK  3 active torsions:
REMARK  status: ('A' for Active; 'I' for Inactive)
REMARK    1  A    between atoms: C3'_2  and  C2'_3 
REMARK    2  A    between atoms: C2'_3  and  C1'_4 
REMARK    3  A    between atoms: C1'_4  and  C1_5 
ROOT
ATOM      1  C1  N4B d   1       1.048  -1.094  -0.863  0.00  0.00    -0.075 A 
ATOM      2  C2  N4B d   1       2.156  -1.950  -1.046  0.00  0.00     0.002 A 
ATOM      3  C3  N4B d   1       2.043  -3.058  -1.849  0.00  0.00     0.002 A 
ATOM      4  C4  N4B d   1       0.831  -3.340  -2.461  0.00  0.00    -0.004 A 
ATOM      5  C5  N4B d   1      -0.228  -2.495  -2.300  0.00  0.00     0.002 A 
ATOM      6  C6  N4B d   1      -0.127  -1.375  -1.499  0.00  0.00     0.002 A 
ENDROOT
BRANCH   1   7
ATOM      7  C1' N4B d   1       1.099   0.082   0.073  0.00  0.00     0.057 C 
BRANCH   7   8
ATOM      8  C2' N4B d   1       0.835  -0.399   1.497  0.00  0.00     0.009 C 
BRANCH   8   9
ATOM      9  C3' N4B d   1      -0.621  -0.228   1.894  0.00  0.00     0.004 C 
ATOM     10  C4' N4B d   1      -1.044   1.210   1.942  0.00  0.00     0.003 C 
ENDBRANCH   8   9
ENDBRANCH   7   8
ENDBRANCH   1   7
TORSDOF 3
ENDMDL
