MODEL 1
REMARK minimizedAffinity -4.94895744
REMARK minimizedRMSD -1
REMARK  3 active torsions:
REMARK  status: ('A' for Active; 'I' for Inactive)
REMARK    1  A    between atoms: C3'_2  and  C2'_3 
REMARK    2  A    between atoms: C2'_3  and  C1'_4 
REMARK    3  A    between atoms: C1'_4  and  C1_5 
ROOT
ATOM      1  C1  N4B d   1       0.285   0.673   0.344  0.00  0.00    -0.075 A 
ATOM      2  C2  N4B d   1      -0.182   1.865  -0.253  0.00  0.00     0.002 A 
ATOM      3  C3  N4B d   1      -1.179   2.590   0.352  0.00  0.00     0.002 A 
ATOM      4  C4  N4B d   1      -1.735   2.136   1.539  0.00  0.00    -0.004 A 
ATOM      5  C5  N4B d   1      -1.261   0.997   2.121  0.00  0.00     0.002 A 
ATOM      6  C6  N4B d   1      -0.257   0.260   1.526  0.00  0.00     0.002 A 
ENDROOT
BRANCH   1   7
ATOM      7  C1' N4B d   1       1.313  -0.200  -0.324  0.00  0.00     0.057 C 
BRANCH   7   8
ATOM      8  C2' N4B d   1       0.603  -1.297  -1.112  0.00  0.00     0.009 C 
BRANCH   8   9
ATOM      9  C3' N4B d   1       1.433  -2.566  -1.192  0.00  0.00     0.004 C 
ATOM     10  C4' N4B d   1       0.831  -3.598  -2.099  0.00  0.00     0.003 C 
ENDBRANCH   8   9
ENDBRANCH   7   8
ENDBRANCH   1   7
TORSDOF 3
ENDMDL
