MODEL 1
REMARK minimizedAffinity -6.12020683
REMARK minimizedRMSD -1
REMARK  3 active torsions:
REMARK  status: ('A' for Active; 'I' for Inactive)
REMARK    1  A    between atoms: C3'_2  and  C2'_3 
REMARK    2  A    between atoms: C2'_3  and  C1'_4 
REMARK    3  A    between atoms: C1'_4  and  C1_5 
ROOT
ATOM      1  C1  N4B d   1      -0.008  -0.212   0.149  0.00  0.00    -0.075 A 
ATOM      2  C2  N4B d   1      -0.389   1.080  -0.274  0.00  0.00     0.002 A 
ATOM      3  C3  N4B d   1      -1.125   1.886   0.560  0.00  0.00     0.002 A 
ATOM      4  C4  N4B d   1      -1.506   1.416   1.808  0.00  0.00    -0.004 A 
ATOM      5  C5  N4B d   1      -1.112   0.176   2.219  0.00  0.00     0.002 A 
ATOM      6  C6  N4B d   1      -0.368  -0.643   1.393  0.00  0.00     0.002 A 
ENDROOT
BRANCH   1   7
ATOM      7  C1' N4B d   1       0.724  -1.162  -0.760  0.00  0.00     0.057 C 
BRANCH   7   8
ATOM      8  C2' N4B d   1      -0.226  -1.637  -1.856  0.00  0.00     0.009 C 
BRANCH   8   9
ATOM      9  C3' N4B d   1       0.184  -2.989  -2.416  0.00  0.00     0.004 C 
ATOM     10  C4' N4B d   1       1.467  -3.496  -1.827  0.00  0.00     0.003 C 
ENDBRANCH   8   9
ENDBRANCH   7   8
ENDBRANCH   1   7
TORSDOF 3
ENDMDL
