MODEL 1
REMARK minimizedAffinity -5.38698912
REMARK minimizedRMSD -1
REMARK  3 active torsions:
REMARK  status: ('A' for Active; 'I' for Inactive)
REMARK    1  A    between atoms: C3'_2  and  C2'_3 
REMARK    2  A    between atoms: C2'_3  and  C1'_4 
REMARK    3  A    between atoms: C1'_4  and  C1_5 
ROOT
ATOM      1  C1  N4B d   1       0.029  -0.023  -0.060  0.00  0.00    -0.075 A 
ATOM      2  C2  N4B d   1      -0.649  -0.357   1.133  0.00  0.00     0.002 A 
ATOM      3  C3  N4B d   1      -1.343   0.608   1.822  0.00  0.00     0.002 A 
ATOM      4  C4  N4B d   1      -1.359   1.911   1.348  0.00  0.00    -0.004 A 
ATOM      5  C5  N4B d   1      -0.723   2.220   0.181  0.00  0.00     0.002 A 
ATOM      6  C6  N4B d   1      -0.024   1.260  -0.523  0.00  0.00     0.002 A 
ENDROOT
BRANCH   1   7
ATOM      7  C1' N4B d   1       0.873  -1.024  -0.801  0.00  0.00     0.057 C 
BRANCH   7   8
ATOM      8  C2' N4B d   1       0.076  -1.575  -1.980  0.00  0.00     0.009 C 
BRANCH   8   9
ATOM      9  C3' N4B d   1       0.557  -2.955  -2.395  0.00  0.00     0.004 C 
ATOM     10  C4' N4B d   1      -0.439  -4.033  -2.088  0.00  0.00     0.003 C 
ENDBRANCH   8   9
ENDBRANCH   7   8
ENDBRANCH   1   7
TORSDOF 3
ENDMDL
