MODEL 1
REMARK minimizedAffinity -6.9955945
REMARK minimizedRMSD -1
REMARK  0 active torsions:
REMARK  status: ('A' for Active; 'I' for Inactive)
ROOT
ATOM      1  C1  DEN d   1      -0.439  -0.812   0.760  0.00  0.00     0.130 A 
ATOM      2  C2  DEN d   1      -0.441   0.609   1.098  0.00  0.00    -0.031 A 
ATOM      3  C3  DEN d   1       0.381   1.317   0.096  0.00  0.00     0.027 A 
ATOM      4  C4  DEN d   1       1.644   0.358  -1.938  0.00  0.00     0.027 A 
ATOM      5  C5  DEN d   1       1.950  -0.795  -2.628  0.00  0.00    -0.003 A 
ATOM      6  C6  DEN d   1       1.513  -2.027  -2.221  0.00  0.00     0.001 A 
ATOM      7  C7  DEN d   1       0.707  -2.132  -1.118  0.00  0.00     0.017 A 
ATOM      8  C8  DEN d   1       0.400  -0.975  -0.413  0.00  0.00    -0.094 A 
ATOM      9  C9  DEN d   1       0.842   0.263  -0.847  0.00  0.00    -0.072 A 
ENDROOT
TORSDOF 0
ENDMDL
