MODEL 1
REMARK minimizedAffinity -2.80634069
REMARK minimizedRMSD -1
REMARK  0 active torsions:
REMARK  status: ('A' for Active; 'I' for Inactive)
ROOT
ATOM      1  C1  DEN d   1       0.890   0.784   0.439  0.00  0.00     0.130 A 
ATOM      2  C2  DEN d   1      -0.506   0.630   0.840  0.00  0.00    -0.031 A 
ATOM      3  C3  DEN d   1      -1.249   0.065  -0.305  0.00  0.00     0.027 A 
ATOM      4  C4  DEN d   1      -0.378  -0.585  -2.644  0.00  0.00     0.027 A 
ATOM      5  C5  DEN d   1       0.733  -0.625  -3.456  0.00  0.00    -0.003 A 
ATOM      6  C6  DEN d   1       1.957  -0.170  -3.043  0.00  0.00     0.001 A 
ATOM      7  C7  DEN d   1       2.110   0.303  -1.766  0.00  0.00     0.017 A 
ATOM      8  C8  DEN d   1       0.992   0.353  -0.943  0.00  0.00    -0.094 A 
ATOM      9  C9  DEN d   1      -0.234  -0.122  -1.376  0.00  0.00    -0.072 A 
ENDROOT
TORSDOF 0
ENDMDL
