MODEL 1
REMARK minimizedAffinity 7.7459569
REMARK minimizedRMSD -1
REMARK  0 active torsions:
REMARK  status: ('A' for Active; 'I' for Inactive)
ROOT
ATOM      1  C1  DEN d   1       1.274   1.042   0.276  0.00  0.00     0.130 A 
ATOM      2  C2  DEN d   1       1.719   2.363  -0.159  0.00  0.00    -0.031 A 
ATOM      3  C3  DEN d   1       1.854   2.338  -1.630  0.00  0.00     0.027 A 
ATOM      4  C4  DEN d   1       1.413   0.394  -3.267  0.00  0.00     0.027 A 
ATOM      5  C5  DEN d   1       1.031  -0.926  -3.366  0.00  0.00    -0.003 A 
ATOM      6  C6  DEN d   1       0.738  -1.686  -2.264  0.00  0.00     0.001 A 
ATOM      7  C7  DEN d   1       0.779  -1.118  -1.018  0.00  0.00     0.017 A 
ATOM      8  C8  DEN d   1       1.171   0.210  -0.910  0.00  0.00    -0.094 A 
ATOM      9  C9  DEN d   1       1.451   0.964  -2.036  0.00  0.00    -0.072 A 
ENDROOT
TORSDOF 0
ENDMDL
