MODEL 1
REMARK minimizedAffinity -4.71560812
REMARK minimizedRMSD -1
REMARK  0 active torsions:
REMARK  status: ('A' for Active; 'I' for Inactive)
ROOT
ATOM      1  C1  DEN d   1      -0.804  -1.356  -0.482  0.00  0.00     0.130 A 
ATOM      2  C2  DEN d   1      -1.429  -0.583   0.588  0.00  0.00    -0.031 A 
ATOM      3  C3  DEN d   1      -0.801   0.753   0.612  0.00  0.00     0.027 A 
ATOM      4  C4  DEN d   1       1.064   1.698  -0.898  0.00  0.00     0.027 A 
ATOM      5  C5  DEN d   1       1.917   1.412  -1.941  0.00  0.00    -0.003 A 
ATOM      6  C6  DEN d   1       1.946   0.183  -2.544  0.00  0.00     0.001 A 
ATOM      7  C7  DEN d   1       1.075  -0.793  -2.137  0.00  0.00     0.017 A 
ATOM      8  C8  DEN d   1       0.217  -0.515  -1.081  0.00  0.00    -0.094 A 
ATOM      9  C9  DEN d   1       0.194   0.738  -0.493  0.00  0.00    -0.072 A 
ENDROOT
TORSDOF 0
ENDMDL
