MODEL 1
REMARK minimizedAffinity -2.79836965
REMARK minimizedRMSD -1
REMARK  0 active torsions:
REMARK  status: ('A' for Active; 'I' for Inactive)
ROOT
ATOM      1  C1  DEN d   1       0.890   1.320   0.587  0.00  0.00     0.130 A 
ATOM      2  C2  DEN d   1      -0.111   0.576   1.346  0.00  0.00    -0.031 A 
ATOM      3  C3  DEN d   1      -0.659  -0.478   0.468  0.00  0.00     0.027 A 
ATOM      4  C4  DEN d   1      -0.055  -1.028  -1.978  0.00  0.00     0.027 A 
ATOM      5  C5  DEN d   1       0.731  -0.664  -3.049  0.00  0.00    -0.003 A 
ATOM      6  C6  DEN d   1       1.592   0.399  -2.995  0.00  0.00     0.001 A 
ATOM      7  C7  DEN d   1       1.723   1.109  -1.831  0.00  0.00     0.017 A 
ATOM      8  C8  DEN d   1       0.929   0.752  -0.748  0.00  0.00    -0.094 A 
ATOM      9  C9  DEN d   1       0.072  -0.333  -0.819  0.00  0.00    -0.072 A 
ENDROOT
TORSDOF 0
ENDMDL
