MODEL 1
REMARK minimizedAffinity -3.83857679
REMARK minimizedRMSD -1
REMARK  0 active torsions:
REMARK  status: ('A' for Active; 'I' for Inactive)
ROOT
ATOM      1  C1  DEN d   1       1.889   0.680  -2.069  0.00  0.00     0.130 A 
ATOM      2  C2  DEN d   1       1.906  -0.502  -2.927  0.00  0.00    -0.031 A 
ATOM      3  C3  DEN d   1       1.093  -1.550  -2.276  0.00  0.00     0.027 A 
ATOM      4  C4  DEN d   1      -0.185  -1.456  -0.038  0.00  0.00     0.027 A 
ATOM      5  C5  DEN d   1      -0.485  -0.667   1.051  0.00  0.00    -0.003 A 
ATOM      6  C6  DEN d   1       0.009   0.603   1.192  0.00  0.00     0.001 A 
ATOM      7  C7  DEN d   1       0.793   1.139   0.205  0.00  0.00     0.017 A 
ATOM      8  C8  DEN d   1       1.106   0.348  -0.892  0.00  0.00    -0.094 A 
ATOM      9  C9  DEN d   1       0.587  -0.929  -1.022  0.00  0.00    -0.072 A 
ENDROOT
TORSDOF 0
ENDMDL
