MODEL 1
REMARK minimizedAffinity -3.51462483
REMARK minimizedRMSD -1
REMARK  0 active torsions:
REMARK  status: ('A' for Active; 'I' for Inactive)
ROOT
ATOM      1  C1  DEN d   1       0.774   1.624  -1.102  0.00  0.00     0.130 A 
ATOM      2  C2  DEN d   1       1.520   1.085  -2.236  0.00  0.00    -0.031 A 
ATOM      3  C3  DEN d   1       1.568  -0.384  -2.095  0.00  0.00     0.027 A 
ATOM      4  C4  DEN d   1       0.561  -1.870  -0.243  0.00  0.00     0.027 A 
ATOM      5  C5  DEN d   1      -0.150  -1.866   0.937  0.00  0.00    -0.003 A 
ATOM      6  C6  DEN d   1      -0.571  -0.706   1.532  0.00  0.00     0.001 A 
ATOM      7  C7  DEN d   1      -0.322   0.497   0.926  0.00  0.00     0.017 A 
ATOM      8  C8  DEN d   1       0.401   0.501  -0.259  0.00  0.00    -0.094 A 
ATOM      9  C9  DEN d   1       0.807  -0.682  -0.852  0.00  0.00    -0.072 A 
ENDROOT
TORSDOF 0
ENDMDL
