MODEL 1
REMARK minimizedAffinity -3.51342106
REMARK minimizedRMSD -1
REMARK  0 active torsions:
REMARK  status: ('A' for Active; 'I' for Inactive)
ROOT
ATOM      1  C1  DEN d   1       1.100  -0.975  -2.327  0.00  0.00     0.130 A 
ATOM      2  C2  DEN d   1       1.150   0.457  -2.609  0.00  0.00    -0.031 A 
ATOM      3  C3  DEN d   1       0.647   1.174  -1.420  0.00  0.00     0.027 A 
ATOM      4  C4  DEN d   1      -0.194   0.212   0.821  0.00  0.00     0.027 A 
ATOM      5  C5  DEN d   1      -0.434  -0.947   1.525  0.00  0.00    -0.003 A 
ATOM      6  C6  DEN d   1      -0.214  -2.188   0.987  0.00  0.00     0.001 A 
ATOM      7  C7  DEN d   1       0.303  -2.297  -0.277  0.00  0.00     0.017 A 
ATOM      8  C8  DEN d   1       0.542  -1.133  -0.996  0.00  0.00    -0.094 A 
ATOM      9  C9  DEN d   1       0.324   0.111  -0.430  0.00  0.00    -0.072 A 
ENDROOT
TORSDOF 0
ENDMDL
