MODEL 1
REMARK minimizedAffinity -2.4288826
REMARK minimizedRMSD -1
REMARK  0 active torsions:
REMARK  status: ('A' for Active; 'I' for Inactive)
ROOT
ATOM      1  C1  DEN d   1      -0.266   0.892   0.928  0.00  0.00     0.130 A 
ATOM      2  C2  DEN d   1      -0.974  -0.308   1.366  0.00  0.00    -0.031 A 
ATOM      3  C3  DEN d   1      -0.799  -1.345   0.329  0.00  0.00     0.027 A 
ATOM      4  C4  DEN d   1       0.495  -1.212  -1.897  0.00  0.00     0.027 A 
ATOM      5  C5  DEN d   1       1.250  -0.395  -2.710  0.00  0.00    -0.003 A 
ATOM      6  C6  DEN d   1       1.521   0.908  -2.386  0.00  0.00     0.001 A 
ATOM      7  C7  DEN d   1       1.072   1.419  -1.197  0.00  0.00     0.017 A 
ATOM      8  C8  DEN d   1       0.304   0.604  -0.376  0.00  0.00    -0.094 A 
ATOM      9  C9  DEN d   1       0.051  -0.714  -0.716  0.00  0.00    -0.072 A 
ENDROOT
TORSDOF 0
ENDMDL
