MODEL 1
REMARK minimizedAffinity -0.688141346
REMARK minimizedRMSD -1
REMARK  0 active torsions:
REMARK  status: ('A' for Active; 'I' for Inactive)
ROOT
ATOM      1  C1  DEN d   1      -1.842   1.433   1.779  0.00  0.00     0.130 A 
ATOM      2  C2  DEN d   1      -2.600   0.297   2.296  0.00  0.00    -0.031 A 
ATOM      3  C3  DEN d   1      -2.068  -0.930   1.669  0.00  0.00     0.027 A 
ATOM      4  C4  DEN d   1      -0.152  -1.179  -0.039  0.00  0.00     0.027 A 
ATOM      5  C5  DEN d   1       0.783  -0.496  -0.786  0.00  0.00    -0.003 A 
ATOM      6  C6  DEN d   1       0.884   0.869  -0.756  0.00  0.00     0.001 A 
ATOM      7  C7  DEN d   1       0.067   1.593   0.072  0.00  0.00     0.017 A 
ATOM      8  C8  DEN d   1      -0.883   0.912   0.822  0.00  0.00    -0.094 A 
ATOM      9  C9  DEN d   1      -0.962  -0.470   0.787  0.00  0.00    -0.072 A 
ENDROOT
TORSDOF 0
ENDMDL
