MODEL 1
REMARK minimizedAffinity -4.27574205
REMARK minimizedRMSD -1
REMARK  0 active torsions:
REMARK  status: ('A' for Active; 'I' for Inactive)
ROOT
ATOM      1  C1  DEN d   1       0.181  -2.410  -0.040  0.00  0.00     0.130 A 
ATOM      2  C2  DEN d   1      -0.329  -2.210   1.313  0.00  0.00    -0.031 A 
ATOM      3  C3  DEN d   1      -0.246  -0.768   1.623  0.00  0.00     0.027 A 
ATOM      4  C4  DEN d   1       0.613   1.163   0.145  0.00  0.00     0.027 A 
ATOM      5  C5  DEN d   1       1.158   1.483  -1.079  0.00  0.00    -0.003 A 
ATOM      6  C6  DEN d   1       1.445   0.531  -2.021  0.00  0.00     0.001 A 
ATOM      7  C7  DEN d   1       1.146  -0.782  -1.773  0.00  0.00     0.017 A 
ATOM      8  C8  DEN d   1       0.603  -1.113  -0.538  0.00  0.00    -0.094 A 
ATOM      9  C9  DEN d   1       0.309  -0.136   0.397  0.00  0.00    -0.072 A 
ENDROOT
TORSDOF 0
ENDMDL
