MODEL 1
REMARK minimizedAffinity -2.38618445
REMARK minimizedRMSD -1
REMARK  0 active torsions:
REMARK  status: ('A' for Active; 'I' for Inactive)
ROOT
ATOM      1  C1  DEN d   1      -3.059  -0.412   1.943  0.00  0.00     0.130 A 
ATOM      2  C2  DEN d   1      -4.261  -0.140   1.160  0.00  0.00    -0.031 A 
ATOM      3  C3  DEN d   1      -4.755   1.201   1.533  0.00  0.00     0.027 A 
ATOM      4  C4  DEN d   1      -3.776   2.876   3.233  0.00  0.00     0.027 A 
ATOM      5  C5  DEN d   1      -2.770   3.086   4.149  0.00  0.00    -0.003 A 
ATOM      6  C6  DEN d   1      -1.817   2.139   4.418  0.00  0.00     0.001 A 
ATOM      7  C7  DEN d   1      -1.824   0.955   3.729  0.00  0.00     0.017 A 
ATOM      8  C8  DEN d   1      -2.840   0.733   2.808  0.00  0.00    -0.094 A 
ATOM      9  C9  DEN d   1      -3.787   1.707   2.542  0.00  0.00    -0.072 A 
ENDROOT
TORSDOF 0
ENDMDL
