MODEL 1
REMARK minimizedAffinity 3.53838325
REMARK minimizedRMSD -1
REMARK  0 active torsions:
REMARK  status: ('A' for Active; 'I' for Inactive)
ROOT
ATOM      1  C1  DEN d   1       1.861  -0.260  -1.617  0.00  0.00     0.130 A 
ATOM      2  C2  DEN d   1       1.982   1.195  -1.563  0.00  0.00    -0.031 A 
ATOM      3  C3  DEN d   1       1.087   1.688  -0.497  0.00  0.00     0.027 A 
ATOM      4  C4  DEN d   1      -0.463   0.347   1.070  0.00  0.00     0.027 A 
ATOM      5  C5  DEN d   1      -0.913  -0.914   1.394  0.00  0.00    -0.003 A 
ATOM      6  C6  DEN d   1      -0.500  -2.032   0.719  0.00  0.00     0.001 A 
ATOM      7  C7  DEN d   1       0.425  -1.917  -0.284  0.00  0.00     0.017 A 
ATOM      8  C8  DEN d   1       0.879  -0.648  -0.621  0.00  0.00    -0.094 A 
ATOM      9  C9  DEN d   1       0.458   0.469   0.081  0.00  0.00    -0.072 A 
ENDROOT
TORSDOF 0
ENDMDL
