MODEL 1
REMARK minimizedAffinity -0.889122128
REMARK minimizedRMSD -1
REMARK  0 active torsions:
REMARK  status: ('A' for Active; 'I' for Inactive)
ROOT
ATOM      1  C1  DEN d   1       1.354  -0.117  -1.936  0.00  0.00     0.130 A 
ATOM      2  C2  DEN d   1       1.092  -1.515  -2.267  0.00  0.00    -0.031 A 
ATOM      3  C3  DEN d   1       0.254  -2.089  -1.195  0.00  0.00     0.027 A 
ATOM      4  C4  DEN d   1      -0.662  -0.953   0.932  0.00  0.00     0.027 A 
ATOM      5  C5  DEN d   1      -0.695   0.221   1.652  0.00  0.00    -0.003 A 
ATOM      6  C6  DEN d   1      -0.025   1.345   1.247  0.00  0.00     0.001 A 
ATOM      7  C7  DEN d   1       0.670   1.333   0.067  0.00  0.00     0.017 A 
ATOM      8  C8  DEN d   1       0.715   0.151  -0.661  0.00  0.00    -0.094 A 
ATOM      9  C9  DEN d   1       0.021  -0.971  -0.241  0.00  0.00    -0.072 A 
ENDROOT
TORSDOF 0
ENDMDL
