MODEL 1
REMARK minimizedAffinity 6.85341549
REMARK minimizedRMSD -1
REMARK  1 active torsions:
REMARK  status: ('A' for Active; 'I' for Inactive)
REMARK    1  A    between atoms: C1_2  and  C2_3 
ROOT
ATOM      1  C2  UNL d   1       3.844  -0.723   0.781  0.00  0.00    -0.076 A 
ATOM      2  C3  UNL d   1       3.228   0.485   1.153  0.00  0.00     0.004 A 
ATOM      3  C4  UNL d   1       3.983   1.569   1.595  0.00  0.00    -0.003 A 
ATOM      4  C5  UNL d   1       5.368   1.465   1.671  0.00  0.00     0.000 A 
ATOM      5  C6  UNL d   1       5.997   0.281   1.288  0.00  0.00     0.000 A 
ATOM      6  C7  UNL d   1       5.251  -0.817   0.825  0.00  0.00    -0.073 A 
ATOM      7  C8  UNL d   1       5.981  -2.072   0.432  0.00  0.00     0.078 C 
ENDROOT
BRANCH   1   8
ATOM      8  C1  UNL d   1       2.971  -1.874   0.336  0.00  0.00     0.053 C 
ATOM      9  C   UNL d   1       1.508  -1.671   0.700  0.00  0.00     0.018 C 
ENDBRANCH   1   8
TORSDOF 1
ENDMDL
