MODEL 1
REMARK minimizedAffinity -0.159686714
REMARK minimizedRMSD -1
REMARK  1 active torsions:
REMARK  status: ('A' for Active; 'I' for Inactive)
REMARK    1  A    between atoms: C1_2  and  C2_3 
ROOT
ATOM      1  C2  UNL d   1       5.978  -0.673  -1.604  0.00  0.00    -0.076 A 
ATOM      2  C3  UNL d   1       5.990  -1.394  -2.811  0.00  0.00     0.004 A 
ATOM      3  C4  UNL d   1       5.988  -0.735  -4.039  0.00  0.00    -0.003 A 
ATOM      4  C5  UNL d   1       5.976   0.655  -4.081  0.00  0.00     0.000 A 
ATOM      5  C6  UNL d   1       5.982   1.386  -2.893  0.00  0.00     0.000 A 
ATOM      6  C7  UNL d   1       6.000   0.737  -1.646  0.00  0.00    -0.073 A 
ATOM      7  C8  UNL d   1       6.000   1.575  -0.397  0.00  0.00     0.078 C 
ENDROOT
BRANCH   1   8
ATOM      8  C1  UNL d   1       5.953  -1.442  -0.302  0.00  0.00     0.053 C 
ATOM      9  C   UNL d   1       4.545  -1.607   0.250  0.00  0.00     0.018 C 
ENDBRANCH   1   8
TORSDOF 1
ENDMDL
