MODEL 1
REMARK minimizedAffinity 3.95168209
REMARK minimizedRMSD -1
REMARK  1 active torsions:
REMARK  status: ('A' for Active; 'I' for Inactive)
REMARK    1  A    between atoms: C1_2  and  C2_3 
ROOT
ATOM      1  C2  UNL d   1       0.568   2.205  -4.666  0.00  0.00    -0.076 A 
ATOM      2  C3  UNL d   1      -0.338   1.180  -4.343  0.00  0.00     0.004 A 
ATOM      3  C4  UNL d   1      -1.012   1.176  -3.124  0.00  0.00    -0.003 A 
ATOM      4  C5  UNL d   1      -0.792   2.197  -2.206  0.00  0.00     0.000 A 
ATOM      5  C6  UNL d   1       0.090   3.232  -2.516  0.00  0.00     0.000 A 
ATOM      6  C7  UNL d   1       0.766   3.260  -3.748  0.00  0.00    -0.073 A 
ATOM      7  C8  UNL d   1       1.711   4.396  -4.028  0.00  0.00     0.078 C 
ENDROOT
BRANCH   1   8
ATOM      8  C1  UNL d   1       1.291   2.143  -5.992  0.00  0.00     0.053 C 
ATOM      9  C   UNL d   1       2.545   1.285  -5.933  0.00  0.00     0.018 C 
ENDBRANCH   1   8
TORSDOF 1
ENDMDL
