MODEL 1
REMARK minimizedAffinity 4.7257247
REMARK minimizedRMSD -1
REMARK  1 active torsions:
REMARK  status: ('A' for Active; 'I' for Inactive)
REMARK    1  A    between atoms: C1_2  and  C2_3 
ROOT
ATOM      1  C2  UNL d   1      -0.140   2.440  -3.807  0.00  0.00    -0.076 A 
ATOM      2  C3  UNL d   1       0.625   3.379  -3.094  0.00  0.00     0.004 A 
ATOM      3  C4  UNL d   1       1.690   4.045  -3.699  0.00  0.00    -0.003 A 
ATOM      4  C5  UNL d   1       2.006   3.783  -5.027  0.00  0.00     0.000 A 
ATOM      5  C6  UNL d   1       1.247   2.867  -5.755  0.00  0.00     0.000 A 
ATOM      6  C7  UNL d   1       0.160   2.199  -5.165  0.00  0.00    -0.073 A 
ATOM      7  C8  UNL d   1      -0.621   1.217  -5.994  0.00  0.00     0.078 C 
ENDROOT
BRANCH   1   8
ATOM      8  C1  UNL d   1      -1.266   1.729  -3.090  0.00  0.00     0.053 C 
ATOM      9  C   UNL d   1      -2.492   2.611  -2.911  0.00  0.00     0.018 C 
ENDBRANCH   1   8
TORSDOF 1
ENDMDL
