MODEL 1
REMARK minimizedAffinity 4.93439913
REMARK minimizedRMSD -1
REMARK  1 active torsions:
REMARK  status: ('A' for Active; 'I' for Inactive)
REMARK    1  A    between atoms: C1_2  and  C2_3 
ROOT
ATOM      1  C2  UNL d   1       3.688  -2.073   1.031  0.00  0.00    -0.076 A 
ATOM      2  C3  UNL d   1       4.834  -2.887   1.001  0.00  0.00     0.004 A 
ATOM      3  C4  UNL d   1       4.750  -4.254   1.257  0.00  0.00    -0.003 A 
ATOM      4  C5  UNL d   1       3.518  -4.831   1.548  0.00  0.00     0.000 A 
ATOM      5  C6  UNL d   1       2.368  -4.042   1.564  0.00  0.00     0.000 A 
ATOM      6  C7  UNL d   1       2.433  -2.664   1.292  0.00  0.00    -0.073 A 
ATOM      7  C8  UNL d   1       1.162  -1.860   1.329  0.00  0.00     0.078 C 
ENDROOT
BRANCH   1   8
ATOM      8  C1  UNL d   1       3.844  -0.592   0.771  0.00  0.00     0.053 C 
ATOM      9  C   UNL d   1       5.256  -0.221   0.345  0.00  0.00     0.018 C 
ENDBRANCH   1   8
TORSDOF 1
ENDMDL
