MODEL 1
REMARK minimizedAffinity 12.2335558
REMARK minimizedRMSD -1
REMARK  1 active torsions:
REMARK  status: ('A' for Active; 'I' for Inactive)
REMARK    1  A    between atoms: C1_2  and  C2_3 
ROOT
ATOM      1  C2  UNL d   1       0.561  -2.658   1.572  0.00  0.00    -0.076 A 
ATOM      2  C3  UNL d   1       1.001  -3.918   2.014  0.00  0.00     0.004 A 
ATOM      3  C4  UNL d   1       2.008  -4.604   1.338  0.00  0.00    -0.003 A 
ATOM      4  C5  UNL d   1       2.592  -4.042   0.208  0.00  0.00     0.000 A 
ATOM      5  C6  UNL d   1       2.180  -2.786  -0.235  0.00  0.00     0.000 A 
ATOM      6  C7  UNL d   1       1.178  -2.073   0.445  0.00  0.00    -0.073 A 
ATOM      7  C8  UNL d   1       0.768  -0.724  -0.080  0.00  0.00     0.078 C 
ENDROOT
BRANCH   1   8
ATOM      8  C1  UNL d   1      -0.553  -1.972   2.330  0.00  0.00     0.053 C 
ATOM      9  C   UNL d   1      -1.514  -2.960   2.972  0.00  0.00     0.018 C 
ENDBRANCH   1   8
TORSDOF 1
ENDMDL
