MODEL 1
REMARK minimizedAffinity 17.0683956
REMARK minimizedRMSD -1
REMARK  1 active torsions:
REMARK  status: ('A' for Active; 'I' for Inactive)
REMARK    1  A    between atoms: C1_2  and  C2_3 
ROOT
ATOM      1  C2  UNL d   1      -1.408   2.017  -2.540  0.00  0.00    -0.076 A 
ATOM      2  C3  UNL d   1      -0.807   0.984  -1.800  0.00  0.00     0.004 A 
ATOM      3  C4  UNL d   1      -1.582   0.056  -1.104  0.00  0.00    -0.003 A 
ATOM      4  C5  UNL d   1      -2.969   0.147  -1.138  0.00  0.00     0.000 A 
ATOM      5  C6  UNL d   1      -3.581   1.155  -1.882  0.00  0.00     0.000 A 
ATOM      6  C7  UNL d   1      -2.816   2.089  -2.602  0.00  0.00    -0.073 A 
ATOM      7  C8  UNL d   1      -3.529   3.159  -3.382  0.00  0.00     0.078 C 
ENDROOT
BRANCH   1   8
ATOM      8  C1  UNL d   1      -0.517   3.010  -3.251  0.00  0.00     0.053 C 
ATOM      9  C   UNL d   1       0.144   2.419  -4.487  0.00  0.00     0.018 C 
ENDBRANCH   1   8
TORSDOF 1
ENDMDL
