MODEL 1
REMARK minimizedAffinity 8.11608219
REMARK minimizedRMSD -1
REMARK  1 active torsions:
REMARK  status: ('A' for Active; 'I' for Inactive)
REMARK    1  A    between atoms: C1_2  and  C2_3 
ROOT
ATOM      1  C2  UNL d   1      -3.276   4.172   5.463  0.00  0.00    -0.076 A 
ATOM      2  C3  UNL d   1      -4.092   3.161   6.000  0.00  0.00     0.004 A 
ATOM      3  C4  UNL d   1      -3.976   1.841   5.569  0.00  0.00    -0.003 A 
ATOM      4  C5  UNL d   1      -3.041   1.510   4.594  0.00  0.00     0.000 A 
ATOM      5  C6  UNL d   1      -2.211   2.497   4.063  0.00  0.00     0.000 A 
ATOM      6  C7  UNL d   1      -2.304   3.830   4.499  0.00  0.00    -0.073 A 
ATOM      7  C8  UNL d   1      -1.389   4.855   3.887  0.00  0.00     0.078 C 
ENDROOT
BRANCH   1   8
ATOM      8  C1  UNL d   1      -3.466   5.591   5.950  0.00  0.00     0.053 C 
ATOM      9  C   UNL d   1      -4.930   5.999   5.999  0.00  0.00     0.018 C 
ENDBRANCH   1   8
TORSDOF 1
ENDMDL
