MODEL 1
REMARK minimizedAffinity 12.4932299
REMARK minimizedRMSD -1
REMARK  1 active torsions:
REMARK  status: ('A' for Active; 'I' for Inactive)
REMARK    1  A    between atoms: C1_2  and  C2_3 
ROOT
ATOM      1  C2  UNL d   1       1.717  -2.111   0.843  0.00  0.00    -0.076 A 
ATOM      2  C3  UNL d   1       0.541  -1.909   1.587  0.00  0.00     0.004 A 
ATOM      3  C4  UNL d   1       0.486  -0.947   2.594  0.00  0.00    -0.003 A 
ATOM      4  C5  UNL d   1       1.605  -0.171   2.874  0.00  0.00     0.000 A 
ATOM      5  C6  UNL d   1       2.774  -0.346   2.134  0.00  0.00     0.000 A 
ATOM      6  C7  UNL d   1       2.842  -1.300   1.105  0.00  0.00    -0.073 A 
ATOM      7  C8  UNL d   1       4.130  -1.451   0.343  0.00  0.00     0.078 C 
ENDROOT
BRANCH   1   8
ATOM      8  C1  UNL d   1       1.726  -3.188  -0.218  0.00  0.00     0.053 C 
ATOM      9  C   UNL d   1       1.591  -4.585   0.367  0.00  0.00     0.018 C 
ENDBRANCH   1   8
TORSDOF 1
ENDMDL
