MODEL 1
REMARK minimizedAffinity 15.583786
REMARK minimizedRMSD -1
REMARK  1 active torsions:
REMARK  status: ('A' for Active; 'I' for Inactive)
REMARK    1  A    between atoms: C1_2  and  C2_3 
ROOT
ATOM      1  C2  UNL d   1       0.446  -1.987   1.622  0.00  0.00    -0.076 A 
ATOM      2  C3  UNL d   1       0.583  -3.113   0.790  0.00  0.00     0.004 A 
ATOM      3  C4  UNL d   1       1.802  -3.412   0.184  0.00  0.00    -0.003 A 
ATOM      4  C5  UNL d   1       2.904  -2.592   0.400  0.00  0.00     0.000 A 
ATOM      5  C6  UNL d   1       2.790  -1.481   1.236  0.00  0.00     0.000 A 
ATOM      6  C7  UNL d   1       1.573  -1.174   1.867  0.00  0.00    -0.073 A 
ATOM      7  C8  UNL d   1       1.506   0.039   2.754  0.00  0.00     0.078 C 
ENDROOT
BRANCH   1   8
ATOM      8  C1  UNL d   1      -0.908  -1.697   2.230  0.00  0.00     0.053 C 
ATOM      9  C   UNL d   1      -1.841  -2.896   2.173  0.00  0.00     0.018 C 
ENDBRANCH   1   8
TORSDOF 1
ENDMDL
