MODEL 1
REMARK minimizedAffinity 2.11561918
REMARK minimizedRMSD -1
REMARK  0 active torsions:
REMARK  status: ('A' for Active; 'I' for Inactive)
ROOT
ATOM      1  C   UNL d   1      -1.166   0.467   1.278  0.00  0.00     0.020 A 
ATOM      2  C1  UNL d   1      -1.668  -0.747   1.745  0.00  0.00     0.020 A 
ATOM      3  C2  UNL d   1      -1.599  -1.887   0.941  0.00  0.00     0.034 A 
ATOM      4  C3  UNL d   1      -1.027  -1.815  -0.334  0.00  0.00     0.017 A 
ATOM      5  C4  UNL d   1      -0.524  -0.596  -0.803  0.00  0.00     0.017 A 
ATOM      6  C5  UNL d   1      -0.595   0.542   0.007  0.00  0.00     0.034 A 
ATOM      7 Cl   UNL d   1       0.196  -0.430  -2.365  0.00  0.00    -0.070 Cl
ATOM      8 Cl1  UNL d   1      -0.975  -3.264  -1.274  0.00  0.00    -0.070 Cl
ENDROOT
TORSDOF 0
ENDMDL
