MODEL 1
REMARK minimizedAffinity -1.10864377
REMARK minimizedRMSD -1
REMARK  0 active torsions:
REMARK  status: ('A' for Active; 'I' for Inactive)
ROOT
ATOM      1  C   UNL d   1      -0.843   0.756   0.234  0.00  0.00     0.020 A 
ATOM      2  C1  UNL d   1       0.208   0.256  -0.534  0.00  0.00     0.020 A 
ATOM      3  C2  UNL d   1       1.456   0.881  -0.500  0.00  0.00     0.034 A 
ATOM      4  C3  UNL d   1       1.657   2.009   0.303  0.00  0.00     0.017 A 
ATOM      5  C4  UNL d   1       0.602   2.510   1.074  0.00  0.00     0.017 A 
ATOM      6  C5  UNL d   1      -0.646   1.881   1.036  0.00  0.00     0.034 A 
ATOM      7 Cl   UNL d   1       0.774   3.898   2.090  0.00  0.00    -0.070 Cl
ATOM      8 Cl1  UNL d   1       3.227   2.731   0.297  0.00  0.00    -0.070 Cl
ENDROOT
TORSDOF 0
ENDMDL
