MODEL 1
REMARK minimizedAffinity 6.33682108
REMARK minimizedRMSD -1
REMARK  0 active torsions:
REMARK  status: ('A' for Active; 'I' for Inactive)
ROOT
ATOM      1  C   UNL d   1       0.066   1.200  -0.459  0.00  0.00     0.020 A 
ATOM      2  C1  UNL d   1       0.593  -0.029  -0.852  0.00  0.00     0.020 A 
ATOM      3  C2  UNL d   1       0.053  -1.214  -0.348  0.00  0.00     0.034 A 
ATOM      4  C3  UNL d   1      -1.017  -1.173   0.553  0.00  0.00     0.017 A 
ATOM      5  C4  UNL d   1      -1.545   0.062   0.948  0.00  0.00     0.017 A 
ATOM      6  C5  UNL d   1      -1.001   1.245   0.440  0.00  0.00     0.034 A 
ATOM      7 Cl   UNL d   1      -2.865   0.193   2.056  0.00  0.00    -0.070 Cl
ATOM      8 Cl1  UNL d   1      -1.635  -2.677   1.137  0.00  0.00    -0.070 Cl
ENDROOT
TORSDOF 0
ENDMDL
