MODEL 1
REMARK minimizedAffinity -3.53644657
REMARK minimizedRMSD -1
REMARK  0 active torsions:
REMARK  status: ('A' for Active; 'I' for Inactive)
ROOT
ATOM      1  C   UNL d   1      -1.036   1.753   1.021  0.00  0.00     0.020 A 
ATOM      2  C1  UNL d   1      -0.369   2.147  -0.138  0.00  0.00     0.020 A 
ATOM      3  C2  UNL d   1       0.100   1.185  -1.035  0.00  0.00     0.034 A 
ATOM      4  C3  UNL d   1      -0.097  -0.176  -0.774  0.00  0.00     0.017 A 
ATOM      5  C4  UNL d   1      -0.766  -0.571   0.390  0.00  0.00     0.017 A 
ATOM      6  C5  UNL d   1      -1.234   0.397   1.284  0.00  0.00     0.034 A 
ATOM      7 Cl   UNL d   1      -1.046  -2.231   0.780  0.00  0.00    -0.070 Cl
ATOM      8 Cl1  UNL d   1       0.510  -1.311  -1.927  0.00  0.00    -0.070 Cl
ENDROOT
TORSDOF 0
ENDMDL
