MODEL 1
REMARK minimizedAffinity -4.04311419
REMARK minimizedRMSD -1
REMARK  0 active torsions:
REMARK  status: ('A' for Active; 'I' for Inactive)
ROOT
ATOM      1  C   UNL d   1      -0.079  -2.926  -2.655  0.00  0.00     0.020 A 
ATOM      2  C1  UNL d   1      -0.418  -3.610  -1.489  0.00  0.00     0.020 A 
ATOM      3  C2  UNL d   1      -0.726  -2.899  -0.327  0.00  0.00     0.034 A 
ATOM      4  C3  UNL d   1      -0.696  -1.500  -0.329  0.00  0.00     0.017 A 
ATOM      5  C4  UNL d   1      -0.356  -0.814  -1.501  0.00  0.00     0.017 A 
ATOM      6  C5  UNL d   1      -0.048  -1.531  -2.661  0.00  0.00     0.034 A 
ATOM      7 Cl   UNL d   1      -0.297   0.912  -1.581  0.00  0.00    -0.070 Cl
ATOM      8 Cl1  UNL d   1      -1.089  -0.685   1.143  0.00  0.00    -0.070 Cl
ENDROOT
TORSDOF 0
ENDMDL
