MODEL 1
REMARK minimizedAffinity -2.67283583
REMARK minimizedRMSD -1
REMARK  0 active torsions:
REMARK  status: ('A' for Active; 'I' for Inactive)
ROOT
ATOM      1  C   UNL d   1       0.362   1.624  -0.699  0.00  0.00     0.020 A 
ATOM      2  C1  UNL d   1      -0.005   1.384   0.625  0.00  0.00     0.020 A 
ATOM      3  C2  UNL d   1      -0.300   0.085   1.043  0.00  0.00     0.034 A 
ATOM      4  C3  UNL d   1      -0.229  -0.979   0.137  0.00  0.00     0.017 A 
ATOM      5  C4  UNL d   1       0.140  -0.738  -1.191  0.00  0.00     0.017 A 
ATOM      6  C5  UNL d   1       0.434   0.565  -1.605  0.00  0.00     0.034 A 
ATOM      7 Cl   UNL d   1       0.250  -2.000  -2.367  0.00  0.00    -0.070 Cl
ATOM      8 Cl1  UNL d   1      -0.607  -2.560   0.723  0.00  0.00    -0.070 Cl
ENDROOT
TORSDOF 0
ENDMDL
