MODEL 1
REMARK minimizedAffinity 5.08754063
REMARK minimizedRMSD -1
REMARK  0 active torsions:
REMARK  status: ('A' for Active; 'I' for Inactive)
ROOT
ATOM      1  C   UNL d   1      -1.367  -0.887   2.663  0.00  0.00     0.020 A 
ATOM      2  C1  UNL d   1      -1.508  -1.826   1.642  0.00  0.00     0.020 A 
ATOM      3  C2  UNL d   1      -1.140  -1.496   0.335  0.00  0.00     0.034 A 
ATOM      4  C3  UNL d   1      -0.629  -0.226   0.047  0.00  0.00     0.017 A 
ATOM      5  C4  UNL d   1      -0.488   0.716   1.073  0.00  0.00     0.017 A 
ATOM      6  C5  UNL d   1      -0.858   0.381   2.379  0.00  0.00     0.034 A 
ATOM      7 Cl   UNL d   1       0.135   2.304   0.795  0.00  0.00    -0.070 Cl
ATOM      8 Cl1  UNL d   1      -0.194   0.113  -1.590  0.00  0.00    -0.070 Cl
ENDROOT
TORSDOF 0
ENDMDL
