MODEL 1
REMARK minimizedAffinity -4.60978127
REMARK minimizedRMSD -1
REMARK  0 active torsions:
REMARK  status: ('A' for Active; 'I' for Inactive)
ROOT
ATOM      1  C   UNL d   1      -0.013   1.331  -0.075  0.00  0.00     0.020 A 
ATOM      2  C1  UNL d   1       0.304   1.265  -1.432  0.00  0.00     0.020 A 
ATOM      3  C2  UNL d   1       0.189   0.054  -2.117  0.00  0.00     0.034 A 
ATOM      4  C3  UNL d   1      -0.243  -1.097  -1.447  0.00  0.00     0.017 A 
ATOM      5  C4  UNL d   1      -0.561  -1.029  -0.086  0.00  0.00     0.017 A 
ATOM      6  C5  UNL d   1      -0.444   0.186   0.596  0.00  0.00     0.034 A 
ATOM      7 Cl   UNL d   1      -1.101  -2.406   0.809  0.00  0.00    -0.070 Cl
ATOM      8 Cl1  UNL d   1      -0.361  -2.560  -2.358  0.00  0.00    -0.070 Cl
ENDROOT
TORSDOF 0
ENDMDL
