MODEL 1
REMARK minimizedAffinity -0.632833004
REMARK minimizedRMSD -1
REMARK  0 active torsions:
REMARK  status: ('A' for Active; 'I' for Inactive)
ROOT
ATOM      1  C   UNL d   1      -0.921   0.729   1.286  0.00  0.00     0.020 A 
ATOM      2  C1  UNL d   1      -1.529  -0.402   1.830  0.00  0.00     0.020 A 
ATOM      3  C2  UNL d   1      -1.656  -1.562   1.065  0.00  0.00     0.034 A 
ATOM      4  C3  UNL d   1      -1.175  -1.595  -0.249  0.00  0.00     0.017 A 
ATOM      5  C4  UNL d   1      -0.564  -0.460  -0.794  0.00  0.00     0.017 A 
ATOM      6  C5  UNL d   1      -0.439   0.700  -0.023  0.00  0.00     0.034 A 
ATOM      7 Cl   UNL d   1       0.054  -0.425  -2.408  0.00  0.00    -0.070 Cl
ATOM      8 Cl1  UNL d   1      -1.366  -3.065  -1.138  0.00  0.00    -0.070 Cl
ENDROOT
TORSDOF 0
ENDMDL
