MODEL 1
REMARK minimizedAffinity -2.22742391
REMARK minimizedRMSD -1
REMARK  0 active torsions:
REMARK  status: ('A' for Active; 'I' for Inactive)
ROOT
ATOM      1  C   UNL d   1      -1.221  -1.325   1.952  0.00  0.00     0.020 A 
ATOM      2  C1  UNL d   1      -1.402  -2.320   0.991  0.00  0.00     0.020 A 
ATOM      3  C2  UNL d   1      -1.010  -2.094  -0.330  0.00  0.00     0.034 A 
ATOM      4  C3  UNL d   1      -0.436  -0.871  -0.695  0.00  0.00     0.017 A 
ATOM      5  C4  UNL d   1      -0.255   0.127   0.270  0.00  0.00     0.017 A 
ATOM      6  C5  UNL d   1      -0.649  -0.105   1.592  0.00  0.00     0.034 A 
ATOM      7 Cl   UNL d   1       0.447   1.662  -0.104  0.00  0.00    -0.070 Cl
ATOM      8 Cl1  UNL d   1       0.026  -0.660  -2.346  0.00  0.00    -0.070 Cl
ENDROOT
TORSDOF 0
ENDMDL
