MODEL 1
REMARK minimizedAffinity -3.95483112
REMARK minimizedRMSD -1
REMARK  0 active torsions:
REMARK  status: ('A' for Active; 'I' for Inactive)
ROOT
ATOM      1  C   UNL d   1      -1.713   0.707   0.965  0.00  0.00     0.020 A 
ATOM      2  C1  UNL d   1      -1.391  -0.648   1.023  0.00  0.00     0.020 A 
ATOM      3  C2  UNL d   1      -0.088  -1.069   0.748  0.00  0.00     0.034 A 
ATOM      4  C3  UNL d   1       0.898  -0.133   0.414  0.00  0.00     0.017 A 
ATOM      5  C4  UNL d   1       0.573   1.227   0.355  0.00  0.00     0.017 A 
ATOM      6  C5  UNL d   1      -0.733   1.643   0.632  0.00  0.00     0.034 A 
ATOM      7 Cl   UNL d   1       1.735   2.441  -0.050  0.00  0.00    -0.070 Cl
ATOM      8 Cl1  UNL d   1       2.488  -0.723   0.086  0.00  0.00    -0.070 Cl
ENDROOT
TORSDOF 0
ENDMDL
