MODEL 1
REMARK minimizedAffinity -2.41223359
REMARK minimizedRMSD -1
REMARK  0 active torsions:
REMARK  status: ('A' for Active; 'I' for Inactive)
ROOT
ATOM      1  C   UNL d   1       0.189  -2.347  -1.884  0.00  0.00     0.020 A 
ATOM      2  C1  UNL d   1      -0.305  -3.194  -0.893  0.00  0.00     0.020 A 
ATOM      3  C2  UNL d   1      -0.592  -2.690   0.377  0.00  0.00     0.034 A 
ATOM      4  C3  UNL d   1      -0.386  -1.335   0.659  0.00  0.00     0.017 A 
ATOM      5  C4  UNL d   1       0.110  -0.485  -0.336  0.00  0.00     0.017 A 
ATOM      6  C5  UNL d   1       0.396  -0.995  -1.606  0.00  0.00     0.034 A 
ATOM      7 Cl   UNL d   1       0.390   1.198  -0.062  0.00  0.00    -0.070 Cl
ATOM      8 Cl1  UNL d   1      -0.763  -0.780   2.252  0.00  0.00    -0.070 Cl
ENDROOT
TORSDOF 0
ENDMDL
