MODEL 1
REMARK minimizedAffinity -5.33029127
REMARK minimizedRMSD -1
REMARK  0 active torsions:
REMARK  status: ('A' for Active; 'I' for Inactive)
ROOT
ATOM      1  C   UNL d   1      -0.178  -3.363  -0.471  0.00  0.00     0.020 A 
ATOM      2  C1  UNL d   1       0.318  -2.682  -1.582  0.00  0.00     0.020 A 
ATOM      3  C2  UNL d   1       0.412  -1.289  -1.562  0.00  0.00     0.034 A 
ATOM      4  C3  UNL d   1       0.011  -0.573  -0.428  0.00  0.00     0.017 A 
ATOM      5  C4  UNL d   1      -0.486  -1.257   0.687  0.00  0.00     0.017 A 
ATOM      6  C5  UNL d   1      -0.578  -2.652   0.661  0.00  0.00     0.034 A 
ATOM      7 Cl   UNL d   1      -1.000  -0.443   2.121  0.00  0.00    -0.070 Cl
ATOM      8 Cl1  UNL d   1       0.156   1.149  -0.473  0.00  0.00    -0.070 Cl
ENDROOT
TORSDOF 0
ENDMDL
