MODEL 1
REMARK minimizedAffinity -5.26490355
REMARK minimizedRMSD -1
REMARK  0 active torsions:
REMARK  status: ('A' for Active; 'I' for Inactive)
ROOT
ATOM      1  C   UNL d   1       0.300  -3.388  -0.182  0.00  0.00     0.020 A 
ATOM      2  C1  UNL d   1       0.853  -2.804  -1.321  0.00  0.00     0.020 A 
ATOM      3  C2  UNL d   1       0.744  -1.427  -1.522  0.00  0.00     0.034 A 
ATOM      4  C3  UNL d   1       0.081  -0.628  -0.583  0.00  0.00     0.017 A 
ATOM      5  C4  UNL d   1      -0.473  -1.216   0.560  0.00  0.00     0.017 A 
ATOM      6  C5  UNL d   1      -0.362  -2.595   0.757  0.00  0.00     0.034 A 
ATOM      7 Cl   UNL d   1      -1.306  -0.296   1.764  0.00  0.00    -0.070 Cl
ATOM      8 Cl1  UNL d   1      -0.015   1.068  -0.896  0.00  0.00    -0.070 Cl
ENDROOT
TORSDOF 0
ENDMDL
