MODEL 1
REMARK minimizedAffinity -2.24528861
REMARK minimizedRMSD -1
REMARK  0 active torsions:
REMARK  status: ('A' for Active; 'I' for Inactive)
ROOT
ATOM      1  C   UNL d   1      -1.238  -1.250   1.295  0.00  0.00     0.020 A 
ATOM      2  C1  UNL d   1      -0.800   0.049   1.039  0.00  0.00     0.020 A 
ATOM      3  C2  UNL d   1      -0.309   0.385  -0.224  0.00  0.00     0.034 A 
ATOM      4  C3  UNL d   1      -0.254  -0.579  -1.237  0.00  0.00     0.017 A 
ATOM      5  C4  UNL d   1      -0.694  -1.883  -0.980  0.00  0.00     0.017 A 
ATOM      6  C5  UNL d   1      -1.185  -2.214   0.287  0.00  0.00     0.034 A 
ATOM      7 Cl   UNL d   1      -0.658  -3.127  -2.180  0.00  0.00    -0.070 Cl
ATOM      8 Cl1  UNL d   1       0.364  -0.094  -2.776  0.00  0.00    -0.070 Cl
ENDROOT
TORSDOF 0
ENDMDL
