MODEL 1
REMARK minimizedAffinity 17.4770107
REMARK minimizedRMSD -1
REMARK  0 active torsions:
REMARK  status: ('A' for Active; 'I' for Inactive)
ROOT
ATOM      1  C4' PXY d   1      -4.886   3.779   5.999  0.00  0.00     0.077 C 
ATOM      2  C1' PXY d   1      -3.345  -1.080   3.272  0.00  0.00     0.077 C 
ATOM      3  C1  PXY d   1      -3.748   0.189   3.999  0.00  0.00    -0.082 A 
ATOM      4  C2  PXY d   1      -4.465   1.104   3.368  0.00  0.00     0.003 A 
ATOM      5  C3  PXY d   1      -4.811   2.271   4.000  0.00  0.00     0.003 A 
ATOM      6  C4  PXY d   1      -4.464   2.479   5.308  0.00  0.00    -0.082 A 
ATOM      7  C5  PXY d   1      -3.742   1.545   5.962  0.00  0.00     0.003 A 
ATOM      8  C6  PXY d   1      -3.366   0.386   5.290  0.00  0.00     0.003 A 
ENDROOT
TORSDOF 0
ENDMDL
