MODEL 1
REMARK minimizedAffinity 8.23574352
REMARK minimizedRMSD -1
REMARK  0 active torsions:
REMARK  status: ('A' for Active; 'I' for Inactive)
ROOT
ATOM      1  C4' PXY d   1      -3.733  -2.997   4.491  0.00  0.00     0.077 C 
ATOM      2  C1' PXY d   1      -4.787   2.664   3.985  0.00  0.00     0.077 C 
ATOM      3  C1  PXY d   1      -4.521   1.177   4.110  0.00  0.00    -0.082 A 
ATOM      4  C2  PXY d   1      -3.840   0.720   5.148  0.00  0.00     0.003 A 
ATOM      5  C3  PXY d   1      -3.562  -0.618   5.260  0.00  0.00     0.003 A 
ATOM      6  C4  PXY d   1      -4.033  -1.504   4.328  0.00  0.00    -0.082 A 
ATOM      7  C5  PXY d   1      -4.738  -1.046   3.272  0.00  0.00     0.003 A 
ATOM      8  C6  PXY d   1      -4.974   0.320   3.155  0.00  0.00     0.003 A 
ENDROOT
TORSDOF 0
ENDMDL
