MODEL 1
REMARK minimizedAffinity 5.24418259
REMARK minimizedRMSD -1
REMARK  0 active torsions:
REMARK  status: ('A' for Active; 'I' for Inactive)
ROOT
ATOM      1  C4' PXY d   1      -3.273   4.700  -5.999  0.00  0.00     0.077 C 
ATOM      2  C1' PXY d   1      -1.636  -0.110  -3.243  0.00  0.00     0.077 C 
ATOM      3  C1  PXY d   1      -2.060   1.146  -3.977  0.00  0.00    -0.082 A 
ATOM      4  C2  PXY d   1      -2.243   2.269  -3.300  0.00  0.00     0.003 A 
ATOM      5  C3  PXY d   1      -2.657   3.407  -3.944  0.00  0.00     0.003 A 
ATOM      6  C4  PXY d   1      -2.836   3.409  -5.301  0.00  0.00    -0.082 A 
ATOM      7  C5  PXY d   1      -2.641   2.271  -6.000  0.00  0.00     0.003 A 
ATOM      8  C6  PXY d   1      -2.260   1.116  -5.322  0.00  0.00     0.003 A 
ENDROOT
TORSDOF 0
ENDMDL
