MODEL 1
REMARK minimizedAffinity 15.5708599
REMARK minimizedRMSD -1
REMARK  0 active torsions:
REMARK  status: ('A' for Active; 'I' for Inactive)
ROOT
ATOM      1  C4' PXY d   1      -4.164  -5.999   0.389  0.00  0.00     0.077 C 
ATOM      2  C1' PXY d   1      -4.069  -0.933   3.170  0.00  0.00     0.077 C 
ATOM      3  C1  PXY d   1      -4.107  -2.261   2.439  0.00  0.00    -0.082 A 
ATOM      4  C2  PXY d   1      -3.124  -3.129   2.611  0.00  0.00     0.003 A 
ATOM      5  C3  PXY d   1      -3.126  -4.321   1.933  0.00  0.00     0.003 A 
ATOM      6  C4  PXY d   1      -4.172  -4.650   1.113  0.00  0.00    -0.082 A 
ATOM      7  C5  PXY d   1      -5.184  -3.774   0.941  0.00  0.00     0.003 A 
ATOM      8  C6  PXY d   1      -5.143  -2.552   1.606  0.00  0.00     0.003 A 
ENDROOT
TORSDOF 0
ENDMDL
