MODEL 1
REMARK minimizedAffinity 19.7289886
REMARK minimizedRMSD -1
REMARK  0 active torsions:
REMARK  status: ('A' for Active; 'I' for Inactive)
ROOT
ATOM      1  C4' PXY d   1       1.415  -3.263  -0.173  0.00  0.00     0.077 C 
ATOM      2  C1' PXY d   1       3.069   1.986  -1.941  0.00  0.00     0.077 C 
ATOM      3  C1  PXY d   1       2.625   0.611  -1.485  0.00  0.00    -0.082 A 
ATOM      4  C2  PXY d   1       3.054   0.135  -0.327  0.00  0.00     0.003 A 
ATOM      5  C3  PXY d   1       2.688  -1.120   0.085  0.00  0.00     0.003 A 
ATOM      6  C4  PXY d   1       1.830  -1.875  -0.669  0.00  0.00    -0.082 A 
ATOM      7  C5  PXY d   1       1.379  -1.393  -1.847  0.00  0.00     0.003 A 
ATOM      8  C6  PXY d   1       1.796  -0.133  -2.268  0.00  0.00     0.003 A 
ENDROOT
TORSDOF 0
ENDMDL
