MODEL 1
REMARK minimizedAffinity 10.2974815
REMARK minimizedRMSD -1
REMARK  0 active torsions:
REMARK  status: ('A' for Active; 'I' for Inactive)
ROOT
ATOM      1  C4' PXY d   1       0.051   2.237   3.128  0.00  0.00     0.077 C 
ATOM      2  C1' PXY d   1      -4.300  -1.476   2.298  0.00  0.00     0.077 C 
ATOM      3  C1  PXY d   1      -3.151  -0.512   2.516  0.00  0.00    -0.082 A 
ATOM      4  C2  PXY d   1      -3.392   0.692   3.010  0.00  0.00     0.003 A 
ATOM      5  C3  PXY d   1      -2.368   1.587   3.184  0.00  0.00     0.003 A 
ATOM      6  C4  PXY d   1      -1.078   1.228   2.900  0.00  0.00    -0.082 A 
ATOM      7  C5  PXY d   1      -0.823  -0.002   2.406  0.00  0.00     0.003 A 
ATOM      8  C6  PXY d   1      -1.881  -0.882   2.198  0.00  0.00     0.003 A 
ENDROOT
TORSDOF 0
ENDMDL
