MODEL 1
REMARK minimizedAffinity 5.57991982
REMARK minimizedRMSD -1
REMARK  0 active torsions:
REMARK  status: ('A' for Active; 'I' for Inactive)
ROOT
ATOM      1  C4' PXY d   1      -4.824   4.433  -6.000  0.00  0.00     0.077 C 
ATOM      2  C1' PXY d   1       0.304   2.225  -4.503  0.00  0.00     0.077 C 
ATOM      3  C1  PXY d   1      -1.036   2.816  -4.897  0.00  0.00    -0.082 A 
ATOM      4  C2  PXY d   1      -2.152   2.216  -4.516  0.00  0.00     0.003 A 
ATOM      5  C3  PXY d   1      -3.372   2.719  -4.891  0.00  0.00     0.003 A 
ATOM      6  C4  PXY d   1      -3.450   3.877  -5.617  0.00  0.00    -0.082 A 
ATOM      7  C5  PXY d   1      -2.315   4.500  -6.000  0.00  0.00     0.003 A 
ATOM      8  C6  PXY d   1      -1.087   3.951  -5.645  0.00  0.00     0.003 A 
ENDROOT
TORSDOF 0
ENDMDL
