MODEL 1
REMARK minimizedAffinity 10.3787289
REMARK minimizedRMSD -1
REMARK  0 active torsions:
REMARK  status: ('A' for Active; 'I' for Inactive)
ROOT
ATOM      1  C4' PXY d   1       2.921  -3.651   0.227  0.00  0.00     0.077 C 
ATOM      2  C1' PXY d   1       3.008   1.808  -1.671  0.00  0.00     0.077 C 
ATOM      3  C1  PXY d   1       2.998   0.377  -1.173  0.00  0.00    -0.082 A 
ATOM      4  C2  PXY d   1       1.956  -0.398  -1.429  0.00  0.00     0.003 A 
ATOM      5  C3  PXY d   1       1.917  -1.685  -0.958  0.00  0.00     0.003 A 
ATOM      6  C4  PXY d   1       2.978  -2.202  -0.264  0.00  0.00    -0.082 A 
ATOM      7  C5  PXY d   1       4.049  -1.421  -0.008  0.00  0.00     0.003 A 
ATOM      8  C6  PXY d   1       4.052  -0.105  -0.459  0.00  0.00     0.003 A 
ENDROOT
TORSDOF 0
ENDMDL
