MODEL 1
REMARK minimizedAffinity 11.9212465
REMARK minimizedRMSD -1
REMARK  0 active torsions:
REMARK  status: ('A' for Active; 'I' for Inactive)
ROOT
ATOM      1  C4' PXY d   1      -6.000  -1.940   2.000  0.00  0.00     0.077 C 
ATOM      2  C1' PXY d   1      -1.412   1.419   3.040  0.00  0.00     0.077 C 
ATOM      3  C1  PXY d   1      -2.611   0.530   2.776  0.00  0.00    -0.082 A 
ATOM      4  C2  PXY d   1      -3.230   0.596   1.608  0.00  0.00     0.003 A 
ATOM      5  C3  PXY d   1      -4.336  -0.178   1.365  0.00  0.00     0.003 A 
ATOM      6  C4  PXY d   1      -4.780  -1.067   2.306  0.00  0.00    -0.082 A 
ATOM      7  C5  PXY d   1      -4.147  -1.149   3.496  0.00  0.00     0.003 A 
ATOM      8  C6  PXY d   1      -3.051  -0.325   3.739  0.00  0.00     0.003 A 
ENDROOT
TORSDOF 0
ENDMDL
