MODEL 1
REMARK minimizedAffinity 8.75717163
REMARK minimizedRMSD -1
REMARK  0 active torsions:
REMARK  status: ('A' for Active; 'I' for Inactive)
ROOT
ATOM      1  C4' PXY d   1      -5.999  -6.000  -5.996  0.00  0.00     0.077 C 
ATOM      2  C1' PXY d   1      -1.858  -2.199  -4.649  0.00  0.00     0.077 C 
ATOM      3  C1  PXY d   1      -2.936  -3.200  -5.012  0.00  0.00    -0.082 A 
ATOM      4  C2  PXY d   1      -4.195  -2.951  -4.690  0.00  0.00     0.003 A 
ATOM      5  C3  PXY d   1      -5.179  -3.861  -4.982  0.00  0.00     0.003 A 
ATOM      6  C4  PXY d   1      -4.878  -5.013  -5.658  0.00  0.00    -0.082 A 
ATOM      7  C5  PXY d   1      -3.598  -5.269  -5.999  0.00  0.00     0.003 A 
ATOM      8  C6  PXY d   1      -2.608  -4.352  -5.657  0.00  0.00     0.003 A 
ENDROOT
TORSDOF 0
ENDMDL
