MODEL 1
REMARK minimizedAffinity 7.1708312
REMARK minimizedRMSD -1
REMARK  0 active torsions:
REMARK  status: ('A' for Active; 'I' for Inactive)
ROOT
ATOM      1  C4' PXY d   1       2.944   0.114  -0.136  0.00  0.00     0.077 C 
ATOM      2  C1' PXY d   1       1.188  -3.941  -3.862  0.00  0.00     0.077 C 
ATOM      3  C1  PXY d   1       1.646  -2.886  -2.875  0.00  0.00    -0.082 A 
ATOM      4  C2  PXY d   1       1.606  -1.609  -3.218  0.00  0.00     0.003 A 
ATOM      5  C3  PXY d   1       2.046  -0.643  -2.349  0.00  0.00     0.003 A 
ATOM      6  C4  PXY d   1       2.482  -0.985  -1.097  0.00  0.00    -0.082 A 
ATOM      7  C5  PXY d   1       2.516  -2.285  -0.736  0.00  0.00     0.003 A 
ATOM      8  C6  PXY d   1       2.103  -3.253  -1.647  0.00  0.00     0.003 A 
ENDROOT
TORSDOF 0
ENDMDL
