MODEL 1
REMARK minimizedAffinity 3.66214609
REMARK minimizedRMSD -1
REMARK  0 active torsions:
REMARK  status: ('A' for Active; 'I' for Inactive)
ROOT
ATOM      1  C4' PXY d   1       2.842   0.708  -1.289  0.00  0.00     0.077 C 
ATOM      2  C1' PXY d   1       1.391  -4.839  -2.018  0.00  0.00     0.077 C 
ATOM      3  C1  PXY d   1       1.773  -3.383  -1.840  0.00  0.00    -0.082 A 
ATOM      4  C2  PXY d   1       2.252  -2.970  -0.678  0.00  0.00     0.003 A 
ATOM      5  C3  PXY d   1       2.573  -1.651  -0.489  0.00  0.00     0.003 A 
ATOM      6  C4  PXY d   1       2.452  -0.755  -1.517  0.00  0.00    -0.082 A 
ATOM      7  C5  PXY d   1       1.974  -1.170  -2.709  0.00  0.00     0.003 A 
ATOM      8  C6  PXY d   1       1.616  -2.506  -2.868  0.00  0.00     0.003 A 
ENDROOT
TORSDOF 0
ENDMDL
