MODEL 1
REMARK minimizedAffinity 3.84595919
REMARK minimizedRMSD -1
REMARK  0 active torsions:
REMARK  status: ('A' for Active; 'I' for Inactive)
ROOT
ATOM      1  C4' PXY d   1       2.224  -0.406  -2.244  0.00  0.00     0.077 C 
ATOM      2  C1' PXY d   1       3.108  -5.999  -1.083  0.00  0.00     0.077 C 
ATOM      3  C1  PXY d   1       2.881  -4.534  -1.399  0.00  0.00    -0.082 A 
ATOM      4  C2  PXY d   1       2.796  -3.657  -0.412  0.00  0.00     0.003 A 
ATOM      5  C3  PXY d   1       2.560  -2.333  -0.679  0.00  0.00     0.003 A 
ATOM      6  C4  PXY d   1       2.462  -1.894  -1.972  0.00  0.00    -0.082 A 
ATOM      7  C5  PXY d   1       2.558  -2.780  -2.985  0.00  0.00     0.003 A 
ATOM      8  C6  PXY d   1       2.758  -4.126  -2.691  0.00  0.00     0.003 A 
ENDROOT
TORSDOF 0
ENDMDL
