MODEL 1
REMARK minimizedAffinity 3.41339183
REMARK minimizedRMSD -1
REMARK  0 active torsions:
REMARK  status: ('A' for Active; 'I' for Inactive)
ROOT
ATOM      1  C4' PXY d   1       3.909  -0.589   0.078  0.00  0.00     0.077 C 
ATOM      2  C1' PXY d   1      -0.012  -3.676  -2.839  0.00  0.00     0.077 C 
ATOM      3  C1  PXY d   1       1.014  -2.874  -2.064  0.00  0.00    -0.082 A 
ATOM      4  C2  PXY d   1       1.309  -1.643  -2.449  0.00  0.00     0.003 A 
ATOM      5  C3  PXY d   1       2.258  -0.915  -1.778  0.00  0.00     0.003 A 
ATOM      6  C4  PXY d   1       2.872  -1.433  -0.670  0.00  0.00    -0.082 A 
ATOM      7  C5  PXY d   1       2.569  -2.684  -0.264  0.00  0.00     0.003 A 
ATOM      8  C6  PXY d   1       1.633  -3.422  -0.983  0.00  0.00     0.003 A 
ENDROOT
TORSDOF 0
ENDMDL
