MODEL 1
REMARK minimizedAffinity 6.29319191
REMARK minimizedRMSD -1
REMARK  0 active torsions:
REMARK  status: ('A' for Active; 'I' for Inactive)
ROOT
ATOM      1  C4' PXY d   1       3.861   1.188   0.183  0.00  0.00     0.077 C 
ATOM      2  C1' PXY d   1       1.258  -3.077  -2.724  0.00  0.00     0.077 C 
ATOM      3  C1  PXY d   1       1.941  -1.966  -1.951  0.00  0.00    -0.082 A 
ATOM      4  C2  PXY d   1       1.825  -0.715  -2.365  0.00  0.00     0.003 A 
ATOM      5  C3  PXY d   1       2.462   0.299  -1.696  0.00  0.00     0.003 A 
ATOM      6  C4  PXY d   1       3.181   0.035  -0.561  0.00  0.00    -0.082 A 
ATOM      7  C5  PXY d   1       3.295  -1.238  -0.126  0.00  0.00     0.003 A 
ATOM      8  C6  PXY d   1       2.675  -2.257  -0.843  0.00  0.00     0.003 A 
ENDROOT
TORSDOF 0
ENDMDL
