MODEL 1
REMARK minimizedAffinity 6.24276972
REMARK minimizedRMSD -1
REMARK  0 active torsions:
REMARK  status: ('A' for Active; 'I' for Inactive)
ROOT
ATOM      1  C4' PXY d   1       2.322   0.393  -1.150  0.00  0.00     0.077 C 
ATOM      2  C1' PXY d   1       1.298  -5.176  -2.318  0.00  0.00     0.077 C 
ATOM      3  C1  PXY d   1       1.566  -3.718  -1.999  0.00  0.00    -0.082 A 
ATOM      4  C2  PXY d   1       1.308  -2.791  -2.908  0.00  0.00     0.003 A 
ATOM      5  C3  PXY d   1       1.574  -1.472  -2.647  0.00  0.00     0.003 A 
ATOM      6  C4  PXY d   1       2.059  -1.091  -1.425  0.00  0.00    -0.082 A 
ATOM      7  C5  PXY d   1       2.315  -2.029  -0.489  0.00  0.00     0.003 A 
ATOM      8  C6  PXY d   1       2.077  -3.367  -0.787  0.00  0.00     0.003 A 
ENDROOT
TORSDOF 0
ENDMDL
