MODEL 1
REMARK minimizedAffinity 9.04591751
REMARK minimizedRMSD -1
REMARK  0 active torsions:
REMARK  status: ('A' for Active; 'I' for Inactive)
ROOT
ATOM      1  C4' PXY d   1      -3.094   0.073   2.034  0.00  0.00     0.077 C 
ATOM      2  C1' PXY d   1       1.940   1.725   4.345  0.00  0.00     0.077 C 
ATOM      3  C1  PXY d   1       0.614   1.301   3.746  0.00  0.00    -0.082 A 
ATOM      4  C2  PXY d   1       0.479   0.080   3.253  0.00  0.00     0.003 A 
ATOM      5  C3  PXY d   1      -0.703  -0.309   2.679  0.00  0.00     0.003 A 
ATOM      6  C4  PXY d   1      -1.776   0.541   2.657  0.00  0.00    -0.082 A 
ATOM      7  C5  PXY d   1      -1.650   1.784   3.168  0.00  0.00     0.003 A 
ATOM      8  C6  PXY d   1      -0.428   2.174   3.709  0.00  0.00     0.003 A 
ENDROOT
TORSDOF 0
ENDMDL
