MODEL 1
REMARK minimizedAffinity 10.543643
REMARK minimizedRMSD -1
REMARK  0 active torsions:
REMARK  status: ('A' for Active; 'I' for Inactive)
ROOT
ATOM      1  C4' PXY d   1       1.286   0.231  -3.768  0.00  0.00     0.077 C 
ATOM      2  C1' PXY d   1       2.839  -3.680   0.194  0.00  0.00     0.077 C 
ATOM      3  C1  PXY d   1       2.434  -2.663  -0.854  0.00  0.00    -0.082 A 
ATOM      4  C2  PXY d   1       2.491  -1.372  -0.570  0.00  0.00     0.003 A 
ATOM      5  C3  PXY d   1       2.098  -0.440  -1.495  0.00  0.00     0.003 A 
ATOM      6  C4  PXY d   1       1.694  -0.831  -2.744  0.00  0.00    -0.082 A 
ATOM      7  C5  PXY d   1       1.643  -2.146  -3.045  0.00  0.00     0.003 A 
ATOM      8  C6  PXY d   1       2.007  -3.078  -2.078  0.00  0.00     0.003 A 
ENDROOT
TORSDOF 0
ENDMDL
