MODEL 1
REMARK minimizedAffinity 10.8884153
REMARK minimizedRMSD -1
REMARK  0 active torsions:
REMARK  status: ('A' for Active; 'I' for Inactive)
ROOT
ATOM      1  C4' PXY d   1      -2.485   2.477  -0.454  0.00  0.00     0.077 C 
ATOM      2  C1' PXY d   1      -1.654   0.968   5.064  0.00  0.00     0.077 C 
ATOM      3  C1  PXY d   1      -1.868   1.376   3.619  0.00  0.00    -0.082 A 
ATOM      4  C2  PXY d   1      -2.745   0.720   2.877  0.00  0.00     0.003 A 
ATOM      5  C3  PXY d   1      -2.927   1.055   1.560  0.00  0.00     0.003 A 
ATOM      6  C4  PXY d   1      -2.244   2.106   1.012  0.00  0.00    -0.082 A 
ATOM      7  C5  PXY d   1      -1.355   2.788   1.765  0.00  0.00     0.003 A 
ATOM      8  C6  PXY d   1      -1.154   2.406   3.088  0.00  0.00     0.003 A 
ENDROOT
TORSDOF 0
ENDMDL
