MODEL 1
REMARK minimizedAffinity -4.48498106
REMARK minimizedRMSD -1
REMARK  1 active torsions:
REMARK  status: ('A' for Active; 'I' for Inactive)
REMARK    1  A    between atoms: C1_2  and  C2_3 
ROOT
ATOM      1  C2  UNL d   1      -0.454   1.185  -0.417  0.00  0.00    -0.076 A 
ATOM      2  C3  UNL d   1      -0.431   0.969   0.972  0.00  0.00     0.004 A 
ATOM      3  C4  UNL d   1      -0.925   1.927   1.856  0.00  0.00    -0.003 A 
ATOM      4  C5  UNL d   1      -1.452   3.116   1.365  0.00  0.00     0.000 A 
ATOM      5  C6  UNL d   1      -1.500   3.340  -0.010  0.00  0.00     0.000 A 
ATOM      6  C7  UNL d   1      -1.020   2.378  -0.916  0.00  0.00    -0.073 A 
ATOM      7  C8  UNL d   1      -1.091   2.674  -2.389  0.00  0.00     0.078 C 
ENDROOT
BRANCH   1   8
ATOM      8  C1  UNL d   1       0.121   0.122  -1.325  0.00  0.00     0.053 C 
ATOM      9  C   UNL d   1       0.899  -0.938  -0.561  0.00  0.00     0.018 C 
ENDBRANCH   1   8
TORSDOF 1
ENDMDL
