MODEL 1
REMARK minimizedAffinity 5.07751751
REMARK minimizedRMSD -1
REMARK  1 active torsions:
REMARK  status: ('A' for Active; 'I' for Inactive)
REMARK    1  A    between atoms: C1_2  and  C2_3 
ROOT
ATOM      1  C2  UNL d   1      -1.299  -1.279  -1.950  0.00  0.00    -0.076 A 
ATOM      2  C3  UNL d   1      -0.062  -0.827  -2.441  0.00  0.00     0.004 A 
ATOM      3  C4  UNL d   1       0.332   0.501  -2.283  0.00  0.00    -0.003 A 
ATOM      4  C5  UNL d   1      -0.506   1.398  -1.629  0.00  0.00     0.000 A 
ATOM      5  C6  UNL d   1      -1.729   0.964  -1.120  0.00  0.00     0.000 A 
ATOM      6  C7  UNL d   1      -2.133  -0.375  -1.257  0.00  0.00    -0.073 A 
ATOM      7  C8  UNL d   1      -3.465  -0.788  -0.694  0.00  0.00     0.078 C 
ENDROOT
BRANCH   1   8
ATOM      8  C1  UNL d   1      -1.684  -2.723  -2.175  0.00  0.00     0.053 C 
ATOM      9  C   UNL d   1      -0.639  -3.694  -1.647  0.00  0.00     0.018 C 
ENDBRANCH   1   8
TORSDOF 1
ENDMDL
