MODEL 1
REMARK minimizedAffinity -2.92370224
REMARK minimizedRMSD -1
REMARK  1 active torsions:
REMARK  status: ('A' for Active; 'I' for Inactive)
REMARK    1  A    between atoms: C1_2  and  C2_3 
ROOT
ATOM      1  C2  UNL d   1       0.085   0.409   0.033  0.00  0.00    -0.076 A 
ATOM      2  C3  UNL d   1      -1.003   1.198  -0.378  0.00  0.00     0.004 A 
ATOM      3  C4  UNL d   1      -1.613   2.092   0.501  0.00  0.00    -0.003 A 
ATOM      4  C5  UNL d   1      -1.144   2.212   1.804  0.00  0.00     0.000 A 
ATOM      5  C6  UNL d   1      -0.054   1.450   2.223  0.00  0.00     0.000 A 
ATOM      6  C7  UNL d   1       0.583   0.556   1.346  0.00  0.00    -0.073 A 
ATOM      7  C8  UNL d   1       1.750  -0.245   1.853  0.00  0.00     0.078 C 
ENDROOT
BRANCH   1   8
ATOM      8  C1  UNL d   1       0.689  -0.563  -0.955  0.00  0.00     0.053 C 
ATOM      9  C   UNL d   1      -0.058  -1.887  -1.000  0.00  0.00     0.018 C 
ENDBRANCH   1   8
TORSDOF 1
ENDMDL
