MODEL 1
REMARK minimizedAffinity -5.41819763
REMARK minimizedRMSD -1
REMARK  1 active torsions:
REMARK  status: ('A' for Active; 'I' for Inactive)
REMARK    1  A    between atoms: C1_2  and  C2_3 
ROOT
ATOM      1  C2  UNL d   1       0.051  -0.083  -0.055  0.00  0.00    -0.076 A 
ATOM      2  C3  UNL d   1       0.165  -0.488   1.286  0.00  0.00     0.004 A 
ATOM      3  C4  UNL d   1      -0.183   0.371   2.327  0.00  0.00    -0.003 A 
ATOM      4  C5  UNL d   1      -0.653   1.648   2.044  0.00  0.00     0.000 A 
ATOM      5  C6  UNL d   1      -0.790   2.061   0.719  0.00  0.00     0.000 A 
ATOM      6  C7  UNL d   1      -0.458   1.202  -0.343  0.00  0.00    -0.073 A 
ATOM      7  C8  UNL d   1      -0.619   1.701  -1.753  0.00  0.00     0.078 C 
ENDROOT
BRANCH   1   8
ATOM      8  C1  UNL d   1       0.470  -1.047  -1.141  0.00  0.00     0.053 C 
ATOM      9  C   UNL d   1      -0.087  -2.446  -0.926  0.00  0.00     0.018 C 
ENDBRANCH   1   8
TORSDOF 1
ENDMDL
