MODEL 1
REMARK minimizedAffinity -5.12473583
REMARK minimizedRMSD -1
REMARK  1 active torsions:
REMARK  status: ('A' for Active; 'I' for Inactive)
REMARK    1  A    between atoms: C1_2  and  C2_3 
ROOT
ATOM      1  C2  UNL d   1      -0.063  -0.019   0.159  0.00  0.00    -0.076 A 
ATOM      2  C3  UNL d   1      -0.935   0.921  -0.416  0.00  0.00     0.004 A 
ATOM      3  C4  UNL d   1      -1.431   1.990   0.329  0.00  0.00    -0.003 A 
ATOM      4  C5  UNL d   1      -1.062   2.135   1.662  0.00  0.00     0.000 A 
ATOM      5  C6  UNL d   1      -0.184   1.221   2.244  0.00  0.00     0.000 A 
ATOM      6  C7  UNL d   1       0.338   0.148   1.502  0.00  0.00    -0.073 A 
ATOM      7  C8  UNL d   1       1.276  -0.812   2.181  0.00  0.00     0.078 C 
ENDROOT
BRANCH   1   8
ATOM      8  C1  UNL d   1       0.421  -1.173  -0.691  0.00  0.00     0.053 C 
ATOM      9  C   UNL d   1      -0.715  -2.073  -1.152  0.00  0.00     0.018 C 
ENDBRANCH   1   8
TORSDOF 1
ENDMDL
