MODEL 1
REMARK minimizedAffinity -4.22158194
REMARK minimizedRMSD -1
REMARK  1 active torsions:
REMARK  status: ('A' for Active; 'I' for Inactive)
REMARK    1  A    between atoms: C1_2  and  C2_3 
ROOT
ATOM      1  C2  UNL d   1       0.075  -0.000   0.048  0.00  0.00    -0.076 A 
ATOM      2  C3  UNL d   1       0.101  -0.340   1.412  0.00  0.00     0.004 A 
ATOM      3  C4  UNL d   1      -0.394   0.534   2.379  0.00  0.00    -0.003 A 
ATOM      4  C5  UNL d   1      -0.924   1.761   1.997  0.00  0.00     0.000 A 
ATOM      5  C6  UNL d   1      -0.974   2.108   0.647  0.00  0.00     0.000 A 
ATOM      6  C7  UNL d   1      -0.494   1.231  -0.341  0.00  0.00    -0.073 A 
ATOM      7  C8  UNL d   1      -0.567   1.658  -1.782  0.00  0.00     0.078 C 
ENDROOT
BRANCH   1   8
ATOM      8  C1  UNL d   1       0.651  -0.976  -0.952  0.00  0.00     0.053 C 
ATOM      9  C   UNL d   1      -0.107  -2.294  -0.984  0.00  0.00     0.018 C 
ENDBRANCH   1   8
TORSDOF 1
ENDMDL
