MODEL 1
REMARK minimizedAffinity -3.79863214
REMARK minimizedRMSD -1
REMARK  1 active torsions:
REMARK  status: ('A' for Active; 'I' for Inactive)
REMARK    1  A    between atoms: C1_2  and  C2_3 
ROOT
ATOM      1  C2  UNL d   1       0.076   0.522   0.587  0.00  0.00    -0.076 A 
ATOM      2  C3  UNL d   1       0.168  -0.702   1.271  0.00  0.00     0.004 A 
ATOM      3  C4  UNL d   1       0.282  -1.906   0.577  0.00  0.00    -0.003 A 
ATOM      4  C5  UNL d   1       0.306  -1.904  -0.813  0.00  0.00     0.000 A 
ATOM      5  C6  UNL d   1       0.234  -0.697  -1.508  0.00  0.00     0.000 A 
ATOM      6  C7  UNL d   1       0.136   0.526  -0.823  0.00  0.00    -0.073 A 
ATOM      7  C8  UNL d   1       0.055   1.797  -1.623  0.00  0.00     0.078 C 
ENDROOT
BRANCH   1   8
ATOM      8  C1  UNL d   1      -0.073   1.793   1.393  0.00  0.00     0.053 C 
ATOM      9  C   UNL d   1      -1.527   2.136   1.675  0.00  0.00     0.018 C 
ENDBRANCH   1   8
TORSDOF 1
ENDMDL
