MODEL 1
REMARK minimizedAffinity -1.85223818
REMARK minimizedRMSD -1
REMARK  1 active torsions:
REMARK  status: ('A' for Active; 'I' for Inactive)
REMARK    1  A    between atoms: C1_2  and  C2_3 
ROOT
ATOM      1  C2  UNL d   1       1.058   1.009   0.213  0.00  0.00    -0.077 A 
ATOM      2  C3  UNL d   1       0.484   1.768  -0.816  0.00  0.00     0.002 A 
ATOM      3  C4  UNL d   1      -0.588   1.262  -1.553  0.00  0.00     0.002 A 
ATOM      4  C5  UNL d   1      -1.098  -0.003  -1.266  0.00  0.00    -0.004 A 
ATOM      5  C6  UNL d   1      -0.532  -0.766  -0.246  0.00  0.00     0.002 A 
ATOM      6  C7  UNL d   1       0.540  -0.263   0.491  0.00  0.00     0.002 A 
ENDROOT
BRANCH   1   7
ATOM      7  C1  UNL d   1       2.183   1.573   1.042  0.00  0.00     0.055 C 
ATOM      8  C   UNL d   1       3.133   2.405   0.192  0.00  0.00     0.019 C 
ENDBRANCH   1   7
TORSDOF 1
ENDMDL
