MODEL 1
REMARK minimizedAffinity -3.70024753
REMARK minimizedRMSD -1
REMARK  1 active torsions:
REMARK  status: ('A' for Active; 'I' for Inactive)
REMARK    1  A    between atoms: C1_2  and  C2_3 
ROOT
ATOM      1  C2  UNL d   1      -0.751  -1.660  -0.009  0.00  0.00    -0.077 A 
ATOM      2  C3  UNL d   1       0.378  -0.871   0.249  0.00  0.00     0.002 A 
ATOM      3  C4  UNL d   1       0.554   0.347  -0.411  0.00  0.00     0.002 A 
ATOM      4  C5  UNL d   1      -0.397   0.788  -1.329  0.00  0.00    -0.004 A 
ATOM      5  C6  UNL d   1      -1.522   0.009  -1.594  0.00  0.00     0.002 A 
ATOM      6  C7  UNL d   1      -1.699  -1.209  -0.936  0.00  0.00     0.002 A 
ENDROOT
BRANCH   1   7
ATOM      7  C1  UNL d   1      -0.968  -2.951   0.738  0.00  0.00     0.055 C 
ATOM      8  C   UNL d   1      -2.326  -3.556   0.415  0.00  0.00     0.019 C 
ENDBRANCH   1   7
TORSDOF 1
ENDMDL
