MODEL 1
REMARK minimizedAffinity -2.69316173
REMARK minimizedRMSD -1
REMARK  1 active torsions:
REMARK  status: ('A' for Active; 'I' for Inactive)
REMARK    1  A    between atoms: C1_2  and  C2_3 
ROOT
ATOM      1  C2  UNL d   1       0.221  -0.326  -0.193  0.00  0.00    -0.077 A 
ATOM      2  C3  UNL d   1      -0.619  -1.088   0.632  0.00  0.00     0.002 A 
ATOM      3  C4  UNL d   1      -1.908  -1.423   0.211  0.00  0.00     0.002 A 
ATOM      4  C5  UNL d   1      -2.366  -1.003  -1.035  0.00  0.00    -0.004 A 
ATOM      5  C6  UNL d   1      -1.540  -0.243  -1.862  0.00  0.00     0.002 A 
ATOM      6  C7  UNL d   1      -0.252   0.093  -1.443  0.00  0.00     0.002 A 
ENDROOT
BRANCH   1   7
ATOM      7  C1  UNL d   1       1.628  -0.006   0.238  0.00  0.00     0.055 C 
ATOM      8  C   UNL d   1       1.796   1.479   0.524  0.00  0.00     0.019 C 
ENDBRANCH   1   7
TORSDOF 1
ENDMDL
