MODEL 1
REMARK minimizedAffinity -4.56223726
REMARK minimizedRMSD -1
REMARK  1 active torsions:
REMARK  status: ('A' for Active; 'I' for Inactive)
REMARK    1  A    between atoms: C1_2  and  C2_3 
ROOT
ATOM      1  C2  UNL d   1       1.205   1.440   0.722  0.00  0.00    -0.077 A 
ATOM      2  C3  UNL d   1      -0.070   1.999   0.554  0.00  0.00     0.002 A 
ATOM      3  C4  UNL d   1      -0.972   1.440  -0.353  0.00  0.00     0.002 A 
ATOM      4  C5  UNL d   1      -0.610   0.319  -1.097  0.00  0.00    -0.004 A 
ATOM      5  C6  UNL d   1       0.656  -0.243  -0.938  0.00  0.00     0.002 A 
ATOM      6  C7  UNL d   1       1.559   0.315  -0.033  0.00  0.00     0.002 A 
ENDROOT
BRANCH   1   7
ATOM      7  C1  UNL d   1       2.162   2.012   1.736  0.00  0.00     0.055 C 
ATOM      8  C   UNL d   1       3.072   3.058   1.110  0.00  0.00     0.019 C 
ENDBRANCH   1   7
TORSDOF 1
ENDMDL
