MODEL 1
REMARK minimizedAffinity -3.4891448
REMARK minimizedRMSD -1
REMARK  1 active torsions:
REMARK  status: ('A' for Active; 'I' for Inactive)
REMARK    1  A    between atoms: C1_2  and  C2_3 
ROOT
ATOM      1  C2  UNL d   1       1.546   1.448   0.322  0.00  0.00    -0.077 A 
ATOM      2  C3  UNL d   1       1.509   0.096  -0.046  0.00  0.00     0.002 A 
ATOM      3  C4  UNL d   1       0.331  -0.469  -0.541  0.00  0.00     0.002 A 
ATOM      4  C5  UNL d   1      -0.815   0.312  -0.676  0.00  0.00    -0.004 A 
ATOM      5  C6  UNL d   1      -0.788   1.657  -0.310  0.00  0.00     0.002 A 
ATOM      6  C7  UNL d   1       0.388   2.223   0.185  0.00  0.00     0.002 A 
ENDROOT
BRANCH   1   7
ATOM      7  C1  UNL d   1       2.828   2.071   0.810  0.00  0.00     0.055 C 
ATOM      8  C   UNL d   1       2.654   2.689   2.189  0.00  0.00     0.019 C 
ENDBRANCH   1   7
TORSDOF 1
ENDMDL
