MODEL 1
REMARK minimizedAffinity -3.93320632
REMARK minimizedRMSD -1
REMARK  1 active torsions:
REMARK  status: ('A' for Active; 'I' for Inactive)
REMARK    1  A    between atoms: C1_2  and  C2_3 
ROOT
ATOM      1  C2  UNL d   1       1.641   1.532   1.072  0.00  0.00    -0.077 A 
ATOM      2  C3  UNL d   1       2.112   0.276   0.666  0.00  0.00     0.002 A 
ATOM      3  C4  UNL d   1       1.283  -0.593  -0.045  0.00  0.00     0.002 A 
ATOM      4  C5  UNL d   1      -0.021  -0.215  -0.360  0.00  0.00    -0.004 A 
ATOM      5  C6  UNL d   1      -0.499   1.032   0.042  0.00  0.00     0.002 A 
ATOM      6  C7  UNL d   1       0.328   1.902   0.753  0.00  0.00     0.002 A 
ENDROOT
BRANCH   1   7
ATOM      7  C1  UNL d   1       2.550   2.491   1.796  0.00  0.00     0.055 C 
ATOM      8  C   UNL d   1       2.466   3.889   1.200  0.00  0.00     0.019 C 
ENDBRANCH   1   7
TORSDOF 1
ENDMDL
