MODEL 1
REMARK minimizedAffinity -3.63780332
REMARK minimizedRMSD -1
REMARK  1 active torsions:
REMARK  status: ('A' for Active; 'I' for Inactive)
REMARK    1  A    between atoms: C1_2  and  C2_3 
ROOT
ATOM      1  C2  UNL d   1       0.634   0.515  -0.578  0.00  0.00    -0.077 A 
ATOM      2  C3  UNL d   1      -0.281   1.555  -0.363  0.00  0.00     0.002 A 
ATOM      3  C4  UNL d   1      -1.488   1.589  -1.063  0.00  0.00     0.002 A 
ATOM      4  C5  UNL d   1      -1.794   0.585  -1.978  0.00  0.00    -0.004 A 
ATOM      5  C6  UNL d   1      -0.890  -0.453  -2.201  0.00  0.00     0.002 A 
ATOM      6  C7  UNL d   1       0.319  -0.488  -1.503  0.00  0.00     0.002 A 
ENDROOT
BRANCH   1   7
ATOM      7  C1  UNL d   1       1.915   0.450   0.211  0.00  0.00     0.055 C 
ATOM      8  C   UNL d   1       2.573   1.818   0.313  0.00  0.00     0.019 C 
ENDBRANCH   1   7
TORSDOF 1
ENDMDL
