MODEL 1
REMARK minimizedAffinity -3.4376483
REMARK minimizedRMSD -1
REMARK  1 active torsions:
REMARK  status: ('A' for Active; 'I' for Inactive)
REMARK    1  A    between atoms: C1_2  and  C2_3 
ROOT
ATOM      1  C2  UNL d   1      -1.258  -1.803  -0.066  0.00  0.00    -0.077 A 
ATOM      2  C3  UNL d   1      -0.025  -1.185   0.189  0.00  0.00     0.002 A 
ATOM      3  C4  UNL d   1       0.281   0.046  -0.393  0.00  0.00     0.002 A 
ATOM      4  C5  UNL d   1      -0.641   0.672  -1.230  0.00  0.00    -0.004 A 
ATOM      5  C6  UNL d   1      -1.868   0.065  -1.491  0.00  0.00     0.002 A 
ATOM      6  C7  UNL d   1      -2.176  -1.167  -0.912  0.00  0.00     0.002 A 
ENDROOT
BRANCH   1   7
ATOM      7  C1  UNL d   1      -1.610  -3.107   0.600  0.00  0.00     0.055 C 
ATOM      8  C   UNL d   1      -0.829  -3.298   1.891  0.00  0.00     0.019 C 
ENDBRANCH   1   7
TORSDOF 1
ENDMDL
