MODEL 1
REMARK minimizedAffinity -3.42243981
REMARK minimizedRMSD -1
REMARK  1 active torsions:
REMARK  status: ('A' for Active; 'I' for Inactive)
REMARK    1  A    between atoms: C1_2  and  C2_3 
ROOT
ATOM      1  C2  UNL d   1      -0.775   0.221  -0.900  0.00  0.00    -0.077 A 
ATOM      2  C3  UNL d   1       0.435  -0.460  -1.095  0.00  0.00     0.002 A 
ATOM      3  C4  UNL d   1       1.540  -0.182  -0.288  0.00  0.00     0.002 A 
ATOM      4  C5  UNL d   1       1.444   0.772   0.722  0.00  0.00    -0.004 A 
ATOM      5  C6  UNL d   1       0.246   1.456   0.923  0.00  0.00     0.002 A 
ATOM      6  C7  UNL d   1      -0.859   1.181   0.117  0.00  0.00     0.002 A 
ENDROOT
BRANCH   1   7
ATOM      7  C1  UNL d   1      -1.983  -0.112  -1.737  0.00  0.00     0.055 C 
ATOM      8  C   UNL d   1      -2.596  -1.441  -1.320  0.00  0.00     0.019 C 
ENDBRANCH   1   7
TORSDOF 1
ENDMDL
