MODEL 1
REMARK minimizedAffinity -5.02642107
REMARK minimizedRMSD -1
REMARK  1 active torsions:
REMARK  status: ('A' for Active; 'I' for Inactive)
REMARK    1  A    between atoms: C1_2  and  C2_3 
ROOT
ATOM      1  C2  UNL d   1       0.966   1.460   0.485  0.00  0.00    -0.077 A 
ATOM      2  C3  UNL d   1       0.980   0.110   0.108  0.00  0.00     0.002 A 
ATOM      3  C4  UNL d   1      -0.051  -0.416  -0.673  0.00  0.00     0.002 A 
ATOM      4  C5  UNL d   1      -1.101   0.402  -1.086  0.00  0.00    -0.004 A 
ATOM      5  C6  UNL d   1      -1.125   1.745  -0.714  0.00  0.00     0.002 A 
ATOM      6  C7  UNL d   1      -0.096   2.272   0.068  0.00  0.00     0.002 A 
ENDROOT
BRANCH   1   7
ATOM      7  C1  UNL d   1       2.102   2.041   1.286  0.00  0.00     0.055 C 
ATOM      8  C   UNL d   1       2.201   3.547   1.094  0.00  0.00     0.019 C 
ENDBRANCH   1   7
TORSDOF 1
ENDMDL
