MODEL 1
REMARK minimizedAffinity -1.28051972
REMARK minimizedRMSD -1
REMARK  1 active torsions:
REMARK  status: ('A' for Active; 'I' for Inactive)
REMARK    1  A    between atoms: C1_2  and  C2_3 
ROOT
ATOM      1  C2  UNL d   1      -1.437  -1.216  -0.413  0.00  0.00    -0.077 A 
ATOM      2  C3  UNL d   1      -0.734  -1.538   0.756  0.00  0.00     0.002 A 
ATOM      3  C4  UNL d   1      -1.065  -2.681   1.487  0.00  0.00     0.002 A 
ATOM      4  C5  UNL d   1      -2.096  -3.512   1.054  0.00  0.00    -0.004 A 
ATOM      5  C6  UNL d   1      -2.802  -3.199  -0.106  0.00  0.00     0.002 A 
ATOM      6  C7  UNL d   1      -2.474  -2.057  -0.837  0.00  0.00     0.002 A 
ENDROOT
BRANCH   1   7
ATOM      7  C1  UNL d   1      -1.049  -0.011  -1.229  0.00  0.00     0.055 C 
ATOM      8  C   UNL d   1       0.024   0.810  -0.529  0.00  0.00     0.019 C 
ENDBRANCH   1   7
TORSDOF 1
ENDMDL
