MODEL 1
REMARK minimizedAffinity 22.0821362
REMARK minimizedRMSD -1
REMARK  0 active torsions:
REMARK  status: ('A' for Active; 'I' for Inactive)
ROOT
ATOM      1  C   UNL d   1       2.845   0.179  -0.036  0.00  0.00     0.124 A 
ATOM      2  C1  UNL d   1       2.668  -1.195  -0.110  0.00  0.00     0.062 A 
ATOM      3  C2  UNL d   1       2.047  -1.879   0.931  0.00  0.00     0.162 A 
ATOM      4  C3  UNL d   1       1.597  -1.188   2.056  0.00  0.00    -0.034 A 
ATOM      5  C4  UNL d   1       1.779   0.194   2.124  0.00  0.00     0.162 A 
ATOM      6  C5  UNL d   1       2.401   0.873   1.081  0.00  0.00     0.062 A 
ATOM      7  F   UNL d   1       2.571   2.201   1.155  0.00  0.00    -0.097 F 
ATOM      8  F1  UNL d   1       1.359   0.890   3.192  0.00  0.00    -0.096 F 
ATOM      9  I   UNL d   1       0.667  -2.206   3.615  0.00  0.00    -0.060 I 
ATOM     10  F2  UNL d   1       1.889  -3.207   0.832  0.00  0.00    -0.096 F 
ATOM     11  F3  UNL d   1       3.098  -1.868  -1.188  0.00  0.00    -0.097 F 
ATOM     12  F4  UNL d   1       3.445   0.834  -1.039  0.00  0.00    -0.092 F 
ENDROOT
TORSDOF 0
ENDMDL
