MODEL 1
REMARK minimizedAffinity 10.4800596
REMARK minimizedRMSD -1
REMARK  0 active torsions:
REMARK  status: ('A' for Active; 'I' for Inactive)
ROOT
ATOM      1  C   UNL d   1       2.811   1.091  -0.521  0.00  0.00     0.124 A 
ATOM      2  C1  UNL d   1       1.684   0.938   0.275  0.00  0.00     0.062 A 
ATOM      3  C2  UNL d   1       1.001  -0.275   0.295  0.00  0.00     0.162 A 
ATOM      4  C3  UNL d   1       1.443  -1.344  -0.484  0.00  0.00    -0.034 A 
ATOM      5  C4  UNL d   1       2.576  -1.182  -1.282  0.00  0.00     0.162 A 
ATOM      6  C5  UNL d   1       3.256   0.032  -1.298  0.00  0.00     0.062 A 
ATOM      7  F   UNL d   1       4.344   0.178  -2.068  0.00  0.00    -0.097 F 
ATOM      8  F1  UNL d   1       3.029  -2.190  -2.043  0.00  0.00    -0.096 F 
ATOM      9  I   UNL d   1       0.424  -3.159  -0.457  0.00  0.00    -0.060 I 
ATOM     10  F2  UNL d   1      -0.085  -0.395   1.073  0.00  0.00    -0.096 F 
ATOM     11  F3  UNL d   1       1.251   1.960   1.027  0.00  0.00    -0.097 F 
ATOM     12  F4  UNL d   1       3.466   2.259  -0.538  0.00  0.00    -0.092 F 
ENDROOT
TORSDOF 0
ENDMDL
