MODEL 1
REMARK minimizedAffinity 5.45259094
REMARK minimizedRMSD -1
REMARK  0 active torsions:
REMARK  status: ('A' for Active; 'I' for Inactive)
ROOT
ATOM      1  C   UNL d   1       2.368   0.190  -0.843  0.00  0.00     0.124 A 
ATOM      2  C1  UNL d   1       2.825  -1.120  -0.893  0.00  0.00     0.062 A 
ATOM      3  C2  UNL d   1       1.920  -2.177  -0.916  0.00  0.00     0.162 A 
ATOM      4  C3  UNL d   1       0.548  -1.929  -0.890  0.00  0.00    -0.034 A 
ATOM      5  C4  UNL d   1       0.095  -0.609  -0.839  0.00  0.00     0.162 A 
ATOM      6  C5  UNL d   1       1.004   0.444  -0.816  0.00  0.00     0.062 A 
ATOM      7  F   UNL d   1       0.561   1.708  -0.767  0.00  0.00    -0.097 F 
ATOM      8  F1  UNL d   1      -1.217  -0.335  -0.813  0.00  0.00    -0.096 F 
ATOM      9  I   UNL d   1      -0.809  -3.507  -0.925  0.00  0.00    -0.060 I 
ATOM     10  F2  UNL d   1       2.390  -3.432  -0.965  0.00  0.00    -0.096 F 
ATOM     11  F3  UNL d   1       4.143  -1.368  -0.918  0.00  0.00    -0.097 F 
ATOM     12  F4  UNL d   1       3.241   1.205  -0.820  0.00  0.00    -0.092 F 
ENDROOT
TORSDOF 0
ENDMDL
