MODEL 1
REMARK minimizedAffinity -0.329855323
REMARK minimizedRMSD -1
REMARK  0 active torsions:
REMARK  status: ('A' for Active; 'I' for Inactive)
ROOT
ATOM      1  C   UNL d   1       0.388  -0.258  -0.066  0.00  0.00     0.124 A 
ATOM      2  C1  UNL d   1      -0.268   0.382  -1.108  0.00  0.00     0.062 A 
ATOM      3  C2  UNL d   1      -0.896  -0.362  -2.103  0.00  0.00     0.162 A 
ATOM      4  C3  UNL d   1      -0.872  -1.756  -2.060  0.00  0.00    -0.034 A 
ATOM      5  C4  UNL d   1      -0.210  -2.393  -1.009  0.00  0.00     0.162 A 
ATOM      6  C5  UNL d   1       0.417  -1.645  -0.018  0.00  0.00     0.062 A 
ATOM      7  F   UNL d   1       1.051  -2.265   0.988  0.00  0.00    -0.097 F 
ATOM      8  F1  UNL d   1      -0.167  -3.732  -0.937  0.00  0.00    -0.096 F 
ATOM      9  I   UNL d   1      -1.811  -2.872  -3.544  0.00  0.00    -0.060 I 
ATOM     10  F2  UNL d   1      -1.523   0.284  -3.098  0.00  0.00    -0.096 F 
ATOM     11  F3  UNL d   1      -0.296   1.722  -1.158  0.00  0.00    -0.097 F 
ATOM     12  F4  UNL d   1       0.993   0.461   0.888  0.00  0.00    -0.092 F 
ENDROOT
TORSDOF 0
ENDMDL
