MODEL 1
REMARK minimizedAffinity 15.5549774
REMARK minimizedRMSD -1
REMARK  0 active torsions:
REMARK  status: ('A' for Active; 'I' for Inactive)
ROOT
ATOM      1  C   UNL d   1       4.193   2.021  -2.534  0.00  0.00     0.124 A 
ATOM      2  C1  UNL d   1       4.268   0.961  -3.427  0.00  0.00     0.062 A 
ATOM      3  C2  UNL d   1       3.823  -0.303  -3.051  0.00  0.00     0.162 A 
ATOM      4  C3  UNL d   1       3.298  -0.514  -1.776  0.00  0.00    -0.034 A 
ATOM      5  C4  UNL d   1       3.227   0.557  -0.883  0.00  0.00     0.162 A 
ATOM      6  C5  UNL d   1       3.673   1.818  -1.263  0.00  0.00     0.062 A 
ATOM      7  F   UNL d   1       3.601   2.842  -0.399  0.00  0.00    -0.097 F 
ATOM      8  F1  UNL d   1       2.728   0.389   0.351  0.00  0.00    -0.096 F 
ATOM      9  I   UNL d   1       2.631  -2.403  -1.210  0.00  0.00    -0.060 I 
ATOM     10  F2  UNL d   1       3.907  -1.309  -3.934  0.00  0.00    -0.096 F 
ATOM     11  F3  UNL d   1       4.771   1.155  -4.654  0.00  0.00    -0.097 F 
ATOM     12  F4  UNL d   1       4.623   3.236  -2.898  0.00  0.00    -0.092 F 
ENDROOT
TORSDOF 0
ENDMDL
