MODEL 1
REMARK minimizedAffinity 7.79550838
REMARK minimizedRMSD -1
REMARK  0 active torsions:
REMARK  status: ('A' for Active; 'I' for Inactive)
ROOT
ATOM      1  C   UNL d   1       3.491   1.142  -0.560  0.00  0.00     0.124 A 
ATOM      2  C1  UNL d   1       3.333   1.175   0.819  0.00  0.00     0.062 A 
ATOM      3  C2  UNL d   1       3.847   2.237   1.557  0.00  0.00     0.162 A 
ATOM      4  C3  UNL d   1       4.524   3.276   0.917  0.00  0.00    -0.034 A 
ATOM      5  C4  UNL d   1       4.680   3.235  -0.469  0.00  0.00     0.162 A 
ATOM      6  C5  UNL d   1       4.164   2.171  -1.202  0.00  0.00     0.062 A 
ATOM      7  F   UNL d   1       4.318   2.140  -2.534  0.00  0.00    -0.097 F 
ATOM      8  F1  UNL d   1       5.326   4.217  -1.116  0.00  0.00    -0.096 F 
ATOM      9  I   UNL d   1       5.295   4.866   2.017  0.00  0.00    -0.060 I 
ATOM     10  F2  UNL d   1       3.680   2.244   2.888  0.00  0.00    -0.096 F 
ATOM     11  F3  UNL d   1       2.684   0.181   1.442  0.00  0.00    -0.097 F 
ATOM     12  F4  UNL d   1       2.996   0.118  -1.267  0.00  0.00    -0.092 F 
ENDROOT
TORSDOF 0
ENDMDL
