MODEL 1
REMARK minimizedAffinity 12.2153139
REMARK minimizedRMSD -1
REMARK  0 active torsions:
REMARK  status: ('A' for Active; 'I' for Inactive)
ROOT
ATOM      1  C   UNL d   1       4.243   1.537  -1.707  0.00  0.00     0.124 A 
ATOM      2  C1  UNL d   1       4.957   2.627  -1.228  0.00  0.00     0.062 A 
ATOM      3  C2  UNL d   1       4.922   2.946   0.126  0.00  0.00     0.162 A 
ATOM      4  C3  UNL d   1       4.171   2.175   1.012  0.00  0.00    -0.034 A 
ATOM      5  C4  UNL d   1       3.454   1.081   0.523  0.00  0.00     0.162 A 
ATOM      6  C5  UNL d   1       3.492   0.766  -0.831  0.00  0.00     0.062 A 
ATOM      7  F   UNL d   1       2.801  -0.287  -1.292  0.00  0.00    -0.097 F 
ATOM      8  F1  UNL d   1       2.721   0.318   1.348  0.00  0.00    -0.096 F 
ATOM      9  I   UNL d   1       4.116   2.649   3.038  0.00  0.00    -0.060 I 
ATOM     10  F2  UNL d   1       5.623   4.005   0.561  0.00  0.00    -0.096 F 
ATOM     11  F3  UNL d   1       5.683   3.374  -2.072  0.00  0.00    -0.097 F 
ATOM     12  F4  UNL d   1       4.277   1.233  -3.010  0.00  0.00    -0.092 F 
ENDROOT
TORSDOF 0
ENDMDL
