MODEL 1
REMARK minimizedAffinity -5.2093401
REMARK minimizedRMSD -1
REMARK  3 active torsions:
REMARK  status: ('A' for Active; 'I' for Inactive)
REMARK    1  A    between atoms: C3'_2  and  C2'_3 
REMARK    2  A    between atoms: C2'_3  and  C1'_4 
REMARK    3  A    between atoms: C1'_4  and  C1_5 
ROOT
ATOM      1  C1  N4B d   1      -0.084   0.106  -0.054  0.00  0.00    -0.075 A 
ATOM      2  C2  N4B d   1      -0.872  -0.451   0.978  0.00  0.00     0.002 A 
ATOM      3  C3  N4B d   1      -0.433  -1.564   1.652  0.00  0.00     0.002 A 
ATOM      4  C4  N4B d   1       0.776  -2.146   1.300  0.00  0.00    -0.004 A 
ATOM      5  C5  N4B d   1       1.542  -1.588   0.320  0.00  0.00     0.002 A 
ATOM      6  C6  N4B d   1       1.115  -0.466  -0.363  0.00  0.00     0.002 A 
ENDROOT
BRANCH   1   7
ATOM      7  C1' N4B d   1      -0.562   1.272  -0.876  0.00  0.00     0.057 C 
BRANCH   7   8
ATOM      8  C2' N4B d   1      -1.679   0.805  -1.805  0.00  0.00     0.009 C 
BRANCH   8   9
ATOM      9  C3' N4B d   1      -1.811   1.696  -3.028  0.00  0.00     0.004 C 
ATOM     10  C4' N4B d   1      -1.202   3.051  -2.827  0.00  0.00     0.003 C 
ENDBRANCH   8   9
ENDBRANCH   7   8
ENDBRANCH   1   7
TORSDOF 3
ENDMDL
