MODEL 1
REMARK minimizedAffinity -6.26517582
REMARK minimizedRMSD -1
REMARK  3 active torsions:
REMARK  status: ('A' for Active; 'I' for Inactive)
REMARK    1  A    between atoms: C3'_2  and  C2'_3 
REMARK    2  A    between atoms: C2'_3  and  C1'_4 
REMARK    3  A    between atoms: C1'_4  and  C1_5 
ROOT
ATOM      1  C1  N4B d   1      -0.179  -0.703   1.150  0.00  0.00    -0.075 A 
ATOM      2  C2  N4B d   1       0.884  -1.188   0.357  0.00  0.00     0.002 A 
ATOM      3  C3  N4B d   1       1.631  -2.256   0.789  0.00  0.00     0.002 A 
ATOM      4  C4  N4B d   1       1.346  -2.841   2.013  0.00  0.00    -0.004 A 
ATOM      5  C5  N4B d   1       0.301  -2.384   2.761  0.00  0.00     0.002 A 
ATOM      6  C6  N4B d   1      -0.461  -1.313   2.338  0.00  0.00     0.002 A 
ENDROOT
BRANCH   1   7
ATOM      7  C1' N4B d   1      -0.969   0.516   0.759  0.00  0.00     0.057 C 
BRANCH   7   8
ATOM      8  C2' N4B d   1      -0.859   0.723  -0.748  0.00  0.00     0.009 C 
BRANCH   8   9
ATOM      9  C3' N4B d   1      -1.986   1.587  -1.287  0.00  0.00     0.004 C 
ATOM     10  C4' N4B d   1      -1.620   2.293  -2.559  0.00  0.00     0.003 C 
ENDBRANCH   8   9
ENDBRANCH   7   8
ENDBRANCH   1   7
TORSDOF 3
ENDMDL
