MODEL 1
REMARK minimizedAffinity -4.66741037
REMARK minimizedRMSD -1
REMARK  3 active torsions:
REMARK  status: ('A' for Active; 'I' for Inactive)
REMARK    1  A    between atoms: C3'_2  and  C2'_3 
REMARK    2  A    between atoms: C2'_3  and  C1'_4 
REMARK    3  A    between atoms: C1'_4  and  C1_5 
ROOT
ATOM      1  C1  N4B d   1       0.327   0.007   0.328  0.00  0.00    -0.075 A 
ATOM      2  C2  N4B d   1      -0.495  -1.028   0.826  0.00  0.00     0.002 A 
ATOM      3  C3  N4B d   1       0.037  -2.271   1.068  0.00  0.00     0.002 A 
ATOM      4  C4  N4B d   1       1.378  -2.506   0.804  0.00  0.00    -0.004 A 
ATOM      5  C5  N4B d   1       2.171  -1.494   0.348  0.00  0.00     0.002 A 
ATOM      6  C6  N4B d   1       1.651  -0.239   0.103  0.00  0.00     0.002 A 
ENDROOT
BRANCH   1   7
ATOM      7  C1' N4B d   1      -0.228   1.357  -0.034  0.00  0.00     0.057 C 
BRANCH   7   8
ATOM      8  C2' N4B d   1      -1.357   1.180  -1.045  0.00  0.00     0.009 C 
BRANCH   8   9
ATOM      9  C3' N4B d   1      -1.301   2.223  -2.148  0.00  0.00     0.004 C 
ATOM     10  C4' N4B d   1      -2.283   1.957  -3.249  0.00  0.00     0.003 C 
ENDBRANCH   8   9
ENDBRANCH   7   8
ENDBRANCH   1   7
TORSDOF 3
ENDMDL
