MODEL 1
REMARK minimizedAffinity -3.74431324
REMARK minimizedRMSD -1
REMARK  3 active torsions:
REMARK  status: ('A' for Active; 'I' for Inactive)
REMARK    1  A    between atoms: C3'_2  and  C2'_3 
REMARK    2  A    between atoms: C2'_3  and  C1'_4 
REMARK    3  A    between atoms: C1'_4  and  C1_5 
ROOT
ATOM      1  C1  N4B d   1       0.616  -0.393  -0.259  0.00  0.00    -0.075 A 
ATOM      2  C2  N4B d   1       0.158  -0.795   1.015  0.00  0.00     0.002 A 
ATOM      3  C3  N4B d   1       0.979  -1.520   1.843  0.00  0.00     0.002 A 
ATOM      4  C4  N4B d   1       2.250  -1.871   1.412  0.00  0.00    -0.004 A 
ATOM      5  C5  N4B d   1       2.694  -1.457   0.191  0.00  0.00     0.002 A 
ATOM      6  C6  N4B d   1       1.881  -0.724  -0.650  0.00  0.00     0.002 A 
ENDROOT
BRANCH   1   7
ATOM      7  C1' N4B d   1      -0.275   0.328  -1.233  0.00  0.00     0.057 C 
BRANCH   7   8
ATOM      8  C2' N4B d   1      -0.717  -0.645  -2.322  0.00  0.00     0.009 C 
BRANCH   8   9
ATOM      9  C3' N4B d   1      -1.846  -0.078  -3.166  0.00  0.00     0.004 C 
ATOM     10  C4' N4B d   1      -2.320   1.258  -2.679  0.00  0.00     0.003 C 
ENDBRANCH   8   9
ENDBRANCH   7   8
ENDBRANCH   1   7
TORSDOF 3
ENDMDL
