MODEL 1
REMARK minimizedAffinity -1.47093678
REMARK minimizedRMSD -1
REMARK  3 active torsions:
REMARK  status: ('A' for Active; 'I' for Inactive)
REMARK    1  A    between atoms: C3'_2  and  C2'_3 
REMARK    2  A    between atoms: C2'_3  and  C1'_4 
REMARK    3  A    between atoms: C1'_4  and  C1_5 
ROOT
ATOM      1  C1  N4B d   1      -0.321   0.477  -0.002  0.00  0.00    -0.075 A 
ATOM      2  C2  N4B d   1      -1.020   0.690   1.206  0.00  0.00     0.002 A 
ATOM      3  C3  N4B d   1      -1.283  -0.368   2.042  0.00  0.00     0.002 A 
ATOM      4  C4  N4B d   1      -0.876  -1.644   1.684  0.00  0.00    -0.004 A 
ATOM      5  C5  N4B d   1      -0.178  -1.837   0.527  0.00  0.00     0.002 A 
ATOM      6  C6  N4B d   1       0.097  -0.783  -0.321  0.00  0.00     0.002 A 
ENDROOT
BRANCH   1   7
ATOM      7  C1' N4B d   1      -0.085   1.588  -0.989  0.00  0.00     0.057 C 
BRANCH   7   8
ATOM      8  C2' N4B d   1      -1.414   1.984  -1.624  0.00  0.00     0.009 C 
BRANCH   8   9
ATOM      9  C3' N4B d   1      -1.697   1.195  -2.890  0.00  0.00     0.004 C 
ATOM     10  C4' N4B d   1      -3.148   0.850  -3.048  0.00  0.00     0.003 C 
ENDBRANCH   8   9
ENDBRANCH   7   8
ENDBRANCH   1   7
TORSDOF 3
ENDMDL
