MODEL 1
REMARK minimizedAffinity -4.72854185
REMARK minimizedRMSD -1
REMARK  3 active torsions:
REMARK  status: ('A' for Active; 'I' for Inactive)
REMARK    1  A    between atoms: C3'_2  and  C2'_3 
REMARK    2  A    between atoms: C2'_3  and  C1'_4 
REMARK    3  A    between atoms: C1'_4  and  C1_5 
ROOT
ATOM      1  C1  N4B d   1       0.043   0.464  -0.016  0.00  0.00    -0.075 A 
ATOM      2  C2  N4B d   1      -0.565  -0.595   0.693  0.00  0.00     0.002 A 
ATOM      3  C3  N4B d   1       0.177  -1.692   1.056  0.00  0.00     0.002 A 
ATOM      4  C4  N4B d   1       1.518  -1.760   0.708  0.00  0.00    -0.004 A 
ATOM      5  C5  N4B d   1       2.103  -0.721   0.045  0.00  0.00     0.002 A 
ATOM      6  C6  N4B d   1       1.370   0.390  -0.323  0.00  0.00     0.002 A 
ENDROOT
BRANCH   1   7
ATOM      7  C1' N4B d   1      -0.748   1.645  -0.510  0.00  0.00     0.057 C 
BRANCH   7   8
ATOM      8  C2' N4B d   1      -1.924   1.147  -1.344  0.00  0.00     0.009 C 
BRANCH   8   9
ATOM      9  C3' N4B d   1      -2.172   2.024  -2.559  0.00  0.00     0.004 C 
ATOM     10  C4' N4B d   1      -2.497   1.233  -3.791  0.00  0.00     0.003 C 
ENDBRANCH   8   9
ENDBRANCH   7   8
ENDBRANCH   1   7
TORSDOF 3
ENDMDL
