MODEL 1
REMARK minimizedAffinity -5.7788744
REMARK minimizedRMSD -1
REMARK  3 active torsions:
REMARK  status: ('A' for Active; 'I' for Inactive)
REMARK    1  A    between atoms: C3'_2  and  C2'_3 
REMARK    2  A    between atoms: C2'_3  and  C1'_4 
REMARK    3  A    between atoms: C1'_4  and  C1_5 
ROOT
ATOM      1  C1  N4B d   1       0.893  -0.086   0.042  0.00  0.00    -0.075 A 
ATOM      2  C2  N4B d   1       2.157  -0.590   0.418  0.00  0.00     0.002 A 
ATOM      3  C3  N4B d   1       2.243  -1.727   1.183  0.00  0.00     0.002 A 
ATOM      4  C4  N4B d   1       1.083  -2.363   1.599  0.00  0.00    -0.004 A 
ATOM      5  C5  N4B d   1      -0.134  -1.884   1.211  0.00  0.00     0.002 A 
ATOM      6  C6  N4B d   1      -0.235  -0.744   0.438  0.00  0.00     0.002 A 
ENDROOT
BRANCH   1   7
ATOM      7  C1' N4B d   1       0.747   1.202  -0.721  0.00  0.00     0.057 C 
BRANCH   7   8
ATOM      8  C2' N4B d   1      -0.736   1.509  -0.906  0.00  0.00     0.009 C 
BRANCH   8   9
ATOM      9  C3' N4B d   1      -1.001   2.281  -2.188  0.00  0.00     0.004 C 
ATOM     10  C4' N4B d   1      -2.346   1.981  -2.779  0.00  0.00     0.003 C 
ENDBRANCH   8   9
ENDBRANCH   7   8
ENDBRANCH   1   7
TORSDOF 3
ENDMDL
