MODEL 1
REMARK minimizedAffinity -6.27911472
REMARK minimizedRMSD -1
REMARK  3 active torsions:
REMARK  status: ('A' for Active; 'I' for Inactive)
REMARK    1  A    between atoms: C3'_2  and  C2'_3 
REMARK    2  A    between atoms: C2'_3  and  C1'_4 
REMARK    3  A    between atoms: C1'_4  and  C1_5 
ROOT
ATOM      1  C1  N4B d   1       0.583  -0.301   0.041  0.00  0.00    -0.075 A 
ATOM      2  C2  N4B d   1       1.886  -0.835   0.142  0.00  0.00     0.002 A 
ATOM      3  C3  N4B d   1       2.063  -2.158   0.463  0.00  0.00     0.002 A 
ATOM      4  C4  N4B d   1       0.957  -2.959   0.704  0.00  0.00    -0.004 A 
ATOM      5  C5  N4B d   1      -0.299  -2.442   0.579  0.00  0.00     0.002 A 
ATOM      6  C6  N4B d   1      -0.492  -1.115   0.254  0.00  0.00     0.002 A 
ENDROOT
BRANCH   1   7
ATOM      7  C1' N4B d   1       0.342   1.160  -0.222  0.00  0.00     0.057 C 
BRANCH   7   8
ATOM      8  C2' N4B d   1      -1.155   1.444  -0.135  0.00  0.00     0.009 C 
BRANCH   8   9
ATOM      9  C3' N4B d   1      -1.702   2.011  -1.434  0.00  0.00     0.004 C 
ATOM     10  C4' N4B d   1      -3.033   1.429  -1.807  0.00  0.00     0.003 C 
ENDBRANCH   8   9
ENDBRANCH   7   8
ENDBRANCH   1   7
TORSDOF 3
ENDMDL
