MODEL 1
REMARK minimizedAffinity 2.56619644
REMARK minimizedRMSD -1
REMARK  0 active torsions:
REMARK  status: ('A' for Active; 'I' for Inactive)
ROOT
ATOM      1  C   UNL d   1       0.974  -1.775  -1.144  0.00  0.00     0.023 A 
ATOM      2  C1  UNL d   1       0.378  -2.433  -0.068  0.00  0.00     0.003 A 
ATOM      3  C2  UNL d   1      -0.429  -1.725   0.825  0.00  0.00     0.048 A 
ATOM      4  C3  UNL d   1      -0.636  -0.359   0.636  0.00  0.00     0.023 A 
ATOM      5  C4  UNL d   1      -0.043   0.304  -0.440  0.00  0.00     0.048 A 
ATOM      6  C5  UNL d   1       0.764  -0.408  -1.330  0.00  0.00     0.003 A 
ATOM      7  I   UNL d   1      -1.837   0.697   1.963  0.00  0.00    -0.146 I 
ENDROOT
TORSDOF 0
ENDMDL
