MODEL 1
REMARK minimizedAffinity -2.82833123
REMARK minimizedRMSD -1
REMARK  0 active torsions:
REMARK  status: ('A' for Active; 'I' for Inactive)
ROOT
ATOM      1  C   UNL d   1      -4.643   4.422  -5.697  0.00  0.00     0.023 A 
ATOM      2  C1  UNL d   1      -3.480   3.668  -5.544  0.00  0.00     0.003 A 
ATOM      3  C2  UNL d   1      -3.535   2.274  -5.617  0.00  0.00     0.048 A 
ATOM      4  C3  UNL d   1      -4.757   1.642  -5.845  0.00  0.00     0.023 A 
ATOM      5  C4  UNL d   1      -5.923   2.393  -6.000  0.00  0.00     0.048 A 
ATOM      6  C5  UNL d   1      -5.863   3.786  -5.925  0.00  0.00     0.003 A 
ATOM      7  I   UNL d   1      -4.842  -0.432  -5.955  0.00  0.00    -0.146 I 
ENDROOT
TORSDOF 0
ENDMDL
