MODEL 1
REMARK minimizedAffinity -3.88379598
REMARK minimizedRMSD -1
REMARK  0 active torsions:
REMARK  status: ('A' for Active; 'I' for Inactive)
ROOT
ATOM      1  C   UNL d   1       1.799  -0.005  -2.564  0.00  0.00     0.023 A 
ATOM      2  C1  UNL d   1       0.637  -0.775  -2.519  0.00  0.00     0.003 A 
ATOM      3  C2  UNL d   1      -0.222  -0.681  -1.421  0.00  0.00     0.048 A 
ATOM      4  C3  UNL d   1       0.088   0.185  -0.373  0.00  0.00     0.023 A 
ATOM      5  C4  UNL d   1       1.250   0.958  -0.415  0.00  0.00     0.048 A 
ATOM      6  C5  UNL d   1       2.106   0.860  -1.514  0.00  0.00     0.003 A 
ATOM      7  I   UNL d   1      -1.188   0.327   1.261  0.00  0.00    -0.146 I 
ENDROOT
TORSDOF 0
ENDMDL
