MODEL 1
REMARK minimizedAffinity -2.33839822
REMARK minimizedRMSD -1
REMARK  0 active torsions:
REMARK  status: ('A' for Active; 'I' for Inactive)
ROOT
ATOM      1  C   UNL d   1       2.337   0.374  -2.377  0.00  0.00     0.023 A 
ATOM      2  C1  UNL d   1       2.661   1.016  -1.181  0.00  0.00     0.003 A 
ATOM      3  C2  UNL d   1       1.817   0.900  -0.074  0.00  0.00     0.048 A 
ATOM      4  C3  UNL d   1       0.652   0.139  -0.170  0.00  0.00     0.023 A 
ATOM      5  C4  UNL d   1       0.325  -0.505  -1.364  0.00  0.00     0.048 A 
ATOM      6  C5  UNL d   1       1.170  -0.385  -2.468  0.00  0.00     0.003 A 
ATOM      7  I   UNL d   1      -0.604  -0.035   1.477  0.00  0.00    -0.146 I 
ENDROOT
TORSDOF 0
ENDMDL
