MODEL 1
REMARK minimizedAffinity -0.207261935
REMARK minimizedRMSD -1
REMARK  0 active torsions:
REMARK  status: ('A' for Active; 'I' for Inactive)
ROOT
ATOM      1  C   UNL d   1      -0.451  -1.909  -1.458  0.00  0.00     0.023 A 
ATOM      2  C1  UNL d   1      -0.088  -0.743  -2.131  0.00  0.00     0.003 A 
ATOM      3  C2  UNL d   1       0.479   0.322  -1.429  0.00  0.00     0.048 A 
ATOM      4  C3  UNL d   1       0.683   0.214  -0.054  0.00  0.00     0.023 A 
ATOM      5  C4  UNL d   1       0.322  -0.952   0.624  0.00  0.00     0.048 A 
ATOM      6  C5  UNL d   1      -0.247  -2.014  -0.082  0.00  0.00     0.003 A 
ATOM      7  I   UNL d   1       1.528   1.798   0.993  0.00  0.00    -0.146 I 
ENDROOT
TORSDOF 0
ENDMDL
