MODEL 1
REMARK minimizedAffinity -2.16871166
REMARK minimizedRMSD -1
REMARK  0 active torsions:
REMARK  status: ('A' for Active; 'I' for Inactive)
ROOT
ATOM      1  C   UNL d   1      -3.853   0.392  -5.506  0.00  0.00     0.023 A 
ATOM      2  C1  UNL d   1      -5.199   0.512  -5.853  0.00  0.00     0.003 A 
ATOM      3  C2  UNL d   1      -5.775   1.777  -5.995  0.00  0.00     0.048 A 
ATOM      4  C3  UNL d   1      -4.999   2.917  -5.789  0.00  0.00     0.023 A 
ATOM      5  C4  UNL d   1      -3.652   2.802  -5.442  0.00  0.00     0.048 A 
ATOM      6  C5  UNL d   1      -3.081   1.536  -5.301  0.00  0.00     0.003 A 
ATOM      7  I   UNL d   1      -5.853   4.800  -6.000  0.00  0.00    -0.146 I 
ENDROOT
TORSDOF 0
ENDMDL
