MODEL 1
REMARK minimizedAffinity -4.45695066
REMARK minimizedRMSD -1
REMARK  0 active torsions:
REMARK  status: ('A' for Active; 'I' for Inactive)
ROOT
ATOM      1  C   UNL d   1       2.186   0.166  -2.623  0.00  0.00     0.023 A 
ATOM      2  C1  UNL d   1       1.941   1.304  -1.853  0.00  0.00     0.003 A 
ATOM      3  C2  UNL d   1       1.099   1.229  -0.742  0.00  0.00     0.048 A 
ATOM      4  C3  UNL d   1       0.505   0.014  -0.405  0.00  0.00     0.023 A 
ATOM      5  C4  UNL d   1       0.747  -1.128  -1.171  0.00  0.00     0.048 A 
ATOM      6  C5  UNL d   1       1.589  -1.048  -2.282  0.00  0.00     0.003 A 
ATOM      7  I   UNL d   1      -0.749  -0.100   1.248  0.00  0.00    -0.146 I 
ENDROOT
TORSDOF 0
ENDMDL
