MODEL 1
REMARK minimizedAffinity -3.79676962
REMARK minimizedRMSD -1
REMARK  0 active torsions:
REMARK  status: ('A' for Active; 'I' for Inactive)
ROOT
ATOM      1  C   UNL d   1       2.085   0.907  -2.320  0.00  0.00     0.023 A 
ATOM      2  C1  UNL d   1       1.901   1.753  -1.226  0.00  0.00     0.003 A 
ATOM      3  C2  UNL d   1       1.004   1.403  -0.214  0.00  0.00     0.048 A 
ATOM      4  C3  UNL d   1       0.295   0.206  -0.303  0.00  0.00     0.023 A 
ATOM      5  C4  UNL d   1       0.477  -0.644  -1.395  0.00  0.00     0.048 A 
ATOM      6  C5  UNL d   1       1.374  -0.290  -2.404  0.00  0.00     0.003 A 
ATOM      7  I   UNL d   1      -1.040  -0.317   1.201  0.00  0.00    -0.146 I 
ENDROOT
TORSDOF 0
ENDMDL
