MODEL 1
REMARK minimizedAffinity -3.77559018
REMARK minimizedRMSD -1
REMARK  0 active torsions:
REMARK  status: ('A' for Active; 'I' for Inactive)
ROOT
ATOM      1  C   UNL d   1       2.398  -1.590  -2.797  0.00  0.00     0.023 A 
ATOM      2  C1  UNL d   1       1.777  -2.495  -1.935  0.00  0.00     0.003 A 
ATOM      3  C2  UNL d   1       0.939  -2.030  -0.919  0.00  0.00     0.048 A 
ATOM      4  C3  UNL d   1       0.724  -0.660  -0.772  0.00  0.00     0.023 A 
ATOM      5  C4  UNL d   1       1.342   0.248  -1.633  0.00  0.00     0.048 A 
ATOM      6  C5  UNL d   1       2.181  -0.221  -2.646  0.00  0.00     0.003 A 
ATOM      7  I   UNL d   1      -0.524   0.033   0.738  0.00  0.00    -0.146 I 
ENDROOT
TORSDOF 0
ENDMDL
