MODEL 1
REMARK minimizedAffinity -3.18091083
REMARK minimizedRMSD -1
REMARK  0 active torsions:
REMARK  status: ('A' for Active; 'I' for Inactive)
ROOT
ATOM      1  C   UNL d   1       2.296   0.398  -2.090  0.00  0.00     0.023 A 
ATOM      2  C1  UNL d   1       2.138   1.444  -1.180  0.00  0.00     0.003 A 
ATOM      3  C2  UNL d   1       1.099   1.408  -0.248  0.00  0.00     0.048 A 
ATOM      4  C3  UNL d   1       0.222   0.324  -0.230  0.00  0.00     0.023 A 
ATOM      5  C4  UNL d   1       0.377  -0.725  -1.138  0.00  0.00     0.048 A 
ATOM      6  C5  UNL d   1       1.416  -0.684  -2.069  0.00  0.00     0.003 A 
ATOM      7  I   UNL d   1      -1.324   0.269   1.157  0.00  0.00    -0.146 I 
ENDROOT
TORSDOF 0
ENDMDL
