MODEL 1
REMARK minimizedAffinity -2.31051445
REMARK minimizedRMSD -1
REMARK  0 active torsions:
REMARK  status: ('A' for Active; 'I' for Inactive)
ROOT
ATOM      1  C   UNL d   1      -0.465  -0.633   1.550  0.00  0.00     0.023 A 
ATOM      2  C1  UNL d   1      -0.451  -1.784   0.762  0.00  0.00     0.003 A 
ATOM      3  C2  UNL d   1      -0.032  -1.716  -0.568  0.00  0.00     0.048 A 
ATOM      4  C3  UNL d   1       0.373  -0.494  -1.103  0.00  0.00     0.023 A 
ATOM      5  C4  UNL d   1       0.362   0.660  -0.318  0.00  0.00     0.048 A 
ATOM      6  C5  UNL d   1      -0.059   0.587   1.011  0.00  0.00     0.003 A 
ATOM      7  I   UNL d   1       0.997  -0.390  -3.083  0.00  0.00    -0.146 I 
ENDROOT
TORSDOF 0
ENDMDL
