MODEL 1
REMARK minimizedAffinity -3.63091493
REMARK minimizedRMSD -1
REMARK  0 active torsions:
REMARK  status: ('A' for Active; 'I' for Inactive)
ROOT
ATOM      1  C   UNL d   1       2.181   0.277  -2.251  0.00  0.00     0.023 A 
ATOM      2  C1  UNL d   1       2.132   1.216  -1.221  0.00  0.00     0.003 A 
ATOM      3  C2  UNL d   1       1.130   1.141  -0.252  0.00  0.00     0.048 A 
ATOM      4  C3  UNL d   1       0.179   0.123  -0.319  0.00  0.00     0.023 A 
ATOM      5  C4  UNL d   1       0.224  -0.820  -1.347  0.00  0.00     0.048 A 
ATOM      6  C5  UNL d   1       1.228  -0.740  -2.314  0.00  0.00     0.003 A 
ATOM      7  I   UNL d   1      -1.314   0.008   1.122  0.00  0.00    -0.146 I 
ENDROOT
TORSDOF 0
ENDMDL
