MODEL 1
REMARK minimizedAffinity -1.34554815
REMARK minimizedRMSD -1
REMARK  0 active torsions:
REMARK  status: ('A' for Active; 'I' for Inactive)
ROOT
ATOM      1  C   UNL d   1       2.269   0.444  -1.724  0.00  0.00     0.023 A 
ATOM      2  C1  UNL d   1       1.650  -0.806  -1.712  0.00  0.00     0.003 A 
ATOM      3  C2  UNL d   1       0.593  -1.056  -0.834  0.00  0.00     0.048 A 
ATOM      4  C3  UNL d   1       0.160  -0.050   0.029  0.00  0.00     0.023 A 
ATOM      5  C4  UNL d   1       0.775   1.203   0.020  0.00  0.00     0.048 A 
ATOM      6  C5  UNL d   1       1.832   1.447  -0.859  0.00  0.00     0.003 A 
ATOM      7  I   UNL d   1      -1.413  -0.418   1.337  0.00  0.00    -0.146 I 
ENDROOT
TORSDOF 0
ENDMDL
