MODEL 1
REMARK minimizedAffinity -0.123656727
REMARK minimizedRMSD -1
REMARK  0 active torsions:
REMARK  status: ('A' for Active; 'I' for Inactive)
ROOT
ATOM      1  C   UNL d   1      -3.974   0.483   2.034  0.00  0.00     0.023 A 
ATOM      2  C1  UNL d   1      -3.983  -0.663   1.239  0.00  0.00     0.003 A 
ATOM      3  C2  UNL d   1      -2.804  -1.102   0.632  0.00  0.00     0.048 A 
ATOM      4  C3  UNL d   1      -1.620  -0.391   0.825  0.00  0.00     0.023 A 
ATOM      5  C4  UNL d   1      -1.607   0.756   1.621  0.00  0.00     0.048 A 
ATOM      6  C5  UNL d   1      -2.788   1.191   2.225  0.00  0.00     0.003 A 
ATOM      7  I   UNL d   1       0.135  -1.042  -0.077  0.00  0.00    -0.146 I 
ENDROOT
TORSDOF 0
ENDMDL
