MODEL 1
REMARK minimizedAffinity -0.727296591
REMARK minimizedRMSD -1
REMARK  0 active torsions:
REMARK  status: ('A' for Active; 'I' for Inactive)
ROOT
ATOM      1  C   UNL d   1       0.883   1.564  -0.453  0.00  0.00     0.023 A 
ATOM      2  C1  UNL d   1       0.299   0.374  -0.019  0.00  0.00     0.003 A 
ATOM      3  C2  UNL d   1       0.890  -0.851  -0.335  0.00  0.00     0.048 A 
ATOM      4  C3  UNL d   1       2.065  -0.879  -1.084  0.00  0.00     0.023 A 
ATOM      5  C4  UNL d   1       2.654   0.309  -1.520  0.00  0.00     0.048 A 
ATOM      6  C5  UNL d   1       2.059   1.532  -1.202  0.00  0.00     0.003 A 
ATOM      7  I   UNL d   1       2.947  -2.701  -1.556  0.00  0.00    -0.146 I 
ENDROOT
TORSDOF 0
ENDMDL
