MODEL 1
REMARK minimizedAffinity -0.668527424
REMARK minimizedRMSD -1
REMARK  0 active torsions:
REMARK  status: ('A' for Active; 'I' for Inactive)
ROOT
ATOM      1  C   UNL d   1       1.286   1.360  -1.225  0.00  0.00     0.023 A 
ATOM      2  C1  UNL d   1       2.032   0.676  -2.186  0.00  0.00     0.003 A 
ATOM      3  C2  UNL d   1       1.957  -0.716  -2.269  0.00  0.00     0.048 A 
ATOM      4  C3  UNL d   1       1.135  -1.418  -1.388  0.00  0.00     0.023 A 
ATOM      5  C4  UNL d   1       0.386  -0.738  -0.426  0.00  0.00     0.048 A 
ATOM      6  C5  UNL d   1       0.465   0.654  -0.346  0.00  0.00     0.003 A 
ATOM      7  I   UNL d   1       1.022  -3.490  -1.510  0.00  0.00    -0.146 I 
ENDROOT
TORSDOF 0
ENDMDL
