MODEL 1
REMARK minimizedAffinity -3.00275779
REMARK minimizedRMSD -1
REMARK  0 active torsions:
REMARK  status: ('A' for Active; 'I' for Inactive)
ROOT
ATOM      1  C   UNL d   1       1.816   0.788  -2.765  0.00  0.00     0.023 A 
ATOM      2  C1  UNL d   1       1.138  -0.425  -2.882  0.00  0.00     0.003 A 
ATOM      3  C2  UNL d   1       0.404  -0.923  -1.804  0.00  0.00     0.048 A 
ATOM      4  C3  UNL d   1       0.352  -0.202  -0.611  0.00  0.00     0.023 A 
ATOM      5  C4  UNL d   1       1.028   1.013  -0.490  0.00  0.00     0.048 A 
ATOM      6  C5  UNL d   1       1.761   1.506  -1.571  0.00  0.00     0.003 A 
ATOM      7  I   UNL d   1      -0.740  -0.941   0.996  0.00  0.00    -0.146 I 
ENDROOT
TORSDOF 0
ENDMDL
