MODEL 1
REMARK minimizedAffinity -1.74548435
REMARK minimizedRMSD -1
REMARK  0 active torsions:
REMARK  status: ('A' for Active; 'I' for Inactive)
ROOT
ATOM      1  N1  IND d   1       1.132   0.731  -0.453  0.00  0.00    -0.196 N 
ATOM      2  C2  IND d   1       0.532  -0.107  -1.351  0.00  0.00     0.054 A 
ATOM      3  C3  IND d   1      -0.643  -0.560  -0.859  0.00  0.00    -0.031 A 
ATOM      4  C4  IND d   1      -1.823   0.022   1.353  0.00  0.00     0.051 A 
ATOM      5  C5  IND d   1      -1.647   0.715   2.518  0.00  0.00    -0.031 A 
ATOM      6  C6  IND d   1      -0.514   1.466   2.756  0.00  0.00     0.015 A 
ATOM      7  C7  IND d   1       0.484   1.562   1.828  0.00  0.00    -0.016 A 
ATOM      8  C8  IND d   1       0.312   0.854   0.647  0.00  0.00    -0.047 A 
ATOM      9  C9  IND d   1      -0.816   0.056   0.418  0.00  0.00    -0.096 A 
ATOM     10  HN1 IND d   1       1.894   1.117  -0.558  0.00  0.00     0.298 HD
ENDROOT
TORSDOF 0
ENDMDL
