MODEL 1
REMARK minimizedAffinity 1.96296072
REMARK minimizedRMSD -1
REMARK  0 active torsions:
REMARK  status: ('A' for Active; 'I' for Inactive)
ROOT
ATOM      1  N1  IND d   1       1.657  -0.311  -2.109  0.00  0.00    -0.196 N 
ATOM      2  C2  IND d   1       0.954  -0.506  -3.265  0.00  0.00     0.054 A 
ATOM      3  C3  IND d   1      -0.374  -0.523  -3.012  0.00  0.00    -0.031 A 
ATOM      4  C4  IND d   1      -1.619  -0.147  -0.790  0.00  0.00     0.051 A 
ATOM      5  C5  IND d   1      -1.405   0.032   0.548  0.00  0.00    -0.031 A 
ATOM      6  C6  IND d   1      -0.133   0.111   1.079  0.00  0.00     0.015 A 
ATOM      7  C7  IND d   1       0.976   0.024   0.286  0.00  0.00    -0.016 A 
ATOM      8  C8  IND d   1       0.763  -0.165  -1.072  0.00  0.00    -0.047 A 
ATOM      9  C9  IND d   1      -0.525  -0.289  -1.610  0.00  0.00    -0.096 A 
ATOM     10  HN1 IND d   1       2.514  -0.283  -2.042  0.00  0.00     0.298 HD
ENDROOT
TORSDOF 0
ENDMDL
