MODEL 1
REMARK minimizedAffinity -1.81527674
REMARK minimizedRMSD -1
REMARK  0 active torsions:
REMARK  status: ('A' for Active; 'I' for Inactive)
ROOT
ATOM      1  N1  IND d   1       1.572   0.001  -0.001  0.00  0.00    -0.196 N 
ATOM      2  C2  IND d   1       1.461  -0.662  -1.191  0.00  0.00     0.054 A 
ATOM      3  C3  IND d   1       0.161  -0.881  -1.489  0.00  0.00    -0.031 A 
ATOM      4  C4  IND d   1      -1.954  -0.149  -0.216  0.00  0.00     0.051 A 
ATOM      5  C5  IND d   1      -2.360   0.449   0.943  0.00  0.00    -0.031 A 
ATOM      6  C6  IND d   1      -1.459   0.941   1.865  0.00  0.00     0.015 A 
ATOM      7  C7  IND d   1      -0.111   0.862   1.655  0.00  0.00    -0.016 A 
ATOM      8  C8  IND d   1       0.305   0.249   0.482  0.00  0.00    -0.047 A 
ATOM      9  C9  IND d   1      -0.604  -0.290  -0.437  0.00  0.00    -0.096 A 
ATOM     10  HN1 IND d   1       2.308   0.224   0.383  0.00  0.00     0.298 HD
ENDROOT
TORSDOF 0
ENDMDL
