MODEL 1
REMARK minimizedAffinity -4.62435865
REMARK minimizedRMSD -1
REMARK  0 active torsions:
REMARK  status: ('A' for Active; 'I' for Inactive)
ROOT
ATOM      1  N1  IND d   1       0.763  -0.594  -0.234  0.00  0.00    -0.196 N 
ATOM      2  C2  IND d   1      -0.362  -0.586  -1.011  0.00  0.00     0.054 A 
ATOM      3  C3  IND d   1      -1.440  -0.234  -0.274  0.00  0.00    -0.031 A 
ATOM      4  C4  IND d   1      -1.572   0.468   2.199  0.00  0.00     0.051 A 
ATOM      5  C5  IND d   1      -0.812   0.580   3.329  0.00  0.00    -0.031 A 
ATOM      6  C6  IND d   1       0.540   0.303   3.329  0.00  0.00     0.015 A 
ATOM      7  C7  IND d   1       1.187  -0.086   2.190  0.00  0.00    -0.016 A 
ATOM      8  C8  IND d   1       0.417  -0.208   1.042  0.00  0.00    -0.047 A 
ATOM      9  C9  IND d   1      -0.964   0.031   1.046  0.00  0.00    -0.096 A 
ATOM     10  HN1 IND d   1       1.553  -0.805  -0.498  0.00  0.00     0.298 HD
ENDROOT
TORSDOF 0
ENDMDL
