MODEL 1
REMARK minimizedAffinity -2.18263483
REMARK minimizedRMSD -1
REMARK  0 active torsions:
REMARK  status: ('A' for Active; 'I' for Inactive)
ROOT
ATOM      1  N1  IND d   1      -2.227   0.437   2.339  0.00  0.00    -0.196 N 
ATOM      2  C2  IND d   1      -1.406   0.973   3.292  0.00  0.00     0.054 A 
ATOM      3  C3  IND d   1      -0.136   1.042   2.833  0.00  0.00    -0.031 A 
ATOM      4  C4  IND d   1       0.802   0.429   0.516  0.00  0.00     0.051 A 
ATOM      5  C5  IND d   1       0.444  -0.134  -0.677  0.00  0.00    -0.031 A 
ATOM      6  C6  IND d   1      -0.850  -0.541  -0.931  0.00  0.00     0.015 A 
ATOM      7  C7  IND d   1      -1.840  -0.389  -0.002  0.00  0.00    -0.016 A 
ATOM      8  C8  IND d   1      -1.478   0.175   1.212  0.00  0.00    -0.047 A 
ATOM      9  C9  IND d   1      -0.158   0.551   1.492  0.00  0.00    -0.096 A 
ATOM     10  HN1 IND d   1      -3.069   0.288   2.428  0.00  0.00     0.298 HD
ENDROOT
TORSDOF 0
ENDMDL
