MODEL 1
REMARK minimizedAffinity -2.29897189
REMARK minimizedRMSD -1
REMARK  0 active torsions:
REMARK  status: ('A' for Active; 'I' for Inactive)
ROOT
ATOM      1  N1  IND d   1       1.052   0.736  -0.126  0.00  0.00    -0.196 N 
ATOM      2  C2  IND d   1       0.400   0.478  -1.299  0.00  0.00     0.054 A 
ATOM      3  C3  IND d   1      -0.876   0.102  -1.055  0.00  0.00    -0.031 A 
ATOM      4  C4  IND d   1      -2.133  -0.059   1.185  0.00  0.00     0.051 A 
ATOM      5  C5  IND d   1      -1.946   0.043   2.535  0.00  0.00    -0.031 A 
ATOM      6  C6  IND d   1      -0.726   0.391   3.078  0.00  0.00     0.015 A 
ATOM      7  C7  IND d   1       0.354   0.662   2.287  0.00  0.00    -0.016 A 
ATOM      8  C8  IND d   1       0.170   0.553   0.916  0.00  0.00    -0.047 A 
ATOM      9  C9  IND d   1      -1.054   0.158   0.361  0.00  0.00    -0.096 A 
ATOM     10  HN1 IND d   1       1.876   0.973  -0.051  0.00  0.00     0.298 HD
ENDROOT
TORSDOF 0
ENDMDL
