MODEL 1
REMARK minimizedAffinity -5.78693867
REMARK minimizedRMSD -1
REMARK  0 active torsions:
REMARK  status: ('A' for Active; 'I' for Inactive)
ROOT
ATOM      1  N1  IND d   1       0.934  -0.728  -0.140  0.00  0.00    -0.196 N 
ATOM      2  C2  IND d   1      -0.239  -1.097  -0.737  0.00  0.00     0.054 A 
ATOM      3  C3  IND d   1      -1.291  -0.745   0.036  0.00  0.00    -0.031 A 
ATOM      4  C4  IND d   1      -1.324   0.534   2.270  0.00  0.00     0.051 A 
ATOM      5  C5  IND d   1      -0.497   1.049   3.228  0.00  0.00    -0.031 A 
ATOM      6  C6  IND d   1       0.876   1.001   3.109  0.00  0.00     0.015 A 
ATOM      7  C7  IND d   1       1.477   0.442   2.017  0.00  0.00    -0.016 A 
ATOM      8  C8  IND d   1       0.641  -0.089   1.045  0.00  0.00    -0.047 A 
ATOM      9  C9  IND d   1      -0.753  -0.081   1.180  0.00  0.00    -0.096 A 
ATOM     10  HN1 IND d   1       1.723  -0.871  -0.452  0.00  0.00     0.298 HD
ENDROOT
TORSDOF 0
ENDMDL
