MODEL 1
REMARK minimizedAffinity -3.40616918
REMARK minimizedRMSD -1
REMARK  0 active torsions:
REMARK  status: ('A' for Active; 'I' for Inactive)
ROOT
ATOM      1  N1  IND d   1       1.012   0.797  -0.361  0.00  0.00    -0.196 N 
ATOM      2  C2  IND d   1       0.598  -0.097  -1.309  0.00  0.00     0.054 A 
ATOM      3  C3  IND d   1      -0.569  -0.669  -0.937  0.00  0.00    -0.031 A 
ATOM      4  C4  IND d   1      -2.027  -0.214   1.135  0.00  0.00     0.051 A 
ATOM      5  C5  IND d   1      -2.045   0.492   2.305  0.00  0.00    -0.031 A 
ATOM      6  C6  IND d   1      -1.026   1.355   2.652  0.00  0.00     0.015 A 
ATOM      7  C7  IND d   1       0.049   1.554   1.832  0.00  0.00    -0.016 A 
ATOM      8  C8  IND d   1       0.074   0.834   0.647  0.00  0.00    -0.047 A 
ATOM      9  C9  IND d   1      -0.936  -0.076   0.309  0.00  0.00    -0.096 A 
ATOM     10  HN1 IND d   1       1.737   1.259  -0.390  0.00  0.00     0.298 HD
ENDROOT
TORSDOF 0
ENDMDL
