MODEL 1
REMARK minimizedAffinity -4.565516
REMARK minimizedRMSD -1
REMARK  0 active torsions:
REMARK  status: ('A' for Active; 'I' for Inactive)
ROOT
ATOM      1  N1  IND d   1      -0.920  -1.200   0.293  0.00  0.00    -0.196 N 
ATOM      2  C2  IND d   1      -0.015  -1.128  -0.729  0.00  0.00     0.054 A 
ATOM      3  C3  IND d   1       0.710   0.010  -0.637  0.00  0.00    -0.031 A 
ATOM      4  C4  IND d   1       0.649   1.845   1.168  0.00  0.00     0.051 A 
ATOM      5  C5  IND d   1      -0.037   2.238   2.282  0.00  0.00    -0.031 A 
ATOM      6  C6  IND d   1      -1.072   1.488   2.803  0.00  0.00     0.015 A 
ATOM      7  C7  IND d   1      -1.454   0.307   2.232  0.00  0.00    -0.016 A 
ATOM      8  C8  IND d   1      -0.763  -0.091   1.096  0.00  0.00    -0.047 A 
ATOM      9  C9  IND d   1       0.260   0.686   0.538  0.00  0.00    -0.096 A 
ATOM     10  HN1 IND d   1      -1.491  -1.831   0.414  0.00  0.00     0.298 HD
ENDROOT
TORSDOF 0
ENDMDL
