MODEL 1
REMARK minimizedAffinity -1.45354021
REMARK minimizedRMSD -1
REMARK  3 active torsions:
REMARK  status: ('A' for Active; 'I' for Inactive)
REMARK    1  A    between atoms: C3'_2  and  C2'_3 
REMARK    2  A    between atoms: C2'_3  and  C1'_4 
REMARK    3  A    between atoms: C1'_4  and  C1_5 
ROOT
ATOM      1  C1  N4B d   1       3.039  -0.794  -1.857  0.00  0.00    -0.075 A 
ATOM      2  C2  N4B d   1       2.604  -1.928  -1.136  0.00  0.00     0.002 A 
ATOM      3  C3  N4B d   1       1.411  -1.894  -0.457  0.00  0.00     0.002 A 
ATOM      4  C4  N4B d   1       0.647  -0.736  -0.470  0.00  0.00    -0.004 A 
ATOM      5  C5  N4B d   1       1.061   0.346  -1.190  0.00  0.00     0.002 A 
ATOM      6  C6  N4B d   1       2.257   0.325  -1.880  0.00  0.00     0.002 A 
ENDROOT
BRANCH   1   7
ATOM      7  C1' N4B d   1       4.377  -0.754  -2.543  0.00  0.00     0.057 C 
BRANCH   7   8
ATOM      8  C2' N4B d   1       5.360   0.030  -1.679  0.00  0.00     0.009 C 
BRANCH   8   9
ATOM      9  C3' N4B d   1       5.961  -0.829  -0.581  0.00  0.00     0.004 C 
ATOM     10  C4' N4B d   1       6.000  -2.285  -0.937  0.00  0.00     0.003 C 
ENDBRANCH   8   9
ENDBRANCH   7   8
ENDBRANCH   1   7
TORSDOF 3
ENDMDL
