MODEL 1
REMARK minimizedAffinity 20.1544876
REMARK minimizedRMSD -1
REMARK  3 active torsions:
REMARK  status: ('A' for Active; 'I' for Inactive)
REMARK    1  A    between atoms: C3'_2  and  C2'_3 
REMARK    2  A    between atoms: C2'_3  and  C1'_4 
REMARK    3  A    between atoms: C1'_4  and  C1_5 
ROOT
ATOM      1  C1  N4B d   1       1.741   3.513  -1.372  0.00  0.00    -0.075 A 
ATOM      2  C2  N4B d   1       1.833   4.736  -2.074  0.00  0.00     0.002 A 
ATOM      3  C3  N4B d   1       1.622   5.922  -1.416  0.00  0.00     0.002 A 
ATOM      4  C4  N4B d   1       1.300   5.911  -0.067  0.00  0.00    -0.004 A 
ATOM      5  C5  N4B d   1       1.238   4.728   0.609  0.00  0.00     0.002 A 
ATOM      6  C6  N4B d   1       1.452   3.527  -0.038  0.00  0.00     0.002 A 
ENDROOT
BRANCH   1   7
ATOM      7  C1' N4B d   1       1.879   2.187  -2.067  0.00  0.00     0.057 C 
BRANCH   7   8
ATOM      8  C2' N4B d   1       2.106   1.096  -1.024  0.00  0.00     0.009 C 
BRANCH   8   9
ATOM      9  C3' N4B d   1       1.493  -0.229  -1.445  0.00  0.00     0.004 C 
ATOM     10  C4' N4B d   1       0.749  -0.904  -0.332  0.00  0.00     0.003 C 
ENDBRANCH   8   9
ENDBRANCH   7   8
ENDBRANCH   1   7
TORSDOF 3
ENDMDL
