MODEL 1
REMARK minimizedAffinity 5.11622763
REMARK minimizedRMSD -1
REMARK  3 active torsions:
REMARK  status: ('A' for Active; 'I' for Inactive)
REMARK    1  A    between atoms: C3'_2  and  C2'_3 
REMARK    2  A    between atoms: C2'_3  and  C1'_4 
REMARK    3  A    between atoms: C1'_4  and  C1_5 
ROOT
ATOM      1  C1  N4B d   1       0.215  -1.539   0.110  0.00  0.00    -0.075 A 
ATOM      2  C2  N4B d   1      -0.378  -2.203  -0.986  0.00  0.00     0.002 A 
ATOM      3  C3  N4B d   1      -1.265  -3.229  -0.770  0.00  0.00     0.002 A 
ATOM      4  C4  N4B d   1      -1.559  -3.619   0.528  0.00  0.00    -0.004 A 
ATOM      5  C5  N4B d   1      -1.002  -2.956   1.582  0.00  0.00     0.002 A 
ATOM      6  C6  N4B d   1      -0.112  -1.920   1.379  0.00  0.00     0.002 A 
ENDROOT
BRANCH   1   7
ATOM      7  C1' N4B d   1       1.255  -0.469  -0.077  0.00  0.00     0.057 C 
BRANCH   7   8
ATOM      8  C2' N4B d   1       1.534  -0.297  -1.567  0.00  0.00     0.009 C 
BRANCH   8   9
ATOM      9  C3' N4B d   1       2.349   0.953  -1.852  0.00  0.00     0.004 C 
ATOM     10  C4' N4B d   1       1.496   2.134  -2.209  0.00  0.00     0.003 C 
ENDBRANCH   8   9
ENDBRANCH   7   8
ENDBRANCH   1   7
TORSDOF 3
ENDMDL
