MODEL 1
REMARK minimizedAffinity 18.9491119
REMARK minimizedRMSD -1
REMARK  3 active torsions:
REMARK  status: ('A' for Active; 'I' for Inactive)
REMARK    1  A    between atoms: C3'_2  and  C2'_3 
REMARK    2  A    between atoms: C2'_3  and  C1'_4 
REMARK    3  A    between atoms: C1'_4  and  C1_5 
ROOT
ATOM      1  C1  N4B d   1       1.196  -0.456  -1.301  0.00  0.00    -0.075 A 
ATOM      2  C2  N4B d   1       1.106   0.644  -2.182  0.00  0.00     0.002 A 
ATOM      3  C3  N4B d   1       2.157   1.519  -2.297  0.00  0.00     0.002 A 
ATOM      4  C4  N4B d   1       3.297   1.327  -1.530  0.00  0.00    -0.004 A 
ATOM      5  C5  N4B d   1       3.386   0.248  -0.700  0.00  0.00     0.002 A 
ATOM      6  C6  N4B d   1       2.338  -0.642  -0.578  0.00  0.00     0.002 A 
ENDROOT
BRANCH   1   7
ATOM      7  C1' N4B d   1       0.039  -1.391  -1.077  0.00  0.00     0.057 C 
BRANCH   7   8
ATOM      8  C2' N4B d   1       0.268  -2.172   0.213  0.00  0.00     0.009 C 
BRANCH   8   9
ATOM      9  C3' N4B d   1      -0.319  -1.461   1.420  0.00  0.00     0.004 C 
ATOM     10  C4' N4B d   1      -1.022  -2.396   2.359  0.00  0.00     0.003 C 
ENDBRANCH   8   9
ENDBRANCH   7   8
ENDBRANCH   1   7
TORSDOF 3
ENDMDL
