MODEL 1
REMARK minimizedAffinity 12.6409988
REMARK minimizedRMSD -1
REMARK  3 active torsions:
REMARK  status: ('A' for Active; 'I' for Inactive)
REMARK    1  A    between atoms: C3'_2  and  C2'_3 
REMARK    2  A    between atoms: C2'_3  and  C1'_4 
REMARK    3  A    between atoms: C1'_4  and  C1_5 
ROOT
ATOM      1  C1  N4B d   1       2.197   1.500   2.413  0.00  0.00    -0.075 A 
ATOM      2  C2  N4B d   1       2.525   1.927   3.719  0.00  0.00     0.002 A 
ATOM      3  C3  N4B d   1       1.696   1.621   4.770  0.00  0.00     0.002 A 
ATOM      4  C4  N4B d   1       0.529   0.908   4.538  0.00  0.00    -0.004 A 
ATOM      5  C5  N4B d   1       0.232   0.477   3.278  0.00  0.00     0.002 A 
ATOM      6  C6  N4B d   1       1.058   0.775   2.213  0.00  0.00     0.002 A 
ENDROOT
BRANCH   1   7
ATOM      7  C1' N4B d   1       3.028   1.885   1.220  0.00  0.00     0.057 C 
BRANCH   7   8
ATOM      8  C2' N4B d   1       3.242   0.655   0.342  0.00  0.00     0.009 C 
BRANCH   8   9
ATOM      9  C3' N4B d   1       2.637   0.832  -1.040  0.00  0.00     0.004 C 
ATOM     10  C4' N4B d   1       1.851  -0.365  -1.487  0.00  0.00     0.003 C 
ENDBRANCH   8   9
ENDBRANCH   7   8
ENDBRANCH   1   7
TORSDOF 3
ENDMDL
