MODEL 1
REMARK minimizedAffinity -3.77254272
REMARK minimizedRMSD -1
REMARK  3 active torsions:
REMARK  status: ('A' for Active; 'I' for Inactive)
REMARK    1  A    between atoms: C3'_2  and  C2'_3 
REMARK    2  A    between atoms: C2'_3  and  C1'_4 
REMARK    3  A    between atoms: C1'_4  and  C1_5 
ROOT
ATOM      1  C1  N4B d   1       0.602   0.590  -1.211  0.00  0.00    -0.075 A 
ATOM      2  C2  N4B d   1       0.787   0.042  -2.499  0.00  0.00     0.002 A 
ATOM      3  C3  N4B d   1       0.686  -1.314  -2.690  0.00  0.00     0.002 A 
ATOM      4  C4  N4B d   1       0.420  -2.141  -1.609  0.00  0.00    -0.004 A 
ATOM      5  C5  N4B d   1       0.217  -1.602  -0.372  0.00  0.00     0.002 A 
ATOM      6  C6  N4B d   1       0.312  -0.240  -0.167  0.00  0.00     0.002 A 
ENDROOT
BRANCH   1   7
ATOM      7  C1' N4B d   1       0.788   2.057  -0.937  0.00  0.00     0.057 C 
BRANCH   7   8
ATOM      8  C2' N4B d   1       2.221   2.303  -0.476  0.00  0.00     0.009 C 
BRANCH   8   9
ATOM      9  C3' N4B d   1       3.237   1.811  -1.493  0.00  0.00     0.004 C 
ATOM     10  C4' N4B d   1       4.293   0.938  -0.883  0.00  0.00     0.003 C 
ENDBRANCH   8   9
ENDBRANCH   7   8
ENDBRANCH   1   7
TORSDOF 3
ENDMDL
