MODEL 1
REMARK minimizedAffinity 1.53549027
REMARK minimizedRMSD -1
REMARK  3 active torsions:
REMARK  status: ('A' for Active; 'I' for Inactive)
REMARK    1  A    between atoms: C3'_2  and  C2'_3 
REMARK    2  A    between atoms: C2'_3  and  C1'_4 
REMARK    3  A    between atoms: C1'_4  and  C1_5 
ROOT
ATOM      1  C1  N4B d   1      -5.292   2.344  -5.946  0.00  0.00    -0.075 A 
ATOM      2  C2  N4B d   1      -5.999   3.561  -5.829  0.00  0.00     0.002 A 
ATOM      3  C3  N4B d   1      -5.313   4.744  -5.704  0.00  0.00     0.002 A 
ATOM      4  C4  N4B d   1      -3.926   4.733  -5.673  0.00  0.00    -0.004 A 
ATOM      5  C5  N4B d   1      -3.251   3.556  -5.813  0.00  0.00     0.002 A 
ATOM      6  C6  N4B d   1      -3.927   2.360  -5.944  0.00  0.00     0.002 A 
ENDROOT
BRANCH   1   7
ATOM      7  C1' N4B d   1      -5.999   1.017  -6.000  0.00  0.00     0.057 C 
BRANCH   7   8
ATOM      8  C2' N4B d   1      -5.510   0.143  -4.849  0.00  0.00     0.009 C 
BRANCH   8   9
ATOM      9  C3' N4B d   1      -5.161  -1.262  -5.311  0.00  0.00     0.004 C 
ATOM     10  C4' N4B d   1      -3.999  -1.846  -4.566  0.00  0.00     0.003 C 
ENDBRANCH   8   9
ENDBRANCH   7   8
ENDBRANCH   1   7
TORSDOF 3
ENDMDL
