MODEL 1
REMARK minimizedAffinity -0.220735535
REMARK minimizedRMSD -1
REMARK  3 active torsions:
REMARK  status: ('A' for Active; 'I' for Inactive)
REMARK    1  A    between atoms: C3'_2  and  C2'_3 
REMARK    2  A    between atoms: C2'_3  and  C1'_4 
REMARK    3  A    between atoms: C1'_4  and  C1_5 
ROOT
ATOM      1  C1  N4B d   1       1.353  -2.343  -2.166  0.00  0.00    -0.075 A 
ATOM      2  C2  N4B d   1       0.546  -1.402  -2.841  0.00  0.00     0.002 A 
ATOM      3  C3  N4B d   1       1.121  -0.487  -3.689  0.00  0.00     0.002 A 
ATOM      4  C4  N4B d   1       2.497  -0.483  -3.863  0.00  0.00    -0.004 A 
ATOM      5  C5  N4B d   1       3.267  -1.412  -3.226  0.00  0.00     0.002 A 
ATOM      6  C6  N4B d   1       2.702  -2.340  -2.374  0.00  0.00     0.002 A 
ENDROOT
BRANCH   1   7
ATOM      7  C1' N4B d   1       0.780  -3.307  -1.163  0.00  0.00     0.057 C 
BRANCH   7   8
ATOM      8  C2' N4B d   1       0.359  -2.538   0.086  0.00  0.00     0.009 C 
BRANCH   8   9
ATOM      9  C3' N4B d   1       0.321  -1.039  -0.156  0.00  0.00     0.004 C 
ATOM     10  C4' N4B d   1       0.809  -0.249   1.022  0.00  0.00     0.003 C 
ENDBRANCH   8   9
ENDBRANCH   7   8
ENDBRANCH   1   7
TORSDOF 3
ENDMDL
