MODEL 1
REMARK minimizedAffinity -6.46899414
REMARK minimizedRMSD -1
REMARK  3 active torsions:
REMARK  status: ('A' for Active; 'I' for Inactive)
REMARK    1  A    between atoms: C3'_2  and  C2'_3 
REMARK    2  A    between atoms: C2'_3  and  C1'_4 
REMARK    3  A    between atoms: C1'_4  and  C1_5 
ROOT
ATOM      1  C1  N4B d   1       0.543  -1.124  -0.638  0.00  0.00    -0.075 A 
ATOM      2  C2  N4B d   1       0.718   0.099  -1.322  0.00  0.00     0.002 A 
ATOM      3  C3  N4B d   1       1.414   0.130  -2.506  0.00  0.00     0.002 A 
ATOM      4  C4  N4B d   1       1.958  -1.040  -3.013  0.00  0.00    -0.004 A 
ATOM      5  C5  N4B d   1       1.763  -2.221  -2.359  0.00  0.00     0.002 A 
ATOM      6  C6  N4B d   1       1.062  -2.268  -1.170  0.00  0.00     0.002 A 
ENDROOT
BRANCH   1   7
ATOM      7  C1' N4B d   1      -0.136  -1.194   0.703  0.00  0.00     0.057 C 
BRANCH   7   8
ATOM      8  C2' N4B d   1      -1.128  -0.041   0.822  0.00  0.00     0.009 C 
BRANCH   8   9
ATOM      9  C3' N4B d   1      -2.567  -0.529   0.841  0.00  0.00     0.004 C 
ATOM     10  C4' N4B d   1      -3.477   0.376   1.615  0.00  0.00     0.003 C 
ENDBRANCH   8   9
ENDBRANCH   7   8
ENDBRANCH   1   7
TORSDOF 3
ENDMDL
