MODEL 1
REMARK minimizedAffinity 8.70022106
REMARK minimizedRMSD -1
REMARK  1 active torsions:
REMARK  status: ('A' for Active; 'I' for Inactive)
REMARK    1  A    between atoms: C1_2  and  C2_3 
ROOT
ATOM      1  C2  UNL d   1       1.531   3.235  -0.718  0.00  0.00    -0.076 A 
ATOM      2  C3  UNL d   1       1.726   4.158  -1.760  0.00  0.00     0.004 A 
ATOM      3  C4  UNL d   1       1.737   5.530  -1.510  0.00  0.00    -0.003 A 
ATOM      4  C5  UNL d   1       1.553   6.000  -0.215  0.00  0.00     0.000 A 
ATOM      5  C6  UNL d   1       1.377   5.098   0.834  0.00  0.00     0.000 A 
ATOM      6  C7  UNL d   1       1.379   3.712   0.602  0.00  0.00    -0.073 A 
ATOM      7  C8  UNL d   1       1.178   2.784   1.769  0.00  0.00     0.078 C 
ENDROOT
BRANCH   1   8
ATOM      8  C1  UNL d   1       1.502   1.761  -1.052  0.00  0.00     0.053 C 
ATOM      9  C   UNL d   1       0.868   1.483  -2.407  0.00  0.00     0.018 C 
ENDBRANCH   1   8
TORSDOF 1
ENDMDL
