MODEL 1
REMARK minimizedAffinity 0.840646327
REMARK minimizedRMSD -1
REMARK  1 active torsions:
REMARK  status: ('A' for Active; 'I' for Inactive)
REMARK    1  A    between atoms: C1_2  and  C2_3 
ROOT
ATOM      1  C2  UNL d   1       1.351   2.928  -0.873  0.00  0.00    -0.076 A 
ATOM      2  C3  UNL d   1       0.781   3.049  -2.152  0.00  0.00     0.004 A 
ATOM      3  C4  UNL d   1       0.615   1.934  -2.972  0.00  0.00    -0.003 A 
ATOM      4  C5  UNL d   1       1.016   0.680  -2.526  0.00  0.00     0.000 A 
ATOM      5  C6  UNL d   1       1.568   0.539  -1.253  0.00  0.00     0.000 A 
ATOM      6  C7  UNL d   1       1.727   1.650  -0.407  0.00  0.00    -0.073 A 
ATOM      7  C8  UNL d   1       2.333   1.441   0.954  0.00  0.00     0.078 C 
ENDROOT
BRANCH   1   8
ATOM      8  C1  UNL d   1       1.531   4.177  -0.039  0.00  0.00     0.053 C 
ATOM      9  C   UNL d   1       1.903   5.390  -0.879  0.00  0.00     0.018 C 
ENDBRANCH   1   8
TORSDOF 1
ENDMDL
