MODEL 1
REMARK minimizedAffinity 2.65989614
REMARK minimizedRMSD -1
REMARK  1 active torsions:
REMARK  status: ('A' for Active; 'I' for Inactive)
REMARK    1  A    between atoms: C1_2  and  C2_3 
ROOT
ATOM      1  C2  UNL d   1      -1.426  -2.517   4.244  0.00  0.00    -0.076 A 
ATOM      2  C3  UNL d   1      -2.406  -2.714   5.233  0.00  0.00     0.004 A 
ATOM      3  C4  UNL d   1      -3.323  -3.759   5.135  0.00  0.00    -0.003 A 
ATOM      4  C5  UNL d   1      -3.276  -4.623   4.047  0.00  0.00     0.000 A 
ATOM      5  C6  UNL d   1      -2.300  -4.453   3.065  0.00  0.00     0.000 A 
ATOM      6  C7  UNL d   1      -1.357  -3.415   3.157  0.00  0.00    -0.073 A 
ATOM      7  C8  UNL d   1      -0.330  -3.274   2.067  0.00  0.00     0.078 C 
ENDROOT
BRANCH   1   8
ATOM      8  C1  UNL d   1      -0.475  -1.350   4.389  0.00  0.00     0.053 C 
ATOM      9  C   UNL d   1      -1.153  -0.113   4.956  0.00  0.00     0.018 C 
ENDBRANCH   1   8
TORSDOF 1
ENDMDL
