MODEL 1
REMARK minimizedAffinity -1.49009943
REMARK minimizedRMSD -1
REMARK  1 active torsions:
REMARK  status: ('A' for Active; 'I' for Inactive)
REMARK    1  A    between atoms: C1_2  and  C2_3 
ROOT
ATOM      1  C2  UNL d   1       1.266   3.430  -0.514  0.00  0.00    -0.076 A 
ATOM      2  C3  UNL d   1       1.082   3.106  -1.869  0.00  0.00     0.004 A 
ATOM      3  C4  UNL d   1       1.182   1.788  -2.312  0.00  0.00    -0.003 A 
ATOM      4  C5  UNL d   1       1.468   0.772  -1.406  0.00  0.00     0.000 A 
ATOM      5  C6  UNL d   1       1.637   1.074  -0.055  0.00  0.00     0.000 A 
ATOM      6  C7  UNL d   1       1.523   2.395   0.411  0.00  0.00    -0.073 A 
ATOM      7  C8  UNL d   1       1.721   2.663   1.877  0.00  0.00     0.078 C 
ENDROOT
BRANCH   1   8
ATOM      8  C1  UNL d   1       1.172   4.880  -0.097  0.00  0.00     0.053 C 
ATOM      9  C   UNL d   1       2.366   5.699  -0.564  0.00  0.00     0.018 C 
ENDBRANCH   1   8
TORSDOF 1
ENDMDL
