MODEL 1
REMARK minimizedAffinity -3.79281664
REMARK minimizedRMSD -1
REMARK  1 active torsions:
REMARK  status: ('A' for Active; 'I' for Inactive)
REMARK    1  A    between atoms: C1_2  and  C2_3 
ROOT
ATOM      1  C2  UNL d   1       1.465   2.680   0.615  0.00  0.00    -0.076 A 
ATOM      2  C3  UNL d   1       1.390   4.016   0.184  0.00  0.00     0.004 A 
ATOM      3  C4  UNL d   1       1.333   4.330  -1.173  0.00  0.00    -0.003 A 
ATOM      4  C5  UNL d   1       1.350   3.313  -2.121  0.00  0.00     0.000 A 
ATOM      5  C6  UNL d   1       1.406   1.981  -1.711  0.00  0.00     0.000 A 
ATOM      6  C7  UNL d   1       1.448   1.647  -0.346  0.00  0.00    -0.073 A 
ATOM      7  C8  UNL d   1       1.514   0.195   0.039  0.00  0.00     0.078 C 
ENDROOT
BRANCH   1   8
ATOM      8  C1  UNL d   1       1.552   2.402   2.099  0.00  0.00     0.053 C 
ATOM      9  C   UNL d   1       2.132   3.572   2.878  0.00  0.00     0.018 C 
ENDBRANCH   1   8
TORSDOF 1
ENDMDL
