MODEL 1
REMARK minimizedAffinity 2.76373148
REMARK minimizedRMSD -1
REMARK  1 active torsions:
REMARK  status: ('A' for Active; 'I' for Inactive)
REMARK    1  A    between atoms: C1_2  and  C2_3 
ROOT
ATOM      1  C2  UNL d   1       1.245   1.056  -0.050  0.00  0.00    -0.076 A 
ATOM      2  C3  UNL d   1       0.999  -0.320   0.106  0.00  0.00     0.004 A 
ATOM      3  C4  UNL d   1       1.117  -1.196  -0.972  0.00  0.00    -0.003 A 
ATOM      4  C5  UNL d   1       1.483  -0.711  -2.222  0.00  0.00     0.000 A 
ATOM      5  C6  UNL d   1       1.749   0.647  -2.391  0.00  0.00     0.000 A 
ATOM      6  C7  UNL d   1       1.650   1.542  -1.311  0.00  0.00    -0.073 A 
ATOM      7  C8  UNL d   1       1.942   2.998  -1.551  0.00  0.00     0.078 C 
ENDROOT
BRANCH   1   8
ATOM      8  C1  UNL d   1       1.075   1.962   1.148  0.00  0.00     0.053 C 
ATOM      9  C   UNL d   1       2.101   1.687   2.237  0.00  0.00     0.018 C 
ENDBRANCH   1   8
TORSDOF 1
ENDMDL
