MODEL 1
REMARK minimizedAffinity -5.63941193
REMARK minimizedRMSD -1
REMARK  1 active torsions:
REMARK  status: ('A' for Active; 'I' for Inactive)
REMARK    1  A    between atoms: C1_2  and  C2_3 
ROOT
ATOM      1  C2  UNL d   1       1.051   2.101  -0.810  0.00  0.00    -0.076 A 
ATOM      2  C3  UNL d   1       1.032   1.723  -2.164  0.00  0.00     0.004 A 
ATOM      3  C4  UNL d   1       1.193   0.390  -2.539  0.00  0.00    -0.003 A 
ATOM      4  C5  UNL d   1       1.374  -0.586  -1.565  0.00  0.00     0.000 A 
ATOM      5  C6  UNL d   1       1.377  -0.231  -0.217  0.00  0.00     0.000 A 
ATOM      6  C7  UNL d   1       1.201   1.106   0.179  0.00  0.00    -0.073 A 
ATOM      7  C8  UNL d   1       1.220   1.433   1.647  0.00  0.00     0.078 C 
ENDROOT
BRANCH   1   8
ATOM      8  C1  UNL d   1       0.900   3.566  -0.465  0.00  0.00     0.053 C 
ATOM      9  C   UNL d   1       2.096   4.395  -0.907  0.00  0.00     0.018 C 
ENDBRANCH   1   8
TORSDOF 1
ENDMDL
