MODEL 1
REMARK minimizedAffinity -2.81736732
REMARK minimizedRMSD -1
REMARK  1 active torsions:
REMARK  status: ('A' for Active; 'I' for Inactive)
REMARK    1  A    between atoms: C1_2  and  C2_3 
ROOT
ATOM      1  C2  UNL d   1       1.355   4.051  -0.836  0.00  0.00    -0.076 A 
ATOM      2  C3  UNL d   1       1.205   3.464  -2.105  0.00  0.00     0.004 A 
ATOM      3  C4  UNL d   1       1.093   2.082  -2.247  0.00  0.00    -0.003 A 
ATOM      4  C5  UNL d   1       1.127   1.264  -1.123  0.00  0.00     0.000 A 
ATOM      5  C6  UNL d   1       1.257   1.830   0.145  0.00  0.00     0.000 A 
ATOM      6  C7  UNL d   1       1.355   3.223   0.307  0.00  0.00    -0.073 A 
ATOM      7  C8  UNL d   1       1.500   3.779   1.697  0.00  0.00     0.078 C 
ENDROOT
BRANCH   1   8
ATOM      8  C1  UNL d   1       1.499   5.553  -0.746  0.00  0.00     0.053 C 
ATOM      9  C   UNL d   1       2.953   6.000  -0.749  0.00  0.00     0.018 C 
ENDBRANCH   1   8
TORSDOF 1
ENDMDL
