MODEL 1
REMARK minimizedAffinity -2.01375079
REMARK minimizedRMSD -1
REMARK  1 active torsions:
REMARK  status: ('A' for Active; 'I' for Inactive)
REMARK    1  A    between atoms: C1_2  and  C2_3 
ROOT
ATOM      1  C2  UNL d   1      -1.435   1.868   3.040  0.00  0.00    -0.076 A 
ATOM      2  C3  UNL d   1      -0.772   1.701   4.268  0.00  0.00     0.004 A 
ATOM      3  C4  UNL d   1      -1.483   1.641   5.465  0.00  0.00    -0.003 A 
ATOM      4  C5  UNL d   1      -2.870   1.745   5.453  0.00  0.00     0.000 A 
ATOM      5  C6  UNL d   1      -3.546   1.893   4.243  0.00  0.00     0.000 A 
ATOM      6  C7  UNL d   1      -2.845   1.940   3.025  0.00  0.00    -0.073 A 
ATOM      7  C8  UNL d   1      -3.624   2.107   1.749  0.00  0.00     0.078 C 
ENDROOT
BRANCH   1   8
ATOM      8  C1  UNL d   1      -0.609   1.954   1.777  0.00  0.00     0.053 C 
ATOM      9  C   UNL d   1       0.736   1.257   1.911  0.00  0.00     0.018 C 
ENDBRANCH   1   8
TORSDOF 1
ENDMDL
