MODEL 1
REMARK minimizedAffinity 1.44586706
REMARK minimizedRMSD -1
REMARK  1 active torsions:
REMARK  status: ('A' for Active; 'I' for Inactive)
REMARK    1  A    between atoms: C1_2  and  C2_3 
ROOT
ATOM      1  C2  UNL d   1       1.325   2.798  -0.566  0.00  0.00    -0.076 A 
ATOM      2  C3  UNL d   1       1.146   2.668  -1.954  0.00  0.00     0.004 A 
ATOM      3  C4  UNL d   1       0.851   1.432  -2.527  0.00  0.00    -0.003 A 
ATOM      4  C5  UNL d   1       0.729   0.306  -1.720  0.00  0.00     0.000 A 
ATOM      5  C6  UNL d   1       0.886   0.419  -0.339  0.00  0.00     0.000 A 
ATOM      6  C7  UNL d   1       1.168   1.661   0.256  0.00  0.00    -0.073 A 
ATOM      7  C8  UNL d   1       1.332   1.725   1.750  0.00  0.00     0.078 C 
ENDROOT
BRANCH   1   8
ATOM      8  C1  UNL d   1       1.671   4.158  -0.004  0.00  0.00     0.053 C 
ATOM      9  C   UNL d   1       1.838   5.211  -1.089  0.00  0.00     0.018 C 
ENDBRANCH   1   8
TORSDOF 1
ENDMDL
