MODEL 1
REMARK minimizedAffinity -1.94182396
REMARK minimizedRMSD -1
REMARK  0 active torsions:
REMARK  status: ('A' for Active; 'I' for Inactive)
ROOT
ATOM      1  N1  IND d   1       1.927   1.961   1.077  0.00  0.00    -0.196 N 
ATOM      2  C2  IND d   1       0.662   2.462   0.944  0.00  0.00     0.054 A 
ATOM      3  C3  IND d   1      -0.157   1.533   0.401  0.00  0.00    -0.031 A 
ATOM      4  C4  IND d   1       0.344  -0.906  -0.255  0.00  0.00     0.051 A 
ATOM      5  C5  IND d   1       1.367  -1.806  -0.354  0.00  0.00    -0.031 A 
ATOM      6  C6  IND d   1       2.655  -1.492   0.029  0.00  0.00     0.015 A 
ATOM      7  C7  IND d   1       2.966  -0.263   0.539  0.00  0.00    -0.016 A 
ATOM      8  C8  IND d   1       1.931   0.657   0.634  0.00  0.00    -0.047 A 
ATOM      9  C9  IND d   1       0.631   0.357   0.207  0.00  0.00    -0.096 A 
ATOM     10  HN1 IND d   1       2.606   2.389   1.384  0.00  0.00     0.298 HD
ENDROOT
TORSDOF 0
ENDMDL
