MODEL 1
REMARK minimizedAffinity -3.56451416
REMARK minimizedRMSD -1
REMARK  0 active torsions:
REMARK  status: ('A' for Active; 'I' for Inactive)
ROOT
ATOM      1  N1  IND d   1      -0.185  -2.276   1.664  0.00  0.00    -0.196 N 
ATOM      2  C2  IND d   1      -1.534  -2.055   1.631  0.00  0.00     0.054 A 
ATOM      3  C3  IND d   1      -1.800  -0.849   1.080  0.00  0.00    -0.031 A 
ATOM      4  C4  IND d   1      -0.182   0.881   0.072  0.00  0.00     0.051 A 
ATOM      5  C5  IND d   1       1.150   1.141  -0.095  0.00  0.00    -0.031 A 
ATOM      6  C6  IND d   1       2.123   0.257   0.322  0.00  0.00     0.015 A 
ATOM      7  C7  IND d   1       1.801  -0.932   0.913  0.00  0.00    -0.016 A 
ATOM      8  C8  IND d   1       0.450  -1.196   1.091  0.00  0.00    -0.047 A 
ATOM      9  C9  IND d   1      -0.542  -0.284   0.709  0.00  0.00    -0.096 A 
ATOM     10  HN1 IND d   1       0.201  -2.972   1.988  0.00  0.00     0.298 HD
ENDROOT
TORSDOF 0
ENDMDL
