MODEL 1
REMARK minimizedAffinity -3.37039161
REMARK minimizedRMSD -1
REMARK  0 active torsions:
REMARK  status: ('A' for Active; 'I' for Inactive)
ROOT
ATOM      1  N1  IND d   1      -1.133   0.464  -3.430  0.00  0.00    -0.196 N 
ATOM      2  C2  IND d   1      -2.463   0.183  -3.281  0.00  0.00     0.054 A 
ATOM      3  C3  IND d   1      -2.747  -0.069  -1.983  0.00  0.00    -0.031 A 
ATOM      4  C4  IND d   1      -1.207   0.025   0.077  0.00  0.00     0.051 A 
ATOM      5  C5  IND d   1       0.100   0.201   0.438  0.00  0.00    -0.031 A 
ATOM      6  C6  IND d   1       1.081   0.483  -0.490  0.00  0.00     0.015 A 
ATOM      7  C7  IND d   1       0.789   0.610  -1.819  0.00  0.00    -0.016 A 
ATOM      8  C8  IND d   1      -0.535   0.425  -2.190  0.00  0.00    -0.047 A 
ATOM      9  C9  IND d   1      -1.528   0.097  -1.258  0.00  0.00    -0.096 A 
ATOM     10  HN1 IND d   1      -0.737   0.637  -4.174  0.00  0.00     0.298 HD
ENDROOT
TORSDOF 0
ENDMDL
