MODEL 1
REMARK minimizedAffinity -0.794296205
REMARK minimizedRMSD -1
REMARK  0 active torsions:
REMARK  status: ('A' for Active; 'I' for Inactive)
ROOT
ATOM      1  N1  IND d   1       1.849   1.164   0.034  0.00  0.00    -0.196 N 
ATOM      2  C2  IND d   1       2.867   0.530   0.691  0.00  0.00     0.054 A 
ATOM      3  C3  IND d   1       2.402  -0.569   1.328  0.00  0.00    -0.031 A 
ATOM      4  C4  IND d   1       0.031  -1.570   1.344  0.00  0.00     0.051 A 
ATOM      5  C5  IND d   1      -1.245  -1.325   0.919  0.00  0.00    -0.031 A 
ATOM      6  C6  IND d   1      -1.560  -0.217   0.159  0.00  0.00     0.015 A 
ATOM      7  C7  IND d   1      -0.605   0.685  -0.215  0.00  0.00    -0.016 A 
ATOM      8  C8  IND d   1       0.690   0.444   0.221  0.00  0.00    -0.047 A 
ATOM      9  C9  IND d   1       1.008  -0.656   1.028  0.00  0.00    -0.096 A 
ATOM     10  HN1 IND d   1       1.922   1.891  -0.420  0.00  0.00     0.298 HD
ENDROOT
TORSDOF 0
ENDMDL
