MODEL 1
REMARK minimizedAffinity -1.75391018
REMARK minimizedRMSD -1
REMARK  0 active torsions:
REMARK  status: ('A' for Active; 'I' for Inactive)
ROOT
ATOM      1  N1  IND d   1       2.385   0.890   1.142  0.00  0.00    -0.196 N 
ATOM      2  C2  IND d   1       3.311  -0.111   1.048  0.00  0.00     0.054 A 
ATOM      3  C3  IND d   1       2.766  -1.202   0.463  0.00  0.00    -0.031 A 
ATOM      4  C4  IND d   1       0.405  -1.530  -0.508  0.00  0.00     0.051 A 
ATOM      5  C5  IND d   1      -0.808  -0.911  -0.623  0.00  0.00    -0.031 A 
ATOM      6  C6  IND d   1      -1.022   0.367  -0.149  0.00  0.00     0.015 A 
ATOM      7  C7  IND d   1      -0.024   1.081   0.451  0.00  0.00    -0.016 A 
ATOM      8  C8  IND d   1       1.207   0.453   0.576  0.00  0.00    -0.047 A 
ATOM      9  C9  IND d   1       1.419  -0.860   0.135  0.00  0.00    -0.096 A 
ATOM     10  HN1 IND d   1       2.515   1.663   1.496  0.00  0.00     0.298 HD
ENDROOT
TORSDOF 0
ENDMDL
