MODEL 1
REMARK minimizedAffinity -1.15519726
REMARK minimizedRMSD -1
REMARK  0 active torsions:
REMARK  status: ('A' for Active; 'I' for Inactive)
ROOT
ATOM      1  N1  IND d   1      -1.500   0.161   0.483  0.00  0.00    -0.196 N 
ATOM      2  C2  IND d   1      -1.879   0.078  -0.828  0.00  0.00     0.054 A 
ATOM      3  C3  IND d   1      -0.791  -0.007  -1.627  0.00  0.00    -0.031 A 
ATOM      4  C4  IND d   1       1.700  -0.131  -0.990  0.00  0.00     0.051 A 
ATOM      5  C5  IND d   1       2.543  -0.054   0.083  0.00  0.00    -0.031 A 
ATOM      6  C6  IND d   1       2.071   0.098   1.371  0.00  0.00     0.015 A 
ATOM      7  C7  IND d   1       0.733   0.169   1.636  0.00  0.00    -0.016 A 
ATOM      8  C8  IND d   1      -0.125   0.099   0.547  0.00  0.00    -0.047 A 
ATOM      9  C9  IND d   1       0.349  -0.013  -0.766  0.00  0.00    -0.096 A 
ATOM     10  HN1 IND d   1      -2.031   0.240   1.155  0.00  0.00     0.298 HD
ENDROOT
TORSDOF 0
ENDMDL
