MODEL 1
REMARK minimizedAffinity -3.13711929
REMARK minimizedRMSD -1
REMARK  0 active torsions:
REMARK  status: ('A' for Active; 'I' for Inactive)
ROOT
ATOM      1  N1  IND d   1       1.745   1.165   0.100  0.00  0.00    -0.196 N 
ATOM      2  C2  IND d   1       2.893   0.446   0.287  0.00  0.00     0.054 A 
ATOM      3  C3  IND d   1       2.601  -0.801   0.720  0.00  0.00    -0.031 A 
ATOM      4  C4  IND d   1       0.306  -1.908   1.094  0.00  0.00     0.051 A 
ATOM      5  C5  IND d   1      -1.033  -1.637   1.091  0.00  0.00    -0.031 A 
ATOM      6  C6  IND d   1      -1.525  -0.394   0.747  0.00  0.00     0.015 A 
ATOM      7  C7  IND d   1      -0.693   0.625   0.382  0.00  0.00    -0.016 A 
ATOM      8  C8  IND d   1       0.669   0.356   0.391  0.00  0.00    -0.047 A 
ATOM      9  C9  IND d   1       1.176  -0.890   0.780  0.00  0.00    -0.096 A 
ATOM     10  HN1 IND d   1       1.703   1.985  -0.156  0.00  0.00     0.298 HD
ENDROOT
TORSDOF 0
ENDMDL
