MODEL 1
REMARK minimizedAffinity -5.42487478
REMARK minimizedRMSD -1
REMARK  0 active torsions:
REMARK  status: ('A' for Active; 'I' for Inactive)
ROOT
ATOM      1  N1  IND d   1      -1.065  -0.226   0.368  0.00  0.00    -0.196 N 
ATOM      2  C2  IND d   1      -0.791   1.054  -0.027  0.00  0.00     0.054 A 
ATOM      3  C3  IND d   1       0.499   1.361   0.236  0.00  0.00    -0.031 A 
ATOM      4  C4  IND d   1       2.365  -0.117   1.216  0.00  0.00     0.051 A 
ATOM      5  C5  IND d   1       2.588  -1.349   1.764  0.00  0.00    -0.031 A 
ATOM      6  C6  IND d   1       1.585  -2.290   1.874  0.00  0.00     0.015 A 
ATOM      7  C7  IND d   1       0.318  -2.036   1.428  0.00  0.00    -0.016 A 
ATOM      8  C8  IND d   1       0.087  -0.784   0.878  0.00  0.00    -0.047 A 
ATOM      9  C9  IND d   1       1.091   0.191   0.803  0.00  0.00    -0.096 A 
ATOM     10  HN1 IND d   1      -1.829  -0.617   0.308  0.00  0.00     0.298 HD
ENDROOT
TORSDOF 0
ENDMDL
