MODEL 1
REMARK minimizedAffinity 19.0487118
REMARK minimizedRMSD -1
REMARK  0 active torsions:
REMARK  status: ('A' for Active; 'I' for Inactive)
ROOT
ATOM      1  N1  IND d   1      -4.699   1.780  -1.662  0.00  0.00    -0.196 N 
ATOM      2  C2  IND d   1      -3.573   1.632  -2.422  0.00  0.00     0.054 A 
ATOM      3  C3  IND d   1      -3.108   2.839  -2.815  0.00  0.00    -0.031 A 
ATOM      4  C4  IND d   1      -3.980   5.193  -2.241  0.00  0.00     0.051 A 
ATOM      5  C5  IND d   1      -5.006   5.837  -1.608  0.00  0.00    -0.031 A 
ATOM      6  C6  IND d   1      -6.000   5.148  -0.944  0.00  0.00     0.015 A 
ATOM      7  C7  IND d   1      -6.000   3.783  -0.879  0.00  0.00    -0.016 A 
ATOM      8  C8  IND d   1      -4.964   3.126  -1.528  0.00  0.00    -0.047 A 
ATOM      9  C9  IND d   1      -3.975   3.818  -2.239  0.00  0.00    -0.096 A 
ATOM     10  HN1 IND d   1      -5.164   1.141  -1.324  0.00  0.00     0.298 HD
ENDROOT
TORSDOF 0
ENDMDL
