MODEL 1
REMARK minimizedAffinity -2.81506944
REMARK minimizedRMSD -1
REMARK  0 active torsions:
REMARK  status: ('A' for Active; 'I' for Inactive)
ROOT
ATOM      1  N1  IND d   1      -3.185   2.292  -4.087  0.00  0.00    -0.196 N 
ATOM      2  C2  IND d   1      -3.449   3.282  -3.182  0.00  0.00     0.054 A 
ATOM      3  C3  IND d   1      -3.351   2.805  -1.921  0.00  0.00    -0.031 A 
ATOM      4  C4  IND d   1      -2.672   0.459  -1.108  0.00  0.00     0.051 A 
ATOM      5  C5  IND d   1      -2.373  -0.794  -1.564  0.00  0.00    -0.031 A 
ATOM      6  C6  IND d   1      -2.326  -1.088  -2.912  0.00  0.00     0.015 A 
ATOM      7  C7  IND d   1      -2.566  -0.132  -3.858  0.00  0.00    -0.016 A 
ATOM      8  C8  IND d   1      -2.877   1.140  -3.399  0.00  0.00    -0.047 A 
ATOM      9  C9  IND d   1      -2.968   1.433  -2.032  0.00  0.00    -0.096 A 
ATOM     10  HN1 IND d   1      -3.209   2.375  -4.943  0.00  0.00     0.298 HD
ENDROOT
TORSDOF 0
ENDMDL
