MODEL 1
REMARK minimizedAffinity -1.63767421
REMARK minimizedRMSD -1
REMARK  0 active torsions:
REMARK  status: ('A' for Active; 'I' for Inactive)
ROOT
ATOM      1  C1  BNZ d   1       1.438  -1.974  -0.441  0.00  0.00     0.000 A 
ATOM      2  C2  BNZ d   1       0.071  -1.927  -0.504  0.00  0.00     0.000 A 
ATOM      3  C3  BNZ d   1      -0.583  -0.735  -0.641  0.00  0.00     0.000 A 
ATOM      4  C4  BNZ d   1       0.128   0.411  -0.674  0.00  0.00     0.000 A 
ATOM      5  C5  BNZ d   1       1.506   0.381  -0.602  0.00  0.00     0.000 A 
ATOM      6  C6  BNZ d   1       2.163  -0.824  -0.504  0.00  0.00     0.000 A 
ENDROOT
TORSDOF 0
ENDMDL
