MODEL 1
REMARK minimizedAffinity -4.40075016
REMARK minimizedRMSD -1
REMARK  0 active torsions:
REMARK  status: ('A' for Active; 'I' for Inactive)
ROOT
ATOM      1  C1  BNZ d   1       2.950   1.089   0.120  0.00  0.00     0.000 A 
ATOM      2  C2  BNZ d   1       1.619   1.390   0.000  0.00  0.00     0.000 A 
ATOM      3  C3  BNZ d   1       0.682   0.399  -0.088  0.00  0.00     0.000 A 
ATOM      4  C4  BNZ d   1       1.080  -0.890  -0.097  0.00  0.00     0.000 A 
ATOM      5  C5  BNZ d   1       2.418  -1.210   0.013  0.00  0.00     0.000 A 
ATOM      6  C6  BNZ d   1       3.355  -0.210   0.141  0.00  0.00     0.000 A 
ENDROOT
TORSDOF 0
ENDMDL
