MODEL 1
REMARK minimizedAffinity -3.30903554
REMARK minimizedRMSD -1
REMARK  0 active torsions:
REMARK  status: ('A' for Active; 'I' for Inactive)
ROOT
ATOM      1  C1  BNZ d   1      -0.748   0.005  -0.556  0.00  0.00     0.000 A 
ATOM      2  C2  BNZ d   1       0.356  -0.590  -0.005  0.00  0.00     0.000 A 
ATOM      3  C3  BNZ d   1       1.424   0.159   0.403  0.00  0.00     0.000 A 
ATOM      4  C4  BNZ d   1       1.404   1.496   0.224  0.00  0.00     0.000 A 
ATOM      5  C5  BNZ d   1       0.303   2.109  -0.339  0.00  0.00     0.000 A 
ATOM      6  C6  BNZ d   1      -0.787   1.356  -0.713  0.00  0.00     0.000 A 
ENDROOT
TORSDOF 0
ENDMDL
