MODEL 1
REMARK minimizedAffinity -4.36807823
REMARK minimizedRMSD -1
REMARK  0 active torsions:
REMARK  status: ('A' for Active; 'I' for Inactive)
ROOT
ATOM      1  C1  BNZ d   1       1.586   0.238   0.564  0.00  0.00     0.000 A 
ATOM      2  C2  BNZ d   1       0.389   0.497  -0.048  0.00  0.00     0.000 A 
ATOM      3  C3  BNZ d   1      -0.260  -0.476  -0.756  0.00  0.00     0.000 A 
ATOM      4  C4  BNZ d   1       0.308  -1.693  -0.885  0.00  0.00     0.000 A 
ATOM      5  C5  BNZ d   1       1.519  -1.966  -0.281  0.00  0.00     0.000 A 
ATOM      6  C6  BNZ d   1       2.150  -0.997   0.463  0.00  0.00     0.000 A 
ENDROOT
TORSDOF 0
ENDMDL
