MODEL 1
REMARK minimizedAffinity -5.01469517
REMARK minimizedRMSD -1
REMARK  0 active torsions:
REMARK  status: ('A' for Active; 'I' for Inactive)
ROOT
ATOM      1  C1  BNZ d   1       0.117  -1.345  -0.925  0.00  0.00     0.000 A 
ATOM      2  C2  BNZ d   1       1.355  -1.810  -0.568  0.00  0.00     0.000 A 
ATOM      3  C3  BNZ d   1       2.149  -1.101   0.289  0.00  0.00     0.000 A 
ATOM      4  C4  BNZ d   1       1.722   0.090   0.756  0.00  0.00     0.000 A 
ATOM      5  C5  BNZ d   1       0.481   0.577   0.398  0.00  0.00     0.000 A 
ATOM      6  C6  BNZ d   1      -0.332  -0.158  -0.434  0.00  0.00     0.000 A 
ENDROOT
TORSDOF 0
ENDMDL
