MODEL 1
REMARK minimizedAffinity -3.59683609
REMARK minimizedRMSD -1
REMARK  0 active torsions:
REMARK  status: ('A' for Active; 'I' for Inactive)
ROOT
ATOM      1  C1  BNZ d   1       3.608  -0.351   0.240  0.00  0.00     0.000 A 
ATOM      2  C2  BNZ d   1       2.546  -1.214   0.214  0.00  0.00     0.000 A 
ATOM      3  C3  BNZ d   1       1.264  -0.750   0.321  0.00  0.00     0.000 A 
ATOM      4  C4  BNZ d   1       1.049   0.570   0.493  0.00  0.00     0.000 A 
ATOM      5  C5  BNZ d   1       2.111   1.452   0.531  0.00  0.00     0.000 A 
ATOM      6  C6  BNZ d   1       3.397   0.986   0.384  0.00  0.00     0.000 A 
ENDROOT
TORSDOF 0
ENDMDL
