MODEL 1
REMARK minimizedAffinity -2.91926003
REMARK minimizedRMSD -1
REMARK  0 active torsions:
REMARK  status: ('A' for Active; 'I' for Inactive)
ROOT
ATOM      1  C1  BNZ d   1      -0.304  -0.562  -0.494  0.00  0.00     0.000 A 
ATOM      2  C2  BNZ d   1       0.146  -1.855  -0.459  0.00  0.00     0.000 A 
ATOM      3  C3  BNZ d   1       1.459  -2.132  -0.198  0.00  0.00     0.000 A 
ATOM      4  C4  BNZ d   1       2.327  -1.117  -0.013  0.00  0.00     0.000 A 
ATOM      5  C5  BNZ d   1       1.890   0.192  -0.054  0.00  0.00     0.000 A 
ATOM      6  C6  BNZ d   1       0.561   0.466  -0.279  0.00  0.00     0.000 A 
ENDROOT
TORSDOF 0
ENDMDL
