MODEL 1
REMARK minimizedAffinity -3.75071526
REMARK minimizedRMSD -1
REMARK  0 active torsions:
REMARK  status: ('A' for Active; 'I' for Inactive)
ROOT
ATOM      1  C1  BNZ d   1       2.364   0.505   0.532  0.00  0.00     0.000 A 
ATOM      2  C2  BNZ d   1       1.071   0.928   0.378  0.00  0.00     0.000 A 
ATOM      3  C3  BNZ d   1       0.108   0.079  -0.093  0.00  0.00     0.000 A 
ATOM      4  C4  BNZ d   1       0.447  -1.177  -0.446  0.00  0.00     0.000 A 
ATOM      5  C5  BNZ d   1       1.749  -1.616  -0.305  0.00  0.00     0.000 A 
ATOM      6  C6  BNZ d   1       2.707  -0.771   0.206  0.00  0.00     0.000 A 
ENDROOT
TORSDOF 0
ENDMDL
