MODEL 1
REMARK minimizedAffinity -5.12505531
REMARK minimizedRMSD -1
REMARK  0 active torsions:
REMARK  status: ('A' for Active; 'I' for Inactive)
ROOT
ATOM      1  C1  BNZ d   1       2.146   0.149   1.082  0.00  0.00     0.000 A 
ATOM      2  C2  BNZ d   1       2.492  -1.123   0.712  0.00  0.00     0.000 A 
ATOM      3  C3  BNZ d   1       1.655  -1.880  -0.058  0.00  0.00     0.000 A 
ATOM      4  C4  BNZ d   1       0.457  -1.381  -0.423  0.00  0.00     0.000 A 
ATOM      5  C5  BNZ d   1       0.089  -0.103  -0.050  0.00  0.00     0.000 A 
ATOM      6  C6  BNZ d   1       0.951   0.671   0.693  0.00  0.00     0.000 A 
ENDROOT
TORSDOF 0
ENDMDL
