MODEL 1
REMARK minimizedAffinity -3.73088527
REMARK minimizedRMSD -1
REMARK  0 active torsions:
REMARK  status: ('A' for Active; 'I' for Inactive)
ROOT
ATOM      1  C   UNL d   1      -5.156  -2.571   0.309  0.00  0.00     0.077 C 
ATOM      2  C1  UNL d   1      -3.838  -2.171  -0.284  0.00  0.00    -0.074 A 
ATOM      3  C2  UNL d   1      -3.768  -1.588  -1.554  0.00  0.00    -0.005 A 
ATOM      4  C3  UNL d   1      -2.536  -1.212  -2.089  0.00  0.00     0.006 A 
ATOM      5  C4  UNL d   1      -1.363  -1.415  -1.361  0.00  0.00    -0.005 A 
ATOM      6  C5  UNL d   1      -1.413  -1.995  -0.089  0.00  0.00    -0.074 A 
ATOM      7  C6  UNL d   1      -0.163  -2.211   0.711  0.00  0.00     0.077 C 
ATOM      8  C7  UNL d   1      -2.656  -2.364   0.444  0.00  0.00    -0.001 A 
ENDROOT
TORSDOF 0
ENDMDL
