MODEL 1
REMARK minimizedAffinity 3.25903153
REMARK minimizedRMSD -1
REMARK  0 active torsions:
REMARK  status: ('A' for Active; 'I' for Inactive)
ROOT
ATOM      1  C   UNL d   1      -5.998  -1.270  -1.512  0.00  0.00     0.077 C 
ATOM      2  C1  UNL d   1      -4.512  -1.171  -1.335  0.00  0.00    -0.074 A 
ATOM      3  C2  UNL d   1      -3.815  -0.026  -1.736  0.00  0.00    -0.005 A 
ATOM      4  C3  UNL d   1      -2.434   0.055  -1.556  0.00  0.00     0.006 A 
ATOM      5  C4  UNL d   1      -1.737  -1.005  -0.975  0.00  0.00    -0.005 A 
ATOM      6  C5  UNL d   1      -2.417  -2.157  -0.567  0.00  0.00    -0.074 A 
ATOM      7  C6  UNL d   1      -1.685  -3.301   0.069  0.00  0.00     0.077 C 
ATOM      8  C7  UNL d   1      -3.806  -2.228  -0.744  0.00  0.00    -0.001 A 
ENDROOT
TORSDOF 0
ENDMDL
