MODEL 1
REMARK minimizedAffinity 1.85491788
REMARK minimizedRMSD -1
REMARK  0 active torsions:
REMARK  status: ('A' for Active; 'I' for Inactive)
ROOT
ATOM      1  C   UNL d   1      -5.547  -0.001   1.949  0.00  0.00     0.077 C 
ATOM      2  C1  UNL d   1      -5.126  -0.261   3.365  0.00  0.00    -0.074 A 
ATOM      3  C2  UNL d   1      -6.000  -0.021   4.430  0.00  0.00    -0.005 A 
ATOM      4  C3  UNL d   1      -5.598  -0.277   5.741  0.00  0.00     0.006 A 
ATOM      5  C4  UNL d   1      -4.320  -0.774   5.999  0.00  0.00    -0.005 A 
ATOM      6  C5  UNL d   1      -3.433  -1.022   4.947  0.00  0.00    -0.074 A 
ATOM      7  C6  UNL d   1      -2.060  -1.566   5.207  0.00  0.00     0.077 C 
ATOM      8  C7  UNL d   1      -3.847  -0.769   3.632  0.00  0.00    -0.001 A 
ENDROOT
TORSDOF 0
ENDMDL
