MODEL 1
REMARK minimizedAffinity 9.69283581
REMARK minimizedRMSD -1
REMARK  0 active torsions:
REMARK  status: ('A' for Active; 'I' for Inactive)
ROOT
ATOM      1  C   UNL d   1       1.020  -1.127   5.999  0.00  0.00     0.077 C 
ATOM      2  C1  UNL d   1       2.178  -1.494   5.120  0.00  0.00    -0.074 A 
ATOM      3  C2  UNL d   1       3.227  -2.282   5.604  0.00  0.00    -0.005 A 
ATOM      4  C3  UNL d   1       4.293  -2.623   4.771  0.00  0.00     0.006 A 
ATOM      5  C4  UNL d   1       4.321  -2.180   3.448  0.00  0.00    -0.005 A 
ATOM      6  C5  UNL d   1       3.280  -1.392   2.946  0.00  0.00    -0.074 A 
ATOM      7  C6  UNL d   1       3.289  -0.916   1.524  0.00  0.00     0.077 C 
ATOM      8  C7  UNL d   1       2.209  -1.060   3.787  0.00  0.00    -0.001 A 
ENDROOT
TORSDOF 0
ENDMDL
