MODEL 1
REMARK minimizedAffinity 10.5747375
REMARK minimizedRMSD -1
REMARK  0 active torsions:
REMARK  status: ('A' for Active; 'I' for Inactive)
ROOT
ATOM      1  C   UNL d   1      -0.380   0.074  -3.047  0.00  0.00     0.077 C 
ATOM      2  C1  UNL d   1      -1.779   0.538  -3.326  0.00  0.00    -0.074 A 
ATOM      3  C2  UNL d   1      -2.123   1.078  -4.569  0.00  0.00    -0.005 A 
ATOM      4  C3  UNL d   1      -3.430   1.496  -4.817  0.00  0.00     0.006 A 
ATOM      5  C4  UNL d   1      -4.405   1.379  -3.826  0.00  0.00    -0.005 A 
ATOM      6  C5  UNL d   1      -4.080   0.841  -2.577  0.00  0.00    -0.074 A 
ATOM      7  C6  UNL d   1      -5.118   0.699  -1.504  0.00  0.00     0.077 C 
ATOM      8  C7  UNL d   1      -2.766   0.416  -2.338  0.00  0.00    -0.001 A 
ENDROOT
TORSDOF 0
ENDMDL
