MODEL 1
REMARK minimizedAffinity 2.51270938
REMARK minimizedRMSD -1
REMARK  0 active torsions:
REMARK  status: ('A' for Active; 'I' for Inactive)
ROOT
ATOM      1  C   UNL d   1       0.416  -2.048   5.997  0.00  0.00     0.077 C 
ATOM      2  C1  UNL d   1       1.509  -2.252   4.991  0.00  0.00    -0.074 A 
ATOM      3  C2  UNL d   1       2.708  -2.877   5.348  0.00  0.00    -0.005 A 
ATOM      4  C3  UNL d   1       3.711  -3.069   4.398  0.00  0.00     0.006 A 
ATOM      5  C4  UNL d   1       3.526  -2.638   3.084  0.00  0.00    -0.005 A 
ATOM      6  C5  UNL d   1       2.333  -2.012   2.708  0.00  0.00    -0.074 A 
ATOM      7  C6  UNL d   1       2.114  -1.552   1.297  0.00  0.00     0.077 C 
ATOM      8  C7  UNL d   1       1.327  -1.830   3.666  0.00  0.00    -0.001 A 
ENDROOT
TORSDOF 0
ENDMDL
