MODEL 1
REMARK minimizedAffinity 8.5476675
REMARK minimizedRMSD -1
REMARK  0 active torsions:
REMARK  status: ('A' for Active; 'I' for Inactive)
ROOT
ATOM      1  C   UNL d   1      -0.377  -5.671   0.747  0.00  0.00     0.077 C 
ATOM      2  C1  UNL d   1      -0.999  -4.371   0.332  0.00  0.00    -0.074 A 
ATOM      3  C2  UNL d   1      -0.220  -3.341  -0.204  0.00  0.00    -0.005 A 
ATOM      4  C3  UNL d   1      -0.814  -2.141  -0.595  0.00  0.00     0.006 A 
ATOM      5  C4  UNL d   1      -2.190  -1.959  -0.454  0.00  0.00    -0.005 A 
ATOM      6  C5  UNL d   1      -2.985  -2.978   0.079  0.00  0.00    -0.074 A 
ATOM      7  C6  UNL d   1      -4.467  -2.803   0.228  0.00  0.00     0.077 C 
ATOM      8  C7  UNL d   1      -2.382  -4.184   0.463  0.00  0.00    -0.001 A 
ENDROOT
TORSDOF 0
ENDMDL
