MODEL 1
REMARK minimizedAffinity 6.29968643
REMARK minimizedRMSD -1
REMARK  0 active torsions:
REMARK  status: ('A' for Active; 'I' for Inactive)
ROOT
ATOM      1  C   UNL d   1      -1.516  -3.328   0.725  0.00  0.00     0.077 C 
ATOM      2  C1  UNL d   1      -2.110  -2.196  -0.060  0.00  0.00    -0.074 A 
ATOM      3  C2  UNL d   1      -3.454  -1.841   0.095  0.00  0.00    -0.005 A 
ATOM      4  C3  UNL d   1      -3.990  -0.780  -0.634  0.00  0.00     0.006 A 
ATOM      5  C4  UNL d   1      -3.189  -0.065  -1.525  0.00  0.00    -0.005 A 
ATOM      6  C5  UNL d   1      -1.843  -0.405  -1.693  0.00  0.00    -0.074 A 
ATOM      7  C6  UNL d   1      -0.966   0.360  -2.640  0.00  0.00     0.077 C 
ATOM      8  C7  UNL d   1      -1.310  -1.468  -0.951  0.00  0.00    -0.001 A 
ENDROOT
TORSDOF 0
ENDMDL
