MODEL 1
REMARK minimizedAffinity 8.52893829
REMARK minimizedRMSD -1
REMARK  0 active torsions:
REMARK  status: ('A' for Active; 'I' for Inactive)
ROOT
ATOM      1  C   UNL d   1       3.040  -4.673   0.068  0.00  0.00     0.077 C 
ATOM      2  C1  UNL d   1       1.552  -4.770   0.232  0.00  0.00    -0.074 A 
ATOM      3  C2  UNL d   1       0.960  -5.927   0.748  0.00  0.00    -0.005 A 
ATOM      4  C3  UNL d   1      -0.424  -5.999   0.903  0.00  0.00     0.006 A 
ATOM      5  C4  UNL d   1      -1.229  -4.917   0.543  0.00  0.00    -0.005 A 
ATOM      6  C5  UNL d   1      -0.654  -3.752   0.026  0.00  0.00    -0.074 A 
ATOM      7  C6  UNL d   1      -1.504  -2.576  -0.356  0.00  0.00     0.077 C 
ATOM      8  C7  UNL d   1       0.738  -3.684  -0.120  0.00  0.00    -0.001 A 
ENDROOT
TORSDOF 0
ENDMDL
