MODEL 1
REMARK minimizedAffinity -1.98848486
REMARK minimizedRMSD -1
REMARK  0 active torsions:
REMARK  status: ('A' for Active; 'I' for Inactive)
ROOT
ATOM      1  C   UNL d   1      -1.644   2.419   1.892  0.00  0.00     0.077 C 
ATOM      2  C1  UNL d   1      -0.619   1.540   1.239  0.00  0.00    -0.074 A 
ATOM      3  C2  UNL d   1      -0.514   1.471  -0.154  0.00  0.00    -0.005 A 
ATOM      4  C3  UNL d   1       0.451   0.656  -0.746  0.00  0.00     0.006 A 
ATOM      5  C4  UNL d   1       1.318  -0.097   0.046  0.00  0.00    -0.005 A 
ATOM      6  C5  UNL d   1       1.228  -0.040   1.441  0.00  0.00    -0.074 A 
ATOM      7  C6  UNL d   1       2.159  -0.834   2.307  0.00  0.00     0.077 C 
ATOM      8  C7  UNL d   1       0.261   0.787   2.029  0.00  0.00    -0.001 A 
ENDROOT
TORSDOF 0
ENDMDL
