MODEL 1
REMARK minimizedAffinity 6.75062513
REMARK minimizedRMSD -1
REMARK  0 active torsions:
REMARK  status: ('A' for Active; 'I' for Inactive)
ROOT
ATOM      1  C   UNL d   1      -2.794   1.609   2.055  0.00  0.00     0.077 C 
ATOM      2  C1  UNL d   1      -2.073   2.050   0.816  0.00  0.00    -0.074 A 
ATOM      3  C2  UNL d   1      -0.689   1.887   0.694  0.00  0.00    -0.005 A 
ATOM      4  C3  UNL d   1      -0.033   2.294  -0.468  0.00  0.00     0.006 A 
ATOM      5  C4  UNL d   1      -0.753   2.866  -1.518  0.00  0.00    -0.005 A 
ATOM      6  C5  UNL d   1      -2.137   3.036  -1.413  0.00  0.00    -0.074 A 
ATOM      7  C6  UNL d   1      -2.928   3.641  -2.536  0.00  0.00     0.077 C 
ATOM      8  C7  UNL d   1      -2.790   2.619  -0.245  0.00  0.00    -0.001 A 
ENDROOT
TORSDOF 0
ENDMDL
