MODEL 1
REMARK minimizedAffinity 1.3300612
REMARK minimizedRMSD -1
REMARK  1 active torsions:
REMARK  status: ('A' for Active; 'I' for Inactive)
REMARK    1  A    between atoms: C3_4  and  O_7 
ROOT
ATOM      1  C   UNL d   1      -0.374   6.000  -2.482  0.00  0.00    -0.033 A 
ATOM      2  C1  UNL d   1       0.611   6.000  -1.493  0.00  0.00     0.039 A 
ATOM      3  C2  UNL d   1       0.749   4.901  -0.643  0.00  0.00    -0.080 A 
ATOM      4  C3  UNL d   1      -0.102   3.810  -0.793  0.00  0.00     0.150 A 
ATOM      5  C4  UNL d   1      -1.084   3.802  -1.778  0.00  0.00    -0.007 A 
ATOM      6  C5  UNL d   1      -1.221   4.900  -2.626  0.00  0.00     0.039 A 
ENDROOT
BRANCH   4   7
ATOM      7  O   UNL d   1      -0.009   2.717   0.017  0.00  0.00    -0.526 OA
ATOM      8  H5  UNL d   1       0.694   2.876   0.669  0.00  0.00     0.418 HD
ENDBRANCH   4   7
TORSDOF 1
ENDMDL
