MODEL 1
REMARK minimizedAffinity 4.9223299
REMARK minimizedRMSD -1
REMARK  1 active torsions:
REMARK  status: ('A' for Active; 'I' for Inactive)
REMARK    1  A    between atoms: C3_4  and  O_7 
ROOT
ATOM      1  C   UNL d   1      -1.043   4.559  -0.405  0.00  0.00    -0.033 A 
ATOM      2  C1  UNL d   1       0.282   4.197  -0.657  0.00  0.00     0.039 A 
ATOM      3  C2  UNL d   1       0.887   4.552  -1.864  0.00  0.00    -0.080 A 
ATOM      4  C3  UNL d   1       0.158   5.268  -2.809  0.00  0.00     0.150 A 
ATOM      5  C4  UNL d   1      -1.161   5.636  -2.563  0.00  0.00    -0.007 A 
ATOM      6  C5  UNL d   1      -1.764   5.279  -1.358  0.00  0.00     0.039 A 
ENDROOT
BRANCH   4   7
ATOM      7  O   UNL d   1       0.704   5.633  -4.004  0.00  0.00    -0.526 OA
ATOM      8  H5  UNL d   1       1.611   5.287  -4.046  0.00  0.00     0.418 HD
ENDBRANCH   4   7
TORSDOF 1
ENDMDL
