MODEL 1
REMARK minimizedAffinity 1.52824676
REMARK minimizedRMSD -1
REMARK  1 active torsions:
REMARK  status: ('A' for Active; 'I' for Inactive)
REMARK    1  A    between atoms: C3_4  and  O_7 
ROOT
ATOM      1  C   UNL d   1      -4.763   2.225  -6.000  0.00  0.00    -0.033 A 
ATOM      2  C1  UNL d   1      -4.300   3.087  -5.004  0.00  0.00     0.039 A 
ATOM      3  C2  UNL d   1      -4.689   2.896  -3.677  0.00  0.00    -0.080 A 
ATOM      4  C3  UNL d   1      -5.538   1.840  -3.359  0.00  0.00     0.150 A 
ATOM      5  C4  UNL d   1      -6.000   0.975  -4.345  0.00  0.00    -0.007 A 
ATOM      6  C5  UNL d   1      -5.612   1.168  -5.670  0.00  0.00     0.039 A 
ENDROOT
BRANCH   4   7
ATOM      7  O   UNL d   1      -5.948   1.616  -2.078  0.00  0.00    -0.526 OA
ATOM      8  H5  UNL d   1      -5.573   2.310  -1.509  0.00  0.00     0.418 HD
ENDBRANCH   4   7
TORSDOF 1
ENDMDL
