MODEL 1
REMARK minimizedAffinity 8.50327682
REMARK minimizedRMSD -1
REMARK  1 active torsions:
REMARK  status: ('A' for Active; 'I' for Inactive)
REMARK    1  A    between atoms: C3_4  and  O_7 
ROOT
ATOM      1  C   UNL d   1       1.075   2.316   2.147  0.00  0.00    -0.033 A 
ATOM      2  C1  UNL d   1       2.157   1.524   2.535  0.00  0.00     0.039 A 
ATOM      3  C2  UNL d   1       1.953   0.415   3.358  0.00  0.00    -0.080 A 
ATOM      4  C3  UNL d   1       0.664   0.108   3.784  0.00  0.00     0.150 A 
ATOM      5  C4  UNL d   1      -0.420   0.891   3.399  0.00  0.00    -0.007 A 
ATOM      6  C5  UNL d   1      -0.214   1.999   2.578  0.00  0.00     0.039 A 
ENDROOT
BRANCH   4   7
ATOM      7  O   UNL d   1       0.416  -0.962   4.592  0.00  0.00    -0.526 OA
ATOM      8  H5  UNL d   1       1.262  -1.393   4.800  0.00  0.00     0.418 HD
ENDBRANCH   4   7
TORSDOF 1
ENDMDL
