MODEL 1
REMARK minimizedAffinity 4.48606825
REMARK minimizedRMSD -1
REMARK  1 active torsions:
REMARK  status: ('A' for Active; 'I' for Inactive)
REMARK    1  A    between atoms: C3_4  and  O_7 
ROOT
ATOM      1  C   UNL d   1       0.575   2.499   2.598  0.00  0.00    -0.033 A 
ATOM      2  C1  UNL d   1       0.094   2.887   1.346  0.00  0.00     0.039 A 
ATOM      3  C2  UNL d   1       0.933   3.552   0.450  0.00  0.00    -0.080 A 
ATOM      4  C3  UNL d   1       2.248   3.822   0.816  0.00  0.00     0.150 A 
ATOM      5  C4  UNL d   1       2.735   3.435   2.061  0.00  0.00    -0.007 A 
ATOM      6  C5  UNL d   1       1.896   2.772   2.955  0.00  0.00     0.039 A 
ENDROOT
BRANCH   4   7
ATOM      7  O   UNL d   1       3.103   4.473  -0.023  0.00  0.00    -0.526 OA
ATOM      8  H5  UNL d   1       2.621   4.704  -0.834  0.00  0.00     0.418 HD
ENDBRANCH   4   7
TORSDOF 1
ENDMDL
