MODEL 1
REMARK minimizedAffinity 3.14057946
REMARK minimizedRMSD -1
REMARK  1 active torsions:
REMARK  status: ('A' for Active; 'I' for Inactive)
REMARK    1  A    between atoms: C3_4  and  O_7 
ROOT
ATOM      1  C   UNL d   1       0.232   5.912  -2.284  0.00  0.00    -0.033 A 
ATOM      2  C1  UNL d   1      -0.672   4.938  -2.713  0.00  0.00     0.039 A 
ATOM      3  C2  UNL d   1      -0.766   3.722  -2.033  0.00  0.00    -0.080 A 
ATOM      4  C3  UNL d   1       0.047   3.494  -0.927  0.00  0.00     0.150 A 
ATOM      5  C4  UNL d   1       0.947   4.461  -0.491  0.00  0.00    -0.007 A 
ATOM      6  C5  UNL d   1       1.040   5.674  -1.173  0.00  0.00     0.039 A 
ENDROOT
BRANCH   4   7
ATOM      7  O   UNL d   1      -0.005   2.321  -0.234  0.00  0.00    -0.526 OA
ATOM      8  H5  UNL d   1      -0.651   1.737  -0.665  0.00  0.00     0.418 HD
ENDBRANCH   4   7
TORSDOF 1
ENDMDL
