MODEL 1
REMARK minimizedAffinity 2.4376564
REMARK minimizedRMSD -1
REMARK  1 active torsions:
REMARK  status: ('A' for Active; 'I' for Inactive)
REMARK    1  A    between atoms: C3_4  and  O_7 
ROOT
ATOM      1  C   UNL d   1       1.638  -0.478   4.344  0.00  0.00    -0.033 A 
ATOM      2  C1  UNL d   1       1.883  -1.320   5.431  0.00  0.00     0.039 A 
ATOM      3  C2  UNL d   1       0.838  -2.050   6.000  0.00  0.00    -0.080 A 
ATOM      4  C3  UNL d   1      -0.445  -1.931   5.473  0.00  0.00     0.150 A 
ATOM      5  C4  UNL d   1      -0.695  -1.098   4.388  0.00  0.00    -0.007 A 
ATOM      6  C5  UNL d   1       0.349  -0.368   3.822  0.00  0.00     0.039 A 
ENDROOT
BRANCH   4   7
ATOM      7  O   UNL d   1      -1.497  -2.621   5.998  0.00  0.00    -0.526 OA
ATOM      8  H5  UNL d   1      -1.180  -3.133   6.760  0.00  0.00     0.418 HD
ENDBRANCH   4   7
TORSDOF 1
ENDMDL
