MODEL 1
REMARK minimizedAffinity 3.86307621
REMARK minimizedRMSD -1
REMARK  1 active torsions:
REMARK  status: ('A' for Active; 'I' for Inactive)
REMARK    1  A    between atoms: C3_4  and  O_7 
ROOT
ATOM      1  C   UNL d   1       2.263  -2.557   0.267  0.00  0.00    -0.033 A 
ATOM      2  C1  UNL d   1       1.993  -3.881  -0.086  0.00  0.00     0.039 A 
ATOM      3  C2  UNL d   1       0.826  -4.194  -0.785  0.00  0.00    -0.080 A 
ATOM      4  C3  UNL d   1      -0.061  -3.177  -1.126  0.00  0.00     0.150 A 
ATOM      5  C4  UNL d   1       0.204  -1.855  -0.781  0.00  0.00    -0.007 A 
ATOM      6  C5  UNL d   1       1.369  -1.544  -0.081  0.00  0.00     0.039 A 
ENDROOT
BRANCH   4   7
ATOM      7  O   UNL d   1      -1.215  -3.435  -1.804  0.00  0.00    -0.526 OA
ATOM      8  H5  UNL d   1      -1.279  -4.393  -1.949  0.00  0.00     0.418 HD
ENDBRANCH   4   7
TORSDOF 1
ENDMDL
