MODEL 1
REMARK minimizedAffinity 6.66306973
REMARK minimizedRMSD -1
REMARK  1 active torsions:
REMARK  status: ('A' for Active; 'I' for Inactive)
REMARK    1  A    between atoms: C3_4  and  O_7 
ROOT
ATOM      1  C   UNL d   1      -1.494   5.710  -1.869  0.00  0.00    -0.033 A 
ATOM      2  C1  UNL d   1      -1.131   4.498  -2.460  0.00  0.00     0.039 A 
ATOM      3  C2  UNL d   1      -0.365   3.574  -1.747  0.00  0.00    -0.080 A 
ATOM      4  C3  UNL d   1       0.030   3.872  -0.447  0.00  0.00     0.150 A 
ATOM      5  C4  UNL d   1      -0.330   5.076   0.150  0.00  0.00    -0.007 A 
ATOM      6  C5  UNL d   1      -1.095   5.999  -0.564  0.00  0.00     0.039 A 
ENDROOT
BRANCH   4   7
ATOM      7  O   UNL d   1       0.783   3.004   0.287  0.00  0.00    -0.526 OA
ATOM      8  H5  UNL d   1       0.981   2.228  -0.264  0.00  0.00     0.418 HD
ENDBRANCH   4   7
TORSDOF 1
ENDMDL
