MODEL 1
REMARK minimizedAffinity 9.89648438
REMARK minimizedRMSD -1
REMARK  0 active torsions:
REMARK  status: ('A' for Active; 'I' for Inactive)
ROOT
ATOM      1  C   UNL d   1       5.256   2.248   0.072  0.00  0.00     0.020 A 
ATOM      2  C1  UNL d   1       5.998   3.364   0.457  0.00  0.00     0.020 A 
ATOM      3  C2  UNL d   1       5.998   4.511  -0.338  0.00  0.00     0.034 A 
ATOM      4  C3  UNL d   1       5.254   4.547  -1.523  0.00  0.00     0.017 A 
ATOM      5  C4  UNL d   1       4.509   3.427  -1.909  0.00  0.00     0.017 A 
ATOM      6  C5  UNL d   1       4.512   2.280  -1.109  0.00  0.00     0.034 A 
ATOM      7 Cl   UNL d   1       3.566   3.395  -3.358  0.00  0.00    -0.070 Cl
ATOM      8 Cl1  UNL d   1       5.300   5.999  -2.458  0.00  0.00    -0.070 Cl
ENDROOT
TORSDOF 0
ENDMDL
