MODEL 1
REMARK minimizedAffinity 14.8049717
REMARK minimizedRMSD -1
REMARK  0 active torsions:
REMARK  status: ('A' for Active; 'I' for Inactive)
ROOT
ATOM      1  C   UNL d   1      -0.442  -3.365   0.459  0.00  0.00     0.020 A 
ATOM      2  C1  UNL d   1      -0.810  -2.304   1.286  0.00  0.00     0.020 A 
ATOM      3  C2  UNL d   1       0.153  -1.391   1.720  0.00  0.00     0.034 A 
ATOM      4  C3  UNL d   1       1.489  -1.537   1.328  0.00  0.00     0.017 A 
ATOM      5  C4  UNL d   1       1.857  -2.602   0.498  0.00  0.00     0.017 A 
ATOM      6  C5  UNL d   1       0.888  -3.513   0.066  0.00  0.00     0.034 A 
ATOM      7 Cl   UNL d   1       3.485  -2.848  -0.028  0.00  0.00    -0.070 Cl
ATOM      8 Cl1  UNL d   1       2.627  -0.371   1.903  0.00  0.00    -0.070 Cl
ENDROOT
TORSDOF 0
ENDMDL
