MODEL 1
REMARK minimizedAffinity 16.4367828
REMARK minimizedRMSD -1
REMARK  0 active torsions:
REMARK  status: ('A' for Active; 'I' for Inactive)
ROOT
ATOM      1  C   UNL d   1      -0.540   5.456  -5.999  0.00  0.00     0.020 A 
ATOM      2  C1  UNL d   1       0.450   6.000  -5.182  0.00  0.00     0.020 A 
ATOM      3  C2  UNL d   1       1.217   5.167  -4.364  0.00  0.00     0.034 A 
ATOM      4  C3  UNL d   1       0.995   3.785  -4.362  0.00  0.00     0.017 A 
ATOM      5  C4  UNL d   1       0.001   3.239  -5.183  0.00  0.00     0.017 A 
ATOM      6  C5  UNL d   1      -0.763   4.078  -6.000  0.00  0.00     0.034 A 
ATOM      7 Cl   UNL d   1      -0.331   1.544  -5.236  0.00  0.00    -0.070 Cl
ATOM      8 Cl1  UNL d   1       1.981   2.814  -3.327  0.00  0.00    -0.070 Cl
ENDROOT
TORSDOF 0
ENDMDL
