MODEL 1
REMARK minimizedAffinity 8.66214657
REMARK minimizedRMSD -1
REMARK  0 active torsions:
REMARK  status: ('A' for Active; 'I' for Inactive)
ROOT
ATOM      1  C   UNL d   1      -5.251  -1.246   3.148  0.00  0.00     0.020 A 
ATOM      2  C1  UNL d   1      -5.627  -1.114   4.485  0.00  0.00     0.020 A 
ATOM      3  C2  UNL d   1      -4.872  -0.316   5.347  0.00  0.00     0.034 A 
ATOM      4  C3  UNL d   1      -3.737   0.353   4.874  0.00  0.00     0.017 A 
ATOM      5  C4  UNL d   1      -3.361   0.220   3.532  0.00  0.00     0.017 A 
ATOM      6  C5  UNL d   1      -4.121  -0.580   2.673  0.00  0.00     0.034 A 
ATOM      7 Cl   UNL d   1      -1.974   1.015   2.875  0.00  0.00    -0.070 Cl
ATOM      8 Cl1  UNL d   1      -2.851   1.324   5.995  0.00  0.00    -0.070 Cl
ENDROOT
TORSDOF 0
ENDMDL
