MODEL 1
REMARK minimizedAffinity 14.9143505
REMARK minimizedRMSD -1
REMARK  0 active torsions:
REMARK  status: ('A' for Active; 'I' for Inactive)
ROOT
ATOM      1  C   UNL d   1      -5.708  -1.075   4.297  0.00  0.00     0.020 A 
ATOM      2  C1  UNL d   1      -5.264  -1.282   2.992  0.00  0.00     0.020 A 
ATOM      3  C2  UNL d   1      -4.081  -0.684   2.554  0.00  0.00     0.034 A 
ATOM      4  C3  UNL d   1      -3.337   0.124   3.422  0.00  0.00     0.017 A 
ATOM      5  C4  UNL d   1      -3.784   0.331   4.732  0.00  0.00     0.017 A 
ATOM      6  C5  UNL d   1      -4.970  -0.270   5.165  0.00  0.00     0.034 A 
ATOM      7 Cl   UNL d   1      -2.920   1.315   5.861  0.00  0.00    -0.070 Cl
ATOM      8 Cl1  UNL d   1      -1.883   0.832   2.813  0.00  0.00    -0.070 Cl
ENDROOT
TORSDOF 0
ENDMDL
