MODEL 1
REMARK minimizedAffinity 1.4964937
REMARK minimizedRMSD -1
REMARK  0 active torsions:
REMARK  status: ('A' for Active; 'I' for Inactive)
ROOT
ATOM      1  C   UNL d   1      -4.151   0.840   5.621  0.00  0.00     0.020 A 
ATOM      2  C1  UNL d   1      -2.822   1.234   5.476  0.00  0.00     0.020 A 
ATOM      3  C2  UNL d   1      -2.094   0.837   4.352  0.00  0.00     0.034 A 
ATOM      4  C3  UNL d   1      -2.695   0.043   3.369  0.00  0.00     0.017 A 
ATOM      5  C4  UNL d   1      -4.030  -0.353   3.515  0.00  0.00     0.017 A 
ATOM      6  C5  UNL d   1      -4.754   0.049   4.642  0.00  0.00     0.034 A 
ATOM      7 Cl   UNL d   1      -4.840  -1.332   2.344  0.00  0.00    -0.070 Cl
ATOM      8 Cl1  UNL d   1      -1.736  -0.412   2.006  0.00  0.00    -0.070 Cl
ENDROOT
TORSDOF 0
ENDMDL
