MODEL 1
REMARK minimizedAffinity 8.2028904
REMARK minimizedRMSD -1
REMARK  0 active torsions:
REMARK  status: ('A' for Active; 'I' for Inactive)
ROOT
ATOM      1  C   UNL d   1      -5.466  -0.717   4.525  0.00  0.00     0.020 A 
ATOM      2  C1  UNL d   1      -5.471  -1.613   3.457  0.00  0.00     0.020 A 
ATOM      3  C2  UNL d   1      -4.350  -1.723   2.632  0.00  0.00     0.034 A 
ATOM      4  C3  UNL d   1      -3.218  -0.935   2.874  0.00  0.00     0.017 A 
ATOM      5  C4  UNL d   1      -3.214  -0.036   3.947  0.00  0.00     0.017 A 
ATOM      6  C5  UNL d   1      -4.340   0.070   4.769  0.00  0.00     0.034 A 
ATOM      7 Cl   UNL d   1      -1.856   0.969   4.308  0.00  0.00    -0.070 Cl
ATOM      8 Cl1  UNL d   1      -1.867  -1.123   1.814  0.00  0.00    -0.070 Cl
ENDROOT
TORSDOF 0
ENDMDL
