MODEL 1
REMARK minimizedAffinity 10.2689676
REMARK minimizedRMSD -1
REMARK  0 active torsions:
REMARK  status: ('A' for Active; 'I' for Inactive)
ROOT
ATOM      1  C   UNL d   1       4.963  -4.396  -1.038  0.00  0.00     0.020 A 
ATOM      2  C1  UNL d   1       4.085  -5.095  -0.211  0.00  0.00     0.020 A 
ATOM      3  C2  UNL d   1       3.177  -4.399   0.591  0.00  0.00     0.034 A 
ATOM      4  C3  UNL d   1       3.146  -3.000   0.567  0.00  0.00     0.017 A 
ATOM      5  C4  UNL d   1       4.027  -2.299  -0.264  0.00  0.00     0.017 A 
ATOM      6  C5  UNL d   1       4.934  -3.001  -1.065  0.00  0.00     0.034 A 
ATOM      7 Cl   UNL d   1       4.047  -0.573  -0.348  0.00  0.00    -0.070 Cl
ATOM      8 Cl1  UNL d   1       1.997  -2.205   1.584  0.00  0.00    -0.070 Cl
ENDROOT
TORSDOF 0
ENDMDL
