MODEL 1
REMARK minimizedAffinity 0.0903307125
REMARK minimizedRMSD -1
REMARK  0 active torsions:
REMARK  status: ('A' for Active; 'I' for Inactive)
ROOT
ATOM      1  C   UNL d   1       1.612  -5.130  -4.436  0.00  0.00     0.020 A 
ATOM      2  C1  UNL d   1       1.309  -5.892  -5.564  0.00  0.00     0.020 A 
ATOM      3  C2  UNL d   1      -0.013  -5.999  -6.000  0.00  0.00     0.034 A 
ATOM      4  C3  UNL d   1      -1.038  -5.343  -5.308  0.00  0.00     0.017 A 
ATOM      5  C4  UNL d   1      -0.733  -4.579  -4.176  0.00  0.00     0.017 A 
ATOM      6  C5  UNL d   1       0.593  -4.475  -3.744  0.00  0.00     0.034 A 
ATOM      7 Cl   UNL d   1      -1.943  -3.741  -3.270  0.00  0.00    -0.070 Cl
ATOM      8 Cl1  UNL d   1      -2.650  -5.520  -5.903  0.00  0.00    -0.070 Cl
ENDROOT
TORSDOF 0
ENDMDL
