MODEL 1
REMARK minimizedAffinity 11.3757372
REMARK minimizedRMSD -1
REMARK  0 active torsions:
REMARK  status: ('A' for Active; 'I' for Inactive)
ROOT
ATOM      1  C   UNL d   1      -5.415   5.121   5.989  0.00  0.00     0.020 A 
ATOM      2  C1  UNL d   1      -4.098   5.304   5.571  0.00  0.00     0.020 A 
ATOM      3  C2  UNL d   1      -3.336   4.207   5.164  0.00  0.00     0.034 A 
ATOM      4  C3  UNL d   1      -3.891   2.922   5.173  0.00  0.00     0.017 A 
ATOM      5  C4  UNL d   1      -5.213   2.740   5.593  0.00  0.00     0.017 A 
ATOM      6  C5  UNL d   1      -5.972   3.842   6.000  0.00  0.00     0.034 A 
ATOM      7 Cl   UNL d   1      -5.967   1.185   5.632  0.00  0.00    -0.070 Cl
ATOM      8 Cl1  UNL d   1      -2.891   1.611   4.656  0.00  0.00    -0.070 Cl
ENDROOT
TORSDOF 0
ENDMDL
