MODEL 1
REMARK minimizedAffinity 12.7075167
REMARK minimizedRMSD -1
REMARK  0 active torsions:
REMARK  status: ('A' for Active; 'I' for Inactive)
ROOT
ATOM      1  C   UNL d   1      -5.999   0.817  -1.964  0.00  0.00     0.020 A 
ATOM      2  C1  UNL d   1      -5.978  -0.300  -1.130  0.00  0.00     0.020 A 
ATOM      3  C2  UNL d   1      -5.955  -1.583  -1.682  0.00  0.00     0.034 A 
ATOM      4  C3  UNL d   1      -5.952  -1.751  -3.071  0.00  0.00     0.017 A 
ATOM      5  C4  UNL d   1      -5.973  -0.629  -3.908  0.00  0.00     0.017 A 
ATOM      6  C5  UNL d   1      -5.996   0.653  -3.350  0.00  0.00     0.034 A 
ATOM      7 Cl   UNL d   1      -5.971  -0.758  -5.631  0.00  0.00    -0.070 Cl
ATOM      8 Cl1  UNL d   1      -5.922  -3.367  -3.684  0.00  0.00    -0.070 Cl
ENDROOT
TORSDOF 0
ENDMDL
