MODEL 1
REMARK minimizedAffinity 17.6931419
REMARK minimizedRMSD -1
REMARK  0 active torsions:
REMARK  status: ('A' for Active; 'I' for Inactive)
ROOT
ATOM      1  C   UNL d   1      -4.626  -4.198   1.967  0.00  0.00     0.020 A 
ATOM      2  C1  UNL d   1      -5.551  -5.237   2.056  0.00  0.00     0.020 A 
ATOM      3  C2  UNL d   1      -5.904  -5.752   3.305  0.00  0.00     0.034 A 
ATOM      4  C3  UNL d   1      -5.332  -5.228   4.470  0.00  0.00     0.017 A 
ATOM      5  C4  UNL d   1      -4.403  -4.185   4.379  0.00  0.00     0.017 A 
ATOM      6  C5  UNL d   1      -4.053  -3.673   3.126  0.00  0.00     0.034 A 
ATOM      7 Cl   UNL d   1      -3.654  -3.487   5.772  0.00  0.00    -0.070 Cl
ATOM      8 Cl1  UNL d   1      -5.814  -5.913   5.981  0.00  0.00    -0.070 Cl
ENDROOT
TORSDOF 0
ENDMDL
