MODEL 1
REMARK minimizedAffinity 21.0117226
REMARK minimizedRMSD -1
REMARK  0 active torsions:
REMARK  status: ('A' for Active; 'I' for Inactive)
ROOT
ATOM      1  C   UNL d   1      -2.564  -0.663   1.852  0.00  0.00     0.020 A 
ATOM      2  C1  UNL d   1      -1.955   0.285   2.673  0.00  0.00     0.020 A 
ATOM      3  C2  UNL d   1      -0.620   0.128   3.050  0.00  0.00     0.034 A 
ATOM      4  C3  UNL d   1       0.111  -0.980   2.606  0.00  0.00     0.017 A 
ATOM      5  C4  UNL d   1      -0.501  -1.932   1.782  0.00  0.00     0.017 A 
ATOM      6  C5  UNL d   1      -1.839  -1.769   1.408  0.00  0.00     0.034 A 
ATOM      7 Cl   UNL d   1       0.336  -3.326   1.195  0.00  0.00    -0.070 Cl
ATOM      8 Cl1  UNL d   1       1.758  -1.111   3.111  0.00  0.00    -0.070 Cl
ENDROOT
TORSDOF 0
ENDMDL
