MODEL 1
REMARK minimizedAffinity 20.5867653
REMARK minimizedRMSD -1
REMARK  0 active torsions:
REMARK  status: ('A' for Active; 'I' for Inactive)
ROOT
ATOM      1  C   UNL d   1       5.999  -4.961  -0.741  0.00  0.00     0.020 A 
ATOM      2  C1  UNL d   1       5.069  -6.000  -0.729  0.00  0.00     0.020 A 
ATOM      3  C2  UNL d   1       3.702  -5.714  -0.755  0.00  0.00     0.034 A 
ATOM      4  C3  UNL d   1       3.262  -4.386  -0.793  0.00  0.00     0.017 A 
ATOM      5  C4  UNL d   1       4.196  -3.344  -0.805  0.00  0.00     0.017 A 
ATOM      6  C5  UNL d   1       5.563  -3.636  -0.778  0.00  0.00     0.034 A 
ATOM      7 Cl   UNL d   1       3.729  -1.680  -0.851  0.00  0.00    -0.070 Cl
ATOM      8 Cl1  UNL d   1       1.557  -4.105  -0.824  0.00  0.00    -0.070 Cl
ENDROOT
TORSDOF 0
ENDMDL
