MODEL 1
REMARK minimizedAffinity 5.70790529
REMARK minimizedRMSD -1
REMARK  0 active torsions:
REMARK  status: ('A' for Active; 'I' for Inactive)
ROOT
ATOM      1  C   UNL d   1       4.089  -3.197  -1.096  0.00  0.00     0.020 A 
ATOM      2  C1  UNL d   1       3.292  -4.079  -0.368  0.00  0.00     0.020 A 
ATOM      3  C2  UNL d   1       2.464  -3.597   0.648  0.00  0.00     0.034 A 
ATOM      4  C3  UNL d   1       2.431  -2.228   0.938  0.00  0.00     0.017 A 
ATOM      5  C4  UNL d   1       3.232  -1.343   0.207  0.00  0.00     0.017 A 
ATOM      6  C5  UNL d   1       4.059  -1.832  -0.809  0.00  0.00     0.034 A 
ATOM      7 Cl   UNL d   1       3.245   0.359   0.507  0.00  0.00    -0.070 Cl
ATOM      8 Cl1  UNL d   1       1.384  -1.701   2.207  0.00  0.00    -0.070 Cl
ENDROOT
TORSDOF 0
ENDMDL
