MODEL 1
REMARK minimizedAffinity 9.78038979
REMARK minimizedRMSD -1
REMARK  0 active torsions:
REMARK  status: ('A' for Active; 'I' for Inactive)
ROOT
ATOM      1  C   UNL d   1      -0.404  -4.882  -4.195  0.00  0.00     0.020 A 
ATOM      2  C1  UNL d   1      -1.621  -4.682  -3.543  0.00  0.00     0.020 A 
ATOM      3  C2  UNL d   1      -1.644  -4.440  -2.167  0.00  0.00     0.034 A 
ATOM      4  C3  UNL d   1      -0.449  -4.396  -1.440  0.00  0.00     0.017 A 
ATOM      5  C4  UNL d   1       0.771  -4.596  -2.095  0.00  0.00     0.017 A 
ATOM      6  C5  UNL d   1       0.789  -4.838  -3.472  0.00  0.00     0.034 A 
ATOM      7 Cl   UNL d   1       2.286  -4.557  -1.265  0.00  0.00    -0.070 Cl
ATOM      8 Cl1  UNL d   1      -0.553  -4.091   0.258  0.00  0.00    -0.070 Cl
ENDROOT
TORSDOF 0
ENDMDL
