MODEL 1
REMARK minimizedAffinity 16.5676174
REMARK minimizedRMSD -1
REMARK  0 active torsions:
REMARK  status: ('A' for Active; 'I' for Inactive)
ROOT
ATOM      1  C   UNL d   1      -2.284  -0.035   2.724  0.00  0.00     0.020 A 
ATOM      2  C1  UNL d   1      -1.774  -0.454   1.496  0.00  0.00     0.020 A 
ATOM      3  C2  UNL d   1      -2.570  -0.387   0.350  0.00  0.00     0.034 A 
ATOM      4  C3  UNL d   1      -3.879   0.101   0.430  0.00  0.00     0.017 A 
ATOM      5  C4  UNL d   1      -4.390   0.522   1.663  0.00  0.00     0.017 A 
ATOM      6  C5  UNL d   1      -3.588   0.452   2.807  0.00  0.00     0.034 A 
ATOM      7 Cl   UNL d   1      -5.995   1.136   1.841  0.00  0.00    -0.070 Cl
ATOM      8 Cl1  UNL d   1      -4.806   0.157  -1.027  0.00  0.00    -0.070 Cl
ENDROOT
TORSDOF 0
ENDMDL
