MODEL 1
REMARK minimizedAffinity -3.96293473
REMARK minimizedRMSD -1
REMARK  0 active torsions:
REMARK  status: ('A' for Active; 'I' for Inactive)
ROOT
ATOM      1  C   UNL d   1       1.035   1.034  -0.464  0.00  0.00     0.020 A 
ATOM      2  C1  UNL d   1      -0.316   1.286  -0.701  0.00  0.00     0.020 A 
ATOM      3  C2  UNL d   1      -1.273   0.321  -0.378  0.00  0.00     0.034 A 
ATOM      4  C3  UNL d   1      -0.880  -0.900   0.182  0.00  0.00     0.017 A 
ATOM      5  C4  UNL d   1       0.476  -1.152   0.420  0.00  0.00     0.017 A 
ATOM      6  C5  UNL d   1       1.430  -0.182   0.095  0.00  0.00     0.034 A 
ATOM      7 Cl   UNL d   1       1.037  -2.634   1.109  0.00  0.00    -0.070 Cl
ATOM      8 Cl1  UNL d   1      -2.117  -2.048   0.556  0.00  0.00    -0.070 Cl
ENDROOT
TORSDOF 0
ENDMDL
