MODEL 1
REMARK minimizedAffinity -0.782731712
REMARK minimizedRMSD -1
REMARK  0 active torsions:
REMARK  status: ('A' for Active; 'I' for Inactive)
ROOT
ATOM      1  C   UNL d   1       1.095  -0.671  -0.068  0.00  0.00     0.020 A 
ATOM      2  C1  UNL d   1       0.970  -1.898   0.583  0.00  0.00     0.020 A 
ATOM      3  C2  UNL d   1      -0.041  -2.087   1.527  0.00  0.00     0.034 A 
ATOM      4  C3  UNL d   1      -0.931  -1.049   1.824  0.00  0.00     0.017 A 
ATOM      5  C4  UNL d   1      -0.805   0.182   1.171  0.00  0.00     0.017 A 
ATOM      6  C5  UNL d   1       0.209   0.367   0.226  0.00  0.00     0.034 A 
ATOM      7 Cl   UNL d   1      -1.865   1.511   1.484  0.00  0.00    -0.070 Cl
ATOM      8 Cl1  UNL d   1      -2.157  -1.354   3.003  0.00  0.00    -0.070 Cl
ENDROOT
TORSDOF 0
ENDMDL
