MODEL 1
REMARK minimizedAffinity 0.866290271
REMARK minimizedRMSD -1
REMARK  0 active torsions:
REMARK  status: ('A' for Active; 'I' for Inactive)
ROOT
ATOM      1  C   UNL d   1      -1.329   0.561  -2.347  0.00  0.00     0.172 C 
ATOM      2  N   UNL d   1      -2.443   0.433  -3.258  0.00  0.00    -0.070 N 
ATOM      3  C1  UNL d   1      -2.563   1.065  -4.467  0.00  0.00    -0.004 A 
ATOM      4  C2  UNL d   1      -3.762   0.681  -5.027  0.00  0.00    -0.047 A 
ATOM      5  C3  UNL d   1      -4.385  -0.212  -4.123  0.00  0.00    -0.047 A 
ATOM      6  C4  UNL d   1      -3.546  -0.348  -3.037  0.00  0.00    -0.004 A 
ENDROOT
TORSDOF 0
ENDMDL
