MODEL 1
REMARK minimizedAffinity -0.563816905
REMARK minimizedRMSD -1
REMARK  0 active torsions:
REMARK  status: ('A' for Active; 'I' for Inactive)
ROOT
ATOM      1  C   UNL d   1       3.123  -2.107  -0.630  0.00  0.00     0.172 C 
ATOM      2  N   UNL d   1       3.734  -0.807  -0.774  0.00  0.00    -0.070 N 
ATOM      3  C1  UNL d   1       3.375   0.324  -0.091  0.00  0.00    -0.004 A 
ATOM      4  C2  UNL d   1       4.195   1.349  -0.511  0.00  0.00    -0.047 A 
ATOM      5  C3  UNL d   1       5.077   0.815  -1.480  0.00  0.00    -0.047 A 
ATOM      6  C4  UNL d   1       4.770  -0.521  -1.623  0.00  0.00    -0.004 A 
ENDROOT
TORSDOF 0
ENDMDL
