MODEL 1
REMARK minimizedAffinity 7.37998199
REMARK minimizedRMSD -1
REMARK  0 active torsions:
REMARK  status: ('A' for Active; 'I' for Inactive)
ROOT
ATOM      1  C   UNL d   1      -2.929   1.266  -5.811  0.00  0.00     0.172 C 
ATOM      2  N   UNL d   1      -3.979   1.575  -4.869  0.00  0.00    -0.070 N 
ATOM      3  C1  UNL d   1      -4.885   0.682  -4.364  0.00  0.00    -0.004 A 
ATOM      4  C2  UNL d   1      -5.715   1.365  -3.501  0.00  0.00    -0.047 A 
ATOM      5  C3  UNL d   1      -5.293   2.716  -3.489  0.00  0.00    -0.047 A 
ATOM      6  C4  UNL d   1      -4.217   2.818  -4.345  0.00  0.00    -0.004 A 
ENDROOT
TORSDOF 0
ENDMDL
