MODEL 1
REMARK minimizedAffinity 1.23549581
REMARK minimizedRMSD -1
REMARK  0 active torsions:
REMARK  status: ('A' for Active; 'I' for Inactive)
ROOT
ATOM      1  C   UNL d   1       3.068  -1.668  -1.431  0.00  0.00     0.172 C 
ATOM      2  N   UNL d   1       3.795  -0.454  -1.142  0.00  0.00    -0.070 N 
ATOM      3  C1  UNL d   1       3.388   0.536  -0.287  0.00  0.00    -0.004 A 
ATOM      4  C2  UNL d   1       4.355   1.518  -0.287  0.00  0.00    -0.047 A 
ATOM      5  C3  UNL d   1       5.378   1.104  -1.173  0.00  0.00    -0.047 A 
ATOM      6  C4  UNL d   1       5.005  -0.120  -1.688  0.00  0.00    -0.004 A 
ENDROOT
TORSDOF 0
ENDMDL
