MODEL 1
REMARK minimizedAffinity 11.3561153
REMARK minimizedRMSD -1
REMARK  0 active torsions:
REMARK  status: ('A' for Active; 'I' for Inactive)
ROOT
ATOM      1  C   UNL d   1      -0.695  -5.968   6.000  0.00  0.00     0.172 C 
ATOM      2  N   UNL d   1       0.183  -4.935   5.503  0.00  0.00    -0.070 N 
ATOM      3  C1  UNL d   1      -0.096  -4.077   4.473  0.00  0.00    -0.004 A 
ATOM      4  C2  UNL d   1       0.992  -3.247   4.309  0.00  0.00    -0.047 A 
ATOM      5  C3  UNL d   1       1.959  -3.620   5.273  0.00  0.00    -0.047 A 
ATOM      6  C4  UNL d   1       1.432  -4.667   5.998  0.00  0.00    -0.004 A 
ENDROOT
TORSDOF 0
ENDMDL
