MODEL 1
REMARK minimizedAffinity 6.0368495
REMARK minimizedRMSD -1
REMARK  0 active torsions:
REMARK  status: ('A' for Active; 'I' for Inactive)
ROOT
ATOM      1  C   UNL d   1      -3.556   1.495   1.846  0.00  0.00     0.172 C 
ATOM      2  N   UNL d   1      -2.248   2.013   1.519  0.00  0.00    -0.070 N 
ATOM      3  C1  UNL d   1      -1.155   1.263   1.177  0.00  0.00    -0.004 A 
ATOM      4  C2  UNL d   1      -0.108   2.127   0.940  0.00  0.00    -0.047 A 
ATOM      5  C3  UNL d   1      -0.588   3.442   1.147  0.00  0.00    -0.047 A 
ATOM      6  C4  UNL d   1      -1.916   3.342   1.505  0.00  0.00    -0.004 A 
ENDROOT
TORSDOF 0
ENDMDL
