MODEL 1
REMARK minimizedAffinity 12.5072584
REMARK minimizedRMSD -1
REMARK  3 active torsions:
REMARK  status: ('A' for Active; 'I' for Inactive)
REMARK    1  A    between atoms: C3'_2  and  C2'_3 
REMARK    2  A    between atoms: C2'_3  and  C1'_4 
REMARK    3  A    between atoms: C1'_4  and  C1_5 
ROOT
ATOM      1  C1  N4B d   1       4.740   1.461  -1.647  0.00  0.00    -0.075 A 
ATOM      2  C2  N4B d   1       3.715   0.594  -2.086  0.00  0.00     0.002 A 
ATOM      3  C3  N4B d   1       2.916  -0.043  -1.168  0.00  0.00     0.002 A 
ATOM      4  C4  N4B d   1       3.134   0.156   0.187  0.00  0.00    -0.004 A 
ATOM      5  C5  N4B d   1       4.109   1.015   0.601  0.00  0.00     0.002 A 
ATOM      6  C6  N4B d   1       4.918   1.665  -0.310  0.00  0.00     0.002 A 
ENDROOT
BRANCH   1   7
ATOM      7  C1' N4B d   1       5.695   2.113  -2.610  0.00  0.00     0.057 C 
BRANCH   7   8
ATOM      8  C2' N4B d   1       6.000   3.529  -2.131  0.00  0.00     0.009 C 
BRANCH   8   9
ATOM      9  C3' N4B d   1       5.322   4.579  -2.994  0.00  0.00     0.004 C 
ATOM     10  C4' N4B d   1       5.710   5.978  -2.619  0.00  0.00     0.003 C 
ENDBRANCH   8   9
ENDBRANCH   7   8
ENDBRANCH   1   7
TORSDOF 3
ENDMDL
