MODEL 1
REMARK minimizedAffinity 16.4077282
REMARK minimizedRMSD -1
REMARK  3 active torsions:
REMARK  status: ('A' for Active; 'I' for Inactive)
REMARK    1  A    between atoms: C3'_2  and  C2'_3 
REMARK    2  A    between atoms: C2'_3  and  C1'_4 
REMARK    3  A    between atoms: C1'_4  and  C1_5 
ROOT
ATOM      1  C1  N4B d   1      -1.797   2.628   1.868  0.00  0.00    -0.075 A 
ATOM      2  C2  N4B d   1      -1.081   2.743   3.080  0.00  0.00     0.002 A 
ATOM      3  C3  N4B d   1       0.027   3.552   3.149  0.00  0.00     0.002 A 
ATOM      4  C4  N4B d   1       0.447   4.237   2.018  0.00  0.00    -0.004 A 
ATOM      5  C5  N4B d   1      -0.265   4.140   0.859  0.00  0.00     0.002 A 
ATOM      6  C6  N4B d   1      -1.383   3.334   0.776  0.00  0.00     0.002 A 
ENDROOT
BRANCH   1   7
ATOM      7  C1' N4B d   1      -2.963   1.689   1.721  0.00  0.00     0.057 C 
BRANCH   7   8
ATOM      8  C2' N4B d   1      -3.223   1.442   0.238  0.00  0.00     0.009 C 
BRANCH   8   9
ATOM      9  C3' N4B d   1      -3.371  -0.037  -0.074  0.00  0.00     0.004 C 
ATOM     10  C4' N4B d   1      -4.804  -0.469  -0.175  0.00  0.00     0.003 C 
ENDBRANCH   8   9
ENDBRANCH   7   8
ENDBRANCH   1   7
TORSDOF 3
ENDMDL
