MODEL 1
REMARK minimizedAffinity 4.83528996
REMARK minimizedRMSD -1
REMARK  3 active torsions:
REMARK  status: ('A' for Active; 'I' for Inactive)
REMARK    1  A    between atoms: C3'_2  and  C2'_3 
REMARK    2  A    between atoms: C2'_3  and  C1'_4 
REMARK    3  A    between atoms: C1'_4  and  C1_5 
ROOT
ATOM      1  C1  N4B d   1       3.470   1.141   0.204  0.00  0.00    -0.075 A 
ATOM      2  C2  N4B d   1       2.513   0.492  -0.607  0.00  0.00     0.002 A 
ATOM      3  C3  N4B d   1       1.644  -0.415  -0.051  0.00  0.00     0.002 A 
ATOM      4  C4  N4B d   1       1.726  -0.702   1.303  0.00  0.00    -0.004 A 
ATOM      5  C5  N4B d   1       2.636  -0.053   2.084  0.00  0.00     0.002 A 
ATOM      6  C6  N4B d   1       3.513   0.864   1.540  0.00  0.00     0.002 A 
ENDROOT
BRANCH   1   7
ATOM      7  C1' N4B d   1       4.497   2.076  -0.373  0.00  0.00     0.057 C 
BRANCH   7   8
ATOM      8  C2' N4B d   1       4.674   1.770  -1.858  0.00  0.00     0.009 C 
BRANCH   8   9
ATOM      9  C3' N4B d   1       6.000   2.288  -2.390  0.00  0.00     0.004 C 
ATOM     10  C4' N4B d   1       5.997   3.771  -2.612  0.00  0.00     0.003 C 
ENDBRANCH   8   9
ENDBRANCH   7   8
ENDBRANCH   1   7
TORSDOF 3
ENDMDL
