MODEL 1
REMARK minimizedAffinity 6.57088041
REMARK minimizedRMSD -1
REMARK  3 active torsions:
REMARK  status: ('A' for Active; 'I' for Inactive)
REMARK    1  A    between atoms: C3'_2  and  C2'_3 
REMARK    2  A    between atoms: C2'_3  and  C1'_4 
REMARK    3  A    between atoms: C1'_4  and  C1_5 
ROOT
ATOM      1  C1  N4B d   1       3.427   0.726   0.167  0.00  0.00    -0.075 A 
ATOM      2  C2  N4B d   1       3.254   0.377   1.524  0.00  0.00     0.002 A 
ATOM      3  C3  N4B d   1       2.147  -0.337   1.914  0.00  0.00     0.002 A 
ATOM      4  C4  N4B d   1       1.195  -0.694   0.972  0.00  0.00    -0.004 A 
ATOM      5  C5  N4B d   1       1.382  -0.375  -0.341  0.00  0.00     0.002 A 
ATOM      6  C6  N4B d   1       2.491   0.338  -0.748  0.00  0.00     0.002 A 
ENDROOT
BRANCH   1   7
ATOM      7  C1' N4B d   1       4.577   1.580  -0.293  0.00  0.00     0.057 C 
BRANCH   7   8
ATOM      8  C2' N4B d   1       4.635   1.561  -1.818  0.00  0.00     0.009 C 
BRANCH   8   9
ATOM      9  C3' N4B d   1       6.000   1.978  -2.339  0.00  0.00     0.004 C 
ATOM     10  C4' N4B d   1       5.987   3.334  -2.980  0.00  0.00     0.003 C 
ENDBRANCH   8   9
ENDBRANCH   7   8
ENDBRANCH   1   7
TORSDOF 3
ENDMDL
