MODEL 1
REMARK minimizedAffinity 15.08111
REMARK minimizedRMSD -1
REMARK  3 active torsions:
REMARK  status: ('A' for Active; 'I' for Inactive)
REMARK    1  A    between atoms: C3'_2  and  C2'_3 
REMARK    2  A    between atoms: C2'_3  and  C1'_4 
REMARK    3  A    between atoms: C1'_4  and  C1_5 
ROOT
ATOM      1  C1  N4B d   1       0.513   3.947   2.388  0.00  0.00    -0.075 A 
ATOM      2  C2  N4B d   1      -0.229   3.438   1.300  0.00  0.00     0.002 A 
ATOM      3  C3  N4B d   1      -1.176   4.223   0.688  0.00  0.00     0.002 A 
ATOM      4  C4  N4B d   1      -1.410   5.507   1.157  0.00  0.00    -0.004 A 
ATOM      5  C5  N4B d   1      -0.671   5.999   2.192  0.00  0.00     0.002 A 
ATOM      6  C6  N4B d   1       0.287   5.223   2.814  0.00  0.00     0.002 A 
ENDROOT
BRANCH   1   7
ATOM      7  C1' N4B d   1       1.498   3.097   3.144  0.00  0.00     0.057 C 
BRANCH   7   8
ATOM      8  C2' N4B d   1       0.852   2.613   4.439  0.00  0.00     0.009 C 
BRANCH   8   9
ATOM      9  C3' N4B d   1       1.749   1.650   5.197  0.00  0.00     0.004 C 
ATOM     10  C4' N4B d   1       1.265   0.232   5.133  0.00  0.00     0.003 C 
ENDBRANCH   8   9
ENDBRANCH   7   8
ENDBRANCH   1   7
TORSDOF 3
ENDMDL
