MODEL 1
REMARK minimizedAffinity 15.1171255
REMARK minimizedRMSD -1
REMARK  3 active torsions:
REMARK  status: ('A' for Active; 'I' for Inactive)
REMARK    1  A    between atoms: C3'_2  and  C2'_3 
REMARK    2  A    between atoms: C2'_3  and  C1'_4 
REMARK    3  A    between atoms: C1'_4  and  C1_5 
ROOT
ATOM      1  C1  N4B d   1       4.435   1.434  -1.847  0.00  0.00    -0.075 A 
ATOM      2  C2  N4B d   1       3.382   0.633  -2.342  0.00  0.00     0.002 A 
ATOM      3  C3  N4B d   1       2.433   0.139  -1.481  0.00  0.00     0.002 A 
ATOM      4  C4  N4B d   1       2.527   0.414  -0.125  0.00  0.00    -0.004 A 
ATOM      5  C5  N4B d   1       3.533   1.209   0.341  0.00  0.00     0.002 A 
ATOM      6  C6  N4B d   1       4.491   1.716  -0.513  0.00  0.00     0.002 A 
ENDROOT
BRANCH   1   7
ATOM      7  C1' N4B d   1       5.544   1.926  -2.737  0.00  0.00     0.057 C 
BRANCH   7   8
ATOM      8  C2' N4B d   1       5.914   3.351  -2.334  0.00  0.00     0.009 C 
BRANCH   8   9
ATOM      9  C3' N4B d   1       5.570   4.355  -3.420  0.00  0.00     0.004 C 
ATOM     10  C4' N4B d   1       5.721   5.776  -2.966  0.00  0.00     0.003 C 
ENDBRANCH   8   9
ENDBRANCH   7   8
ENDBRANCH   1   7
TORSDOF 3
ENDMDL
