MODEL 1
REMARK minimizedAffinity -1.91396785
REMARK minimizedRMSD -1
REMARK  0 active torsions:
REMARK  status: ('A' for Active; 'I' for Inactive)
ROOT
ATOM      1  N1  IND d   1       1.168   0.448   0.470  0.00  0.00    -0.196 N 
ATOM      2  C2  IND d   1       1.567   0.885   1.703  0.00  0.00     0.054 A 
ATOM      3  C3  IND d   1       0.554   1.530   2.323  0.00  0.00    -0.031 A 
ATOM      4  C4  IND d   1      -1.872   1.899   1.544  0.00  0.00     0.051 A 
ATOM      5  C5  IND d   1      -2.699   1.713   0.471  0.00  0.00    -0.031 A 
ATOM      6  C6  IND d   1      -2.271   1.081  -0.679  0.00  0.00     0.015 A 
ATOM      7  C7  IND d   1      -0.998   0.599  -0.795  0.00  0.00    -0.016 A 
ATOM      8  C8  IND d   1      -0.153   0.792   0.289  0.00  0.00    -0.047 A 
ATOM      9  C9  IND d   1      -0.569   1.470   1.442  0.00  0.00    -0.096 A 
ATOM     10  HN1 IND d   1       1.661   0.030  -0.097  0.00  0.00     0.298 HD
ENDROOT
TORSDOF 0
ENDMDL
