MODEL 1
REMARK minimizedAffinity 0.218122229
REMARK minimizedRMSD -1
REMARK  0 active torsions:
REMARK  status: ('A' for Active; 'I' for Inactive)
ROOT
ATOM      1  N1  IND d   1      -0.323   1.034  -0.731  0.00  0.00    -0.196 N 
ATOM      2  C2  IND d   1       0.159   0.098  -1.604  0.00  0.00     0.054 A 
ATOM      3  C3  IND d   1       0.970  -0.772  -0.961  0.00  0.00    -0.031 A 
ATOM      4  C4  IND d   1       1.565  -0.909   1.540  0.00  0.00     0.051 A 
ATOM      5  C5  IND d   1       1.396  -0.250   2.725  0.00  0.00    -0.031 A 
ATOM      6  C6  IND d   1       0.628   0.892   2.821  0.00  0.00     0.015 A 
ATOM      7  C7  IND d   1      -0.012   1.414   1.733  0.00  0.00    -0.016 A 
ATOM      8  C8  IND d   1       0.163   0.751   0.526  0.00  0.00    -0.047 A 
ATOM      9  C9  IND d   1       0.976  -0.384   0.414  0.00  0.00    -0.096 A 
ATOM     10  HN1 IND d   1      -0.842   1.688  -0.934  0.00  0.00     0.298 HD
ENDROOT
TORSDOF 0
ENDMDL
