MODEL 1
REMARK minimizedAffinity 12.9764147
REMARK minimizedRMSD -1
REMARK  0 active torsions:
REMARK  status: ('A' for Active; 'I' for Inactive)
ROOT
ATOM      1  N1  IND d   1       0.888  -4.507  -0.074  0.00  0.00    -0.196 N 
ATOM      2  C2  IND d   1       1.739  -4.782  -1.108  0.00  0.00     0.054 A 
ATOM      3  C3  IND d   1       2.198  -3.634  -1.657  0.00  0.00    -0.031 A 
ATOM      4  C4  IND d   1       1.764  -1.197  -0.952  0.00  0.00     0.051 A 
ATOM      5  C5  IND d   1       1.025  -0.441  -0.086  0.00  0.00    -0.031 A 
ATOM      6  C6  IND d   1       0.189  -1.014   0.850  0.00  0.00     0.015 A 
ATOM      7  C7  IND d   1       0.067  -2.370   0.962  0.00  0.00    -0.016 A 
ATOM      8  C8  IND d   1       0.810  -3.140   0.079  0.00  0.00    -0.047 A 
ATOM      9  C9  IND d   1       1.629  -2.564  -0.901  0.00  0.00    -0.096 A 
ATOM     10  HN1 IND d   1       0.472  -5.090   0.401  0.00  0.00     0.298 HD
ENDROOT
TORSDOF 0
ENDMDL
