MODEL 1
REMARK minimizedAffinity 10.0249672
REMARK minimizedRMSD -1
REMARK  0 active torsions:
REMARK  status: ('A' for Active; 'I' for Inactive)
ROOT
ATOM      1  N1  IND d   1       0.472   1.510  -1.005  0.00  0.00    -0.196 N 
ATOM      2  C2  IND d   1      -0.391   1.482  -2.065  0.00  0.00     0.054 A 
ATOM      3  C3  IND d   1      -1.614   1.916  -1.687  0.00  0.00    -0.031 A 
ATOM      4  C4  IND d   1      -2.398   2.817   0.594  0.00  0.00     0.051 A 
ATOM      5  C5  IND d   1      -1.978   3.001   1.881  0.00  0.00    -0.031 A 
ATOM      6  C6  IND d   1      -0.693   2.694   2.280  0.00  0.00     0.015 A 
ATOM      7  C7  IND d   1       0.227   2.199   1.399  0.00  0.00    -0.016 A 
ATOM      8  C8  IND d   1      -0.198   2.004   0.093  0.00  0.00    -0.047 A 
ATOM      9  C9  IND d   1      -1.513   2.274  -0.308  0.00  0.00    -0.096 A 
ATOM     10  HN1 IND d   1       1.294   1.260  -1.021  0.00  0.00     0.298 HD
ENDROOT
TORSDOF 0
ENDMDL
