MODEL 1
REMARK minimizedAffinity 6.80912685
REMARK minimizedRMSD -1
REMARK  0 active torsions:
REMARK  status: ('A' for Active; 'I' for Inactive)
ROOT
ATOM      1  N1  IND d   1       1.929  -1.710  -2.512  0.00  0.00    -0.196 N 
ATOM      2  C2  IND d   1       2.036  -1.686  -1.150  0.00  0.00     0.054 A 
ATOM      3  C3  IND d   1       2.226  -2.936  -0.670  0.00  0.00    -0.031 A 
ATOM      4  C4  IND d   1       2.495  -5.154  -1.949  0.00  0.00     0.051 A 
ATOM      5  C5  IND d   1       2.436  -5.687  -3.206  0.00  0.00    -0.031 A 
ATOM      6  C6  IND d   1       2.203  -4.906  -4.319  0.00  0.00     0.015 A 
ATOM      7  C7  IND d   1       2.030  -3.554  -4.217  0.00  0.00    -0.016 A 
ATOM      8  C8  IND d   1       2.083  -3.011  -2.941  0.00  0.00    -0.047 A 
ATOM      9  C9  IND d   1       2.277  -3.805  -1.803  0.00  0.00    -0.096 A 
ATOM     10  HN1 IND d   1       1.789  -1.028  -3.017  0.00  0.00     0.298 HD
ENDROOT
TORSDOF 0
ENDMDL
