MODEL 1
REMARK minimizedAffinity 9.99892235
REMARK minimizedRMSD -1
REMARK  0 active torsions:
REMARK  status: ('A' for Active; 'I' for Inactive)
ROOT
ATOM      1  N1  IND d   1      -0.738  -1.915  -1.628  0.00  0.00    -0.196 N 
ATOM      2  C2  IND d   1      -1.026  -0.681  -2.140  0.00  0.00     0.054 A 
ATOM      3  C3  IND d   1       0.101   0.057  -2.251  0.00  0.00    -0.031 A 
ATOM      4  C4  IND d   1       2.540  -0.597  -1.746  0.00  0.00     0.051 A 
ATOM      5  C5  IND d   1       3.299  -1.607  -1.224  0.00  0.00    -0.031 A 
ATOM      6  C6  IND d   1       2.739  -2.796  -0.805  0.00  0.00     0.015 A 
ATOM      7  C7  IND d   1       1.396  -3.026  -0.902  0.00  0.00    -0.016 A 
ATOM      8  C8  IND d   1       0.622  -2.000  -1.425  0.00  0.00    -0.047 A 
ATOM      9  C9  IND d   1       1.178  -0.774  -1.813  0.00  0.00    -0.096 A 
ATOM     10  HN1 IND d   1      -1.310  -2.535  -1.461  0.00  0.00     0.298 HD
ENDROOT
TORSDOF 0
ENDMDL
