MODEL 1
REMARK minimizedAffinity 3.50593209
REMARK minimizedRMSD -1
REMARK  0 active torsions:
REMARK  status: ('A' for Active; 'I' for Inactive)
ROOT
ATOM      1  N1  IND d   1       0.347   1.072  -1.567  0.00  0.00    -0.196 N 
ATOM      2  C2  IND d   1      -0.515   1.355  -2.590  0.00  0.00     0.054 A 
ATOM      3  C3  IND d   1      -1.555   2.090  -2.139  0.00  0.00    -0.031 A 
ATOM      4  C4  IND d   1      -1.995   3.028   0.218  0.00  0.00     0.051 A 
ATOM      5  C5  IND d   1      -1.508   3.004   1.495  0.00  0.00    -0.031 A 
ATOM      6  C6  IND d   1      -0.353   2.324   1.822  0.00  0.00     0.015 A 
ATOM      7  C7  IND d   1       0.367   1.648   0.879  0.00  0.00    -0.016 A 
ATOM      8  C8  IND d   1      -0.128   1.664  -0.418  0.00  0.00    -0.047 A 
ATOM      9  C9  IND d   1      -1.323   2.317  -0.748  0.00  0.00    -0.096 A 
ATOM     10  HN1 IND d   1       1.065   0.603  -1.631  0.00  0.00     0.298 HD
ENDROOT
TORSDOF 0
ENDMDL
