MODEL 1
REMARK minimizedAffinity -1.52139437
REMARK minimizedRMSD -1
REMARK  0 active torsions:
REMARK  status: ('A' for Active; 'I' for Inactive)
ROOT
ATOM      1  N1  IND d   1       0.386   1.154  -1.445  0.00  0.00    -0.196 N 
ATOM      2  C2  IND d   1       0.373   0.060  -0.625  0.00  0.00     0.054 A 
ATOM      3  C3  IND d   1       0.420   0.442   0.671  0.00  0.00    -0.031 A 
ATOM      4  C4  IND d   1       0.422   2.812   1.677  0.00  0.00     0.051 A 
ATOM      5  C5  IND d   1       0.478   4.131   1.326  0.00  0.00    -0.031 A 
ATOM      6  C6  IND d   1       0.503   4.534   0.006  0.00  0.00     0.015 A 
ATOM      7  C7  IND d   1       0.462   3.628  -1.016  0.00  0.00    -0.016 A 
ATOM      8  C8  IND d   1       0.413   2.287  -0.662  0.00  0.00    -0.047 A 
ATOM      9  C9  IND d   1       0.430   1.871   0.675  0.00  0.00    -0.096 A 
ATOM     10  HN1 IND d   1       0.378   1.136  -2.304  0.00  0.00     0.298 HD
ENDROOT
TORSDOF 0
ENDMDL
