MODEL 1
REMARK minimizedAffinity -3.15639234
REMARK minimizedRMSD -1
REMARK  1 active torsions:
REMARK  status: ('A' for Active; 'I' for Inactive)
REMARK    1  A    between atoms: C1_2  and  C2_3 
ROOT
ATOM      1  C2  UNL d   1       2.370  -1.602   2.711  0.00  0.00    -0.077 A 
ATOM      2  C3  UNL d   1       1.594  -0.570   2.165  0.00  0.00     0.002 A 
ATOM      3  C4  UNL d   1       0.751  -0.818   1.080  0.00  0.00     0.002 A 
ATOM      4  C5  UNL d   1       0.672  -2.098   0.535  0.00  0.00    -0.004 A 
ATOM      5  C6  UNL d   1       1.441  -3.131   1.070  0.00  0.00     0.002 A 
ATOM      6  C7  UNL d   1       2.285  -2.884   2.153  0.00  0.00     0.002 A 
ENDROOT
BRANCH   1   7
ATOM      7  C1  UNL d   1       3.243  -1.348   3.912  0.00  0.00     0.055 C 
ATOM      8  C   UNL d   1       4.506  -0.592   3.528  0.00  0.00     0.019 C 
ENDBRANCH   1   7
TORSDOF 1
ENDMDL
