MODEL 1
REMARK minimizedAffinity -1.51487935
REMARK minimizedRMSD -1
REMARK  1 active torsions:
REMARK  status: ('A' for Active; 'I' for Inactive)
REMARK    1  A    between atoms: C1_2  and  C2_3 
ROOT
ATOM      1  C2  UNL d   1       1.411  -1.031   1.126  0.00  0.00    -0.077 A 
ATOM      2  C3  UNL d   1       0.504  -0.972   2.193  0.00  0.00     0.002 A 
ATOM      3  C4  UNL d   1       0.844  -1.503   3.439  0.00  0.00     0.002 A 
ATOM      4  C5  UNL d   1       2.092  -2.094   3.629  0.00  0.00    -0.004 A 
ATOM      5  C6  UNL d   1       3.000  -2.159   2.573  0.00  0.00     0.002 A 
ATOM      6  C7  UNL d   1       2.661  -1.629   1.327  0.00  0.00     0.002 A 
ENDROOT
BRANCH   1   7
ATOM      7  C1  UNL d   1       1.065  -0.414  -0.205  0.00  0.00     0.055 C 
ATOM      8  C   UNL d   1       0.202   0.827  -0.032  0.00  0.00     0.019 C 
ENDBRANCH   1   7
TORSDOF 1
ENDMDL
