MODEL 1
REMARK minimizedAffinity -3.71613741
REMARK minimizedRMSD -1
REMARK  1 active torsions:
REMARK  status: ('A' for Active; 'I' for Inactive)
REMARK    1  A    between atoms: C1_2  and  C2_3 
ROOT
ATOM      1  C2  UNL d   1      -1.728   2.051  -3.605  0.00  0.00    -0.077 A 
ATOM      2  C3  UNL d   1      -0.902   2.175  -2.480  0.00  0.00     0.002 A 
ATOM      3  C4  UNL d   1       0.165   3.076  -2.482  0.00  0.00     0.002 A 
ATOM      4  C5  UNL d   1       0.413   3.862  -3.605  0.00  0.00    -0.004 A 
ATOM      5  C6  UNL d   1      -0.402   3.745  -4.730  0.00  0.00     0.002 A 
ATOM      6  C7  UNL d   1      -1.468   2.844  -4.730  0.00  0.00     0.002 A 
ENDROOT
BRANCH   1   7
ATOM      7  C1  UNL d   1      -2.909   1.116  -3.587  0.00  0.00     0.055 C 
ATOM      8  C   UNL d   1      -3.777   1.345  -2.358  0.00  0.00     0.019 C 
ENDBRANCH   1   7
TORSDOF 1
ENDMDL
