MODEL 1
REMARK minimizedAffinity 3.25480604
REMARK minimizedRMSD -1
REMARK  1 active torsions:
REMARK  status: ('A' for Active; 'I' for Inactive)
REMARK    1  A    between atoms: C1_2  and  C2_3 
ROOT
ATOM      1  C2  UNL d   1      -1.747  -5.602  -4.892  0.00  0.00    -0.077 A 
ATOM      2  C3  UNL d   1      -1.150  -4.908  -3.830  0.00  0.00     0.002 A 
ATOM      3  C4  UNL d   1       0.216  -4.618  -3.854  0.00  0.00     0.002 A 
ATOM      4  C5  UNL d   1       0.995  -5.015  -4.940  0.00  0.00    -0.004 A 
ATOM      5  C6  UNL d   1       0.411  -5.707  -6.000  0.00  0.00     0.002 A 
ATOM      6  C7  UNL d   1      -0.954  -5.999  -5.976  0.00  0.00     0.002 A 
ENDROOT
BRANCH   1   7
ATOM      7  C1  UNL d   1      -3.229  -5.872  -4.890  0.00  0.00     0.055 C 
ATOM      8  C   UNL d   1      -3.975  -4.860  -4.033  0.00  0.00     0.019 C 
ENDBRANCH   1   7
TORSDOF 1
ENDMDL
