MODEL 1
REMARK minimizedAffinity -1.29513025
REMARK minimizedRMSD -1
REMARK  1 active torsions:
REMARK  status: ('A' for Active; 'I' for Inactive)
REMARK    1  A    between atoms: C1_2  and  C2_3 
ROOT
ATOM      1  C2  UNL d   1      -1.584  -5.126  -3.731  0.00  0.00    -0.077 A 
ATOM      2  C3  UNL d   1      -0.272  -4.634  -3.763  0.00  0.00     0.002 A 
ATOM      3  C4  UNL d   1       0.526  -4.824  -4.893  0.00  0.00     0.002 A 
ATOM      4  C5  UNL d   1       0.020  -5.502  -6.000  0.00  0.00    -0.004 A 
ATOM      5  C6  UNL d   1      -1.283  -5.998  -5.977  0.00  0.00     0.002 A 
ATOM      6  C7  UNL d   1      -2.082  -5.810  -4.848  0.00  0.00     0.002 A 
ENDROOT
BRANCH   1   7
ATOM      7  C1  UNL d   1      -2.463  -4.880  -2.533  0.00  0.00     0.055 C 
ATOM      8  C   UNL d   1      -1.711  -4.136  -1.438  0.00  0.00     0.019 C 
ENDBRANCH   1   7
TORSDOF 1
ENDMDL
