MODEL 1
REMARK minimizedAffinity 1.72243989
REMARK minimizedRMSD -1
REMARK  1 active torsions:
REMARK  status: ('A' for Active; 'I' for Inactive)
REMARK    1  A    between atoms: C1_2  and  C2_3 
ROOT
ATOM      1  C2  UNL d   1      -0.899  -5.443  -4.926  0.00  0.00    -0.077 A 
ATOM      2  C3  UNL d   1      -0.135  -5.965  -5.979  0.00  0.00     0.002 A 
ATOM      3  C4  UNL d   1       1.255  -5.832  -5.977  0.00  0.00     0.002 A 
ATOM      4  C5  UNL d   1       1.892  -5.182  -4.922  0.00  0.00    -0.004 A 
ATOM      5  C6  UNL d   1       1.141  -4.658  -3.871  0.00  0.00     0.002 A 
ATOM      6  C7  UNL d   1      -0.249  -4.789  -3.872  0.00  0.00     0.002 A 
ENDROOT
BRANCH   1   7
ATOM      7  C1  UNL d   1      -2.394  -5.628  -4.903  0.00  0.00     0.055 C 
ATOM      8  C   UNL d   1      -2.974  -5.279  -3.540  0.00  0.00     0.019 C 
ENDBRANCH   1   7
TORSDOF 1
ENDMDL
