MODEL 1
REMARK minimizedAffinity 2.06338239
REMARK minimizedRMSD -1
REMARK  1 active torsions:
REMARK  status: ('A' for Active; 'I' for Inactive)
REMARK    1  A    between atoms: C1_2  and  C2_3 
ROOT
ATOM      1  C2  UNL d   1      -4.355   1.115  -2.484  0.00  0.00    -0.077 A 
ATOM      2  C3  UNL d   1      -3.657   1.234  -1.275  0.00  0.00     0.002 A 
ATOM      3  C4  UNL d   1      -4.129   0.604  -0.122  0.00  0.00     0.002 A 
ATOM      4  C5  UNL d   1      -5.297  -0.154  -0.168  0.00  0.00    -0.004 A 
ATOM      5  C6  UNL d   1      -6.000  -0.277  -1.366  0.00  0.00     0.002 A 
ATOM      6  C7  UNL d   1      -5.531   0.354  -2.519  0.00  0.00     0.002 A 
ENDROOT
BRANCH   1   7
ATOM      7  C1  UNL d   1      -3.822   1.753  -3.740  0.00  0.00     0.055 C 
ATOM      8  C   UNL d   1      -2.330   2.032  -3.629  0.00  0.00     0.019 C 
ENDBRANCH   1   7
TORSDOF 1
ENDMDL
