MODEL 1
REMARK minimizedAffinity 2.95544672
REMARK minimizedRMSD -1
REMARK  1 active torsions:
REMARK  status: ('A' for Active; 'I' for Inactive)
REMARK    1  A    between atoms: C1_2  and  C2_3 
ROOT
ATOM      1  C2  UNL d   1       2.515  -0.711   1.382  0.00  0.00    -0.077 A 
ATOM      2  C3  UNL d   1       2.530  -1.189   2.700  0.00  0.00     0.002 A 
ATOM      3  C4  UNL d   1       3.725  -1.240   3.420  0.00  0.00     0.002 A 
ATOM      4  C5  UNL d   1       4.913  -0.812   2.832  0.00  0.00    -0.004 A 
ATOM      5  C6  UNL d   1       4.910  -0.336   1.521  0.00  0.00     0.002 A 
ATOM      6  C7  UNL d   1       3.716  -0.285   0.800  0.00  0.00     0.002 A 
ENDROOT
BRANCH   1   7
ATOM      7  C1  UNL d   1       1.219  -0.608   0.621  0.00  0.00     0.055 C 
ATOM      8  C   UNL d   1       0.639  -1.984   0.327  0.00  0.00     0.019 C 
ENDBRANCH   1   7
TORSDOF 1
ENDMDL
