MODEL 1
REMARK minimizedAffinity 2.0709734
REMARK minimizedRMSD -1
REMARK  1 active torsions:
REMARK  status: ('A' for Active; 'I' for Inactive)
REMARK    1  A    between atoms: C1_2  and  C2_3 
ROOT
ATOM      1  C2  UNL d   1       0.074  -2.035  -0.061  0.00  0.00    -0.077 A 
ATOM      2  C3  UNL d   1       0.335  -1.351   1.135  0.00  0.00     0.002 A 
ATOM      3  C4  UNL d   1       0.552   0.028   1.127  0.00  0.00     0.002 A 
ATOM      4  C5  UNL d   1       0.505   0.736  -0.073  0.00  0.00    -0.004 A 
ATOM      5  C6  UNL d   1       0.248   0.064  -1.267  0.00  0.00     0.002 A 
ATOM      6  C7  UNL d   1       0.032  -1.315  -1.261  0.00  0.00     0.002 A 
ENDROOT
BRANCH   1   7
ATOM      7  C1  UNL d   1      -0.208  -3.515  -0.048  0.00  0.00     0.055 C 
ATOM      8  C   UNL d   1      -1.531  -3.820   0.640  0.00  0.00     0.019 C 
ENDBRANCH   1   7
TORSDOF 1
ENDMDL
