MODEL 1
REMARK minimizedAffinity -0.785618842
REMARK minimizedRMSD -1
REMARK  1 active torsions:
REMARK  status: ('A' for Active; 'I' for Inactive)
REMARK    1  A    between atoms: C1_2  and  C2_3 
ROOT
ATOM      1  C2  UNL d   1       1.166  -0.639   0.380  0.00  0.00    -0.077 A 
ATOM      2  C3  UNL d   1       2.521  -0.373   0.622  0.00  0.00     0.002 A 
ATOM      3  C4  UNL d   1       3.370  -1.385   1.073  0.00  0.00     0.002 A 
ATOM      4  C5  UNL d   1       2.875  -2.670   1.282  0.00  0.00    -0.004 A 
ATOM      5  C6  UNL d   1       1.529  -2.945   1.046  0.00  0.00     0.002 A 
ATOM      6  C7  UNL d   1       0.678  -1.935   0.596  0.00  0.00     0.002 A 
ENDROOT
BRANCH   1   7
ATOM      7  C1  UNL d   1       0.259   0.438  -0.154  0.00  0.00     0.055 C 
ATOM      8  C   UNL d   1       0.328   0.519  -1.672  0.00  0.00     0.019 C 
ENDBRANCH   1   7
TORSDOF 1
ENDMDL
