MODEL 1
REMARK minimizedAffinity 3.17951012
REMARK minimizedRMSD -1
REMARK  1 active torsions:
REMARK  status: ('A' for Active; 'I' for Inactive)
REMARK    1  A    between atoms: C1_2  and  C2_3 
ROOT
ATOM      1  C2  UNL d   1       2.751  -0.907   0.987  0.00  0.00    -0.077 A 
ATOM      2  C3  UNL d   1       2.118  -2.127   1.262  0.00  0.00     0.002 A 
ATOM      3  C4  UNL d   1       0.813  -2.360   0.825  0.00  0.00     0.002 A 
ATOM      4  C5  UNL d   1       0.131  -1.378   0.109  0.00  0.00    -0.004 A 
ATOM      5  C6  UNL d   1       0.751  -0.160  -0.167  0.00  0.00     0.002 A 
ATOM      6  C7  UNL d   1       2.056   0.074   0.269  0.00  0.00     0.002 A 
ENDROOT
BRANCH   1   7
ATOM      7  C1  UNL d   1       4.177  -0.673   1.414  0.00  0.00     0.055 C 
ATOM      8  C   UNL d   1       4.381  -1.026   2.880  0.00  0.00     0.019 C 
ENDBRANCH   1   7
TORSDOF 1
ENDMDL
