MODEL 1
REMARK minimizedAffinity 6.45897055
REMARK minimizedRMSD -1
REMARK  1 active torsions:
REMARK  status: ('A' for Active; 'I' for Inactive)
REMARK    1  A    between atoms: C1_2  and  C2_3 
ROOT
ATOM      1  C2  UNL d   1       3.874  -3.503   5.129  0.00  0.00    -0.077 A 
ATOM      2  C3  UNL d   1       3.757  -3.602   3.735  0.00  0.00     0.002 A 
ATOM      3  C4  UNL d   1       3.949  -2.478   2.929  0.00  0.00     0.002 A 
ATOM      4  C5  UNL d   1       4.262  -1.249   3.506  0.00  0.00    -0.004 A 
ATOM      5  C6  UNL d   1       4.379  -1.140   4.891  0.00  0.00     0.002 A 
ATOM      6  C7  UNL d   1       4.186  -2.262   5.699  0.00  0.00     0.002 A 
ENDROOT
BRANCH   1   7
ATOM      7  C1  UNL d   1       3.716  -4.724   5.997  0.00  0.00     0.055 C 
ATOM      8  C   UNL d   1       4.040  -5.996   5.227  0.00  0.00     0.019 C 
ENDBRANCH   1   7
TORSDOF 1
ENDMDL
