MODEL 1
REMARK minimizedAffinity 3.83895588
REMARK minimizedRMSD -1
REMARK  1 active torsions:
REMARK  status: ('A' for Active; 'I' for Inactive)
REMARK    1  A    between atoms: C1_2  and  C2_3 
ROOT
ATOM      1  C2  UNL d   1      -2.305  -1.050   0.382  0.00  0.00    -0.077 A 
ATOM      2  C3  UNL d   1      -1.163  -0.257   0.559  0.00  0.00     0.002 A 
ATOM      3  C4  UNL d   1       0.110  -0.830   0.504  0.00  0.00     0.002 A 
ATOM      4  C5  UNL d   1       0.251  -2.195   0.269  0.00  0.00    -0.004 A 
ATOM      5  C6  UNL d   1      -0.879  -2.993   0.094  0.00  0.00     0.002 A 
ATOM      6  C7  UNL d   1      -2.152  -2.422   0.150  0.00  0.00     0.002 A 
ENDROOT
BRANCH   1   7
ATOM      7  C1  UNL d   1      -3.676  -0.426   0.392  0.00  0.00     0.055 C 
ATOM      8  C   UNL d   1      -4.474  -0.823  -0.841  0.00  0.00     0.019 C 
ENDBRANCH   1   7
TORSDOF 1
ENDMDL
