MODEL 1
REMARK minimizedAffinity 7.18577766
REMARK minimizedRMSD -1
REMARK  1 active torsions:
REMARK  status: ('A' for Active; 'I' for Inactive)
REMARK    1  A    between atoms: C1_2  and  C2_3 
ROOT
ATOM      1  C2  UNL d   1      -2.604   2.667  -3.891  0.00  0.00    -0.077 A 
ATOM      2  C3  UNL d   1      -1.638   1.939  -3.183  0.00  0.00     0.002 A 
ATOM      3  C4  UNL d   1      -0.324   2.404  -3.099  0.00  0.00     0.002 A 
ATOM      4  C5  UNL d   1       0.034   3.601  -3.716  0.00  0.00    -0.004 A 
ATOM      5  C6  UNL d   1      -0.919   4.331  -4.424  0.00  0.00     0.002 A 
ATOM      6  C7  UNL d   1      -2.232   3.867  -4.511  0.00  0.00     0.002 A 
ENDROOT
BRANCH   1   7
ATOM      7  C1  UNL d   1      -4.033   2.192  -3.942  0.00  0.00     0.055 C 
ATOM      8  C   UNL d   1      -4.168   0.784  -3.381  0.00  0.00     0.019 C 
ENDBRANCH   1   7
TORSDOF 1
ENDMDL
