MODEL 1
REMARK minimizedAffinity 3.83601022
REMARK minimizedRMSD -1
REMARK  1 active torsions:
REMARK  status: ('A' for Active; 'I' for Inactive)
REMARK    1  A    between atoms: C1_2  and  C2_3 
ROOT
ATOM      1  C2  UNL d   1      -3.804   1.013  -2.856  0.00  0.00    -0.077 A 
ATOM      2  C3  UNL d   1      -5.171   0.790  -2.639  0.00  0.00     0.002 A 
ATOM      3  C4  UNL d   1      -5.593  -0.103  -1.652  0.00  0.00     0.002 A 
ATOM      4  C5  UNL d   1      -4.655  -0.777  -0.873  0.00  0.00    -0.004 A 
ATOM      5  C6  UNL d   1      -3.293  -0.564  -1.083  0.00  0.00     0.002 A 
ATOM      6  C7  UNL d   1      -2.870   0.328  -2.070  0.00  0.00     0.002 A 
ENDROOT
BRANCH   1   7
ATOM      7  C1  UNL d   1      -3.348   2.013  -3.887  0.00  0.00     0.055 C 
ATOM      8  C   UNL d   1      -1.912   2.450  -3.636  0.00  0.00     0.019 C 
ENDBRANCH   1   7
TORSDOF 1
ENDMDL
