MODEL 1
REMARK minimizedAffinity -5.3693924
REMARK minimizedRMSD -1
REMARK  0 active torsions:
REMARK  status: ('A' for Active; 'I' for Inactive)
ROOT
ATOM      1  C4' PXY d   1       0.133   1.984   0.034  0.00  0.00     0.077 C 
ATOM      2  C1' PXY d   1      -0.805  -3.669  -0.731  0.00  0.00     0.077 C 
ATOM      3  C1  PXY d   1      -0.568  -2.186  -0.521  0.00  0.00    -0.082 A 
ATOM      4  C2  PXY d   1      -0.044  -1.463  -1.497  0.00  0.00     0.003 A 
ATOM      5  C3  PXY d   1       0.206  -0.127  -1.313  0.00  0.00     0.003 A 
ATOM      6  C4  PXY d   1      -0.132   0.485  -0.136  0.00  0.00    -0.082 A 
ATOM      7  C5  PXY d   1      -0.677  -0.244   0.860  0.00  0.00     0.003 A 
ATOM      8  C6  PXY d   1      -0.885  -1.606   0.668  0.00  0.00     0.003 A 
ENDROOT
TORSDOF 0
ENDMDL
