MODEL 1
REMARK minimizedAffinity -3.79625225
REMARK minimizedRMSD -1
REMARK  0 active torsions:
REMARK  status: ('A' for Active; 'I' for Inactive)
ROOT
ATOM      1  C4' PXY d   1      -1.331  -3.649  -1.515  0.00  0.00     0.077 C 
ATOM      2  C1' PXY d   1       0.326   1.580   0.312  0.00  0.00     0.077 C 
ATOM      3  C1  PXY d   1      -0.108   0.204  -0.155  0.00  0.00    -0.082 A 
ATOM      4  C2  PXY d   1       0.061  -0.141  -1.421  0.00  0.00     0.003 A 
ATOM      5  C3  PXY d   1      -0.354  -1.369  -1.868  0.00  0.00     0.003 A 
ATOM      6  C4  PXY d   1      -0.900  -2.274  -0.997  0.00  0.00    -0.082 A 
ATOM      7  C5  PXY d   1      -1.066  -1.934   0.299  0.00  0.00     0.003 A 
ATOM      8  C6  PXY d   1      -0.676  -0.667   0.723  0.00  0.00     0.003 A 
ENDROOT
TORSDOF 0
ENDMDL
