MODEL 1
REMARK minimizedAffinity -3.08564663
REMARK minimizedRMSD -1
REMARK  0 active torsions:
REMARK  status: ('A' for Active; 'I' for Inactive)
ROOT
ATOM      1  C4' PXY d   1      -1.227  -2.289   1.091  0.00  0.00     0.077 C 
ATOM      2  C1' PXY d   1       0.910   3.029   0.343  0.00  0.00     0.077 C 
ATOM      3  C1  PXY d   1       0.354   1.635   0.552  0.00  0.00    -0.082 A 
ATOM      4  C2  PXY d   1       0.207   0.827  -0.486  0.00  0.00     0.003 A 
ATOM      5  C3  PXY d   1      -0.325  -0.426  -0.320  0.00  0.00     0.003 A 
ATOM      6  C4  PXY d   1      -0.660  -0.876   0.929  0.00  0.00    -0.082 A 
ATOM      7  C5  PXY d   1      -0.503  -0.062   1.994  0.00  0.00     0.003 A 
ATOM      8  C6  PXY d   1      -0.000   1.221   1.799  0.00  0.00     0.003 A 
ENDROOT
TORSDOF 0
ENDMDL
