MODEL 1
REMARK minimizedAffinity -1.62693512
REMARK minimizedRMSD -1
REMARK  0 active torsions:
REMARK  status: ('A' for Active; 'I' for Inactive)
ROOT
ATOM      1  C4' PXY d   1       0.384  -2.115  -2.796  0.00  0.00     0.077 C 
ATOM      2  C1' PXY d   1      -1.127   0.186   2.287  0.00  0.00     0.077 C 
ATOM      3  C1  PXY d   1      -0.733  -0.406   0.948  0.00  0.00    -0.082 A 
ATOM      4  C2  PXY d   1      -0.872  -1.705   0.741  0.00  0.00     0.003 A 
ATOM      5  C3  PXY d   1      -0.490  -2.262  -0.453  0.00  0.00     0.003 A 
ATOM      6  C4  PXY d   1      -0.010  -1.472  -1.463  0.00  0.00    -0.082 A 
ATOM      7  C5  PXY d   1       0.125  -0.144  -1.263  0.00  0.00     0.003 A 
ATOM      8  C6  PXY d   1      -0.230   0.395  -0.030  0.00  0.00     0.003 A 
ENDROOT
TORSDOF 0
ENDMDL
