MODEL 1
REMARK minimizedAffinity -4.93231726
REMARK minimizedRMSD -1
REMARK  0 active torsions:
REMARK  status: ('A' for Active; 'I' for Inactive)
ROOT
ATOM      1  C4' PXY d   1      -0.543  -2.850   0.712  0.00  0.00     0.077 C 
ATOM      2  C1' PXY d   1       0.512   2.773  -0.116  0.00  0.00     0.077 C 
ATOM      3  C1  PXY d   1       0.234   1.300   0.114  0.00  0.00    -0.082 A 
ATOM      4  C2  PXY d   1       0.684   0.407  -0.752  0.00  0.00     0.003 A 
ATOM      5  C3  PXY d   1       0.414  -0.926  -0.576  0.00  0.00     0.003 A 
ATOM      6  C4  PXY d   1      -0.278  -1.354   0.525  0.00  0.00    -0.082 A 
ATOM      7  C5  PXY d   1      -0.731  -0.449   1.419  0.00  0.00     0.003 A 
ATOM      8  C6  PXY d   1      -0.482   0.903   1.201  0.00  0.00     0.003 A 
ENDROOT
TORSDOF 0
ENDMDL
