MODEL 1
REMARK minimizedAffinity -3.29368758
REMARK minimizedRMSD -1
REMARK  0 active torsions:
REMARK  status: ('A' for Active; 'I' for Inactive)
ROOT
ATOM      1  C4' PXY d   1      -2.015  -1.870   0.744  0.00  0.00     0.077 C 
ATOM      2  C1' PXY d   1       1.519   2.692   1.076  0.00  0.00     0.077 C 
ATOM      3  C1  PXY d   1       0.599   1.489   0.999  0.00  0.00    -0.082 A 
ATOM      4  C2  PXY d   1      -0.083   1.258  -0.111  0.00  0.00     0.003 A 
ATOM      5  C3  PXY d   1      -0.943   0.194  -0.188  0.00  0.00     0.003 A 
ATOM      6  C4  PXY d   1      -1.067  -0.674   0.864  0.00  0.00    -0.082 A 
ATOM      7  C5  PXY d   1      -0.366  -0.451   1.997  0.00  0.00     0.003 A 
ATOM      8  C6  PXY d   1       0.471   0.659   2.068  0.00  0.00     0.003 A 
ENDROOT
TORSDOF 0
ENDMDL
