MODEL 1
REMARK minimizedAffinity -3.36027956
REMARK minimizedRMSD -1
REMARK  0 active torsions:
REMARK  status: ('A' for Active; 'I' for Inactive)
ROOT
ATOM      1  C4' PXY d   1      -0.406  -3.375  -2.646  0.00  0.00     0.077 C 
ATOM      2  C1' PXY d   1      -0.773   0.461   1.663  0.00  0.00     0.077 C 
ATOM      3  C1  PXY d   1      -0.677  -0.536   0.525  0.00  0.00    -0.082 A 
ATOM      4  C2  PXY d   1      -1.034  -1.794   0.725  0.00  0.00     0.003 A 
ATOM      5  C3  PXY d   1      -0.924  -2.715  -0.285  0.00  0.00     0.003 A 
ATOM      6  C4  PXY d   1      -0.495  -2.333  -1.527  0.00  0.00    -0.082 A 
ATOM      7  C5  PXY d   1      -0.139  -1.049  -1.743  0.00  0.00     0.003 A 
ATOM      8  C6  PXY d   1      -0.219  -0.138  -0.693  0.00  0.00     0.003 A 
ENDROOT
TORSDOF 0
ENDMDL
