MODEL 1
REMARK minimizedAffinity -1.68674803
REMARK minimizedRMSD -1
REMARK  0 active torsions:
REMARK  status: ('A' for Active; 'I' for Inactive)
ROOT
ATOM      1  C4' PXY d   1       0.691   2.235   0.694  0.00  0.00     0.077 C 
ATOM      2  C1' PXY d   1      -0.721  -3.355   0.271  0.00  0.00     0.077 C 
ATOM      3  C1  PXY d   1      -0.361  -1.887   0.389  0.00  0.00    -0.082 A 
ATOM      4  C2  PXY d   1       0.414  -1.328  -0.526  0.00  0.00     0.003 A 
ATOM      5  C3  PXY d   1       0.775  -0.009  -0.417  0.00  0.00     0.003 A 
ATOM      6  C4  PXY d   1       0.295   0.758   0.610  0.00  0.00    -0.082 A 
ATOM      7  C5  PXY d   1      -0.505   0.197   1.542  0.00  0.00     0.003 A 
ATOM      8  C6  PXY d   1      -0.826  -1.153   1.436  0.00  0.00     0.003 A 
ENDROOT
TORSDOF 0
ENDMDL
