MODEL 1
REMARK minimizedAffinity -3.86074567
REMARK minimizedRMSD -1
REMARK  0 active torsions:
REMARK  status: ('A' for Active; 'I' for Inactive)
ROOT
ATOM      1  C4' PXY d   1       0.224  -2.486  -2.824  0.00  0.00     0.077 C 
ATOM      2  C1' PXY d   1      -1.130  -0.270   2.340  0.00  0.00     0.077 C 
ATOM      3  C1  PXY d   1      -0.774  -0.863   0.991  0.00  0.00    -0.082 A 
ATOM      4  C2  PXY d   1      -0.190  -0.106   0.077  0.00  0.00     0.003 A 
ATOM      5  C3  PXY d   1       0.109  -0.617  -1.159  0.00  0.00     0.003 A 
ATOM      6  C4  PXY d   1      -0.144  -1.932  -1.445  0.00  0.00    -0.082 A 
ATOM      7  C5  PXY d   1      -0.731  -2.714  -0.514  0.00  0.00     0.003 A 
ATOM      8  C6  PXY d   1      -1.064  -2.165   0.721  0.00  0.00     0.003 A 
ENDROOT
TORSDOF 0
ENDMDL
