MODEL 1
REMARK minimizedAffinity -2.7502563
REMARK minimizedRMSD -1
REMARK  0 active torsions:
REMARK  status: ('A' for Active; 'I' for Inactive)
ROOT
ATOM      1  C4' PXY d   1       0.009  -2.697  -2.889  0.00  0.00     0.077 C 
ATOM      2  C1' PXY d   1      -0.925  -0.123   2.202  0.00  0.00     0.077 C 
ATOM      3  C1  PXY d   1      -0.680  -0.786   0.861  0.00  0.00    -0.082 A 
ATOM      4  C2  PXY d   1      -1.059  -2.040   0.672  0.00  0.00     0.003 A 
ATOM      5  C3  PXY d   1      -0.816  -2.665  -0.524  0.00  0.00     0.003 A 
ATOM      6  C4  PXY d   1      -0.227  -1.984  -1.555  0.00  0.00    -0.082 A 
ATOM      7  C5  PXY d   1       0.153  -0.701  -1.374  0.00  0.00     0.003 A 
ATOM      8  C6  PXY d   1      -0.065  -0.097  -0.139  0.00  0.00     0.003 A 
ENDROOT
TORSDOF 0
ENDMDL
