MODEL 1
REMARK minimizedAffinity 0.741450846
REMARK minimizedRMSD -1
REMARK  0 active torsions:
REMARK  status: ('A' for Active; 'I' for Inactive)
ROOT
ATOM      1  C4' PXY d   1       0.003  -1.328  -1.268  0.00  0.00     0.077 C 
ATOM      2  C1' PXY d   1       0.742   3.800   1.298  0.00  0.00     0.077 C 
ATOM      3  C1  PXY d   1       0.539   2.452   0.633  0.00  0.00    -0.082 A 
ATOM      4  C2  PXY d   1       1.535   1.896  -0.037  0.00  0.00     0.003 A 
ATOM      5  C3  PXY d   1       1.358   0.693  -0.671  0.00  0.00     0.003 A 
ATOM      6  C4  PXY d   1       0.166   0.027  -0.573  0.00  0.00    -0.082 A 
ATOM      7  C5  PXY d   1      -0.851   0.582   0.118  0.00  0.00     0.003 A 
ATOM      8  C6  PXY d   1      -0.665   1.824   0.720  0.00  0.00     0.003 A 
ENDROOT
TORSDOF 0
ENDMDL
