MODEL 1
REMARK minimizedAffinity -0.753959239
REMARK minimizedRMSD -1
REMARK  0 active torsions:
REMARK  status: ('A' for Active; 'I' for Inactive)
ROOT
ATOM      1  C4' PXY d   1      -0.835  -3.477  -2.240  0.00  0.00     0.077 C 
ATOM      2  C1' PXY d   1       0.612   1.151   0.907  0.00  0.00     0.077 C 
ATOM      3  C1  PXY d   1       0.232  -0.070   0.093  0.00  0.00    -0.082 A 
ATOM      4  C2  PXY d   1       0.554  -0.127  -1.189  0.00  0.00     0.003 A 
ATOM      5  C3  PXY d   1       0.190  -1.209  -1.948  0.00  0.00     0.003 A 
ATOM      6  C4  PXY d   1      -0.463  -2.268  -1.376  0.00  0.00    -0.082 A 
ATOM      7  C5  PXY d   1      -0.786  -2.222  -0.067  0.00  0.00     0.003 A 
ATOM      8  C6  PXY d   1      -0.444  -1.096   0.677  0.00  0.00     0.003 A 
ENDROOT
TORSDOF 0
ENDMDL
