MODEL 1
REMARK minimizedAffinity -2.07210207
REMARK minimizedRMSD -1
REMARK  0 active torsions:
REMARK  status: ('A' for Active; 'I' for Inactive)
ROOT
ATOM      1  C4' PXY d   1      -0.663  -3.471  -0.729  0.00  0.00     0.077 C 
ATOM      2  C1' PXY d   1      -0.024   2.171   0.359  0.00  0.00     0.077 C 
ATOM      3  C1  PXY d   1      -0.191   0.689   0.086  0.00  0.00    -0.082 A 
ATOM      4  C2  PXY d   1       0.151   0.198  -1.094  0.00  0.00     0.003 A 
ATOM      5  C3  PXY d   1      -0.023  -1.134  -1.368  0.00  0.00     0.003 A 
ATOM      6  C4  PXY d   1      -0.503  -1.982  -0.406  0.00  0.00    -0.082 A 
ATOM      7  C5  PXY d   1      -0.844  -1.491   0.804  0.00  0.00     0.003 A 
ATOM      8  C6  PXY d   1      -0.698  -0.129   1.048  0.00  0.00     0.003 A 
ENDROOT
TORSDOF 0
ENDMDL
