MODEL 1
REMARK minimizedAffinity -3.99238014
REMARK minimizedRMSD -1
REMARK  0 active torsions:
REMARK  status: ('A' for Active; 'I' for Inactive)
ROOT
ATOM      1  C4' PXY d   1      -0.861  -2.660   0.008  0.00  0.00     0.077 C 
ATOM      2  C1' PXY d   1       0.384   2.947   0.656  0.00  0.00     0.077 C 
ATOM      3  C1  PXY d   1       0.055   1.476   0.499  0.00  0.00    -0.082 A 
ATOM      4  C2  PXY d   1       0.554   0.799  -0.524  0.00  0.00     0.003 A 
ATOM      5  C3  PXY d   1       0.241  -0.524  -0.698  0.00  0.00     0.003 A 
ATOM      6  C4  PXY d   1      -0.548  -1.175   0.212  0.00  0.00    -0.082 A 
ATOM      7  C5  PXY d   1      -1.052  -0.495   1.263  0.00  0.00     0.003 A 
ATOM      8  C6  PXY d   1      -0.756   0.858   1.400  0.00  0.00     0.003 A 
ENDROOT
TORSDOF 0
ENDMDL
