MODEL 1
REMARK minimizedAffinity -3.5867641
REMARK minimizedRMSD -1
REMARK  0 active torsions:
REMARK  status: ('A' for Active; 'I' for Inactive)
ROOT
ATOM      1  C4' PXY d   1      -0.044  -3.058  -3.067  0.00  0.00     0.077 C 
ATOM      2  C1' PXY d   1      -1.005   0.035   1.722  0.00  0.00     0.077 C 
ATOM      3  C1  PXY d   1      -0.752  -0.787   0.473  0.00  0.00    -0.082 A 
ATOM      4  C2  PXY d   1      -0.304  -0.193  -0.621  0.00  0.00     0.003 A 
ATOM      5  C3  PXY d   1      -0.100  -0.916  -1.768  0.00  0.00     0.003 A 
ATOM      6  C4  PXY d   1      -0.305  -2.269  -1.780  0.00  0.00    -0.082 A 
ATOM      7  C5  PXY d   1      -0.751  -2.884  -0.665  0.00  0.00     0.003 A 
ATOM      8  C6  PXY d   1      -0.992  -2.126   0.478  0.00  0.00     0.003 A 
ENDROOT
TORSDOF 0
ENDMDL
