MODEL 1
REMARK minimizedAffinity -2.4173615
REMARK minimizedRMSD -1
REMARK  0 active torsions:
REMARK  status: ('A' for Active; 'I' for Inactive)
ROOT
ATOM      1  C4' PXY d   1      -0.766  -3.540  -1.071  0.00  0.00     0.077 C 
ATOM      2  C1' PXY d   1       0.737   1.972  -0.192  0.00  0.00     0.077 C 
ATOM      3  C1  PXY d   1       0.342   0.529  -0.436  0.00  0.00    -0.082 A 
ATOM      4  C2  PXY d   1      -0.234  -0.164   0.533  0.00  0.00     0.003 A 
ATOM      5  C3  PXY d   1      -0.568  -1.480   0.341  0.00  0.00     0.003 A 
ATOM      6  C4  PXY d   1      -0.359  -2.077  -0.873  0.00  0.00    -0.082 A 
ATOM      7  C5  PXY d   1       0.219  -1.374  -1.870  0.00  0.00     0.003 A 
ATOM      8  C6  PXY d   1       0.588  -0.052  -1.641  0.00  0.00     0.003 A 
ENDROOT
TORSDOF 0
ENDMDL
