MODEL 1
REMARK minimizedAffinity -1.30685818
REMARK minimizedRMSD -1
REMARK  0 active torsions:
REMARK  status: ('A' for Active; 'I' for Inactive)
ROOT
ATOM      1  C4' PXY d   1      -0.101  -2.183  -2.829  0.00  0.00     0.077 C 
ATOM      2  C1' PXY d   1      -1.401  -0.265   2.466  0.00  0.00     0.077 C 
ATOM      3  C1  PXY d   1      -1.061  -0.756   1.073  0.00  0.00    -0.082 A 
ATOM      4  C2  PXY d   1      -1.287  -2.019   0.751  0.00  0.00     0.003 A 
ATOM      5  C3  PXY d   1      -0.956  -2.488  -0.494  0.00  0.00     0.003 A 
ATOM      6  C4  PXY d   1      -0.437  -1.642  -1.437  0.00  0.00    -0.082 A 
ATOM      7  C5  PXY d   1      -0.214  -0.349  -1.120  0.00  0.00     0.003 A 
ATOM      8  C6  PXY d   1      -0.518   0.098   0.163  0.00  0.00     0.003 A 
ENDROOT
TORSDOF 0
ENDMDL
