MODEL 1
REMARK minimizedAffinity -3.06578898
REMARK minimizedRMSD -1
REMARK  0 active torsions:
REMARK  status: ('A' for Active; 'I' for Inactive)
ROOT
ATOM      1  C4' PXY d   1      -0.747  -0.824   2.393  0.00  0.00     0.077 C 
ATOM      2  C1' PXY d   1      -0.028  -2.575  -3.069  0.00  0.00     0.077 C 
ATOM      3  C1  PXY d   1      -0.209  -2.105  -1.639  0.00  0.00    -0.082 A 
ATOM      4  C2  PXY d   1      -0.492  -2.985  -0.692  0.00  0.00     0.003 A 
ATOM      5  C3  PXY d   1      -0.691  -2.574   0.601  0.00  0.00     0.003 A 
ATOM      6  C4  PXY d   1      -0.546  -1.254   0.938  0.00  0.00    -0.082 A 
ATOM      7  C5  PXY d   1      -0.247  -0.352  -0.020  0.00  0.00     0.003 A 
ATOM      8  C6  PXY d   1      -0.090  -0.784  -1.334  0.00  0.00     0.003 A 
ENDROOT
TORSDOF 0
ENDMDL
