MODEL 1
REMARK minimizedAffinity -4.06779909
REMARK minimizedRMSD -1
REMARK  0 active torsions:
REMARK  status: ('A' for Active; 'I' for Inactive)
ROOT
ATOM      1  C4' PXY d   1      -0.665  -2.661  -2.750  0.00  0.00     0.077 C 
ATOM      2  C1' PXY d   1      -0.938  -0.054   2.402  0.00  0.00     0.077 C 
ATOM      3  C1  PXY d   1      -0.867  -0.726   1.045  0.00  0.00    -0.082 A 
ATOM      4  C2  PXY d   1      -1.246  -1.987   0.919  0.00  0.00     0.003 A 
ATOM      5  C3  PXY d   1      -1.158  -2.620  -0.294  0.00  0.00     0.003 A 
ATOM      6  C4  PXY d   1      -0.728  -1.939  -1.402  0.00  0.00    -0.082 A 
ATOM      7  C5  PXY d   1      -0.350  -0.648  -1.284  0.00  0.00     0.003 A 
ATOM      8  C6  PXY d   1      -0.408  -0.036  -0.035  0.00  0.00     0.003 A 
ENDROOT
TORSDOF 0
ENDMDL
