MODEL 1
REMARK minimizedAffinity -4.18386555
REMARK minimizedRMSD -1
REMARK  0 active torsions:
REMARK  status: ('A' for Active; 'I' for Inactive)
ROOT
ATOM      1  C   UNL d   1       2.488  -1.374   0.647  0.00  0.00     0.124 A 
ATOM      2  C1  UNL d   1       1.933  -1.195   1.907  0.00  0.00     0.062 A 
ATOM      3  C2  UNL d   1       0.629  -0.727   2.037  0.00  0.00     0.162 A 
ATOM      4  C3  UNL d   1      -0.131  -0.435   0.904  0.00  0.00    -0.034 A 
ATOM      5  C4  UNL d   1       0.435  -0.617  -0.360  0.00  0.00     0.162 A 
ATOM      6  C5  UNL d   1       1.739  -1.084  -0.485  0.00  0.00     0.062 A 
ATOM      7  F   UNL d   1       2.273  -1.257  -1.702  0.00  0.00    -0.097 F 
ATOM      8  F1  UNL d   1      -0.268  -0.346  -1.470  0.00  0.00    -0.096 F 
ATOM      9  I   UNL d   1      -2.081   0.265   1.094  0.00  0.00    -0.060 I 
ATOM     10  F2  UNL d   1       0.118  -0.563   3.266  0.00  0.00    -0.096 F 
ATOM     11  F3  UNL d   1       2.656  -1.472   3.002  0.00  0.00    -0.097 F 
ATOM     12  F4  UNL d   1       3.744  -1.823   0.525  0.00  0.00    -0.092 F 
ENDROOT
TORSDOF 0
ENDMDL
