MODEL 1
REMARK minimizedAffinity -3.09634352
REMARK minimizedRMSD -1
REMARK  0 active torsions:
REMARK  status: ('A' for Active; 'I' for Inactive)
ROOT
ATOM      1  C   UNL d   1       1.290  -1.580   2.220  0.00  0.00     0.124 A 
ATOM      2  C1  UNL d   1       2.024  -1.588   1.041  0.00  0.00     0.062 A 
ATOM      3  C2  UNL d   1       1.537  -0.939  -0.090  0.00  0.00     0.162 A 
ATOM      4  C3  UNL d   1       0.311  -0.276  -0.049  0.00  0.00    -0.034 A 
ATOM      5  C4  UNL d   1      -0.421  -0.273   1.140  0.00  0.00     0.162 A 
ATOM      6  C5  UNL d   1       0.069  -0.923   2.268  0.00  0.00     0.062 A 
ATOM      7  F   UNL d   1      -0.641  -0.914   3.406  0.00  0.00    -0.097 F 
ATOM      8  F1  UNL d   1      -1.604   0.355   1.215  0.00  0.00    -0.096 F 
ATOM      9  I   UNL d   1      -0.420   0.695  -1.738  0.00  0.00    -0.060 I 
ATOM     10  F2  UNL d   1       2.267  -0.963  -1.216  0.00  0.00    -0.096 F 
ATOM     11  F3  UNL d   1       3.203  -2.223   0.991  0.00  0.00    -0.097 F 
ATOM     12  F4  UNL d   1       1.760  -2.206   3.306  0.00  0.00    -0.092 F 
ENDROOT
TORSDOF 0
ENDMDL
