MODEL 1
REMARK minimizedAffinity -1.72033894
REMARK minimizedRMSD -1
REMARK  0 active torsions:
REMARK  status: ('A' for Active; 'I' for Inactive)
ROOT
ATOM      1  C   UNL d   1       1.461  -0.780   2.396  0.00  0.00     0.124 A 
ATOM      2  C1  UNL d   1       2.180  -0.773   1.209  0.00  0.00     0.062 A 
ATOM      3  C2  UNL d   1       1.536  -0.515   0.002  0.00  0.00     0.162 A 
ATOM      4  C3  UNL d   1       0.165  -0.261  -0.023  0.00  0.00    -0.034 A 
ATOM      5  C4  UNL d   1      -0.552  -0.271   1.175  0.00  0.00     0.162 A 
ATOM      6  C5  UNL d   1       0.096  -0.529   2.378  0.00  0.00     0.062 A 
ATOM      7  F   UNL d   1      -0.600  -0.535   3.524  0.00  0.00    -0.097 F 
ATOM      8  F1  UNL d   1      -1.871  -0.030   1.186  0.00  0.00    -0.096 F 
ATOM      9  I   UNL d   1      -0.801   0.125  -1.826  0.00  0.00    -0.060 I 
ATOM     10  F2  UNL d   1       2.256  -0.515  -1.129  0.00  0.00    -0.096 F 
ATOM     11  F3  UNL d   1       3.499  -1.017   1.224  0.00  0.00    -0.097 F 
ATOM     12  F4  UNL d   1       2.083  -1.030   3.556  0.00  0.00    -0.092 F 
ENDROOT
TORSDOF 0
ENDMDL
