MODEL 1
REMARK minimizedAffinity -5.36313915
REMARK minimizedRMSD -1
REMARK  0 active torsions:
REMARK  status: ('A' for Active; 'I' for Inactive)
ROOT
ATOM      1  C   UNL d   1       2.500  -1.735   1.218  0.00  0.00     0.124 A 
ATOM      2  C1  UNL d   1       1.734  -1.531   2.357  0.00  0.00     0.062 A 
ATOM      3  C2  UNL d   1       0.398  -1.157   2.245  0.00  0.00     0.162 A 
ATOM      4  C3  UNL d   1      -0.181  -0.985   0.987  0.00  0.00    -0.034 A 
ATOM      5  C4  UNL d   1       0.596  -1.190  -0.154  0.00  0.00     0.162 A 
ATOM      6  C5  UNL d   1       1.931  -1.564  -0.036  0.00  0.00     0.062 A 
ATOM      7  F   UNL d   1       2.669  -1.760  -1.138  0.00  0.00    -0.097 F 
ATOM      8  F1  UNL d   1       0.071  -1.033  -1.378  0.00  0.00    -0.096 F 
ATOM      9  I   UNL d   1      -2.178  -0.425   0.815  0.00  0.00    -0.060 I 
ATOM     10  F2  UNL d   1      -0.319  -0.967   3.362  0.00  0.00    -0.096 F 
ATOM     11  F3  UNL d   1       2.282  -1.695   3.570  0.00  0.00    -0.097 F 
ATOM     12  F4  UNL d   1       3.785  -2.094   1.329  0.00  0.00    -0.092 F 
ENDROOT
TORSDOF 0
ENDMDL
