MODEL 1
REMARK minimizedAffinity -6.48502445
REMARK minimizedRMSD -1
REMARK  0 active torsions:
REMARK  status: ('A' for Active; 'I' for Inactive)
ROOT
ATOM      1  C   UNL d   1       1.767  -1.258   2.238  0.00  0.00     0.124 A 
ATOM      2  C1  UNL d   1       2.242  -1.592   0.977  0.00  0.00     0.062 A 
ATOM      3  C2  UNL d   1       1.527  -1.228  -0.160  0.00  0.00     0.162 A 
ATOM      4  C3  UNL d   1       0.328  -0.524  -0.042  0.00  0.00    -0.034 A 
ATOM      5  C4  UNL d   1      -0.144  -0.193   1.229  0.00  0.00     0.162 A 
ATOM      6  C5  UNL d   1       0.574  -0.559   2.362  0.00  0.00     0.062 A 
ATOM      7  F   UNL d   1       0.113  -0.236   3.579  0.00  0.00    -0.097 F 
ATOM      8  F1  UNL d   1      -1.293   0.483   1.379  0.00  0.00    -0.096 F 
ATOM      9  I   UNL d   1      -0.744   0.022  -1.740  0.00  0.00    -0.060 I 
ATOM     10  F2  UNL d   1       2.010  -1.564  -1.365  0.00  0.00    -0.096 F 
ATOM     11  F3  UNL d   1       3.394  -2.268   0.854  0.00  0.00    -0.097 F 
ATOM     12  F4  UNL d   1       2.456  -1.611   3.330  0.00  0.00    -0.092 F 
ENDROOT
TORSDOF 0
ENDMDL
