MODEL 1
REMARK minimizedAffinity -0.0231854413
REMARK minimizedRMSD -1
REMARK  0 active torsions:
REMARK  status: ('A' for Active; 'I' for Inactive)
ROOT
ATOM      1  C   UNL d   1       2.238  -1.397   2.022  0.00  0.00     0.124 A 
ATOM      2  C1  UNL d   1       1.147  -0.596   2.331  0.00  0.00     0.062 A 
ATOM      3  C2  UNL d   1       0.399  -0.009   1.315  0.00  0.00     0.162 A 
ATOM      4  C3  UNL d   1       0.738  -0.222  -0.022  0.00  0.00    -0.034 A 
ATOM      5  C4  UNL d   1       1.837  -1.028  -0.325  0.00  0.00     0.162 A 
ATOM      6  C5  UNL d   1       2.582  -1.612   0.695  0.00  0.00     0.062 A 
ATOM      7  F   UNL d   1       3.635  -2.385   0.394  0.00  0.00    -0.097 F 
ATOM      8  F1  UNL d   1       2.191  -1.254  -1.599  0.00  0.00    -0.096 F 
ATOM      9  I   UNL d   1      -0.379   0.653  -1.544  0.00  0.00    -0.060 I 
ATOM     10  F2  UNL d   1      -0.650   0.760   1.643  0.00  0.00    -0.096 F 
ATOM     11  F3  UNL d   1       0.814  -0.386   3.613  0.00  0.00    -0.097 F 
ATOM     12  F4  UNL d   1       2.957  -1.959   3.002  0.00  0.00    -0.092 F 
ENDROOT
TORSDOF 0
ENDMDL
