MODEL 1
REMARK minimizedAffinity -5.77425146
REMARK minimizedRMSD -1
REMARK  0 active torsions:
REMARK  status: ('A' for Active; 'I' for Inactive)
ROOT
ATOM      1  C   UNL d   1       1.943  -1.385   2.078  0.00  0.00     0.124 A 
ATOM      2  C1  UNL d   1       0.930  -0.499   2.414  0.00  0.00     0.062 A 
ATOM      3  C2  UNL d   1       0.186   0.125   1.417  0.00  0.00     0.162 A 
ATOM      4  C3  UNL d   1       0.453  -0.135   0.073  0.00  0.00    -0.034 A 
ATOM      5  C4  UNL d   1       1.474  -1.028  -0.258  0.00  0.00     0.162 A 
ATOM      6  C5  UNL d   1       2.215  -1.649   0.743  0.00  0.00     0.062 A 
ATOM      7  F   UNL d   1       3.194  -2.505   0.416  0.00  0.00    -0.097 F 
ATOM      8  F1  UNL d   1       1.757  -1.301  -1.540  0.00  0.00    -0.096 F 
ATOM      9  I   UNL d   1      -0.657   0.796  -1.421  0.00  0.00    -0.060 I 
ATOM     10  F2  UNL d   1      -0.787   0.978   1.771  0.00  0.00    -0.096 F 
ATOM     11  F3  UNL d   1       0.667  -0.242   3.704  0.00  0.00    -0.097 F 
ATOM     12  F4  UNL d   1       2.658  -1.984   3.040  0.00  0.00    -0.092 F 
ENDROOT
TORSDOF 0
ENDMDL
