MODEL 1
REMARK minimizedAffinity -3.54001617
REMARK minimizedRMSD -1
REMARK  0 active torsions:
REMARK  status: ('A' for Active; 'I' for Inactive)
ROOT
ATOM      1  C   UNL d   1       2.311  -1.586   1.894  0.00  0.00     0.124 A 
ATOM      2  C1  UNL d   1       2.616  -1.883   0.572  0.00  0.00     0.062 A 
ATOM      3  C2  UNL d   1       1.903  -1.284  -0.462  0.00  0.00     0.162 A 
ATOM      4  C3  UNL d   1       0.877  -0.382  -0.180  0.00  0.00    -0.034 A 
ATOM      5  C4  UNL d   1       0.575  -0.090   1.151  0.00  0.00     0.162 A 
ATOM      6  C5  UNL d   1       1.291  -0.690   2.182  0.00  0.00     0.062 A 
ATOM      7  F   UNL d   1       0.995  -0.403   3.458  0.00  0.00    -0.097 F 
ATOM      8  F1  UNL d   1      -0.405   0.773   1.458  0.00  0.00    -0.096 F 
ATOM      9  I   UNL d   1      -0.193   0.514  -1.724  0.00  0.00    -0.060 I 
ATOM     10  F2  UNL d   1       2.219  -1.590  -1.729  0.00  0.00    -0.096 F 
ATOM     11  F3  UNL d   1       3.601  -2.748   0.291  0.00  0.00    -0.097 F 
ATOM     12  F4  UNL d   1       2.999  -2.164   2.887  0.00  0.00    -0.092 F 
ENDROOT
TORSDOF 0
ENDMDL
