MODEL 1
REMARK minimizedAffinity -4.49110222
REMARK minimizedRMSD -1
REMARK  0 active torsions:
REMARK  status: ('A' for Active; 'I' for Inactive)
ROOT
ATOM      1  C   UNL d   1       1.687  -1.333   1.911  0.00  0.00     0.124 A 
ATOM      2  C1  UNL d   1       0.575  -0.589   2.280  0.00  0.00     0.062 A 
ATOM      3  C2  UNL d   1      -0.230  -0.002   1.307  0.00  0.00     0.162 A 
ATOM      4  C3  UNL d   1       0.074  -0.159  -0.046  0.00  0.00    -0.034 A 
ATOM      5  C4  UNL d   1       1.195  -0.909  -0.409  0.00  0.00     0.162 A 
ATOM      6  C5  UNL d   1       1.995  -1.492   0.567  0.00  0.00     0.062 A 
ATOM      7  F   UNL d   1       3.069  -2.211   0.209  0.00  0.00    -0.097 F 
ATOM      8  F1  UNL d   1       1.516  -1.079  -1.700  0.00  0.00    -0.096 F 
ATOM      9  I   UNL d   1      -1.126   0.716  -1.504  0.00  0.00    -0.060 I 
ATOM     10  F2  UNL d   1      -1.298   0.712   1.692  0.00  0.00    -0.096 F 
ATOM     11  F3  UNL d   1       0.275  -0.432   3.577  0.00  0.00    -0.097 F 
ATOM     12  F4  UNL d   1       2.459  -1.895   2.849  0.00  0.00    -0.092 F 
ENDROOT
TORSDOF 0
ENDMDL
