MODEL 1
REMARK minimizedAffinity -2.48259044
REMARK minimizedRMSD -1
REMARK  0 active torsions:
REMARK  status: ('A' for Active; 'I' for Inactive)
ROOT
ATOM      1  C   UNL d   1      -0.749   0.286   1.593  0.00  0.00     0.124 A 
ATOM      2  C1  UNL d   1       0.210  -0.230   2.453  0.00  0.00     0.062 A 
ATOM      3  C2  UNL d   1       1.290  -0.948   1.947  0.00  0.00     0.162 A 
ATOM      4  C3  UNL d   1       1.417  -1.154   0.574  0.00  0.00    -0.034 A 
ATOM      5  C4  UNL d   1       0.448  -0.633  -0.285  0.00  0.00     0.162 A 
ATOM      6  C5  UNL d   1      -0.630   0.084   0.225  0.00  0.00     0.062 A 
ATOM      7  F   UNL d   1      -1.555   0.582  -0.608  0.00  0.00    -0.097 F 
ATOM      8  F1  UNL d   1       0.539  -0.812  -1.611  0.00  0.00    -0.096 F 
ATOM      9  I   UNL d   1       3.030  -2.227  -0.186  0.00  0.00    -0.060 I 
ATOM     10  F2  UNL d   1       2.202  -1.435   2.802  0.00  0.00    -0.096 F 
ATOM     11  F3  UNL d   1       0.096  -0.037   3.775  0.00  0.00    -0.097 F 
ATOM     12  F4  UNL d   1      -1.788   0.976   2.082  0.00  0.00    -0.092 F 
ENDROOT
TORSDOF 0
ENDMDL
