MODEL 1
REMARK minimizedAffinity 5.72681904
REMARK minimizedRMSD -1
REMARK  1 active torsions:
REMARK  status: ('A' for Active; 'I' for Inactive)
REMARK    1  A    between atoms: C1_2  and  C2_3 
ROOT
ATOM      1  C2  UNL d   1       2.622  -3.214   4.940  0.00  0.00    -0.077 A 
ATOM      2  C3  UNL d   1       3.183  -4.030   3.947  0.00  0.00     0.002 A 
ATOM      3  C4  UNL d   1       3.000  -5.414   3.983  0.00  0.00     0.002 A 
ATOM      4  C5  UNL d   1       2.253  -5.993   5.007  0.00  0.00    -0.004 A 
ATOM      5  C6  UNL d   1       1.693  -5.191   6.000  0.00  0.00     0.002 A 
ATOM      6  C7  UNL d   1       1.875  -3.807   5.966  0.00  0.00     0.002 A 
ENDROOT
BRANCH   1   7
ATOM      7  C1  UNL d   1       2.776  -1.717   4.875  0.00  0.00     0.055 C 
ATOM      8  C   UNL d   1       2.405  -1.181   3.500  0.00  0.00     0.019 C 
ENDBRANCH   1   7
TORSDOF 1
ENDMDL
