MODEL 1
REMARK minimizedAffinity 1.36796296
REMARK minimizedRMSD -1
REMARK  1 active torsions:
REMARK  status: ('A' for Active; 'I' for Inactive)
REMARK    1  A    between atoms: C1_2  and  C2_3 
ROOT
ATOM      1  C2  UNL d   1      -4.907   3.009  -0.777  0.00  0.00    -0.077 A 
ATOM      2  C3  UNL d   1      -3.534   2.740  -0.869  0.00  0.00     0.002 A 
ATOM      3  C4  UNL d   1      -2.708   2.893   0.246  0.00  0.00     0.002 A 
ATOM      4  C5  UNL d   1      -3.245   3.311   1.461  0.00  0.00    -0.004 A 
ATOM      5  C6  UNL d   1      -4.609   3.583   1.563  0.00  0.00     0.002 A 
ATOM      6  C7  UNL d   1      -5.436   3.432   0.449  0.00  0.00     0.002 A 
ENDROOT
BRANCH   1   7
ATOM      7  C1  UNL d   1      -5.808   2.797  -1.965  0.00  0.00     0.055 C 
ATOM      8  C   UNL d   1      -5.004   2.573  -3.237  0.00  0.00     0.019 C 
ENDBRANCH   1   7
TORSDOF 1
ENDMDL
