MODEL 1
REMARK minimizedAffinity 6.11304379
REMARK minimizedRMSD -1
REMARK  1 active torsions:
REMARK  status: ('A' for Active; 'I' for Inactive)
REMARK    1  A    between atoms: C1_2  and  C2_3 
ROOT
ATOM      1  C2  UNL d   1       2.083  -0.210   2.877  0.00  0.00    -0.077 A 
ATOM      2  C3  UNL d   1       1.596  -0.660   4.113  0.00  0.00     0.002 A 
ATOM      3  C4  UNL d   1       2.103  -1.825   4.691  0.00  0.00     0.002 A 
ATOM      4  C5  UNL d   1       3.103  -2.548   4.043  0.00  0.00    -0.004 A 
ATOM      5  C6  UNL d   1       3.594  -2.110   2.813  0.00  0.00     0.002 A 
ATOM      6  C7  UNL d   1       3.087  -0.946   2.234  0.00  0.00     0.002 A 
ENDROOT
BRANCH   1   7
ATOM      7  C1  UNL d   1       1.572   1.073   2.276  0.00  0.00     0.055 C 
ATOM      8  C   UNL d   1       2.690   2.092   2.113  0.00  0.00     0.019 C 
ENDBRANCH   1   7
TORSDOF 1
ENDMDL
