MODEL 1
REMARK minimizedAffinity 7.15675068
REMARK minimizedRMSD -1
REMARK  1 active torsions:
REMARK  status: ('A' for Active; 'I' for Inactive)
REMARK    1  A    between atoms: C1_2  and  C2_3 
ROOT
ATOM      1  C2  UNL d   1       1.767  -3.294   4.556  0.00  0.00    -0.077 A 
ATOM      2  C3  UNL d   1       0.973  -3.696   5.638  0.00  0.00     0.002 A 
ATOM      3  C4  UNL d   1       0.892  -5.044   5.993  0.00  0.00     0.002 A 
ATOM      4  C5  UNL d   1       1.605  -6.000   5.272  0.00  0.00    -0.004 A 
ATOM      5  C6  UNL d   1       2.397  -5.610   4.193  0.00  0.00     0.002 A 
ATOM      6  C7  UNL d   1       2.478  -4.263   3.836  0.00  0.00     0.002 A 
ENDROOT
BRANCH   1   7
ATOM      7  C1  UNL d   1       1.895  -1.835   4.203  0.00  0.00     0.055 C 
ATOM      8  C   UNL d   1       1.904  -1.629   2.695  0.00  0.00     0.019 C 
ENDBRANCH   1   7
TORSDOF 1
ENDMDL
