MODEL 1
REMARK minimizedAffinity -0.526926935
REMARK minimizedRMSD -1
REMARK  1 active torsions:
REMARK  status: ('A' for Active; 'I' for Inactive)
REMARK    1  A    between atoms: C1_2  and  C2_3 
ROOT
ATOM      1  C2  UNL d   1       3.358  -1.728   4.261  0.00  0.00    -0.077 A 
ATOM      2  C3  UNL d   1       4.433  -1.452   3.404  0.00  0.00     0.002 A 
ATOM      3  C4  UNL d   1       5.748  -1.619   3.845  0.00  0.00     0.002 A 
ATOM      4  C5  UNL d   1       5.998  -2.067   5.140  0.00  0.00    -0.004 A 
ATOM      5  C6  UNL d   1       4.936  -2.342   6.000  0.00  0.00     0.002 A 
ATOM      6  C7  UNL d   1       3.621  -2.174   5.562  0.00  0.00     0.002 A 
ENDROOT
BRANCH   1   7
ATOM      7  C1  UNL d   1       1.939  -1.595   3.771  0.00  0.00     0.055 C 
ATOM      8  C   UNL d   1       1.848  -0.637   2.593  0.00  0.00     0.019 C 
ENDBRANCH   1   7
TORSDOF 1
ENDMDL
