MODEL 1
REMARK minimizedAffinity 4.82409525
REMARK minimizedRMSD -1
REMARK  1 active torsions:
REMARK  status: ('A' for Active; 'I' for Inactive)
REMARK    1  A    between atoms: C1_2  and  C2_3 
ROOT
ATOM      1  C2  UNL d   1       3.599  -2.929   3.765  0.00  0.00    -0.077 A 
ATOM      2  C3  UNL d   1       4.802  -2.210   3.735  0.00  0.00     0.002 A 
ATOM      3  C4  UNL d   1       5.997  -2.845   3.393  0.00  0.00     0.002 A 
ATOM      4  C5  UNL d   1       6.000  -4.202   3.073  0.00  0.00    -0.004 A 
ATOM      5  C6  UNL d   1       4.809  -4.926   3.102  0.00  0.00     0.002 A 
ATOM      6  C7  UNL d   1       3.614  -4.293   3.445  0.00  0.00     0.002 A 
ENDROOT
BRANCH   1   7
ATOM      7  C1  UNL d   1       2.302  -2.234   4.086  0.00  0.00     0.055 C 
ATOM      8  C   UNL d   1       1.913  -1.252   2.990  0.00  0.00     0.019 C 
ENDBRANCH   1   7
TORSDOF 1
ENDMDL
