MODEL 1
REMARK minimizedAffinity 6.97202635
REMARK minimizedRMSD -1
REMARK  1 active torsions:
REMARK  status: ('A' for Active; 'I' for Inactive)
REMARK    1  A    between atoms: C1_2  and  C2_3 
ROOT
ATOM      1  C2  UNL d   1      -4.249  -1.999  -4.444  0.00  0.00    -0.077 A 
ATOM      2  C3  UNL d   1      -4.109  -2.634  -5.687  0.00  0.00     0.002 A 
ATOM      3  C4  UNL d   1      -4.884  -3.753  -6.000  0.00  0.00     0.002 A 
ATOM      4  C5  UNL d   1      -5.807  -4.243  -5.078  0.00  0.00    -0.004 A 
ATOM      5  C6  UNL d   1      -5.952  -3.620  -3.839  0.00  0.00     0.002 A 
ATOM      6  C7  UNL d   1      -5.178  -2.503  -3.524  0.00  0.00     0.002 A 
ENDROOT
BRANCH   1   7
ATOM      7  C1  UNL d   1      -3.449  -0.764  -4.124  0.00  0.00     0.055 C 
ATOM      8  C   UNL d   1      -2.639  -0.944  -2.849  0.00  0.00     0.019 C 
ENDBRANCH   1   7
TORSDOF 1
ENDMDL
