MODEL 1
REMARK minimizedAffinity 6.40086174
REMARK minimizedRMSD -1
REMARK  1 active torsions:
REMARK  status: ('A' for Active; 'I' for Inactive)
REMARK    1  A    between atoms: C1_2  and  C2_3 
ROOT
ATOM      1  C2  UNL d   1       3.528  -1.583   3.977  0.00  0.00    -0.077 A 
ATOM      2  C3  UNL d   1       2.427  -2.450   4.004  0.00  0.00     0.002 A 
ATOM      3  C4  UNL d   1       1.346  -2.246   3.145  0.00  0.00     0.002 A 
ATOM      4  C5  UNL d   1       1.358  -1.179   2.249  0.00  0.00    -0.004 A 
ATOM      5  C6  UNL d   1       2.447  -0.310   2.216  0.00  0.00     0.002 A 
ATOM      6  C7  UNL d   1       3.528  -0.511   3.076  0.00  0.00     0.002 A 
ENDROOT
BRANCH   1   7
ATOM      7  C1  UNL d   1       4.717  -1.830   4.869  0.00  0.00     0.055 C 
ATOM      8  C   UNL d   1       6.000  -1.954   4.061  0.00  0.00     0.019 C 
ENDBRANCH   1   7
TORSDOF 1
ENDMDL
