MODEL 1
REMARK minimizedAffinity 1.19765413
REMARK minimizedRMSD -1
REMARK  1 active torsions:
REMARK  status: ('A' for Active; 'I' for Inactive)
REMARK    1  A    between atoms: C1_2  and  C2_3 
ROOT
ATOM      1  C2  UNL d   1       2.815  -3.409  -2.563  0.00  0.00    -0.077 A 
ATOM      2  C3  UNL d   1       2.209  -4.000  -1.445  0.00  0.00     0.002 A 
ATOM      3  C4  UNL d   1       2.568  -5.289  -1.046  0.00  0.00     0.002 A 
ATOM      4  C5  UNL d   1       3.537  -5.995  -1.756  0.00  0.00    -0.004 A 
ATOM      5  C6  UNL d   1       4.143  -5.417  -2.870  0.00  0.00     0.002 A 
ATOM      6  C7  UNL d   1       3.785  -4.130  -3.271  0.00  0.00     0.002 A 
ENDROOT
BRANCH   1   7
ATOM      7  C1  UNL d   1       2.465  -2.000  -2.966  0.00  0.00     0.055 C 
ATOM      8  C   UNL d   1       3.688  -1.095  -2.934  0.00  0.00     0.019 C 
ENDBRANCH   1   7
TORSDOF 1
ENDMDL
