MODEL 1
REMARK minimizedAffinity 5.5055337
REMARK minimizedRMSD -1
REMARK  1 active torsions:
REMARK  status: ('A' for Active; 'I' for Inactive)
REMARK    1  A    between atoms: C1_2  and  C2_3 
ROOT
ATOM      1  C2  UNL d   1       2.575  -1.194   3.280  0.00  0.00    -0.077 A 
ATOM      2  C3  UNL d   1       3.835  -1.624   2.838  0.00  0.00     0.002 A 
ATOM      3  C4  UNL d   1       4.429  -1.036   1.720  0.00  0.00     0.002 A 
ATOM      4  C5  UNL d   1       3.774  -0.013   1.037  0.00  0.00    -0.004 A 
ATOM      5  C6  UNL d   1       2.520   0.420   1.467  0.00  0.00     0.002 A 
ATOM      6  C7  UNL d   1       1.924  -0.167   2.584  0.00  0.00     0.002 A 
ENDROOT
BRANCH   1   7
ATOM      7  C1  UNL d   1       1.955  -1.793   4.515  0.00  0.00     0.055 C 
ATOM      8  C   UNL d   1       2.962  -1.885   5.652  0.00  0.00     0.019 C 
ENDBRANCH   1   7
TORSDOF 1
ENDMDL
