MODEL 1
REMARK minimizedAffinity 9.91060829
REMARK minimizedRMSD -1
REMARK  1 active torsions:
REMARK  status: ('A' for Active; 'I' for Inactive)
REMARK    1  A    between atoms: C1_2  and  C2_3 
ROOT
ATOM      1  C2  UNL d   1       2.743  -2.708   3.556  0.00  0.00    -0.077 A 
ATOM      2  C3  UNL d   1       3.125  -3.922   2.969  0.00  0.00     0.002 A 
ATOM      3  C4  UNL d   1       2.924  -5.127   3.645  0.00  0.00     0.002 A 
ATOM      4  C5  UNL d   1       2.336  -5.130   4.908  0.00  0.00    -0.004 A 
ATOM      5  C6  UNL d   1       1.954  -3.927   5.501  0.00  0.00     0.002 A 
ATOM      6  C7  UNL d   1       2.156  -2.722   4.828  0.00  0.00     0.002 A 
ENDROOT
BRANCH   1   7
ATOM      7  C1  UNL d   1       2.915  -1.411   2.809  0.00  0.00     0.055 C 
ATOM      8  C   UNL d   1       1.570  -0.804   2.437  0.00  0.00     0.019 C 
ENDBRANCH   1   7
TORSDOF 1
ENDMDL
