MODEL 1
REMARK minimizedAffinity 5.59399176
REMARK minimizedRMSD -1
REMARK  1 active torsions:
REMARK  status: ('A' for Active; 'I' for Inactive)
REMARK    1  A    between atoms: C1_2  and  C2_3 
ROOT
ATOM      1  C2  UNL d   1      -0.113   0.645   1.241  0.00  0.00    -0.081 A 
ATOM      2  C3  UNL d   1       0.797  -0.388   1.496  0.00  0.00     0.006 A 
ATOM      3  C4  UNL d   1       1.534  -0.956   0.454  0.00  0.00     0.002 A 
ATOM      4  C5  UNL d   1       1.381  -0.495  -0.857  0.00  0.00    -0.080 A 
ATOM      5  C6  UNL d   1       2.189  -1.075  -1.980  0.00  0.00     0.076 C 
ATOM      6  C7  UNL d   1       0.459   0.526  -1.115  0.00  0.00     0.002 A 
ATOM      7  C8  UNL d   1      -0.279   1.093  -0.074  0.00  0.00     0.006 A 
ENDROOT
BRANCH   1   8
ATOM      8  C1  UNL d   1      -0.863   1.303   2.371  0.00  0.00     0.054 C 
ATOM      9  C   UNL d   1      -0.513   2.780   2.481  0.00  0.00     0.018 C 
ENDBRANCH   1   8
TORSDOF 1
ENDMDL
