MODEL 1
REMARK minimizedAffinity 9.70793152
REMARK minimizedRMSD -1
REMARK  1 active torsions:
REMARK  status: ('A' for Active; 'I' for Inactive)
REMARK    1  A    between atoms: C1_2  and  C2_3 
ROOT
ATOM      1  C2  UNL d   1       0.265   1.789   1.002  0.00  0.00    -0.081 A 
ATOM      2  C3  UNL d   1       0.083   1.283  -0.291  0.00  0.00     0.006 A 
ATOM      3  C4  UNL d   1      -0.364   2.115  -1.320  0.00  0.00     0.002 A 
ATOM      4  C5  UNL d   1      -0.630   3.467  -1.075  0.00  0.00    -0.080 A 
ATOM      5  C6  UNL d   1      -1.082   4.378  -2.178  0.00  0.00     0.076 C 
ATOM      6  C7  UNL d   1      -0.465   3.968   0.221  0.00  0.00     0.002 A 
ATOM      7  C8  UNL d   1      -0.019   3.136   1.250  0.00  0.00     0.006 A 
ENDROOT
BRANCH   1   8
ATOM      8  C1  UNL d   1       0.809   0.909   2.099  0.00  0.00     0.054 C 
ATOM      9  C   UNL d   1      -0.106   0.913   3.316  0.00  0.00     0.018 C 
ENDBRANCH   1   8
TORSDOF 1
ENDMDL
