MODEL 1
REMARK minimizedAffinity 14.8524122
REMARK minimizedRMSD -1
REMARK  1 active torsions:
REMARK  status: ('A' for Active; 'I' for Inactive)
REMARK    1  A    between atoms: C1_2  and  C2_3 
ROOT
ATOM      1  C2  UNL d   1       1.465   0.766  -0.011  0.00  0.00    -0.081 A 
ATOM      2  C3  UNL d   1       1.433   1.436   1.218  0.00  0.00     0.006 A 
ATOM      3  C4  UNL d   1       0.330   2.216   1.572  0.00  0.00     0.002 A 
ATOM      4  C5  UNL d   1      -0.763   2.333   0.707  0.00  0.00    -0.080 A 
ATOM      5  C6  UNL d   1      -1.967   3.143   1.087  0.00  0.00     0.076 C 
ATOM      6  C7  UNL d   1      -0.724   1.679  -0.529  0.00  0.00     0.002 A 
ATOM      7  C8  UNL d   1       0.379   0.899  -0.883  0.00  0.00     0.006 A 
ENDROOT
BRANCH   1   8
ATOM      8  C1  UNL d   1       2.625  -0.128  -0.367  0.00  0.00     0.054 C 
ATOM      9  C   UNL d   1       2.212  -1.593  -0.376  0.00  0.00     0.018 C 
ENDBRANCH   1   8
TORSDOF 1
ENDMDL
