MODEL 1
REMARK minimizedAffinity 10.0338497
REMARK minimizedRMSD -1
REMARK  1 active torsions:
REMARK  status: ('A' for Active; 'I' for Inactive)
REMARK    1  A    between atoms: C1_2  and  C2_3 
ROOT
ATOM      1  C2  UNL d   1       1.823  -2.765  -1.441  0.00  0.00    -0.081 A 
ATOM      2  C3  UNL d   1       0.423  -2.729  -1.472  0.00  0.00     0.006 A 
ATOM      3  C4  UNL d   1      -0.249  -1.525  -1.692  0.00  0.00     0.002 A 
ATOM      4  C5  UNL d   1       0.466  -0.339  -1.892  0.00  0.00    -0.080 A 
ATOM      5  C6  UNL d   1      -0.244   0.955  -2.160  0.00  0.00     0.076 C 
ATOM      6  C7  UNL d   1       1.863  -0.372  -1.843  0.00  0.00     0.002 A 
ATOM      7  C8  UNL d   1       2.536  -1.576  -1.622  0.00  0.00     0.006 A 
ENDROOT
BRANCH   1   8
ATOM      8  C1  UNL d   1       2.552  -4.073  -1.268  0.00  0.00     0.054 C 
ATOM      9  C   UNL d   1       2.321  -4.997  -2.456  0.00  0.00     0.018 C 
ENDBRANCH   1   8
TORSDOF 1
ENDMDL
