MODEL 1
REMARK minimizedAffinity -0.493087709
REMARK minimizedRMSD -1
REMARK  1 active torsions:
REMARK  status: ('A' for Active; 'I' for Inactive)
REMARK    1  A    between atoms: C1_2  and  C2_3 
ROOT
ATOM      1  C2  UNL d   1       0.460   3.609   0.201  0.00  0.00    -0.081 A 
ATOM      2  C3  UNL d   1       0.458   2.975   1.449  0.00  0.00     0.006 A 
ATOM      3  C4  UNL d   1       0.382   1.582   1.536  0.00  0.00     0.002 A 
ATOM      4  C5  UNL d   1       0.315   0.802   0.377  0.00  0.00    -0.080 A 
ATOM      5  C6  UNL d   1       0.264  -0.695   0.456  0.00  0.00     0.076 C 
ATOM      6  C7  UNL d   1       0.300   1.436  -0.870  0.00  0.00     0.002 A 
ATOM      7  C8  UNL d   1       0.375   2.828  -0.957  0.00  0.00     0.006 A 
ENDROOT
BRANCH   1   8
ATOM      8  C1  UNL d   1       0.608   5.106   0.102  0.00  0.00     0.054 C 
ATOM      9  C   UNL d   1       2.073   5.518   0.083  0.00  0.00     0.018 C 
ENDBRANCH   1   8
TORSDOF 1
ENDMDL
