MODEL 1
REMARK minimizedAffinity -3.40551281
REMARK minimizedRMSD -1
REMARK  0 active torsions:
REMARK  status: ('A' for Active; 'I' for Inactive)
ROOT
ATOM      1  O1  BZF d   1       0.447   1.189  -0.584  0.00  0.00    -0.204 OA
ATOM      2  C2  BZF d   1      -0.356   0.427  -1.412  0.00  0.00     0.174 A 
ATOM      3  C3  BZF d   1      -0.815  -0.662  -0.763  0.00  0.00    -0.012 A 
ATOM      4  C3A BZF d   1      -0.341  -0.527   0.580  0.00  0.00    -0.107 A 
ATOM      5  C4  BZF d   1      -0.481  -1.287   1.706  0.00  0.00     0.055 A 
ATOM      6  C5  BZF d   1       0.169  -0.915   2.840  0.00  0.00    -0.016 A 
ATOM      7  C6  BZF d   1       0.972   0.206   2.882  0.00  0.00     0.022 A 
ATOM      8  C7  BZF d   1       1.138   0.994   1.791  0.00  0.00     0.029 A 
ATOM      9  C7A BZF d   1       0.455   0.639   0.654  0.00  0.00     0.058 A 
ENDROOT
TORSDOF 0
ENDMDL
