MODEL 1
REMARK minimizedAffinity -5.24283791
REMARK minimizedRMSD -1
REMARK  0 active torsions:
REMARK  status: ('A' for Active; 'I' for Inactive)
ROOT
ATOM      1  O1  BZF d   1       0.214   2.066  -0.760  0.00  0.00    -0.204 OA
ATOM      2  C2  BZF d   1      -0.331   1.727   0.463  0.00  0.00     0.174 A 
ATOM      3  C3  BZF d   1      -1.495   2.378   0.665  0.00  0.00    -0.012 A 
ATOM      4  C3A BZF d   1      -1.735   3.104  -0.544  0.00  0.00    -0.107 A 
ATOM      5  C4  BZF d   1      -2.742   3.927  -0.961  0.00  0.00     0.055 A 
ATOM      6  C5  BZF d   1      -2.639   4.535  -2.171  0.00  0.00    -0.016 A 
ATOM      7  C6  BZF d   1      -1.544   4.347  -2.988  0.00  0.00     0.022 A 
ATOM      8  C7  BZF d   1      -0.523   3.535  -2.621  0.00  0.00     0.029 A 
ATOM      9  C7A BZF d   1      -0.639   2.893  -1.412  0.00  0.00     0.058 A 
ENDROOT
TORSDOF 0
ENDMDL
