MODEL 1
REMARK minimizedAffinity -6.05123186
REMARK minimizedRMSD -1
REMARK  0 active torsions:
REMARK  status: ('A' for Active; 'I' for Inactive)
ROOT
ATOM      1  O1  BZF d   1      -3.806   3.811  -3.172  0.00  0.00    -0.204 OA
ATOM      2  C2  BZF d   1      -4.848   2.999  -2.770  0.00  0.00     0.174 A 
ATOM      3  C3  BZF d   1      -4.381   1.863  -2.213  0.00  0.00    -0.012 A 
ATOM      4  C3A BZF d   1      -2.958   2.013  -2.187  0.00  0.00    -0.107 A 
ATOM      5  C4  BZF d   1      -1.939   1.224  -1.736  0.00  0.00     0.055 A 
ATOM      6  C5  BZF d   1      -0.656   1.631  -1.926  0.00  0.00    -0.016 A 
ATOM      7  C6  BZF d   1      -0.357   2.816  -2.565  0.00  0.00     0.022 A 
ATOM      8  C7  BZF d   1      -1.334   3.634  -3.025  0.00  0.00     0.029 A 
ATOM      9  C7A BZF d   1      -2.632   3.242  -2.805  0.00  0.00     0.058 A 
ENDROOT
TORSDOF 0
ENDMDL
