MODEL 1
REMARK minimizedAffinity -2.62406445
REMARK minimizedRMSD -1
REMARK  0 active torsions:
REMARK  status: ('A' for Active; 'I' for Inactive)
ROOT
ATOM      1  O1  BZF d   1      -3.448   4.099  -3.786  0.00  0.00    -0.204 OA
ATOM      2  C2  BZF d   1      -4.376   3.927  -2.777  0.00  0.00     0.174 A 
ATOM      3  C3  BZF d   1      -3.888   3.123  -1.810  0.00  0.00    -0.012 A 
ATOM      4  C3A BZF d   1      -2.539   2.845  -2.197  0.00  0.00    -0.107 A 
ATOM      5  C4  BZF d   1      -1.532   2.115  -1.634  0.00  0.00     0.055 A 
ATOM      6  C5  BZF d   1      -0.356   1.985  -2.302  0.00  0.00    -0.016 A 
ATOM      7  C6  BZF d   1      -0.155   2.566  -3.537  0.00  0.00     0.022 A 
ATOM      8  C7  BZF d   1      -1.123   3.304  -4.134  0.00  0.00     0.029 A 
ATOM      9  C7A BZF d   1      -2.300   3.465  -3.445  0.00  0.00     0.058 A 
ENDROOT
TORSDOF 0
ENDMDL
