MODEL 1
REMARK minimizedAffinity -0.370869756
REMARK minimizedRMSD -1
REMARK  0 active torsions:
REMARK  status: ('A' for Active; 'I' for Inactive)
ROOT
ATOM      1  O1  BZF d   1      -1.219   0.888  -1.028  0.00  0.00    -0.204 OA
ATOM      2  C2  BZF d   1      -0.446   0.609  -2.138  0.00  0.00     0.174 A 
ATOM      3  C3  BZF d   1       0.559  -0.233  -1.822  0.00  0.00    -0.012 A 
ATOM      4  C3A BZF d   1       0.350  -0.570  -0.447  0.00  0.00    -0.107 A 
ATOM      5  C4  BZF d   1       1.009  -1.381   0.432  0.00  0.00     0.055 A 
ATOM      6  C5  BZF d   1       0.590  -1.434   1.723  0.00  0.00    -0.016 A 
ATOM      7  C6  BZF d   1      -0.479  -0.687   2.171  0.00  0.00     0.022 A 
ATOM      8  C7  BZF d   1      -1.168   0.128   1.335  0.00  0.00     0.029 A 
ATOM      9  C7A BZF d   1      -0.768   0.159   0.021  0.00  0.00     0.058 A 
ENDROOT
TORSDOF 0
ENDMDL
