MODEL 1
REMARK minimizedAffinity 0.198798612
REMARK minimizedRMSD -1
REMARK  0 active torsions:
REMARK  status: ('A' for Active; 'I' for Inactive)
ROOT
ATOM      1  O1  BZF d   1      -2.296   3.319  -0.820  0.00  0.00    -0.204 OA
ATOM      2  C2  BZF d   1      -2.246   3.495  -2.189  0.00  0.00     0.174 A 
ATOM      3  C3  BZF d   1      -1.544   2.503  -2.774  0.00  0.00    -0.012 A 
ATOM      4  C3A BZF d   1      -1.208   1.604  -1.712  0.00  0.00    -0.107 A 
ATOM      5  C4  BZF d   1      -0.528   0.421  -1.664  0.00  0.00     0.055 A 
ATOM      6  C5  BZF d   1      -0.311  -0.167  -0.458  0.00  0.00    -0.016 A 
ATOM      7  C6  BZF d   1      -0.753   0.402   0.718  0.00  0.00     0.022 A 
ATOM      8  C7  BZF d   1      -1.436   1.573   0.720  0.00  0.00     0.029 A 
ATOM      9  C7A BZF d   1      -1.687   2.153  -0.500  0.00  0.00     0.058 A 
ENDROOT
TORSDOF 0
ENDMDL
