MODEL 1
REMARK minimizedAffinity -3.80148649
REMARK minimizedRMSD -1
REMARK  0 active torsions:
REMARK  status: ('A' for Active; 'I' for Inactive)
ROOT
ATOM      1  O1  BZF d   1       0.878  -1.126  -1.216  0.00  0.00    -0.204 OA
ATOM      2  C2  BZF d   1      -0.185  -0.247  -1.138  0.00  0.00     0.174 A 
ATOM      3  C3  BZF d   1      -0.654  -0.175   0.124  0.00  0.00    -0.012 A 
ATOM      4  C3A BZF d   1       0.225  -0.994   0.900  0.00  0.00    -0.107 A 
ATOM      5  C4  BZF d   1       0.286  -1.311   2.227  0.00  0.00     0.055 A 
ATOM      6  C5  BZF d   1       1.224  -2.198   2.651  0.00  0.00    -0.016 A 
ATOM      7  C6  BZF d   1       2.112  -2.791   1.777  0.00  0.00     0.022 A 
ATOM      8  C7  BZF d   1       2.093  -2.504   0.453  0.00  0.00     0.029 A 
ATOM      9  C7A BZF d   1       1.167  -1.583   0.025  0.00  0.00     0.058 A 
ENDROOT
TORSDOF 0
ENDMDL
