MODEL 1
REMARK minimizedAffinity -4.53267193
REMARK minimizedRMSD -1
REMARK  0 active torsions:
REMARK  status: ('A' for Active; 'I' for Inactive)
ROOT
ATOM      1  O1  BZF d   1      -1.212  -0.860  -0.429  0.00  0.00    -0.204 OA
ATOM      2  C2  BZF d   1      -1.181   0.159  -1.362  0.00  0.00     0.174 A 
ATOM      3  C3  BZF d   1      -0.483   1.214  -0.894  0.00  0.00    -0.012 A 
ATOM      4  C3A BZF d   1       0.027   0.795   0.375  0.00  0.00    -0.107 A 
ATOM      5  C4  BZF d   1       0.810   1.398   1.317  0.00  0.00     0.055 A 
ATOM      6  C5  BZF d   1       1.067   0.743   2.480  0.00  0.00    -0.016 A 
ATOM      7  C6  BZF d   1       0.554  -0.512   2.735  0.00  0.00     0.022 A 
ATOM      8  C7  BZF d   1      -0.224  -1.152   1.828  0.00  0.00     0.029 A 
ATOM      9  C7A BZF d   1      -0.458  -0.507   0.639  0.00  0.00     0.058 A 
ENDROOT
TORSDOF 0
ENDMDL
