MODEL 1
REMARK minimizedAffinity -3.46910405
REMARK minimizedRMSD -1
REMARK  0 active torsions:
REMARK  status: ('A' for Active; 'I' for Inactive)
ROOT
ATOM      1  O1  BZF d   1       0.833  -1.655  -1.400  0.00  0.00    -0.204 OA
ATOM      2  C2  BZF d   1       2.211  -1.759  -1.386  0.00  0.00     0.174 A 
ATOM      3  C3  BZF d   1       2.716  -1.269  -0.236  0.00  0.00    -0.012 A 
ATOM      4  C3A BZF d   1       1.577  -0.916   0.555  0.00  0.00    -0.107 A 
ATOM      5  C4  BZF d   1       1.429  -0.391   1.807  0.00  0.00     0.055 A 
ATOM      6  C5  BZF d   1       0.181  -0.098   2.257  0.00  0.00    -0.016 A 
ATOM      7  C6  BZF d   1      -0.939  -0.311   1.482  0.00  0.00     0.022 A 
ATOM      8  C7  BZF d   1      -0.844  -0.834   0.235  0.00  0.00     0.029 A 
ATOM      9  C7A BZF d   1       0.413  -1.162  -0.210  0.00  0.00     0.058 A 
ENDROOT
TORSDOF 0
ENDMDL
