MODEL 1
REMARK minimizedAffinity -2.99596381
REMARK minimizedRMSD -1
REMARK  0 active torsions:
REMARK  status: ('A' for Active; 'I' for Inactive)
ROOT
ATOM      1  O1  BZF d   1      -1.329  -0.341   0.386  0.00  0.00    -0.204 OA
ATOM      2  C2  BZF d   1      -0.763  -0.294  -0.873  0.00  0.00     0.174 A 
ATOM      3  C3  BZF d   1       0.583  -0.293  -0.792  0.00  0.00    -0.012 A 
ATOM      4  C3A BZF d   1       0.877  -0.437   0.601  0.00  0.00    -0.107 A 
ATOM      5  C4  BZF d   1       2.040  -0.519   1.311  0.00  0.00     0.055 A 
ATOM      6  C5  BZF d   1       1.982  -0.581   2.668  0.00  0.00    -0.016 A 
ATOM      7  C6  BZF d   1       0.781  -0.558   3.345  0.00  0.00     0.022 A 
ATOM      8  C7  BZF d   1      -0.399  -0.483   2.683  0.00  0.00     0.029 A 
ATOM      9  C7A BZF d   1      -0.346  -0.454   1.311  0.00  0.00     0.058 A 
ENDROOT
TORSDOF 0
ENDMDL
