MODEL 1
REMARK minimizedAffinity -3.59881592
REMARK minimizedRMSD -1
REMARK  0 active torsions:
REMARK  status: ('A' for Active; 'I' for Inactive)
ROOT
ATOM      1  O1  BZF d   1       0.739  -0.878  -1.584  0.00  0.00    -0.204 OA
ATOM      2  C2  BZF d   1       2.083  -1.159  -1.436  0.00  0.00     0.174 A 
ATOM      3  C3  BZF d   1       2.454  -1.052  -0.144  0.00  0.00    -0.012 A 
ATOM      4  C3A BZF d   1       1.248  -0.772   0.573  0.00  0.00    -0.107 A 
ATOM      5  C4  BZF d   1       0.964  -0.575   1.894  0.00  0.00     0.055 A 
ATOM      6  C5  BZF d   1      -0.304  -0.249   2.256  0.00  0.00    -0.016 A 
ATOM      7  C6  BZF d   1      -1.312  -0.108   1.324  0.00  0.00     0.022 A 
ATOM      8  C7  BZF d   1      -1.080  -0.299   0.002  0.00  0.00     0.029 A 
ATOM      9  C7A BZF d   1       0.194  -0.660  -0.364  0.00  0.00     0.058 A 
ENDROOT
TORSDOF 0
ENDMDL
