MODEL 1
REMARK minimizedAffinity 8.46926022
REMARK minimizedRMSD -1
REMARK  0 active torsions:
REMARK  status: ('A' for Active; 'I' for Inactive)
ROOT
ATOM      1  C   UNL d   1      -1.027   3.073   2.506  0.00  0.00    -0.002 A 
ATOM      2  C1  UNL d   1      -1.056   2.001   3.387  0.00  0.00     0.010 A 
ATOM      3  C2  UNL d   1      -1.545   0.759   2.978  0.00  0.00     0.041 A 
ATOM      4  C3  UNL d   1      -2.008   0.610   1.656  0.00  0.00    -0.075 A 
ATOM      5  S   UNL d   1      -2.650  -0.818   0.934  0.00  0.00     0.015 SA
ATOM      6  C4  UNL d   1      -2.901  -0.039  -0.561  0.00  0.00     0.022 A 
ATOM      7  C5  UNL d   1      -2.510   1.279  -0.528  0.00  0.00     0.026 A 
ATOM      8  C6  UNL d   1      -1.989   1.675   0.750  0.00  0.00    -0.082 A 
ATOM      9  C7  UNL d   1      -1.488   2.922   1.195  0.00  0.00     0.045 A 
ENDROOT
TORSDOF 0
ENDMDL
