MODEL 1
REMARK minimizedAffinity 11.7081699
REMARK minimizedRMSD -1
REMARK  0 active torsions:
REMARK  status: ('A' for Active; 'I' for Inactive)
ROOT
ATOM      1  C   UNL d   1       2.257  -1.978   1.015  0.00  0.00    -0.002 A 
ATOM      2  C1  UNL d   1       2.699  -0.835   0.364  0.00  0.00     0.010 A 
ATOM      3  C2  UNL d   1       1.835   0.240   0.151  0.00  0.00     0.041 A 
ATOM      4  C3  UNL d   1       0.506   0.148   0.609  0.00  0.00    -0.075 A 
ATOM      5  S   UNL d   1      -0.731   1.340   0.461  0.00  0.00     0.015 SA
ATOM      6  C4  UNL d   1      -1.875   0.361   1.259  0.00  0.00     0.022 A 
ATOM      7  C5  UNL d   1      -1.344  -0.849   1.636  0.00  0.00     0.026 A 
ATOM      8  C6  UNL d   1       0.037  -0.992   1.268  0.00  0.00    -0.082 A 
ATOM      9  C7  UNL d   1       0.938  -2.066   1.469  0.00  0.00     0.045 A 
ENDROOT
TORSDOF 0
ENDMDL
