MODEL 1
REMARK minimizedAffinity 9.18361282
REMARK minimizedRMSD -1
REMARK  0 active torsions:
REMARK  status: ('A' for Active; 'I' for Inactive)
ROOT
ATOM      1  C   UNL d   1       4.025   1.837  -4.348  0.00  0.00    -0.002 A 
ATOM      2  C1  UNL d   1       3.732   2.697  -5.397  0.00  0.00     0.010 A 
ATOM      3  C2  UNL d   1       2.457   2.712  -5.967  0.00  0.00     0.041 A 
ATOM      4  C3  UNL d   1       1.473   1.841  -5.459  0.00  0.00    -0.075 A 
ATOM      5  S   UNL d   1      -0.157   1.686  -6.000  0.00  0.00     0.015 SA
ATOM      6  C4  UNL d   1      -0.502   0.476  -4.851  0.00  0.00     0.022 A 
ATOM      7  C5  UNL d   1       0.589   0.185  -4.066  0.00  0.00     0.026 A 
ATOM      8  C6  UNL d   1       1.744   0.967  -4.403  0.00  0.00    -0.082 A 
ATOM      9  C7  UNL d   1       3.046   0.975  -3.847  0.00  0.00     0.045 A 
ENDROOT
TORSDOF 0
ENDMDL
