MODEL 1
REMARK minimizedAffinity -3.24294066
REMARK minimizedRMSD -1
REMARK  0 active torsions:
REMARK  status: ('A' for Active; 'I' for Inactive)
ROOT
ATOM      1  C   UNL d   1       0.533   3.708   0.114  0.00  0.00    -0.002 A 
ATOM      2  C1  UNL d   1       1.868   3.331   0.083  0.00  0.00     0.010 A 
ATOM      3  C2  UNL d   1       2.225   1.981   0.073  0.00  0.00     0.041 A 
ATOM      4  C3  UNL d   1       1.208   1.007   0.092  0.00  0.00    -0.075 A 
ATOM      5  S   UNL d   1       1.408  -0.705   0.084  0.00  0.00     0.015 SA
ATOM      6  C4  UNL d   1      -0.274  -0.977   0.120  0.00  0.00     0.022 A 
ATOM      7  C5  UNL d   1      -0.986   0.199   0.139  0.00  0.00     0.026 A 
ATOM      8  C6  UNL d   1      -0.144   1.362   0.123  0.00  0.00    -0.082 A 
ATOM      9  C7  UNL d   1      -0.474   2.739   0.133  0.00  0.00     0.045 A 
ENDROOT
TORSDOF 0
ENDMDL
