MODEL 1
REMARK minimizedAffinity -1.25640607
REMARK minimizedRMSD -1
REMARK  0 active torsions:
REMARK  status: ('A' for Active; 'I' for Inactive)
ROOT
ATOM      1  C   UNL d   1       1.120   3.550   0.915  0.00  0.00    -0.002 A 
ATOM      2  C1  UNL d   1       2.359   2.952   1.094  0.00  0.00     0.010 A 
ATOM      3  C2  UNL d   1       2.510   1.572   0.943  0.00  0.00     0.041 A 
ATOM      4  C3  UNL d   1       1.384   0.796   0.606  0.00  0.00    -0.075 A 
ATOM      5  S   UNL d   1       1.331  -0.911   0.369  0.00  0.00     0.015 SA
ATOM      6  C4  UNL d   1      -0.338  -0.887   0.024  0.00  0.00     0.022 A 
ATOM      7  C5  UNL d   1      -0.858   0.385   0.084  0.00  0.00     0.026 A 
ATOM      8  C6  UNL d   1       0.126   1.375   0.420  0.00  0.00    -0.082 A 
ATOM      9  C7  UNL d   1       0.005   2.777   0.580  0.00  0.00     0.045 A 
ENDROOT
TORSDOF 0
ENDMDL
