MODEL 1
REMARK minimizedAffinity -4.24505377
REMARK minimizedRMSD -1
REMARK  0 active torsions:
REMARK  status: ('A' for Active; 'I' for Inactive)
ROOT
ATOM      1  C   UNL d   1      -1.937  -4.765  -1.902  0.00  0.00    -0.002 A 
ATOM      2  C1  UNL d   1      -2.459  -4.579  -0.630  0.00  0.00     0.010 A 
ATOM      3  C2  UNL d   1      -1.920  -3.618   0.226  0.00  0.00     0.041 A 
ATOM      4  C3  UNL d   1      -0.837  -2.836  -0.223  0.00  0.00    -0.075 A 
ATOM      5  S   UNL d   1      -0.015  -1.598   0.651  0.00  0.00     0.015 SA
ATOM      6  C4  UNL d   1       1.048  -1.285  -0.644  0.00  0.00     0.022 A 
ATOM      7  C5  UNL d   1       0.796  -2.097  -1.725  0.00  0.00     0.026 A 
ATOM      8  C6  UNL d   1      -0.294  -3.004  -1.500  0.00  0.00    -0.082 A 
ATOM      9  C7  UNL d   1      -0.863  -3.988  -2.344  0.00  0.00     0.045 A 
ENDROOT
TORSDOF 0
ENDMDL
