MODEL 1
REMARK minimizedAffinity 0.300850242
REMARK minimizedRMSD -1
REMARK  0 active torsions:
REMARK  status: ('A' for Active; 'I' for Inactive)
ROOT
ATOM      1  C   UNL d   1      -4.521   2.059   0.349  0.00  0.00    -0.002 A 
ATOM      2  C1  UNL d   1      -5.692   2.777   0.149  0.00  0.00     0.010 A 
ATOM      3  C2  UNL d   1      -5.925   3.434  -1.061  0.00  0.00     0.041 A 
ATOM      4  C3  UNL d   1      -4.953   3.355  -2.078  0.00  0.00    -0.075 A 
ATOM      5  S   UNL d   1      -5.022   4.077  -3.641  0.00  0.00     0.015 SA
ATOM      6  C4  UNL d   1      -3.501   3.449  -4.082  0.00  0.00     0.022 A 
ATOM      7  C5  UNL d   1      -2.939   2.704  -3.072  0.00  0.00     0.026 A 
ATOM      8  C6  UNL d   1      -3.766   2.637  -1.901  0.00  0.00    -0.082 A 
ATOM      9  C7  UNL d   1      -3.559   1.982  -0.662  0.00  0.00     0.045 A 
ENDROOT
TORSDOF 0
ENDMDL
