MODEL 1
REMARK minimizedAffinity 3.43743324
REMARK minimizedRMSD -1
REMARK  0 active torsions:
REMARK  status: ('A' for Active; 'I' for Inactive)
ROOT
ATOM      1  C   UNL d   1       1.626   3.978   0.260  0.00  0.00    -0.002 A 
ATOM      2  C1  UNL d   1       2.396   3.762  -0.874  0.00  0.00     0.010 A 
ATOM      3  C2  UNL d   1       2.744   2.465  -1.259  0.00  0.00     0.041 A 
ATOM      4  C3  UNL d   1       2.298   1.380  -0.479  0.00  0.00    -0.075 A 
ATOM      5  S   UNL d   1       2.600  -0.294  -0.759  0.00  0.00     0.015 SA
ATOM      6  C4  UNL d   1       1.713  -0.761   0.619  0.00  0.00     0.022 A 
ATOM      7  C5  UNL d   1       1.192   0.321   1.288  0.00  0.00     0.026 A 
ATOM      8  C6  UNL d   1       1.520   1.573   0.666  0.00  0.00    -0.082 A 
ATOM      9  C7  UNL d   1       1.185   2.899   1.031  0.00  0.00     0.045 A 
ENDROOT
TORSDOF 0
ENDMDL
