MODEL 1
REMARK minimizedAffinity -3.75339031
REMARK minimizedRMSD -1
REMARK  1 active torsions:
REMARK  status: ('A' for Active; 'I' for Inactive)
REMARK    1  A    between atoms: C1_2  and  C2_3 
ROOT
ATOM      1  C2  UNL d   1      -0.205   0.546   0.150  0.00  0.00    -0.076 A 
ATOM      2  C3  UNL d   1       0.908   0.894  -0.635  0.00  0.00     0.004 A 
ATOM      3  C4  UNL d   1       1.777   1.910  -0.240  0.00  0.00    -0.003 A 
ATOM      4  C5  UNL d   1       1.547   2.594   0.949  0.00  0.00     0.000 A 
ATOM      5  C6  UNL d   1       0.458   2.251   1.749  0.00  0.00     0.000 A 
ATOM      6  C7  UNL d   1      -0.418   1.218   1.372  0.00  0.00    -0.073 A 
ATOM      7  C8  UNL d   1      -1.581   0.894   2.271  0.00  0.00     0.078 C 
ENDROOT
BRANCH   1   8
ATOM      8  C1  UNL d   1      -1.127  -0.545  -0.344  0.00  0.00     0.053 C 
ATOM      9  C   UNL d   1      -0.684  -1.123  -1.679  0.00  0.00     0.018 C 
ENDBRANCH   1   8
TORSDOF 1
ENDMDL
