MODEL 1
REMARK minimizedAffinity -3.77755737
REMARK minimizedRMSD -1
REMARK  1 active torsions:
REMARK  status: ('A' for Active; 'I' for Inactive)
REMARK    1  A    between atoms: C1_2  and  C2_3 
ROOT
ATOM      1  C2  UNL d   1       0.413   0.292  -0.030  0.00  0.00    -0.076 A 
ATOM      2  C3  UNL d   1      -0.440   0.427   1.078  0.00  0.00     0.004 A 
ATOM      3  C4  UNL d   1      -0.458   1.600   1.831  0.00  0.00    -0.003 A 
ATOM      4  C5  UNL d   1       0.377   2.657   1.487  0.00  0.00     0.000 A 
ATOM      5  C6  UNL d   1       1.218   2.547   0.380  0.00  0.00     0.000 A 
ATOM      6  C7  UNL d   1       1.236   1.378  -0.399  0.00  0.00    -0.073 A 
ATOM      7  C8  UNL d   1       2.166   1.311  -1.579  0.00  0.00     0.078 C 
ENDROOT
BRANCH   1   8
ATOM      8  C1  UNL d   1       0.409  -1.014  -0.793  0.00  0.00     0.053 C 
ATOM      9  C   UNL d   1      -0.777  -1.132  -1.739  0.00  0.00     0.018 C 
ENDBRANCH   1   8
TORSDOF 1
ENDMDL
