MODEL 1
REMARK minimizedAffinity -2.7067759
REMARK minimizedRMSD -1
REMARK  1 active torsions:
REMARK  status: ('A' for Active; 'I' for Inactive)
REMARK    1  A    between atoms: C1_2  and  C2_3 
ROOT
ATOM      1  C2  UNL d   1       0.091   0.127   0.059  0.00  0.00    -0.076 A 
ATOM      2  C3  UNL d   1       0.940   1.050  -0.577  0.00  0.00     0.004 A 
ATOM      3  C4  UNL d   1       1.291   2.248   0.044  0.00  0.00    -0.003 A 
ATOM      4  C5  UNL d   1       0.800   2.541   1.311  0.00  0.00     0.000 A 
ATOM      5  C6  UNL d   1      -0.029   1.629   1.964  0.00  0.00     0.000 A 
ATOM      6  C7  UNL d   1      -0.379   0.410   1.359  0.00  0.00    -0.073 A 
ATOM      7  C8  UNL d   1      -1.281  -0.534   2.107  0.00  0.00     0.078 C 
ENDROOT
BRANCH   1   8
ATOM      8  C1  UNL d   1      -0.277  -1.143  -0.674  0.00  0.00     0.053 C 
ATOM      9  C   UNL d   1      -1.116  -0.877  -1.914  0.00  0.00     0.018 C 
ENDBRANCH   1   8
TORSDOF 1
ENDMDL
