MODEL 1
REMARK minimizedAffinity 0.0379844718
REMARK minimizedRMSD -1
REMARK  1 active torsions:
REMARK  status: ('A' for Active; 'I' for Inactive)
REMARK    1  A    between atoms: C1_2  and  C2_3 
ROOT
ATOM      1  C2  UNL d   1       0.525   0.553   0.137  0.00  0.00    -0.076 A 
ATOM      2  C3  UNL d   1      -0.171  -0.665   0.231  0.00  0.00     0.004 A 
ATOM      3  C4  UNL d   1      -1.138  -0.865   1.214  0.00  0.00    -0.003 A 
ATOM      4  C5  UNL d   1      -1.426   0.151   2.120  0.00  0.00     0.000 A 
ATOM      5  C6  UNL d   1      -0.759   1.372   2.030  0.00  0.00     0.000 A 
ATOM      6  C7  UNL d   1       0.208   1.595   1.034  0.00  0.00    -0.073 A 
ATOM      7  C8  UNL d   1       0.901   2.929   0.988  0.00  0.00     0.078 C 
ENDROOT
BRANCH   1   8
ATOM      8  C1  UNL d   1       1.582   0.702  -0.933  0.00  0.00     0.053 C 
ATOM      9  C   UNL d   1       2.484  -0.518  -1.035  0.00  0.00     0.018 C 
ENDBRANCH   1   8
TORSDOF 1
ENDMDL
