MODEL 1
REMARK minimizedAffinity -4.48114681
REMARK minimizedRMSD -1
REMARK  1 active torsions:
REMARK  status: ('A' for Active; 'I' for Inactive)
REMARK    1  A    between atoms: C1_2  and  C2_3 
ROOT
ATOM      1  C2  UNL d   1      -0.005  -0.080   0.021  0.00  0.00    -0.076 A 
ATOM      2  C3  UNL d   1      -0.665   0.998   0.635  0.00  0.00     0.004 A 
ATOM      3  C4  UNL d   1       0.049   2.090   1.127  0.00  0.00    -0.003 A 
ATOM      4  C5  UNL d   1       1.435   2.121   1.011  0.00  0.00     0.000 A 
ATOM      5  C6  UNL d   1       2.104   1.067   0.389  0.00  0.00     0.000 A 
ATOM      6  C7  UNL d   1       1.398  -0.033  -0.127  0.00  0.00    -0.073 A 
ATOM      7  C8  UNL d   1       2.171  -1.144  -0.783  0.00  0.00     0.078 C 
ENDROOT
BRANCH   1   8
ATOM      8  C1  UNL d   1      -0.829  -1.249  -0.469  0.00  0.00     0.053 C 
ATOM      9  C   UNL d   1      -1.582  -0.935  -1.753  0.00  0.00     0.018 C 
ENDBRANCH   1   8
TORSDOF 1
ENDMDL
