MODEL 1
REMARK minimizedAffinity -3.67181897
REMARK minimizedRMSD -1
REMARK  1 active torsions:
REMARK  status: ('A' for Active; 'I' for Inactive)
REMARK    1  A    between atoms: C1_2  and  C2_3 
ROOT
ATOM      1  C2  UNL d   1       0.720   0.588   0.359  0.00  0.00    -0.076 A 
ATOM      2  C3  UNL d   1       0.247  -0.652   0.823  0.00  0.00     0.004 A 
ATOM      3  C4  UNL d   1      -0.697  -0.722   1.846  0.00  0.00    -0.003 A 
ATOM      4  C5  UNL d   1      -1.185   0.446   2.420  0.00  0.00     0.000 A 
ATOM      5  C6  UNL d   1      -0.741   1.685   1.960  0.00  0.00     0.000 A 
ATOM      6  C7  UNL d   1       0.199   1.774   0.919  0.00  0.00    -0.073 A 
ATOM      7  C8  UNL d   1       0.648   3.137   0.466  0.00  0.00     0.078 C 
ENDROOT
BRANCH   1   8
ATOM      8  C1  UNL d   1       1.765   0.602  -0.734  0.00  0.00     0.053 C 
ATOM      9  C   UNL d   1       2.651  -0.634  -0.708  0.00  0.00     0.018 C 
ENDBRANCH   1   8
TORSDOF 1
ENDMDL
