MODEL 1
REMARK minimizedAffinity -0.0812878907
REMARK minimizedRMSD -1
REMARK  1 active torsions:
REMARK  status: ('A' for Active; 'I' for Inactive)
REMARK    1  A    between atoms: C1_2  and  C2_3 
ROOT
ATOM      1  C2  UNL d   1       0.712  -0.080   0.257  0.00  0.00    -0.076 A 
ATOM      2  C3  UNL d   1       1.076   0.816   1.277  0.00  0.00     0.004 A 
ATOM      3  C4  UNL d   1       0.109   1.417   2.082  0.00  0.00    -0.003 A 
ATOM      4  C5  UNL d   1      -1.236   1.132   1.879  0.00  0.00     0.000 A 
ATOM      5  C6  UNL d   1      -1.614   0.233   0.883  0.00  0.00     0.000 A 
ATOM      6  C7  UNL d   1      -0.651  -0.395   0.074  0.00  0.00    -0.073 A 
ATOM      7  C8  UNL d   1      -1.115  -1.352  -0.989  0.00  0.00     0.078 C 
ENDROOT
BRANCH   1   8
ATOM      8  C1  UNL d   1       1.802  -0.681  -0.602  0.00  0.00     0.053 C 
ATOM      9  C   UNL d   1       3.030   0.212  -0.694  0.00  0.00     0.018 C 
ENDBRANCH   1   8
TORSDOF 1
ENDMDL
