MODEL 1
REMARK minimizedAffinity -3.57265592
REMARK minimizedRMSD -1
REMARK  1 active torsions:
REMARK  status: ('A' for Active; 'I' for Inactive)
REMARK    1  A    between atoms: C1_2  and  C2_3 
ROOT
ATOM      1  C2  UNL d   1      -0.189  -0.553  -0.561  0.00  0.00    -0.076 A 
ATOM      2  C3  UNL d   1       0.934  -0.102  -1.277  0.00  0.00     0.004 A 
ATOM      3  C4  UNL d   1       1.672   0.996  -0.836  0.00  0.00    -0.003 A 
ATOM      4  C5  UNL d   1       1.299   1.660   0.327  0.00  0.00     0.000 A 
ATOM      5  C6  UNL d   1       0.199   1.215   1.059  0.00  0.00     0.000 A 
ATOM      6  C7  UNL d   1      -0.546   0.100   0.638  0.00  0.00    -0.073 A 
ATOM      7  C8  UNL d   1      -1.727  -0.332   1.463  0.00  0.00     0.078 C 
ENDROOT
BRANCH   1   8
ATOM      8  C1  UNL d   1      -0.967  -1.731  -1.101  0.00  0.00     0.053 C 
ATOM      9  C   UNL d   1      -1.258  -1.605  -2.589  0.00  0.00     0.018 C 
ENDBRANCH   1   8
TORSDOF 1
ENDMDL
