MODEL 1
REMARK minimizedAffinity -3.25548267
REMARK minimizedRMSD -1
REMARK  1 active torsions:
REMARK  status: ('A' for Active; 'I' for Inactive)
REMARK    1  A    between atoms: C1_2  and  C2_3 
ROOT
ATOM      1  C2  UNL d   1      -0.853  -0.599  -0.408  0.00  0.00    -0.076 A 
ATOM      2  C3  UNL d   1      -1.781   0.067   0.411  0.00  0.00     0.004 A 
ATOM      3  C4  UNL d   1      -1.369   1.049   1.310  0.00  0.00    -0.003 A 
ATOM      4  C5  UNL d   1      -0.022   1.382   1.404  0.00  0.00     0.000 A 
ATOM      5  C6  UNL d   1       0.910   0.743   0.587  0.00  0.00     0.000 A 
ATOM      6  C7  UNL d   1       0.510  -0.238  -0.336  0.00  0.00    -0.073 A 
ATOM      7  C8  UNL d   1       1.559  -0.898  -1.188  0.00  0.00     0.078 C 
ENDROOT
BRANCH   1   8
ATOM      8  C1  UNL d   1      -1.354  -1.675  -1.345  0.00  0.00     0.053 C 
ATOM      9  C   UNL d   1      -1.921  -1.105  -2.636  0.00  0.00     0.018 C 
ENDBRANCH   1   8
TORSDOF 1
ENDMDL
