MODEL 1
REMARK minimizedAffinity -4.4342103
REMARK minimizedRMSD -1
REMARK  1 active torsions:
REMARK  status: ('A' for Active; 'I' for Inactive)
REMARK    1  A    between atoms: C1_2  and  C2_3 
ROOT
ATOM      1  C2  UNL d   1       0.273   0.033   0.245  0.00  0.00    -0.076 A 
ATOM      2  C3  UNL d   1      -0.713   0.364   1.190  0.00  0.00     0.004 A 
ATOM      3  C4  UNL d   1      -0.629   1.540   1.933  0.00  0.00    -0.003 A 
ATOM      4  C5  UNL d   1       0.442   2.406   1.742  0.00  0.00     0.000 A 
ATOM      5  C6  UNL d   1       1.420   2.103   0.795  0.00  0.00     0.000 A 
ATOM      6  C7  UNL d   1       1.342   0.929   0.027  0.00  0.00    -0.073 A 
ATOM      7  C8  UNL d   1       2.429   0.648  -0.975  0.00  0.00     0.078 C 
ENDROOT
BRANCH   1   8
ATOM      8  C1  UNL d   1       0.144  -1.270  -0.511  0.00  0.00     0.053 C 
ATOM      9  C   UNL d   1      -1.135  -1.343  -1.331  0.00  0.00     0.018 C 
ENDBRANCH   1   8
TORSDOF 1
ENDMDL
