MODEL 1
REMARK minimizedAffinity -5.74303055
REMARK minimizedRMSD -1
REMARK  0 active torsions:
REMARK  status: ('A' for Active; 'I' for Inactive)
ROOT
ATOM      1  C4' PXY d   1       0.501  -1.591  -0.941  0.00  0.00     0.077 C 
ATOM      2  C1' PXY d   1      -1.079   2.974   2.234  0.00  0.00     0.077 C 
ATOM      3  C1  PXY d   1      -0.654   1.776   1.409  0.00  0.00    -0.082 A 
ATOM      4  C2  PXY d   1      -1.071   1.662   0.158  0.00  0.00     0.003 A 
ATOM      5  C3  PXY d   1      -0.722   0.568  -0.592  0.00  0.00     0.003 A 
ATOM      6  C4  PXY d   1       0.105  -0.392  -0.074  0.00  0.00    -0.082 A 
ATOM      7  C5  PXY d   1       0.542  -0.278   1.198  0.00  0.00     0.003 A 
ATOM      8  C6  PXY d   1       0.143   0.819   1.957  0.00  0.00     0.003 A 
ENDROOT
TORSDOF 0
ENDMDL
