MODEL 1
REMARK minimizedAffinity -0.903169394
REMARK minimizedRMSD -1
REMARK  0 active torsions:
REMARK  status: ('A' for Active; 'I' for Inactive)
ROOT
ATOM      1  C4' PXY d   1       1.232  -0.444   3.125  0.00  0.00     0.077 C 
ATOM      2  C1' PXY d   1      -0.535   1.196  -2.129  0.00  0.00     0.077 C 
ATOM      3  C1  PXY d   1      -0.072   0.778  -0.747  0.00  0.00    -0.082 A 
ATOM      4  C2  PXY d   1       0.611  -0.345  -0.598  0.00  0.00     0.003 A 
ATOM      5  C3  PXY d   1       1.010  -0.754   0.649  0.00  0.00     0.003 A 
ATOM      6  C4  PXY d   1       0.753   0.022   1.747  0.00  0.00    -0.082 A 
ATOM      7  C5  PXY d   1       0.066   1.175   1.602  0.00  0.00     0.003 A 
ATOM      8  C6  PXY d   1      -0.366   1.551   0.333  0.00  0.00     0.003 A 
ENDROOT
TORSDOF 0
ENDMDL
