MODEL 1
REMARK minimizedAffinity -3.14086413
REMARK minimizedRMSD -1
REMARK  0 active torsions:
REMARK  status: ('A' for Active; 'I' for Inactive)
ROOT
ATOM      1  C4' PXY d   1       1.212  -2.789  -1.270  0.00  0.00     0.077 C 
ATOM      2  C1' PXY d   1      -0.118   2.059   1.584  0.00  0.00     0.077 C 
ATOM      3  C1  PXY d   1       0.221   0.790   0.827  0.00  0.00    -0.082 A 
ATOM      4  C2  PXY d   1       0.903  -0.170   1.432  0.00  0.00     0.003 A 
ATOM      5  C3  PXY d   1       1.245  -1.311   0.752  0.00  0.00     0.003 A 
ATOM      6  C4  PXY d   1       0.840  -1.494  -0.543  0.00  0.00    -0.082 A 
ATOM      7  C5  PXY d   1       0.135  -0.524  -1.163  0.00  0.00     0.003 A 
ATOM      8  C6  PXY d   1      -0.167   0.644  -0.469  0.00  0.00     0.003 A 
ENDROOT
TORSDOF 0
ENDMDL
