MODEL 1
REMARK minimizedAffinity -0.264841348
REMARK minimizedRMSD -1
REMARK  0 active torsions:
REMARK  status: ('A' for Active; 'I' for Inactive)
ROOT
ATOM      1  C4' PXY d   1       0.402  -2.436  -1.214  0.00  0.00     0.077 C 
ATOM      2  C1' PXY d   1      -0.109   2.644   1.496  0.00  0.00     0.077 C 
ATOM      3  C1  PXY d   1       0.017   1.316   0.777  0.00  0.00    -0.082 A 
ATOM      4  C2  PXY d   1       0.370   0.236   1.454  0.00  0.00     0.003 A 
ATOM      5  C3  PXY d   1       0.519  -0.967   0.813  0.00  0.00     0.003 A 
ATOM      6  C4  PXY d   1       0.254  -1.076  -0.526  0.00  0.00    -0.082 A 
ATOM      7  C5  PXY d   1      -0.117   0.020  -1.222  0.00  0.00     0.003 A 
ATOM      8  C6  PXY d   1      -0.224   1.240  -0.561  0.00  0.00     0.003 A 
ENDROOT
TORSDOF 0
ENDMDL
