MODEL 1
REMARK minimizedAffinity 1.89592934
REMARK minimizedRMSD -1
REMARK  0 active torsions:
REMARK  status: ('A' for Active; 'I' for Inactive)
ROOT
ATOM      1  C4' PXY d   1      -0.011  -4.589  -0.778  0.00  0.00     0.077 C 
ATOM      2  C1' PXY d   1       0.384   1.094  -1.759  0.00  0.00     0.077 C 
ATOM      3  C1  PXY d   1       0.293  -0.397  -1.502  0.00  0.00    -0.082 A 
ATOM      4  C2  PXY d   1      -0.788  -1.061  -1.877  0.00  0.00     0.003 A 
ATOM      5  C3  PXY d   1      -0.900  -2.404  -1.623  0.00  0.00     0.003 A 
ATOM      6  C4  PXY d   1       0.128  -3.084  -1.027  0.00  0.00    -0.082 A 
ATOM      7  C5  PXY d   1       1.238  -2.416  -0.650  0.00  0.00     0.003 A 
ATOM      8  C6  PXY d   1       1.315  -1.045  -0.880  0.00  0.00     0.003 A 
ENDROOT
TORSDOF 0
ENDMDL
