MODEL 1
REMARK minimizedAffinity -4.6883049
REMARK minimizedRMSD -1
REMARK  0 active torsions:
REMARK  status: ('A' for Active; 'I' for Inactive)
ROOT
ATOM      1  C4' PXY d   1      -0.750   2.706   1.941  0.00  0.00     0.077 C 
ATOM      2  C1' PXY d   1       0.414  -1.972  -1.250  0.00  0.00     0.077 C 
ATOM      3  C1  PXY d   1       0.105  -0.739  -0.424  0.00  0.00    -0.082 A 
ATOM      4  C2  PXY d   1       0.721  -0.554   0.732  0.00  0.00     0.003 A 
ATOM      5  C3  PXY d   1       0.430   0.539   1.507  0.00  0.00     0.003 A 
ATOM      6  C4  PXY d   1      -0.463   1.480   1.069  0.00  0.00    -0.082 A 
ATOM      7  C5  PXY d   1      -1.088   1.305  -0.114  0.00  0.00     0.003 A 
ATOM      8  C6  PXY d   1      -0.809   0.168  -0.867  0.00  0.00     0.003 A 
ENDROOT
TORSDOF 0
ENDMDL
