MODEL 1
REMARK minimizedAffinity -3.75361204
REMARK minimizedRMSD -1
REMARK  0 active torsions:
REMARK  status: ('A' for Active; 'I' for Inactive)
ROOT
ATOM      1  C4' PXY d   1       0.760  -1.146  -0.859  0.00  0.00     0.077 C 
ATOM      2  C1' PXY d   1      -1.486   3.617   1.525  0.00  0.00     0.077 C 
ATOM      3  C1  PXY d   1      -0.890   2.366   0.911  0.00  0.00    -0.082 A 
ATOM      4  C2  PXY d   1      -0.868   2.230  -0.405  0.00  0.00     0.003 A 
ATOM      5  C3  PXY d   1      -0.362   1.091  -0.977  0.00  0.00     0.003 A 
ATOM      6  C4  PXY d   1       0.176   0.104  -0.195  0.00  0.00    -0.082 A 
ATOM      7  C5  PXY d   1       0.167   0.240   1.148  0.00  0.00     0.003 A 
ATOM      8  C6  PXY d   1      -0.389   1.385   1.710  0.00  0.00     0.003 A 
ENDROOT
TORSDOF 0
ENDMDL
