MODEL 1
REMARK minimizedAffinity -4.93236113
REMARK minimizedRMSD -1
REMARK  0 active torsions:
REMARK  status: ('A' for Active; 'I' for Inactive)
ROOT
ATOM      1  C4' PXY d   1      -0.480   3.481  -1.795  0.00  0.00     0.077 C 
ATOM      2  C1' PXY d   1      -0.327  -0.101   2.739  0.00  0.00     0.077 C 
ATOM      3  C1  PXY d   1      -0.375   0.846   1.557  0.00  0.00    -0.082 A 
ATOM      4  C2  PXY d   1      -0.152   0.383   0.338  0.00  0.00     0.003 A 
ATOM      5  C3  PXY d   1      -0.160   1.232  -0.739  0.00  0.00     0.003 A 
ATOM      6  C4  PXY d   1      -0.451   2.559  -0.573  0.00  0.00    -0.082 A 
ATOM      7  C5  PXY d   1      -0.690   3.038   0.667  0.00  0.00     0.003 A 
ATOM      8  C6  PXY d   1      -0.637   2.167   1.751  0.00  0.00     0.003 A 
ENDROOT
TORSDOF 0
ENDMDL
