MODEL 1
REMARK minimizedAffinity 1.3253504
REMARK minimizedRMSD -1
REMARK  0 active torsions:
REMARK  status: ('A' for Active; 'I' for Inactive)
ROOT
ATOM      1  C4' PXY d   1       1.709  -5.597  -0.378  0.00  0.00     0.077 C 
ATOM      2  C1' PXY d   1      -2.759  -2.971  -2.938  0.00  0.00     0.077 C 
ATOM      3  C1  PXY d   1      -1.586  -3.649  -2.258  0.00  0.00    -0.082 A 
ATOM      4  C2  PXY d   1      -0.873  -4.544  -2.923  0.00  0.00     0.003 A 
ATOM      5  C3  PXY d   1       0.171  -5.191  -2.313  0.00  0.00     0.003 A 
ATOM      6  C4  PXY d   1       0.522  -4.880  -1.027  0.00  0.00    -0.082 A 
ATOM      7  C5  PXY d   1      -0.194  -3.960  -0.345  0.00  0.00     0.003 A 
ATOM      8  C6  PXY d   1      -1.275  -3.345  -0.969  0.00  0.00     0.003 A 
ENDROOT
TORSDOF 0
ENDMDL
