MODEL 1
REMARK minimizedAffinity -3.92543507
REMARK minimizedRMSD -1
REMARK  0 active torsions:
REMARK  status: ('A' for Active; 'I' for Inactive)
ROOT
ATOM      1  C   UNL d   1       2.272  -1.057  -0.046  0.00  0.00     0.077 C 
ATOM      2  C1  UNL d   1       0.925  -0.444   0.196  0.00  0.00    -0.074 A 
ATOM      3  C2  UNL d   1      -0.160  -0.739  -0.636  0.00  0.00    -0.005 A 
ATOM      4  C3  UNL d   1      -1.409  -0.168  -0.392  0.00  0.00     0.006 A 
ATOM      5  C4  UNL d   1      -1.586   0.702   0.684  0.00  0.00    -0.005 A 
ATOM      6  C5  UNL d   1      -0.514   1.008   1.528  0.00  0.00    -0.074 A 
ATOM      7  C6  UNL d   1      -0.690   1.933   2.695  0.00  0.00     0.077 C 
ATOM      8  C7  UNL d   1       0.737   0.425   1.281  0.00  0.00    -0.001 A 
ENDROOT
TORSDOF 0
ENDMDL
