MODEL 1
REMARK minimizedAffinity -4.24638557
REMARK minimizedRMSD -1
REMARK  0 active torsions:
REMARK  status: ('A' for Active; 'I' for Inactive)
ROOT
ATOM      1  C   UNL d   1       2.404  -1.283   0.340  0.00  0.00     0.077 C 
ATOM      2  C1  UNL d   1       1.099  -0.559   0.484  0.00  0.00    -0.074 A 
ATOM      3  C2  UNL d   1       0.061  -0.759  -0.432  0.00  0.00    -0.005 A 
ATOM      4  C3  UNL d   1      -1.151  -0.086  -0.280  0.00  0.00     0.006 A 
ATOM      5  C4  UNL d   1      -1.337   0.793   0.788  0.00  0.00    -0.005 A 
ATOM      6  C5  UNL d   1      -0.311   1.005   1.714  0.00  0.00    -0.074 A 
ATOM      7  C6  UNL d   1      -0.498   1.939   2.873  0.00  0.00     0.077 C 
ATOM      8  C7  UNL d   1       0.901   0.320   1.559  0.00  0.00    -0.001 A 
ENDROOT
TORSDOF 0
ENDMDL
