MODEL 1
REMARK minimizedAffinity -4.86631012
REMARK minimizedRMSD -1
REMARK  0 active torsions:
REMARK  status: ('A' for Active; 'I' for Inactive)
ROOT
ATOM      1  C   UNL d   1      -0.073   1.658   3.236  0.00  0.00     0.077 C 
ATOM      2  C1  UNL d   1      -0.423   1.036   1.918  0.00  0.00    -0.074 A 
ATOM      3  C2  UNL d   1      -1.754   0.944   1.498  0.00  0.00    -0.005 A 
ATOM      4  C3  UNL d   1      -2.064   0.371   0.264  0.00  0.00     0.006 A 
ATOM      5  C4  UNL d   1      -1.049  -0.115  -0.560  0.00  0.00    -0.005 A 
ATOM      6  C5  UNL d   1       0.288  -0.032  -0.157  0.00  0.00    -0.074 A 
ATOM      7  C6  UNL d   1       1.392  -0.540  -1.035  0.00  0.00     0.077 C 
ATOM      8  C7  UNL d   1       0.592   0.552   1.081  0.00  0.00    -0.001 A 
ENDROOT
TORSDOF 0
ENDMDL
