MODEL 1
REMARK minimizedAffinity -3.91188574
REMARK minimizedRMSD -1
REMARK  0 active torsions:
REMARK  status: ('A' for Active; 'I' for Inactive)
ROOT
ATOM      1  C   UNL d   1      -0.507   1.955   2.639  0.00  0.00     0.077 C 
ATOM      2  C1  UNL d   1      -0.601   1.006   1.481  0.00  0.00    -0.074 A 
ATOM      3  C2  UNL d   1      -1.587   0.015   1.441  0.00  0.00    -0.005 A 
ATOM      4  C3  UNL d   1      -1.667  -0.854   0.353  0.00  0.00     0.006 A 
ATOM      5  C4  UNL d   1      -0.764  -0.741  -0.705  0.00  0.00    -0.005 A 
ATOM      6  C5  UNL d   1       0.228   0.244  -0.683  0.00  0.00    -0.074 A 
ATOM      7  C6  UNL d   1       1.200   0.386  -1.816  0.00  0.00     0.077 C 
ATOM      8  C7  UNL d   1       0.298   1.118   0.411  0.00  0.00    -0.001 A 
ENDROOT
TORSDOF 0
ENDMDL
