MODEL 1
REMARK minimizedAffinity -2.76209927
REMARK minimizedRMSD -1
REMARK  0 active torsions:
REMARK  status: ('A' for Active; 'I' for Inactive)
ROOT
ATOM      1  C   UNL d   1      -1.017   1.534   2.810  0.00  0.00     0.077 C 
ATOM      2  C1  UNL d   1      -0.805   0.715   1.571  0.00  0.00    -0.074 A 
ATOM      3  C2  UNL d   1      -1.812   0.593   0.609  0.00  0.00    -0.005 A 
ATOM      4  C3  UNL d   1      -1.597  -0.164  -0.543  0.00  0.00     0.006 A 
ATOM      5  C4  UNL d   1      -0.374  -0.806  -0.743  0.00  0.00    -0.005 A 
ATOM      6  C5  UNL d   1       0.645  -0.695   0.208  0.00  0.00    -0.074 A 
ATOM      7  C6  UNL d   1       1.969  -1.370   0.003  0.00  0.00     0.077 C 
ATOM      8  C7  UNL d   1       0.423   0.074   1.359  0.00  0.00    -0.001 A 
ENDROOT
TORSDOF 0
ENDMDL
