MODEL 1
REMARK minimizedAffinity -2.9126265
REMARK minimizedRMSD -1
REMARK  0 active torsions:
REMARK  status: ('A' for Active; 'I' for Inactive)
ROOT
ATOM      1  C   UNL d   1       1.013   1.820   2.123  0.00  0.00     0.077 C 
ATOM      2  C1  UNL d   1       0.583   0.849   1.064  0.00  0.00    -0.074 A 
ATOM      3  C2  UNL d   1       1.526   0.122   0.330  0.00  0.00    -0.005 A 
ATOM      4  C3  UNL d   1       1.111  -0.785  -0.645  0.00  0.00     0.006 A 
ATOM      5  C4  UNL d   1      -0.249  -0.973  -0.896  0.00  0.00    -0.005 A 
ATOM      6  C5  UNL d   1      -1.206  -0.256  -0.172  0.00  0.00    -0.074 A 
ATOM      7  C6  UNL d   1      -2.672  -0.453  -0.422  0.00  0.00     0.077 C 
ATOM      8  C7  UNL d   1      -0.781   0.648   0.812  0.00  0.00    -0.001 A 
ENDROOT
TORSDOF 0
ENDMDL
