MODEL 1
REMARK minimizedAffinity -4.77645159
REMARK minimizedRMSD -1
REMARK  0 active torsions:
REMARK  status: ('A' for Active; 'I' for Inactive)
ROOT
ATOM      1  C   UNL d   1      -0.050   1.740   3.092  0.00  0.00     0.077 C 
ATOM      2  C1  UNL d   1      -0.444   0.984   1.858  0.00  0.00    -0.074 A 
ATOM      3  C2  UNL d   1      -1.634   0.252   1.813  0.00  0.00    -0.005 A 
ATOM      4  C3  UNL d   1      -1.992  -0.438   0.655  0.00  0.00     0.006 A 
ATOM      5  C4  UNL d   1      -1.164  -0.404  -0.468  0.00  0.00    -0.005 A 
ATOM      6  C5  UNL d   1       0.030   0.324  -0.442  0.00  0.00    -0.074 A 
ATOM      7  C6  UNL d   1       0.926   0.379  -1.643  0.00  0.00     0.077 C 
ATOM      8  C7  UNL d   1       0.379   1.021   0.723  0.00  0.00    -0.001 A 
ENDROOT
TORSDOF 0
ENDMDL
