MODEL 1
REMARK minimizedAffinity -4.75274181
REMARK minimizedRMSD -1
REMARK  0 active torsions:
REMARK  status: ('A' for Active; 'I' for Inactive)
ROOT
ATOM      1  C   UNL d   1      -0.130   1.843   3.110  0.00  0.00     0.077 C 
ATOM      2  C1  UNL d   1      -0.055   0.695   2.148  0.00  0.00    -0.074 A 
ATOM      3  C2  UNL d   1      -1.172   0.312   1.397  0.00  0.00    -0.005 A 
ATOM      4  C3  UNL d   1      -1.084  -0.751   0.499  0.00  0.00     0.006 A 
ATOM      5  C4  UNL d   1       0.118  -1.442   0.343  0.00  0.00    -0.005 A 
ATOM      6  C5  UNL d   1       1.245  -1.072   1.084  0.00  0.00    -0.074 A 
ATOM      7  C6  UNL d   1       2.548  -1.797   0.920  0.00  0.00     0.077 C 
ATOM      8  C7  UNL d   1       1.151   0.002   1.979  0.00  0.00    -0.001 A 
ENDROOT
TORSDOF 0
ENDMDL
