MODEL 1
REMARK minimizedAffinity -2.9234705
REMARK minimizedRMSD -1
REMARK  0 active torsions:
REMARK  status: ('A' for Active; 'I' for Inactive)
ROOT
ATOM      1  C   UNL d   1      -0.224   1.760   2.879  0.00  0.00     0.077 C 
ATOM      2  C1  UNL d   1      -0.590   0.988   1.646  0.00  0.00    -0.074 A 
ATOM      3  C2  UNL d   1      -1.928   0.743   1.322  0.00  0.00    -0.005 A 
ATOM      4  C3  UNL d   1      -2.253   0.031   0.168  0.00  0.00     0.006 A 
ATOM      5  C4  UNL d   1      -1.245  -0.441  -0.674  0.00  0.00    -0.005 A 
ATOM      6  C5  UNL d   1       0.099  -0.205  -0.367  0.00  0.00    -0.074 A 
ATOM      7  C6  UNL d   1       1.194  -0.697  -1.266  0.00  0.00     0.077 C 
ATOM      8  C7  UNL d   1       0.417   0.517   0.792  0.00  0.00    -0.001 A 
ENDROOT
TORSDOF 0
ENDMDL
