MODEL 1
REMARK minimizedAffinity -2.03581977
REMARK minimizedRMSD -1
REMARK  0 active torsions:
REMARK  status: ('A' for Active; 'I' for Inactive)
ROOT
ATOM      1  C1  DEN d   1      -0.967   1.486   0.382  0.00  0.00     0.130 A 
ATOM      2  C2  DEN d   1      -1.803   0.338   0.723  0.00  0.00    -0.031 A 
ATOM      3  C3  DEN d   1      -1.131  -0.880   0.230  0.00  0.00     0.027 A 
ATOM      4  C4  DEN d   1       1.115  -1.101  -1.019  0.00  0.00     0.027 A 
ATOM      5  C5  DEN d   1       2.180  -0.404  -1.545  0.00  0.00    -0.003 A 
ATOM      6  C6  DEN d   1       2.254   0.963  -1.497  0.00  0.00     0.001 A 
ATOM      7  C7  DEN d   1       1.266   1.674  -0.869  0.00  0.00     0.017 A 
ATOM      8  C8  DEN d   1       0.185   0.979  -0.342  0.00  0.00    -0.094 A 
ATOM      9  C9  DEN d   1       0.135  -0.404  -0.391  0.00  0.00    -0.072 A 
ENDROOT
TORSDOF 0
ENDMDL
