MODEL 1
REMARK minimizedAffinity 2.89756918
REMARK minimizedRMSD -1
REMARK  0 active torsions:
REMARK  status: ('A' for Active; 'I' for Inactive)
ROOT
ATOM      1  C1  DEN d   1       1.719  -3.816   1.181  0.00  0.00     0.130 A 
ATOM      2  C2  DEN d   1       2.617  -4.939   1.433  0.00  0.00    -0.031 A 
ATOM      3  C3  DEN d   1       3.929  -4.617   0.836  0.00  0.00     0.027 A 
ATOM      4  C4  DEN d   1       4.654  -2.498  -0.442  0.00  0.00     0.027 A 
ATOM      5  C5  DEN d   1       4.234  -1.274  -0.916  0.00  0.00    -0.003 A 
ATOM      6  C6  DEN d   1       2.949  -0.830  -0.755  0.00  0.00     0.001 A 
ATOM      7  C7  DEN d   1       2.048  -1.597  -0.064  0.00  0.00     0.017 A 
ATOM      8  C8  DEN d   1       2.461  -2.835   0.411  0.00  0.00    -0.094 A 
ATOM      9  C9  DEN d   1       3.768  -3.260   0.248  0.00  0.00    -0.072 A 
ENDROOT
TORSDOF 0
ENDMDL
