MODEL 1
REMARK minimizedAffinity 6.01969337
REMARK minimizedRMSD -1
REMARK  0 active torsions:
REMARK  status: ('A' for Active; 'I' for Inactive)
ROOT
ATOM      1  C1  DEN d   1       1.574  -2.799   0.484  0.00  0.00     0.130 A 
ATOM      2  C2  DEN d   1       2.226  -1.992  -0.545  0.00  0.00    -0.031 A 
ATOM      3  C3  DEN d   1       3.469  -2.682  -0.946  0.00  0.00     0.027 A 
ATOM      4  C4  DEN d   1       4.440  -4.910  -0.082  0.00  0.00     0.027 A 
ATOM      5  C5  DEN d   1       4.248  -5.951   0.799  0.00  0.00    -0.003 A 
ATOM      6  C6  DEN d   1       3.179  -5.997   1.653  0.00  0.00     0.001 A 
ATOM      7  C7  DEN d   1       2.235  -5.005   1.614  0.00  0.00     0.017 A 
ATOM      8  C8  DEN d   1       2.425  -3.948   0.733  0.00  0.00    -0.094 A 
ATOM      9  C9  DEN d   1       3.506  -3.926  -0.131  0.00  0.00    -0.072 A 
ENDROOT
TORSDOF 0
ENDMDL
