MODEL 1
REMARK minimizedAffinity 2.59239888
REMARK minimizedRMSD -1
REMARK  0 active torsions:
REMARK  status: ('A' for Active; 'I' for Inactive)
ROOT
ATOM      1  C1  DEN d   1       2.332  -3.419   0.041  0.00  0.00     0.130 A 
ATOM      2  C2  DEN d   1       3.635  -4.077   0.086  0.00  0.00    -0.031 A 
ATOM      3  C3  DEN d   1       4.674  -3.045  -0.103  0.00  0.00     0.027 A 
ATOM      4  C4  DEN d   1       4.394  -0.505  -0.453  0.00  0.00     0.027 A 
ATOM      5  C5  DEN d   1       3.478   0.517  -0.576  0.00  0.00    -0.003 A 
ATOM      6  C6  DEN d   1       2.127   0.295  -0.537  0.00  0.00     0.001 A 
ATOM      7  C7  DEN d   1       1.653  -0.972  -0.325  0.00  0.00     0.017 A 
ATOM      8  C8  DEN d   1       2.569  -2.009  -0.207  0.00  0.00    -0.094 A 
ATOM      9  C9  DEN d   1       3.932  -1.763  -0.237  0.00  0.00    -0.072 A 
ENDROOT
TORSDOF 0
ENDMDL
