MODEL 1
REMARK minimizedAffinity 8.92451096
REMARK minimizedRMSD -1
REMARK  0 active torsions:
REMARK  status: ('A' for Active; 'I' for Inactive)
ROOT
ATOM      1  C1  DEN d   1      -4.005   1.078   2.662  0.00  0.00     0.130 A 
ATOM      2  C2  DEN d   1      -5.303   0.596   2.198  0.00  0.00    -0.031 A 
ATOM      3  C3  DEN d   1      -5.076  -0.267   1.021  0.00  0.00     0.027 A 
ATOM      4  C4  DEN d   1      -2.852  -0.904  -0.118  0.00  0.00     0.027 A 
ATOM      5  C5  DEN d   1      -1.486  -0.730  -0.090  0.00  0.00    -0.003 A 
ATOM      6  C6  DEN d   1      -0.872   0.080   0.828  0.00  0.00     0.001 A 
ATOM      7  C7  DEN d   1      -1.622   0.710   1.786  0.00  0.00     0.017 A 
ATOM      8  C8  DEN d   1      -3.000   0.545   1.759  0.00  0.00    -0.094 A 
ATOM      9  C9  DEN d   1      -3.601  -0.287   0.830  0.00  0.00    -0.072 A 
ENDROOT
TORSDOF 0
ENDMDL
