MODEL 1
REMARK minimizedAffinity 2.26131845
REMARK minimizedRMSD -1
REMARK  0 active torsions:
REMARK  status: ('A' for Active; 'I' for Inactive)
ROOT
ATOM      1  C1  BNZ d   1       2.970   0.955   0.740  0.00  0.00     0.000 A 
ATOM      2  C2  BNZ d   1       2.669  -0.318   1.143  0.00  0.00     0.000 A 
ATOM      3  C3  BNZ d   1       2.388  -0.589   2.453  0.00  0.00     0.000 A 
ATOM      4  C4  BNZ d   1       2.447   0.404   3.363  0.00  0.00     0.000 A 
ATOM      5  C5  BNZ d   1       2.758   1.692   2.974  0.00  0.00     0.000 A 
ATOM      6  C6  BNZ d   1       3.002   1.968   1.648  0.00  0.00     0.000 A 
ENDROOT
TORSDOF 0
ENDMDL
