MODEL 1
REMARK minimizedAffinity 3.07266808
REMARK minimizedRMSD -1
REMARK  0 active torsions:
REMARK  status: ('A' for Active; 'I' for Inactive)
ROOT
ATOM      1  C1  BNZ d   1       5.359   0.101  -5.999  0.00  0.00     0.000 A 
ATOM      2  C2  BNZ d   1       4.502   0.632  -5.072  0.00  0.00     0.000 A 
ATOM      3  C3  BNZ d   1       3.909  -0.163  -4.132  0.00  0.00     0.000 A 
ATOM      4  C4  BNZ d   1       4.142  -1.492  -4.144  0.00  0.00     0.000 A 
ATOM      5  C5  BNZ d   1       4.997  -2.043  -5.078  0.00  0.00     0.000 A 
ATOM      6  C6  BNZ d   1       5.622  -1.234  -5.999  0.00  0.00     0.000 A 
ENDROOT
TORSDOF 0
ENDMDL
