MODEL 1
REMARK minimizedAffinity 2.02733803
REMARK minimizedRMSD -1
REMARK  0 active torsions:
REMARK  status: ('A' for Active; 'I' for Inactive)
ROOT
ATOM      1  C1  BNZ d   1       3.367  -3.069  -2.941  0.00  0.00     0.000 A 
ATOM      2  C2  BNZ d   1       4.038  -2.138  -3.688  0.00  0.00     0.000 A 
ATOM      3  C3  BNZ d   1       3.358  -1.226  -4.446  0.00  0.00     0.000 A 
ATOM      4  C4  BNZ d   1       2.011  -1.272  -4.488  0.00  0.00     0.000 A 
ATOM      5  C5  BNZ d   1       1.320  -2.211  -3.748  0.00  0.00     0.000 A 
ATOM      6  C6  BNZ d   1       2.006  -3.102  -2.956  0.00  0.00     0.000 A 
ENDROOT
TORSDOF 0
ENDMDL
