MODEL 1
REMARK minimizedAffinity 6.43029022
REMARK minimizedRMSD -1
REMARK  0 active torsions:
REMARK  status: ('A' for Active; 'I' for Inactive)
ROOT
ATOM      1  C1  BNZ d   1       1.133  -1.357   0.750  0.00  0.00     0.000 A 
ATOM      2  C2  BNZ d   1       1.054  -2.404   1.629  0.00  0.00     0.000 A 
ATOM      3  C3  BNZ d   1       1.293  -2.219   2.962  0.00  0.00     0.000 A 
ATOM      4  C4  BNZ d   1       1.650  -0.998   3.408  0.00  0.00     0.000 A 
ATOM      5  C5  BNZ d   1       1.744   0.066   2.533  0.00  0.00     0.000 A 
ATOM      6  C6  BNZ d   1       1.464  -0.115   1.198  0.00  0.00     0.000 A 
ENDROOT
TORSDOF 0
ENDMDL
