MODEL 1
REMARK minimizedAffinity 3.07283425
REMARK minimizedRMSD -1
REMARK  0 active torsions:
REMARK  status: ('A' for Active; 'I' for Inactive)
ROOT
ATOM      1  C1  BNZ d   1       1.641  -0.575   1.912  0.00  0.00     0.000 A 
ATOM      2  C2  BNZ d   1       0.674  -1.252   1.219  0.00  0.00     0.000 A 
ATOM      3  C3  BNZ d   1       0.645  -2.619   1.212  0.00  0.00     0.000 A 
ATOM      4  C4  BNZ d   1       1.605  -3.306   1.864  0.00  0.00     0.000 A 
ATOM      5  C5  BNZ d   1       2.593  -2.637   2.559  0.00  0.00     0.000 A 
ATOM      6  C6  BNZ d   1       2.596  -1.262   2.596  0.00  0.00     0.000 A 
ENDROOT
TORSDOF 0
ENDMDL
