MODEL 1
REMARK minimizedAffinity -1.99340534
REMARK minimizedRMSD -1
REMARK  0 active torsions:
REMARK  status: ('A' for Active; 'I' for Inactive)
ROOT
ATOM      1  C1  BNZ d   1       3.720   5.374  -2.917  0.00  0.00     0.000 A 
ATOM      2  C2  BNZ d   1       3.709   5.390  -4.286  0.00  0.00     0.000 A 
ATOM      3  C3  BNZ d   1       4.844   5.680  -4.991  0.00  0.00     0.000 A 
ATOM      4  C4  BNZ d   1       5.975   5.993  -4.327  0.00  0.00     0.000 A 
ATOM      5  C5  BNZ d   1       5.999   5.990  -2.947  0.00  0.00     0.000 A 
ATOM      6  C6  BNZ d   1       4.866   5.659  -2.241  0.00  0.00     0.000 A 
ENDROOT
TORSDOF 0
ENDMDL
