MODEL 1
REMARK minimizedAffinity 5.32002783
REMARK minimizedRMSD -1
REMARK  0 active torsions:
REMARK  status: ('A' for Active; 'I' for Inactive)
ROOT
ATOM      1  C1  BNZ d   1      -4.167   1.511  -3.654  0.00  0.00     0.000 A 
ATOM      2  C2  BNZ d   1      -4.175   1.498  -2.284  0.00  0.00     0.000 A 
ATOM      3  C3  BNZ d   1      -5.105   2.212  -1.583  0.00  0.00     0.000 A 
ATOM      4  C4  BNZ d   1      -6.000   2.970  -2.249  0.00  0.00     0.000 A 
ATOM      5  C5  BNZ d   1      -5.999   3.001  -3.630  0.00  0.00     0.000 A 
ATOM      6  C6  BNZ d   1      -5.086   2.250  -4.333  0.00  0.00     0.000 A 
ENDROOT
TORSDOF 0
ENDMDL
