MODEL 1
REMARK minimizedAffinity 0.325612307
REMARK minimizedRMSD -1
REMARK  0 active torsions:
REMARK  status: ('A' for Active; 'I' for Inactive)
ROOT
ATOM      1  C1  BNZ d   1       4.848  -2.231  -4.710  0.00  0.00     0.000 A 
ATOM      2  C2  BNZ d   1       3.678  -1.786  -4.156  0.00  0.00     0.000 A 
ATOM      3  C3  BNZ d   1       3.643  -0.629  -3.429  0.00  0.00     0.000 A 
ATOM      4  C4  BNZ d   1       4.784   0.059  -3.222  0.00  0.00     0.000 A 
ATOM      5  C5  BNZ d   1       5.974  -0.381  -3.767  0.00  0.00     0.000 A 
ATOM      6  C6  BNZ d   1       5.998  -1.525  -4.531  0.00  0.00     0.000 A 
ENDROOT
TORSDOF 0
ENDMDL
