MODEL 1
REMARK minimizedAffinity -4.70621967
REMARK minimizedRMSD -1
REMARK  2 active torsions:
REMARK  status: ('A' for Active; 'I' for Inactive)
REMARK    1  A    between atoms: C1_2  and  C2_3 
REMARK    2  A    between atoms: C2_3  and  C3_4 
ROOT
ATOM      1  C3  UNL d   1       0.261  -1.847  -1.208  0.00  0.00    -0.075 A 
ATOM      2  C4  UNL d   1       1.000  -2.521  -0.226  0.00  0.00     0.002 A 
ATOM      3  C5  UNL d   1       1.485  -1.838   0.890  0.00  0.00     0.002 A 
ATOM      4  C6  UNL d   1       1.248  -0.472   1.031  0.00  0.00    -0.004 A 
ATOM      5  C7  UNL d   1       0.529   0.211   0.052  0.00  0.00     0.002 A 
ATOM      6  C8  UNL d   1       0.038  -0.471  -1.062  0.00  0.00     0.002 A 
ENDROOT
BRANCH   1   7
ATOM      7  C2  UNL d   1      -0.292  -2.587  -2.403  0.00  0.00     0.056 C 
BRANCH   7   8
ATOM      8  C1  UNL d   1      -0.758  -1.674  -3.542  0.00  0.00     0.007 C 
ATOM      9  C   UNL d   1      -0.923  -2.404  -4.868  0.00  0.00     0.009 C 
ENDBRANCH   7   8
ENDBRANCH   1   7
TORSDOF 2
ENDMDL
