MODEL 1
REMARK minimizedAffinity -2.05602098
REMARK minimizedRMSD -1
REMARK  2 active torsions:
REMARK  status: ('A' for Active; 'I' for Inactive)
REMARK    1  A    between atoms: C1_2  and  C2_3 
REMARK    2  A    between atoms: C2_3  and  C3_4 
ROOT
ATOM      1  C3  UNL d   1       0.666  -0.736  -0.769  0.00  0.00    -0.075 A 
ATOM      2  C4  UNL d   1       0.249   0.549  -0.395  0.00  0.00     0.002 A 
ATOM      3  C5  UNL d   1       0.978   1.289   0.536  0.00  0.00     0.002 A 
ATOM      4  C6  UNL d   1       2.127   0.750   1.112  0.00  0.00    -0.004 A 
ATOM      5  C7  UNL d   1       2.542  -0.533   0.760  0.00  0.00     0.002 A 
ATOM      6  C8  UNL d   1       1.816  -1.273  -0.174  0.00  0.00     0.002 A 
ENDROOT
BRANCH   1   7
ATOM      7  C2  UNL d   1      -0.103  -1.530  -1.798  0.00  0.00     0.056 C 
BRANCH   7   8
ATOM      8  C1  UNL d   1      -0.982  -0.675  -2.716  0.00  0.00     0.007 C 
ATOM      9  C   UNL d   1      -1.160  -1.273  -4.105  0.00  0.00     0.009 C 
ENDBRANCH   7   8
ENDBRANCH   1   7
TORSDOF 2
ENDMDL
