MODEL 1
REMARK minimizedAffinity -3.72616243
REMARK minimizedRMSD -1
REMARK  2 active torsions:
REMARK  status: ('A' for Active; 'I' for Inactive)
REMARK    1  A    between atoms: C1_2  and  C2_3 
REMARK    2  A    between atoms: C2_3  and  C3_4 
ROOT
ATOM      1  C3  UNL d   1       0.581  -1.042  -0.544  0.00  0.00    -0.075 A 
ATOM      2  C4  UNL d   1       1.883  -1.563  -0.571  0.00  0.00     0.002 A 
ATOM      3  C5  UNL d   1       2.811  -1.202   0.405  0.00  0.00     0.002 A 
ATOM      4  C6  UNL d   1       2.454  -0.310   1.414  0.00  0.00    -0.004 A 
ATOM      5  C7  UNL d   1       1.169   0.227   1.442  0.00  0.00     0.002 A 
ATOM      6  C8  UNL d   1       0.236  -0.136   0.468  0.00  0.00     0.002 A 
ENDROOT
BRANCH   1   7
ATOM      7  C2  UNL d   1      -0.437  -1.452  -1.581  0.00  0.00     0.056 C 
BRANCH   7   8
ATOM      8  C1  UNL d   1      -1.284  -0.292  -2.116  0.00  0.00     0.007 C 
ATOM      9  C   UNL d   1      -1.879  -0.568  -3.491  0.00  0.00     0.009 C 
ENDBRANCH   7   8
ENDBRANCH   1   7
TORSDOF 2
ENDMDL
