MODEL 1
REMARK minimizedAffinity -3.60215354
REMARK minimizedRMSD -1
REMARK  2 active torsions:
REMARK  status: ('A' for Active; 'I' for Inactive)
REMARK    1  A    between atoms: C1_2  and  C2_3 
REMARK    2  A    between atoms: C2_3  and  C3_4 
ROOT
ATOM      1  C3  UNL d   1       3.019  -0.716  -0.005  0.00  0.00    -0.075 A 
ATOM      2  C4  UNL d   1       3.750   0.416  -0.393  0.00  0.00     0.002 A 
ATOM      3  C5  UNL d   1       4.375   0.463  -1.639  0.00  0.00     0.002 A 
ATOM      4  C6  UNL d   1       4.287  -0.623  -2.507  0.00  0.00    -0.004 A 
ATOM      5  C7  UNL d   1       3.578  -1.760  -2.126  0.00  0.00     0.002 A 
ATOM      6  C8  UNL d   1       2.947  -1.808  -0.881  0.00  0.00     0.002 A 
ENDROOT
BRANCH   1   7
ATOM      7  C2  UNL d   1       2.315  -0.761   1.330  0.00  0.00     0.056 C 
BRANCH   7   8
ATOM      8  C1  UNL d   1       1.208   0.287   1.487  0.00  0.00     0.007 C 
ATOM      9  C   UNL d   1       0.451   0.560   0.194  0.00  0.00     0.009 C 
ENDBRANCH   7   8
ENDBRANCH   1   7
TORSDOF 2
ENDMDL
