MODEL 1
REMARK minimizedAffinity -4.22553444
REMARK minimizedRMSD -1
REMARK  1 active torsions:
REMARK  status: ('A' for Active; 'I' for Inactive)
REMARK    1  A    between atoms: C1_2  and  C2_3 
ROOT
ATOM      1  C2  UNL d   1      -1.384   0.617  -1.748  0.00  0.00    -0.081 A 
ATOM      2  C3  UNL d   1      -1.095  -0.740  -1.936  0.00  0.00     0.006 A 
ATOM      3  C4  UNL d   1      -0.687  -1.532  -0.860  0.00  0.00     0.002 A 
ATOM      4  C5  UNL d   1      -0.569  -0.983   0.421  0.00  0.00    -0.080 A 
ATOM      5  C6  UNL d   1      -0.161  -1.830   1.590  0.00  0.00     0.076 C 
ATOM      6  C7  UNL d   1      -0.842   0.377   0.605  0.00  0.00     0.002 A 
ATOM      7  C8  UNL d   1      -1.249   1.169  -0.470  0.00  0.00     0.006 A 
ENDROOT
BRANCH   1   8
ATOM      8  C1  UNL d   1      -1.887   1.459  -2.893  0.00  0.00     0.054 C 
ATOM      9  C   UNL d   1      -3.384   1.276  -3.099  0.00  0.00     0.018 C 
ENDBRANCH   1   8
TORSDOF 1
ENDMDL
