MODEL 1
REMARK minimizedAffinity 1.75787282
REMARK minimizedRMSD -1
REMARK  1 active torsions:
REMARK  status: ('A' for Active; 'I' for Inactive)
REMARK    1  A    between atoms: C1_2  and  C2_3 
ROOT
ATOM      1  C2  UNL d   1      -1.222   0.596  -0.817  0.00  0.00    -0.081 A 
ATOM      2  C3  UNL d   1      -0.193  -0.332  -0.614  0.00  0.00     0.006 A 
ATOM      3  C4  UNL d   1      -0.053  -0.975   0.618  0.00  0.00     0.002 A 
ATOM      4  C5  UNL d   1      -0.943  -0.708   1.664  0.00  0.00    -0.080 A 
ATOM      5  C6  UNL d   1      -0.821  -1.414   2.982  0.00  0.00     0.076 C 
ATOM      6  C7  UNL d   1      -1.960   0.232   1.467  0.00  0.00     0.002 A 
ATOM      7  C8  UNL d   1      -2.100   0.876   0.236  0.00  0.00     0.006 A 
ENDROOT
BRANCH   1   8
ATOM      8  C1  UNL d   1      -1.415   1.243  -2.164  0.00  0.00     0.054 C 
ATOM      9  C   UNL d   1      -2.853   1.102  -2.645  0.00  0.00     0.018 C 
ENDBRANCH   1   8
TORSDOF 1
ENDMDL
