MODEL 1
REMARK minimizedAffinity -5.14399338
REMARK minimizedRMSD -1
REMARK  1 active torsions:
REMARK  status: ('A' for Active; 'I' for Inactive)
REMARK    1  A    between atoms: C1_2  and  C2_3 
ROOT
ATOM      1  C2  UNL d   1       0.174   3.024  -0.737  0.00  0.00    -0.081 A 
ATOM      2  C3  UNL d   1      -0.056   3.665  -1.960  0.00  0.00     0.006 A 
ATOM      3  C4  UNL d   1      -0.840   3.056  -2.942  0.00  0.00     0.002 A 
ATOM      4  C5  UNL d   1      -1.412   1.800  -2.716  0.00  0.00    -0.080 A 
ATOM      5  C6  UNL d   1      -2.281   1.148  -3.750  0.00  0.00     0.076 C 
ATOM      6  C7  UNL d   1      -1.168   1.151  -1.500  0.00  0.00     0.002 A 
ATOM      7  C8  UNL d   1      -0.384   1.760  -0.518  0.00  0.00     0.006 A 
ENDROOT
BRANCH   1   8
ATOM      8  C1  UNL d   1       0.966   3.707   0.350  0.00  0.00     0.054 C 
ATOM      9  C   UNL d   1       2.430   3.293   0.311  0.00  0.00     0.018 C 
ENDBRANCH   1   8
TORSDOF 1
ENDMDL
