MODEL 1
REMARK minimizedAffinity -0.505576849
REMARK minimizedRMSD -1
REMARK  1 active torsions:
REMARK  status: ('A' for Active; 'I' for Inactive)
REMARK    1  A    between atoms: C1_2  and  C2_3 
ROOT
ATOM      1  C2  UNL d   1       1.253  -1.397   1.196  0.00  0.00    -0.081 A 
ATOM      2  C3  UNL d   1      -0.086  -1.785   1.327  0.00  0.00     0.006 A 
ATOM      3  C4  UNL d   1      -1.088  -1.131   0.607  0.00  0.00     0.002 A 
ATOM      4  C5  UNL d   1      -0.767  -0.083  -0.262  0.00  0.00    -0.080 A 
ATOM      5  C6  UNL d   1      -1.829   0.609  -1.065  0.00  0.00     0.076 C 
ATOM      6  C7  UNL d   1       0.568   0.318  -0.381  0.00  0.00     0.002 A 
ATOM      7  C8  UNL d   1       1.570  -0.336   0.340  0.00  0.00     0.006 A 
ENDROOT
BRANCH   1   8
ATOM      8  C1  UNL d   1       2.342  -2.143   1.922  0.00  0.00     0.054 C 
ATOM      9  C   UNL d   1       3.505  -1.224   2.271  0.00  0.00     0.018 C 
ENDBRANCH   1   8
TORSDOF 1
ENDMDL
