MODEL 1
REMARK minimizedAffinity -1.18759286
REMARK minimizedRMSD -1
REMARK  1 active torsions:
REMARK  status: ('A' for Active; 'I' for Inactive)
REMARK    1  A    between atoms: C1_2  and  C2_3 
ROOT
ATOM      1  C2  UNL d   1       0.815  -0.588  -0.300  0.00  0.00    -0.081 A 
ATOM      2  C3  UNL d   1       0.828  -0.586  -1.700  0.00  0.00     0.006 A 
ATOM      3  C4  UNL d   1      -0.314  -0.223  -2.418  0.00  0.00     0.002 A 
ATOM      4  C5  UNL d   1      -1.484   0.152  -1.749  0.00  0.00    -0.080 A 
ATOM      5  C6  UNL d   1      -2.707   0.573  -2.508  0.00  0.00     0.076 C 
ATOM      6  C7  UNL d   1      -1.503   0.133  -0.350  0.00  0.00     0.002 A 
ATOM      7  C8  UNL d   1      -0.362  -0.231   0.368  0.00  0.00     0.006 A 
ENDROOT
BRANCH   1   8
ATOM      8  C1  UNL d   1       2.064  -0.917   0.478  0.00  0.00     0.054 C 
ATOM      9  C   UNL d   1       1.870  -2.159   1.336  0.00  0.00     0.018 C 
ENDBRANCH   1   8
TORSDOF 1
ENDMDL
