MODEL 1
REMARK minimizedAffinity -4.96858454
REMARK minimizedRMSD -1
REMARK  1 active torsions:
REMARK  status: ('A' for Active; 'I' for Inactive)
REMARK    1  A    between atoms: C1_2  and  C2_3 
ROOT
ATOM      1  C2  UNL d   1      -1.115   1.172  -1.127  0.00  0.00    -0.081 A 
ATOM      2  C3  UNL d   1      -0.533   2.277  -0.494  0.00  0.00     0.006 A 
ATOM      3  C4  UNL d   1       0.770   2.203   0.002  0.00  0.00     0.002 A 
ATOM      4  C5  UNL d   1       1.516   1.027  -0.133  0.00  0.00    -0.080 A 
ATOM      5  C6  UNL d   1       2.927   0.945   0.368  0.00  0.00     0.076 C 
ATOM      6  C7  UNL d   1       0.928  -0.082  -0.750  0.00  0.00     0.002 A 
ATOM      7  C8  UNL d   1      -0.375  -0.009  -1.246  0.00  0.00     0.006 A 
ENDROOT
BRANCH   1   8
ATOM      8  C1  UNL d   1      -2.498   1.269  -1.721  0.00  0.00     0.054 C 
ATOM      9  C   UNL d   1      -2.546   2.294  -2.845  0.00  0.00     0.018 C 
ENDBRANCH   1   8
TORSDOF 1
ENDMDL
