MODEL 1
REMARK minimizedAffinity -2.36411142
REMARK minimizedRMSD -1
REMARK  1 active torsions:
REMARK  status: ('A' for Active; 'I' for Inactive)
REMARK    1  A    between atoms: C1_2  and  C2_3 
ROOT
ATOM      1  C2  UNL d   1      -1.266   0.896  -0.856  0.00  0.00    -0.081 A 
ATOM      2  C3  UNL d   1      -0.592   0.005  -1.700  0.00  0.00     0.006 A 
ATOM      3  C4  UNL d   1       0.228  -0.993  -1.168  0.00  0.00     0.002 A 
ATOM      4  C5  UNL d   1       0.381  -1.122   0.217  0.00  0.00    -0.080 A 
ATOM      5  C6  UNL d   1       1.234  -2.208   0.802  0.00  0.00     0.076 C 
ATOM      6  C7  UNL d   1      -0.279  -0.221   1.060  0.00  0.00     0.002 A 
ATOM      7  C8  UNL d   1      -1.098   0.777   0.528  0.00  0.00     0.006 A 
ENDROOT
BRANCH   1   8
ATOM      8  C1  UNL d   1      -2.202   1.932  -1.425  0.00  0.00     0.054 C 
ATOM      9  C   UNL d   1      -2.896   1.421  -2.679  0.00  0.00     0.018 C 
ENDBRANCH   1   8
TORSDOF 1
ENDMDL
