MODEL 1
REMARK minimizedAffinity -3.37600756
REMARK minimizedRMSD -1
REMARK  1 active torsions:
REMARK  status: ('A' for Active; 'I' for Inactive)
REMARK    1  A    between atoms: C1_2  and  C2_3 
ROOT
ATOM      1  C2  UNL d   1       1.172   2.710   0.152  0.00  0.00    -0.081 A 
ATOM      2  C3  UNL d   1      -0.216   2.531   0.198  0.00  0.00     0.006 A 
ATOM      3  C4  UNL d   1      -0.773   1.265   0.008  0.00  0.00     0.002 A 
ATOM      4  C5  UNL d   1       0.047   0.155  -0.221  0.00  0.00    -0.080 A 
ATOM      5  C6  UNL d   1      -0.537  -1.215  -0.396  0.00  0.00     0.076 C 
ATOM      6  C7  UNL d   1       1.433   0.336  -0.284  0.00  0.00     0.002 A 
ATOM      7  C8  UNL d   1       1.991   1.603  -0.096  0.00  0.00     0.006 A 
ENDROOT
BRANCH   1   8
ATOM      8  C1  UNL d   1       1.780   4.063   0.420  0.00  0.00     0.054 C 
ATOM      9  C   UNL d   1       3.300   4.011   0.350  0.00  0.00     0.018 C 
ENDBRANCH   1   8
TORSDOF 1
ENDMDL
