MODEL 1
REMARK minimizedAffinity -4.14061499
REMARK minimizedRMSD -1
REMARK  1 active torsions:
REMARK  status: ('A' for Active; 'I' for Inactive)
REMARK    1  A    between atoms: C1_2  and  C2_3 
ROOT
ATOM      1  C2  UNL d   1       0.632   0.982  -0.308  0.00  0.00    -0.081 A 
ATOM      2  C3  UNL d   1       1.908   0.565  -0.707  0.00  0.00     0.006 A 
ATOM      3  C4  UNL d   1       2.970   1.471  -0.744  0.00  0.00     0.002 A 
ATOM      4  C5  UNL d   1       2.776   2.807  -0.375  0.00  0.00    -0.080 A 
ATOM      5  C6  UNL d   1       3.915   3.784  -0.382  0.00  0.00     0.076 C 
ATOM      6  C7  UNL d   1       1.498   3.228   0.006  0.00  0.00     0.002 A 
ATOM      7  C8  UNL d   1       0.435   2.322   0.043  0.00  0.00     0.006 A 
ENDROOT
BRANCH   1   8
ATOM      8  C1  UNL d   1      -0.500  -0.008  -0.205  0.00  0.00     0.054 C 
ATOM      9  C   UNL d   1      -0.200  -1.086   0.826  0.00  0.00     0.018 C 
ENDBRANCH   1   8
TORSDOF 1
ENDMDL
