MODEL 1
REMARK minimizedAffinity -3.78479171
REMARK minimizedRMSD -1
REMARK  1 active torsions:
REMARK  status: ('A' for Active; 'I' for Inactive)
REMARK    1  A    between atoms: C1_2  and  C2_3 
ROOT
ATOM      1  C2  UNL d   1       2.200   0.741  -0.377  0.00  0.00    -0.081 A 
ATOM      2  C3  UNL d   1       0.807   0.769  -0.525  0.00  0.00     0.006 A 
ATOM      3  C4  UNL d   1       0.033  -0.329  -0.145  0.00  0.00     0.002 A 
ATOM      4  C5  UNL d   1       0.635  -1.470   0.395  0.00  0.00    -0.080 A 
ATOM      5  C6  UNL d   1      -0.188  -2.644   0.835  0.00  0.00     0.076 C 
ATOM      6  C7  UNL d   1       2.028  -1.506   0.526  0.00  0.00     0.002 A 
ATOM      7  C8  UNL d   1       2.803  -0.408   0.146  0.00  0.00     0.006 A 
ENDROOT
BRANCH   1   8
ATOM      8  C1  UNL d   1       3.032   1.948  -0.726  0.00  0.00     0.054 C 
ATOM      9  C   UNL d   1       2.663   3.144   0.141  0.00  0.00     0.018 C 
ENDBRANCH   1   8
TORSDOF 1
ENDMDL
