MODEL 1
REMARK minimizedAffinity -4.20512819
REMARK minimizedRMSD -1
REMARK  1 active torsions:
REMARK  status: ('A' for Active; 'I' for Inactive)
REMARK    1  A    between atoms: C1_2  and  C2_3 
ROOT
ATOM      1  C2  UNL d   1      -1.078   0.293  -0.589  0.00  0.00    -0.081 A 
ATOM      2  C3  UNL d   1      -0.258  -0.385  -1.499  0.00  0.00     0.006 A 
ATOM      3  C4  UNL d   1       0.588  -1.408  -1.065  0.00  0.00     0.002 A 
ATOM      4  C5  UNL d   1       0.623  -1.775   0.285  0.00  0.00    -0.080 A 
ATOM      5  C6  UNL d   1       1.504  -2.892   0.759  0.00  0.00     0.076 C 
ATOM      6  C7  UNL d   1      -0.183  -1.086   1.197  0.00  0.00     0.002 A 
ATOM      7  C8  UNL d   1      -1.028  -0.062   0.764  0.00  0.00     0.006 A 
ENDROOT
BRANCH   1   8
ATOM      8  C1  UNL d   1      -2.039   1.353  -1.064  0.00  0.00     0.054 C 
ATOM      9  C   UNL d   1      -1.491   2.092  -2.277  0.00  0.00     0.018 C 
ENDBRANCH   1   8
TORSDOF 1
ENDMDL
