MODEL 1
REMARK minimizedAffinity 14.2755861
REMARK minimizedRMSD -1
REMARK  0 active torsions:
REMARK  status: ('A' for Active; 'I' for Inactive)
ROOT
ATOM      1  C   UNL d   1       1.161  -0.735   2.892  0.00  0.00     0.077 C 
ATOM      2  C1  UNL d   1       0.762   0.040   1.671  0.00  0.00    -0.074 A 
ATOM      3  C2  UNL d   1       1.326  -0.244   0.423  0.00  0.00    -0.005 A 
ATOM      4  C3  UNL d   1       0.938   0.479  -0.705  0.00  0.00     0.006 A 
ATOM      5  C4  UNL d   1      -0.016   1.491  -0.597  0.00  0.00    -0.005 A 
ATOM      6  C5  UNL d   1      -0.592   1.788   0.642  0.00  0.00    -0.074 A 
ATOM      7  C6  UNL d   1      -1.627   2.866   0.774  0.00  0.00     0.077 C 
ATOM      8  C7  UNL d   1      -0.202   1.053   1.770  0.00  0.00    -0.001 A 
ENDROOT
TORSDOF 0
ENDMDL
