MODEL 1
REMARK minimizedAffinity 4.64486122
REMARK minimizedRMSD -1
REMARK  0 active torsions:
REMARK  status: ('A' for Active; 'I' for Inactive)
ROOT
ATOM      1  C   UNL d   1       5.376   5.664  -0.591  0.00  0.00     0.077 C 
ATOM      2  C1  UNL d   1       5.388   4.250  -0.090  0.00  0.00    -0.074 A 
ATOM      3  C2  UNL d   1       6.000   3.924   1.125  0.00  0.00    -0.005 A 
ATOM      4  C3  UNL d   1       5.994   2.606   1.583  0.00  0.00     0.006 A 
ATOM      5  C4  UNL d   1       5.378   1.604   0.833  0.00  0.00    -0.005 A 
ATOM      6  C5  UNL d   1       4.760   1.912  -0.383  0.00  0.00    -0.074 A 
ATOM      7  C6  UNL d   1       4.084   0.848  -1.196  0.00  0.00     0.077 C 
ATOM      8  C7  UNL d   1       4.763   3.239  -0.833  0.00  0.00    -0.001 A 
ENDROOT
TORSDOF 0
ENDMDL
