MODEL 1
REMARK minimizedAffinity 13.1494503
REMARK minimizedRMSD -1
REMARK  0 active torsions:
REMARK  status: ('A' for Active; 'I' for Inactive)
ROOT
ATOM      1  C   UNL d   1       2.522  -0.521  -1.124  0.00  0.00     0.077 C 
ATOM      2  C1  UNL d   1       3.740   0.344  -0.988  0.00  0.00    -0.074 A 
ATOM      3  C2  UNL d   1       4.539   0.639  -2.097  0.00  0.00    -0.005 A 
ATOM      4  C3  UNL d   1       5.663   1.453  -1.957  0.00  0.00     0.006 A 
ATOM      5  C4  UNL d   1       5.999   1.979  -0.708  0.00  0.00    -0.005 A 
ATOM      6  C5  UNL d   1       5.211   1.696   0.411  0.00  0.00    -0.074 A 
ATOM      7  C6  UNL d   1       5.551   2.262   1.758  0.00  0.00     0.077 C 
ATOM      8  C7  UNL d   1       4.079   0.883   0.261  0.00  0.00    -0.001 A 
ENDROOT
TORSDOF 0
ENDMDL
