MODEL 1
REMARK minimizedAffinity 10.4845304
REMARK minimizedRMSD -1
REMARK  0 active torsions:
REMARK  status: ('A' for Active; 'I' for Inactive)
ROOT
ATOM      1  C   UNL d   1      -0.391   0.657  -1.763  0.00  0.00     0.077 C 
ATOM      2  C1  UNL d   1      -1.121   1.339  -0.645  0.00  0.00    -0.074 A 
ATOM      3  C2  UNL d   1      -2.410   0.938  -0.277  0.00  0.00    -0.005 A 
ATOM      4  C3  UNL d   1      -3.073   1.575   0.771  0.00  0.00     0.006 A 
ATOM      5  C4  UNL d   1      -2.455   2.619   1.462  0.00  0.00    -0.005 A 
ATOM      6  C5  UNL d   1      -1.167   3.033   1.109  0.00  0.00    -0.074 A 
ATOM      7  C6  UNL d   1      -0.485   4.146   1.848  0.00  0.00     0.077 C 
ATOM      8  C7  UNL d   1      -0.504   2.383   0.059  0.00  0.00    -0.001 A 
ENDROOT
TORSDOF 0
ENDMDL
