MODEL 1
REMARK minimizedAffinity 12.1915512
REMARK minimizedRMSD -1
REMARK  0 active torsions:
REMARK  status: ('A' for Active; 'I' for Inactive)
ROOT
ATOM      1  C   UNL d   1      -5.998   1.416  -3.752  0.00  0.00     0.077 C 
ATOM      2  C1  UNL d   1      -4.727   0.726  -4.147  0.00  0.00    -0.074 A 
ATOM      3  C2  UNL d   1      -4.494   0.353  -5.474  0.00  0.00    -0.005 A 
ATOM      4  C3  UNL d   1      -3.302  -0.280  -5.828  0.00  0.00     0.006 A 
ATOM      5  C4  UNL d   1      -2.333  -0.545  -4.860  0.00  0.00    -0.005 A 
ATOM      6  C5  UNL d   1      -2.547  -0.178  -3.528  0.00  0.00    -0.074 A 
ATOM      7  C6  UNL d   1      -1.512  -0.446  -2.477  0.00  0.00     0.077 C 
ATOM      8  C7  UNL d   1      -3.744   0.464  -3.181  0.00  0.00    -0.001 A 
ENDROOT
TORSDOF 0
ENDMDL
