MODEL 1
REMARK minimizedAffinity 6.91202402
REMARK minimizedRMSD -1
REMARK  0 active torsions:
REMARK  status: ('A' for Active; 'I' for Inactive)
ROOT
ATOM      1  C   UNL d   1       0.749   1.288   1.971  0.00  0.00     0.077 C 
ATOM      2  C1  UNL d   1       1.625   0.666   0.924  0.00  0.00    -0.074 A 
ATOM      3  C2  UNL d   1       1.311  -0.580   0.372  0.00  0.00    -0.005 A 
ATOM      4  C3  UNL d   1       2.130  -1.142  -0.607  0.00  0.00     0.006 A 
ATOM      5  C4  UNL d   1       3.270  -0.465  -1.043  0.00  0.00    -0.005 A 
ATOM      6  C5  UNL d   1       3.599   0.782  -0.503  0.00  0.00    -0.074 A 
ATOM      7  C6  UNL d   1       4.815   1.528  -0.968  0.00  0.00     0.077 C 
ATOM      8  C7  UNL d   1       2.768   1.343   0.475  0.00  0.00    -0.001 A 
ENDROOT
TORSDOF 0
ENDMDL
