MODEL 1
REMARK minimizedAffinity 8.83230782
REMARK minimizedRMSD -1
REMARK  0 active torsions:
REMARK  status: ('A' for Active; 'I' for Inactive)
ROOT
ATOM      1  C   UNL d   1      -6.000   0.759  -4.300  0.00  0.00     0.077 C 
ATOM      2  C1  UNL d   1      -4.505   0.740  -4.419  0.00  0.00    -0.074 A 
ATOM      3  C2  UNL d   1      -3.872   1.158  -5.595  0.00  0.00    -0.005 A 
ATOM      4  C3  UNL d   1      -2.481   1.144  -5.688  0.00  0.00     0.006 A 
ATOM      5  C4  UNL d   1      -1.709   0.713  -4.608  0.00  0.00    -0.005 A 
ATOM      6  C5  UNL d   1      -2.323   0.292  -3.425  0.00  0.00    -0.074 A 
ATOM      7  C6  UNL d   1      -1.508  -0.165  -2.251  0.00  0.00     0.077 C 
ATOM      8  C7  UNL d   1      -3.722   0.316  -3.336  0.00  0.00    -0.001 A 
ENDROOT
TORSDOF 0
ENDMDL
