MODEL 1
REMARK minimizedAffinity 6.55561018
REMARK minimizedRMSD -1
REMARK  0 active torsions:
REMARK  status: ('A' for Active; 'I' for Inactive)
ROOT
ATOM      1  C   UNL d   1       5.999  -2.326   1.170  0.00  0.00     0.077 C 
ATOM      2  C1  UNL d   1       5.332  -1.233   0.390  0.00  0.00    -0.074 A 
ATOM      3  C2  UNL d   1       4.100  -1.446  -0.238  0.00  0.00    -0.005 A 
ATOM      4  C3  UNL d   1       3.487  -0.417  -0.952  0.00  0.00     0.006 A 
ATOM      5  C4  UNL d   1       4.098   0.834  -1.046  0.00  0.00    -0.005 A 
ATOM      6  C5  UNL d   1       5.329   1.066  -0.424  0.00  0.00    -0.074 A 
ATOM      7  C6  UNL d   1       5.995   2.408  -0.507  0.00  0.00     0.077 C 
ATOM      8  C7  UNL d   1       5.936   0.029   0.297  0.00  0.00    -0.001 A 
ENDROOT
TORSDOF 0
ENDMDL
