MODEL 1
REMARK minimizedAffinity 14.2548008
REMARK minimizedRMSD -1
REMARK  0 active torsions:
REMARK  status: ('A' for Active; 'I' for Inactive)
ROOT
ATOM      1  C   UNL d   1       6.000   5.999  -0.060  0.00  0.00     0.077 C 
ATOM      2  C1  UNL d   1       5.820   4.544   0.256  0.00  0.00    -0.074 A 
ATOM      3  C2  UNL d   1       5.615   3.607  -0.762  0.00  0.00    -0.005 A 
ATOM      4  C3  UNL d   1       5.459   2.256  -0.453  0.00  0.00     0.006 A 
ATOM      5  C4  UNL d   1       5.506   1.829   0.874  0.00  0.00    -0.005 A 
ATOM      6  C5  UNL d   1       5.712   2.751   1.905  0.00  0.00    -0.074 A 
ATOM      7  C6  UNL d   1       5.775   2.307   3.337  0.00  0.00     0.077 C 
ATOM      8  C7  UNL d   1       5.875   4.106   1.587  0.00  0.00    -0.001 A 
ENDROOT
TORSDOF 0
ENDMDL
