MODEL 1
REMARK minimizedAffinity 3.77532005
REMARK minimizedRMSD -1
REMARK  0 active torsions:
REMARK  status: ('A' for Active; 'I' for Inactive)
ROOT
ATOM      1  C   UNL d   1       0.422  -2.117   3.320  0.00  0.00     0.077 C 
ATOM      2  C1  UNL d   1       0.678  -3.301   4.204  0.00  0.00    -0.074 A 
ATOM      3  C2  UNL d   1       1.979  -3.648   4.581  0.00  0.00    -0.005 A 
ATOM      4  C3  UNL d   1       2.202  -4.747   5.411  0.00  0.00     0.006 A 
ATOM      5  C4  UNL d   1       1.127  -5.509   5.871  0.00  0.00    -0.005 A 
ATOM      6  C5  UNL d   1      -0.181  -5.177   5.505  0.00  0.00    -0.074 A 
ATOM      7  C6  UNL d   1      -1.348  -5.979   5.999  0.00  0.00     0.077 C 
ATOM      8  C7  UNL d   1      -0.397  -4.067   4.677  0.00  0.00    -0.001 A 
ENDROOT
TORSDOF 0
ENDMDL
