MODEL 1
REMARK minimizedAffinity 6.00022221
REMARK minimizedRMSD -1
REMARK  0 active torsions:
REMARK  status: ('A' for Active; 'I' for Inactive)
ROOT
ATOM      1  C   UNL d   1      -5.634   3.793  -3.742  0.00  0.00     0.077 C 
ATOM      2  C1  UNL d   1      -5.151   2.398  -4.005  0.00  0.00    -0.074 A 
ATOM      3  C2  UNL d   1      -6.000   1.435  -4.561  0.00  0.00    -0.005 A 
ATOM      4  C3  UNL d   1      -5.533   0.145  -4.808  0.00  0.00     0.006 A 
ATOM      5  C4  UNL d   1      -4.215  -0.196  -4.504  0.00  0.00    -0.005 A 
ATOM      6  C5  UNL d   1      -3.351   0.753  -3.948  0.00  0.00    -0.074 A 
ATOM      7  C6  UNL d   1      -1.928   0.406  -3.624  0.00  0.00     0.077 C 
ATOM      8  C7  UNL d   1      -3.825   2.050  -3.709  0.00  0.00    -0.001 A 
ENDROOT
TORSDOF 0
ENDMDL
