MODEL 1
REMARK minimizedAffinity 14.4498129
REMARK minimizedRMSD -1
REMARK  0 active torsions:
REMARK  status: ('A' for Active; 'I' for Inactive)
ROOT
ATOM      1  C   UNL d   1       5.468   2.856   1.875  0.00  0.00     0.077 C 
ATOM      2  C1  UNL d   1       5.147   1.987   0.695  0.00  0.00    -0.074 A 
ATOM      3  C2  UNL d   1       6.000   1.935  -0.412  0.00  0.00    -0.005 A 
ATOM      4  C3  UNL d   1       5.693   1.115  -1.498  0.00  0.00     0.006 A 
ATOM      5  C4  UNL d   1       4.533   0.340  -1.488  0.00  0.00    -0.005 A 
ATOM      6  C5  UNL d   1       3.668   0.379  -0.389  0.00  0.00    -0.074 A 
ATOM      7  C6  UNL d   1       2.422  -0.455  -0.358  0.00  0.00     0.077 C 
ATOM      8  C7  UNL d   1       3.987   1.200   0.701  0.00  0.00    -0.001 A 
ENDROOT
TORSDOF 0
ENDMDL
