MODEL 1
REMARK minimizedAffinity 1.37582517
REMARK minimizedRMSD -1
REMARK  0 active torsions:
REMARK  status: ('A' for Active; 'I' for Inactive)
ROOT
ATOM      1  C   UNL d   1       2.744   5.966  -3.391  0.00  0.00     0.172 C 
ATOM      2  N   UNL d   1       4.069   5.522  -3.026  0.00  0.00    -0.070 N 
ATOM      3  C1  UNL d   1       4.794   5.972  -1.955  0.00  0.00    -0.004 A 
ATOM      4  C2  UNL d   1       6.000   5.305  -1.952  0.00  0.00    -0.047 A 
ATOM      5  C3  UNL d   1       6.000   4.425  -3.060  0.00  0.00    -0.047 A 
ATOM      6  C4  UNL d   1       4.792   4.580  -3.708  0.00  0.00    -0.004 A 
ENDROOT
TORSDOF 0
ENDMDL
