MODEL 1
REMARK minimizedAffinity 0.841974616
REMARK minimizedRMSD -1
REMARK  0 active torsions:
REMARK  status: ('A' for Active; 'I' for Inactive)
ROOT
ATOM      1  C   UNL d   1       4.208   6.000  -4.871  0.00  0.00     0.172 C 
ATOM      2  N   UNL d   1       4.708   5.545  -3.595  0.00  0.00    -0.070 N 
ATOM      3  C1  UNL d   1       4.116   4.604  -2.795  0.00  0.00    -0.004 A 
ATOM      4  C2  UNL d   1       4.899   4.452  -1.671  0.00  0.00    -0.047 A 
ATOM      5  C3  UNL d   1       5.999   5.333  -1.800  0.00  0.00    -0.047 A 
ATOM      6  C4  UNL d   1       5.856   5.997  -3.000  0.00  0.00    -0.004 A 
ENDROOT
TORSDOF 0
ENDMDL
