MODEL 1
REMARK minimizedAffinity 1.65628219
REMARK minimizedRMSD -1
REMARK  0 active torsions:
REMARK  status: ('A' for Active; 'I' for Inactive)
ROOT
ATOM      1  C   UNL d   1       5.998   5.746  -1.414  0.00  0.00     0.172 C 
ATOM      2  N   UNL d   1       5.434   5.221  -2.635  0.00  0.00    -0.070 N 
ATOM      3  C1  UNL d   1       4.260   5.630  -3.211  0.00  0.00    -0.004 A 
ATOM      4  C2  UNL d   1       4.074   4.889  -4.358  0.00  0.00    -0.047 A 
ATOM      5  C3  UNL d   1       5.172   4.004  -4.475  0.00  0.00    -0.047 A 
ATOM      6  C4  UNL d   1       5.999   4.231  -3.394  0.00  0.00    -0.004 A 
ENDROOT
TORSDOF 0
ENDMDL
