MODEL 1
REMARK minimizedAffinity -3.40826726
REMARK minimizedRMSD -1
REMARK  0 active torsions:
REMARK  status: ('A' for Active; 'I' for Inactive)
ROOT
ATOM      1  C   UNL d   1       5.937   5.999  -5.957  0.00  0.00     0.172 C 
ATOM      2  N   UNL d   1       5.300   5.991  -4.661  0.00  0.00    -0.070 N 
ATOM      3  C1  UNL d   1       5.946   5.973  -3.454  0.00  0.00    -0.004 A 
ATOM      4  C2  UNL d   1       4.989   5.972  -2.462  0.00  0.00    -0.047 A 
ATOM      5  C3  UNL d   1       3.724   5.988  -3.095  0.00  0.00    -0.047 A 
ATOM      6  C4  UNL d   1       3.946   6.000  -4.456  0.00  0.00    -0.004 A 
ENDROOT
TORSDOF 0
ENDMDL
