MODEL 1
REMARK minimizedAffinity -3.19361043
REMARK minimizedRMSD -1
REMARK  0 active torsions:
REMARK  status: ('A' for Active; 'I' for Inactive)
ROOT
ATOM      1  C   UNL d   1       5.639   2.690  -4.948  0.00  0.00     0.172 C 
ATOM      2  N   UNL d   1       4.940   3.954  -4.972  0.00  0.00    -0.070 N 
ATOM      3  C1  UNL d   1       3.948   4.334  -4.107  0.00  0.00    -0.004 A 
ATOM      4  C2  UNL d   1       3.543   5.603  -4.461  0.00  0.00    -0.047 A 
ATOM      5  C3  UNL d   1       4.317   5.998  -5.577  0.00  0.00    -0.047 A 
ATOM      6  C4  UNL d   1       5.173   4.959  -5.873  0.00  0.00    -0.004 A 
ENDROOT
TORSDOF 0
ENDMDL
