MODEL 1
REMARK minimizedAffinity -3.67642546
REMARK minimizedRMSD -1
REMARK  0 active torsions:
REMARK  status: ('A' for Active; 'I' for Inactive)
ROOT
ATOM      1  C   UNL d   1       5.494   5.696  -1.639  0.00  0.00     0.172 C 
ATOM      2  N   UNL d   1       5.126   4.903  -2.788  0.00  0.00    -0.070 N 
ATOM      3  C1  UNL d   1       5.999   4.276  -3.637  0.00  0.00    -0.004 A 
ATOM      4  C2  UNL d   1       5.257   3.627  -4.600  0.00  0.00    -0.047 A 
ATOM      5  C3  UNL d   1       3.891   3.873  -4.321  0.00  0.00    -0.047 A 
ATOM      6  C4  UNL d   1       3.840   4.666  -3.194  0.00  0.00    -0.004 A 
ENDROOT
TORSDOF 0
ENDMDL
