MODEL 1
REMARK minimizedAffinity -0.55273962
REMARK minimizedRMSD -1
REMARK  0 active torsions:
REMARK  status: ('A' for Active; 'I' for Inactive)
ROOT
ATOM      1  C   UNL d   1       3.061   5.999  -3.967  0.00  0.00     0.172 C 
ATOM      2  N   UNL d   1       4.251   5.450  -3.361  0.00  0.00    -0.070 N 
ATOM      3  C1  UNL d   1       4.900   5.963  -2.270  0.00  0.00    -0.004 A 
ATOM      4  C2  UNL d   1       5.985   5.154  -2.006  0.00  0.00    -0.047 A 
ATOM      5  C3  UNL d   1       5.989   4.121  -2.973  0.00  0.00    -0.047 A 
ATOM      6  C4  UNL d   1       4.905   4.329  -3.799  0.00  0.00    -0.004 A 
ENDROOT
TORSDOF 0
ENDMDL
