MODEL 1
REMARK minimizedAffinity -2.52764583
REMARK minimizedRMSD -1
REMARK  0 active torsions:
REMARK  status: ('A' for Active; 'I' for Inactive)
ROOT
ATOM      1  C   UNL d   1       5.994   4.834  -1.250  0.00  0.00     0.172 C 
ATOM      2  N   UNL d   1       5.689   4.737  -2.658  0.00  0.00    -0.070 N 
ATOM      3  C1  UNL d   1       5.048   5.691  -3.404  0.00  0.00    -0.004 A 
ATOM      4  C2  UNL d   1       4.949   5.221  -4.695  0.00  0.00    -0.047 A 
ATOM      5  C3  UNL d   1       5.551   3.940  -4.727  0.00  0.00    -0.047 A 
ATOM      6  C4  UNL d   1       6.000   3.665  -3.453  0.00  0.00    -0.004 A 
ENDROOT
TORSDOF 0
ENDMDL
