MODEL 1
REMARK minimizedAffinity -2.63333774
REMARK minimizedRMSD -1
REMARK  0 active torsions:
REMARK  status: ('A' for Active; 'I' for Inactive)
ROOT
ATOM      1  C   UNL d   1       3.471   5.991  -4.162  0.00  0.00     0.172 C 
ATOM      2  N   UNL d   1       4.466   5.064  -4.648  0.00  0.00    -0.070 N 
ATOM      3  C1  UNL d   1       4.882   4.949  -5.948  0.00  0.00    -0.004 A 
ATOM      4  C2  UNL d   1       5.837   3.956  -5.999  0.00  0.00    -0.047 A 
ATOM      5  C3  UNL d   1       6.000   3.457  -4.685  0.00  0.00    -0.047 A 
ATOM      6  C4  UNL d   1       5.139   4.161  -3.869  0.00  0.00    -0.004 A 
ENDROOT
TORSDOF 0
ENDMDL
