MODEL 1
REMARK minimizedAffinity -2.59911799
REMARK minimizedRMSD -1
REMARK  0 active torsions:
REMARK  status: ('A' for Active; 'I' for Inactive)
ROOT
ATOM      1  C   UNL d   1       6.000   4.892  -2.354  0.00  0.00     0.172 C 
ATOM      2  N   UNL d   1       5.670   4.880  -3.760  0.00  0.00    -0.070 N 
ATOM      3  C1  UNL d   1       4.986   5.860  -4.428  0.00  0.00    -0.004 A 
ATOM      4  C2  UNL d   1       4.877   5.474  -5.747  0.00  0.00    -0.047 A 
ATOM      5  C3  UNL d   1       5.517   4.219  -5.876  0.00  0.00    -0.047 A 
ATOM      6  C4  UNL d   1       5.999   3.874  -4.631  0.00  0.00    -0.004 A 
ENDROOT
TORSDOF 0
ENDMDL
