MODEL 1
REMARK minimizedAffinity -3.12255907
REMARK minimizedRMSD -1
REMARK  0 active torsions:
REMARK  status: ('A' for Active; 'I' for Inactive)
ROOT
ATOM      1  C   UNL d   1       4.692   4.876  -2.335  0.00  0.00     0.172 C 
ATOM      2  N   UNL d   1       5.012   4.605  -3.717  0.00  0.00    -0.070 N 
ATOM      3  C1  UNL d   1       4.385   5.154  -4.803  0.00  0.00    -0.004 A 
ATOM      4  C2  UNL d   1       4.980   4.643  -5.936  0.00  0.00    -0.047 A 
ATOM      5  C3  UNL d   1       6.000   3.757  -5.516  0.00  0.00    -0.047 A 
ATOM      6  C4  UNL d   1       5.998   3.752  -4.137  0.00  0.00    -0.004 A 
ENDROOT
TORSDOF 0
ENDMDL
