MODEL 1
REMARK minimizedAffinity -2.96282005
REMARK minimizedRMSD -1
REMARK  0 active torsions:
REMARK  status: ('A' for Active; 'I' for Inactive)
ROOT
ATOM      1  C   UNL d   1       5.974   6.000  -1.892  0.00  0.00     0.172 C 
ATOM      2  N   UNL d   1       5.348   5.339  -3.012  0.00  0.00    -0.070 N 
ATOM      3  C1  UNL d   1       6.000   4.821  -4.100  0.00  0.00    -0.004 A 
ATOM      4  C2  UNL d   1       5.053   4.278  -4.940  0.00  0.00    -0.047 A 
ATOM      5  C3  UNL d   1       3.788   4.476  -4.338  0.00  0.00    -0.047 A 
ATOM      6  C4  UNL d   1       4.000   5.135  -3.145  0.00  0.00    -0.004 A 
ENDROOT
TORSDOF 0
ENDMDL
