MODEL 1
REMARK minimizedAffinity -0.659500062
REMARK minimizedRMSD -1
REMARK  0 active torsions:
REMARK  status: ('A' for Active; 'I' for Inactive)
ROOT
ATOM      1  C   UNL d   1       5.961   2.501  -4.410  0.00  0.00     0.172 C 
ATOM      2  N   UNL d   1       5.976   3.794  -3.767  0.00  0.00    -0.070 N 
ATOM      3  C1  UNL d   1       5.988   4.013  -2.416  0.00  0.00    -0.004 A 
ATOM      4  C2  UNL d   1       6.000   5.376  -2.209  0.00  0.00    -0.047 A 
ATOM      5  C3  UNL d   1       5.994   5.997  -3.481  0.00  0.00    -0.047 A 
ATOM      6  C4  UNL d   1       5.979   4.994  -4.428  0.00  0.00    -0.004 A 
ENDROOT
TORSDOF 0
ENDMDL
