MODEL 1
REMARK minimizedAffinity -1.74216378
REMARK minimizedRMSD -1
REMARK  2 active torsions:
REMARK  status: ('A' for Active; 'I' for Inactive)
REMARK    1  A    between atoms: C1_2  and  C2_3 
REMARK    2  A    between atoms: C2_3  and  C3_4 
ROOT
ATOM      1  C3  UNL d   1       0.512  -0.184  -2.121  0.00  0.00    -0.075 A 
ATOM      2  C4  UNL d   1       1.479   0.819  -2.275  0.00  0.00     0.002 A 
ATOM      3  C5  UNL d   1       1.631   1.475  -3.497  0.00  0.00     0.002 A 
ATOM      4  C6  UNL d   1       0.827   1.130  -4.581  0.00  0.00    -0.004 A 
ATOM      5  C7  UNL d   1      -0.126   0.123  -4.444  0.00  0.00     0.002 A 
ATOM      6  C8  UNL d   1      -0.283  -0.532  -3.221  0.00  0.00     0.002 A 
ENDROOT
BRANCH   1   7
ATOM      7  C2  UNL d   1       0.323  -0.877  -0.793  0.00  0.00     0.056 C 
BRANCH   7   8
ATOM      8  C1  UNL d   1       0.147   0.080   0.391  0.00  0.00     0.007 C 
ATOM      9  C   UNL d   1      -1.257   0.663   0.488  0.00  0.00     0.009 C 
ENDBRANCH   7   8
ENDBRANCH   1   7
TORSDOF 2
ENDMDL
