MODEL 1
REMARK minimizedAffinity -6.0987587
REMARK minimizedRMSD -1
REMARK  2 active torsions:
REMARK  status: ('A' for Active; 'I' for Inactive)
REMARK    1  A    between atoms: C1_2  and  C2_3 
REMARK    2  A    between atoms: C2_3  and  C3_4 
ROOT
ATOM      1  C3  UNL d   1      -0.028   0.487   0.757  0.00  0.00    -0.075 A 
ATOM      2  C4  UNL d   1       1.001  -0.286   1.314  0.00  0.00     0.002 A 
ATOM      3  C5  UNL d   1       1.217  -0.291   2.693  0.00  0.00     0.002 A 
ATOM      4  C6  UNL d   1       0.416   0.484   3.529  0.00  0.00    -0.004 A 
ATOM      5  C7  UNL d   1      -0.599   1.268   2.985  0.00  0.00     0.002 A 
ATOM      6  C8  UNL d   1      -0.820   1.271   1.607  0.00  0.00     0.002 A 
ENDROOT
BRANCH   1   7
ATOM      7  C2  UNL d   1      -0.286   0.473  -0.730  0.00  0.00     0.056 C 
BRANCH   7   8
ATOM      8  C1  UNL d   1       0.587  -0.519  -1.506  0.00  0.00     0.007 C 
ATOM      9  C   UNL d   1       1.244   0.093  -2.736  0.00  0.00     0.009 C 
ENDBRANCH   7   8
ENDBRANCH   1   7
TORSDOF 2
ENDMDL
