MODEL 1
REMARK minimizedAffinity -6.06129837
REMARK minimizedRMSD -1
REMARK  2 active torsions:
REMARK  status: ('A' for Active; 'I' for Inactive)
REMARK    1  A    between atoms: C1_2  and  C2_3 
REMARK    2  A    between atoms: C2_3  and  C3_4 
ROOT
ATOM      1  C3  UNL d   1       0.315   0.049   0.796  0.00  0.00    -0.075 A 
ATOM      2  C4  UNL d   1       1.173   0.073   1.905  0.00  0.00     0.002 A 
ATOM      3  C5  UNL d   1       0.752   0.625   3.115  0.00  0.00     0.002 A 
ATOM      4  C6  UNL d   1      -0.526   1.167   3.229  0.00  0.00    -0.004 A 
ATOM      5  C7  UNL d   1      -1.381   1.163   2.129  0.00  0.00     0.002 A 
ATOM      6  C8  UNL d   1      -0.964   0.608   0.918  0.00  0.00     0.002 A 
ENDROOT
BRANCH   1   7
ATOM      7  C2  UNL d   1       0.755  -0.574  -0.508  0.00  0.00     0.056 C 
BRANCH   7   8
ATOM      8  C1  UNL d   1      -0.177  -0.276  -1.687  0.00  0.00     0.007 C 
ATOM      9  C   UNL d   1       0.553  -0.177  -3.019  0.00  0.00     0.009 C 
ENDBRANCH   7   8
ENDBRANCH   1   7
TORSDOF 2
ENDMDL
