MODEL 1
REMARK minimizedAffinity -4.72203398
REMARK minimizedRMSD -1
REMARK  2 active torsions:
REMARK  status: ('A' for Active; 'I' for Inactive)
REMARK    1  A    between atoms: C1_2  and  C2_3 
REMARK    2  A    between atoms: C2_3  and  C3_4 
ROOT
ATOM      1  C3  UNL d   1      -0.415   0.349   1.649  0.00  0.00    -0.075 A 
ATOM      2  C4  UNL d   1      -1.133   0.214   0.452  0.00  0.00     0.002 A 
ATOM      3  C5  UNL d   1      -0.481  -0.146  -0.728  0.00  0.00     0.002 A 
ATOM      4  C6  UNL d   1       0.895  -0.365  -0.729  0.00  0.00    -0.004 A 
ATOM      5  C7  UNL d   1       1.620  -0.217   0.451  0.00  0.00     0.002 A 
ATOM      6  C8  UNL d   1       0.970   0.139   1.634  0.00  0.00     0.002 A 
ENDROOT
BRANCH   1   7
ATOM      7  C2  UNL d   1      -1.119   0.710   2.935  0.00  0.00     0.056 C 
BRANCH   7   8
ATOM      8  C1  UNL d   1      -2.404  -0.086   3.187  0.00  0.00     0.007 C 
ATOM      9  C   UNL d   1      -2.159  -1.421   3.876  0.00  0.00     0.009 C 
ENDBRANCH   7   8
ENDBRANCH   1   7
TORSDOF 2
ENDMDL
