MODEL 1
REMARK minimizedAffinity -5.84506083
REMARK minimizedRMSD -1
REMARK  2 active torsions:
REMARK  status: ('A' for Active; 'I' for Inactive)
REMARK    1  A    between atoms: C1_2  and  C2_3 
REMARK    2  A    between atoms: C2_3  and  C3_4 
ROOT
ATOM      1  C3  UNL d   1       0.177   0.310   1.062  0.00  0.00    -0.075 A 
ATOM      2  C4  UNL d   1       1.472  -0.004   1.501  0.00  0.00     0.002 A 
ATOM      3  C5  UNL d   1       1.851   0.239   2.821  0.00  0.00     0.002 A 
ATOM      4  C6  UNL d   1       0.946   0.807   3.715  0.00  0.00    -0.004 A 
ATOM      5  C7  UNL d   1      -0.337   1.138   3.287  0.00  0.00     0.002 A 
ATOM      6  C8  UNL d   1      -0.721   0.892   1.967  0.00  0.00     0.002 A 
ENDROOT
BRANCH   1   7
ATOM      7  C2  UNL d   1      -0.249   0.022  -0.358  0.00  0.00     0.056 C 
BRANCH   7   8
ATOM      8  C1  UNL d   1       0.491  -1.154  -1.005  0.00  0.00     0.007 C 
ATOM      9  C   UNL d   1       0.906  -0.883  -2.445  0.00  0.00     0.009 C 
ENDBRANCH   7   8
ENDBRANCH   1   7
TORSDOF 2
ENDMDL
