MODEL 1
REMARK minimizedAffinity -4.99577188
REMARK minimizedRMSD -1
REMARK  2 active torsions:
REMARK  status: ('A' for Active; 'I' for Inactive)
REMARK    1  A    between atoms: C1_2  and  C2_3 
REMARK    2  A    between atoms: C2_3  and  C3_4 
ROOT
ATOM      1  C3  UNL d   1      -0.108   0.305   0.853  0.00  0.00    -0.075 A 
ATOM      2  C4  UNL d   1       1.109  -0.154   1.376  0.00  0.00     0.002 A 
ATOM      3  C5  UNL d   1       1.397  -0.009   2.734  0.00  0.00     0.002 A 
ATOM      4  C6  UNL d   1       0.477   0.604   3.582  0.00  0.00    -0.004 A 
ATOM      5  C7  UNL d   1      -0.729   1.078   3.070  0.00  0.00     0.002 A 
ATOM      6  C8  UNL d   1      -1.021   0.930   1.713  0.00  0.00     0.002 A 
ENDROOT
BRANCH   1   7
ATOM      7  C2  UNL d   1      -0.438   0.124  -0.609  0.00  0.00     0.056 C 
BRANCH   7   8
ATOM      8  C1  UNL d   1       0.672  -0.553  -1.420  0.00  0.00     0.007 C 
ATOM      9  C   UNL d   1       0.692  -0.129  -2.882  0.00  0.00     0.009 C 
ENDBRANCH   7   8
ENDBRANCH   1   7
TORSDOF 2
ENDMDL
