MODEL 1
REMARK minimizedAffinity -0.907071531
REMARK minimizedRMSD -1
REMARK  2 active torsions:
REMARK  status: ('A' for Active; 'I' for Inactive)
REMARK    1  A    between atoms: C1_2  and  C2_3 
REMARK    2  A    between atoms: C2_3  and  C3_4 
ROOT
ATOM      1  C3  UNL d   1       0.398  -0.236  -1.429  0.00  0.00    -0.075 A 
ATOM      2  C4  UNL d   1      -0.927   0.121  -1.143  0.00  0.00     0.002 A 
ATOM      3  C5  UNL d   1      -1.373   0.190   0.177  0.00  0.00     0.002 A 
ATOM      4  C6  UNL d   1      -0.505  -0.107   1.225  0.00  0.00    -0.004 A 
ATOM      5  C7  UNL d   1       0.810  -0.479   0.952  0.00  0.00     0.002 A 
ATOM      6  C8  UNL d   1       1.260  -0.544  -0.368  0.00  0.00     0.002 A 
ENDROOT
BRANCH   1   7
ATOM      7  C2  UNL d   1       0.895  -0.284  -2.855  0.00  0.00     0.056 C 
BRANCH   7   8
ATOM      8  C1  UNL d   1       1.050   1.094  -3.507  0.00  0.00     0.007 C 
ATOM      9  C   UNL d   1       2.358   1.253  -4.270  0.00  0.00     0.009 C 
ENDBRANCH   7   8
ENDBRANCH   1   7
TORSDOF 2
ENDMDL
