MODEL 1
REMARK minimizedAffinity -4.14913654
REMARK minimizedRMSD -1
REMARK  2 active torsions:
REMARK  status: ('A' for Active; 'I' for Inactive)
REMARK    1  A    between atoms: C1_2  and  C2_3 
REMARK    2  A    between atoms: C2_3  and  C3_4 
ROOT
ATOM      1  C3  UNL d   1       0.349   0.059   1.011  0.00  0.00    -0.075 A 
ATOM      2  C4  UNL d   1      -0.921   0.653   0.996  0.00  0.00     0.002 A 
ATOM      3  C5  UNL d   1      -1.513   1.089   2.182  0.00  0.00     0.002 A 
ATOM      4  C6  UNL d   1      -0.849   0.926   3.396  0.00  0.00    -0.004 A 
ATOM      5  C7  UNL d   1       0.406   0.322   3.425  0.00  0.00     0.002 A 
ATOM      6  C8  UNL d   1       1.002  -0.110   2.239  0.00  0.00     0.002 A 
ENDROOT
BRANCH   1   7
ATOM      7  C2  UNL d   1       1.008  -0.388  -0.272  0.00  0.00     0.056 C 
BRANCH   7   8
ATOM      8  C1  UNL d   1       0.038  -0.549  -1.448  0.00  0.00     0.007 C 
ATOM      9  C   UNL d   1       0.659  -0.192  -2.792  0.00  0.00     0.009 C 
ENDBRANCH   7   8
ENDBRANCH   1   7
TORSDOF 2
ENDMDL
