MODEL 1
REMARK minimizedAffinity -1.73676729
REMARK minimizedRMSD -1
REMARK  0 active torsions:
REMARK  status: ('A' for Active; 'I' for Inactive)
ROOT
ATOM      1  C   UNL d   1       0.171   1.012  -1.303  0.00  0.00     0.023 A 
ATOM      2  C1  UNL d   1      -0.430   0.892  -2.556  0.00  0.00     0.003 A 
ATOM      3  C2  UNL d   1      -0.974  -0.330  -2.957  0.00  0.00     0.048 A 
ATOM      4  C3  UNL d   1      -0.914  -1.428  -2.100  0.00  0.00     0.023 A 
ATOM      5  C4  UNL d   1      -0.313  -1.313  -0.845  0.00  0.00     0.048 A 
ATOM      6  C5  UNL d   1       0.230  -0.089  -0.449  0.00  0.00     0.003 A 
ATOM      7  I   UNL d   1      -1.722  -3.248  -2.694  0.00  0.00    -0.146 I 
ENDROOT
TORSDOF 0
ENDMDL
