MODEL 1
REMARK minimizedAffinity -2.50761151
REMARK minimizedRMSD -1
REMARK  0 active torsions:
REMARK  status: ('A' for Active; 'I' for Inactive)
ROOT
ATOM      1  C   UNL d   1      -1.896   1.849   1.047  0.00  0.00     0.023 A 
ATOM      2  C1  UNL d   1      -1.614   1.021  -0.039  0.00  0.00     0.003 A 
ATOM      3  C2  UNL d   1      -0.401   0.331  -0.096  0.00  0.00     0.048 A 
ATOM      4  C3  UNL d   1       0.525   0.474   0.936  0.00  0.00     0.023 A 
ATOM      5  C4  UNL d   1       0.247   1.301   2.025  0.00  0.00     0.048 A 
ATOM      6  C5  UNL d   1      -0.967   1.989   2.078  0.00  0.00     0.003 A 
ATOM      7  I   UNL d   1       2.331  -0.551   0.853  0.00  0.00    -0.146 I 
ENDROOT
TORSDOF 0
ENDMDL
