MODEL 1
REMARK minimizedAffinity -1.94182932
REMARK minimizedRMSD -1
REMARK  0 active torsions:
REMARK  status: ('A' for Active; 'I' for Inactive)
ROOT
ATOM      1  C   UNL d   1      -1.071   1.877  -0.184  0.00  0.00     0.023 A 
ATOM      2  C1  UNL d   1      -0.386   1.311  -1.259  0.00  0.00     0.003 A 
ATOM      3  C2  UNL d   1       0.709   0.476  -1.030  0.00  0.00     0.048 A 
ATOM      4  C3  UNL d   1       1.113   0.209   0.278  0.00  0.00     0.023 A 
ATOM      5  C4  UNL d   1       0.430   0.772   1.357  0.00  0.00     0.048 A 
ATOM      6  C5  UNL d   1      -0.664   1.607   1.123  0.00  0.00     0.003 A 
ATOM      7  I   UNL d   1       2.743  -1.034   0.622  0.00  0.00    -0.146 I 
ENDROOT
TORSDOF 0
ENDMDL
