MODEL 1
REMARK minimizedAffinity 0.294531405
REMARK minimizedRMSD -1
REMARK  0 active torsions:
REMARK  status: ('A' for Active; 'I' for Inactive)
ROOT
ATOM      1  C   UNL d   1      -0.292   2.168   2.676  0.00  0.00     0.023 A 
ATOM      2  C1  UNL d   1       0.550   1.130   2.276  0.00  0.00     0.003 A 
ATOM      3  C2  UNL d   1       0.600   0.746   0.935  0.00  0.00     0.048 A 
ATOM      4  C3  UNL d   1      -0.195   1.405  -0.003  0.00  0.00     0.023 A 
ATOM      5  C4  UNL d   1      -1.039   2.444   0.392  0.00  0.00     0.048 A 
ATOM      6  C5  UNL d   1      -1.086   2.824   1.735  0.00  0.00     0.003 A 
ATOM      7  I   UNL d   1      -0.123   0.835  -2.000  0.00  0.00    -0.146 I 
ENDROOT
TORSDOF 0
ENDMDL
