MODEL 1
REMARK minimizedAffinity -3.53046203
REMARK minimizedRMSD -1
REMARK  0 active torsions:
REMARK  status: ('A' for Active; 'I' for Inactive)
ROOT
ATOM      1  C   UNL d   1      -1.367   1.692   1.159  0.00  0.00     0.023 A 
ATOM      2  C1  UNL d   1      -0.637   1.415   2.315  0.00  0.00     0.003 A 
ATOM      3  C2  UNL d   1       0.548   0.681   2.234  0.00  0.00     0.048 A 
ATOM      4  C3  UNL d   1       0.998   0.228   0.995  0.00  0.00     0.023 A 
ATOM      5  C4  UNL d   1       0.272   0.504  -0.165  0.00  0.00     0.048 A 
ATOM      6  C5  UNL d   1      -0.913   1.237  -0.079  0.00  0.00     0.003 A 
ATOM      7  I   UNL d   1       2.762  -0.864   0.873  0.00  0.00    -0.146 I 
ENDROOT
TORSDOF 0
ENDMDL
