MODEL 1
REMARK minimizedAffinity -5.57498312
REMARK minimizedRMSD -1
REMARK  0 active torsions:
REMARK  status: ('A' for Active; 'I' for Inactive)
ROOT
ATOM      1  C   UNL d   1       0.191  -0.683  -0.323  0.00  0.00     0.078 C 
ATOM      2  C1  UNL d   1       0.052   0.010   0.999  0.00  0.00    -0.077 A 
ATOM      3  C2  UNL d   1       1.105   0.020   1.922  0.00  0.00    -0.001 A 
ATOM      4  C3  UNL d   1       0.958   0.662   3.153  0.00  0.00     0.003 A 
ATOM      5  C4  UNL d   1      -0.240   1.297   3.473  0.00  0.00    -0.005 A 
ATOM      6  C5  UNL d   1      -1.294   1.290   2.561  0.00  0.00     0.003 A 
ATOM      7  C6  UNL d   1      -1.150   0.649   1.330  0.00  0.00    -0.001 A 
ENDROOT
TORSDOF 0
ENDMDL
