MODEL 1
REMARK minimizedAffinity -0.16124028
REMARK minimizedRMSD -1
REMARK  0 active torsions:
REMARK  status: ('A' for Active; 'I' for Inactive)
ROOT
ATOM      1  C   UNL d   1      -0.376   0.791   2.626  0.00  0.00     0.078 C 
ATOM      2  C1  UNL d   1       0.252   0.130   1.435  0.00  0.00    -0.077 A 
ATOM      3  C2  UNL d   1       1.632  -0.104   1.384  0.00  0.00    -0.001 A 
ATOM      4  C3  UNL d   1       2.204  -0.711   0.265  0.00  0.00     0.003 A 
ATOM      5  C4  UNL d   1       1.404  -1.087  -0.813  0.00  0.00    -0.005 A 
ATOM      6  C5  UNL d   1       0.031  -0.856  -0.772  0.00  0.00     0.003 A 
ATOM      7  C6  UNL d   1      -0.543  -0.249   0.346  0.00  0.00    -0.001 A 
ENDROOT
TORSDOF 0
ENDMDL
