MODEL 1
REMARK minimizedAffinity -2.03375125
REMARK minimizedRMSD -1
REMARK  0 active torsions:
REMARK  status: ('A' for Active; 'I' for Inactive)
ROOT
ATOM      1  C   UNL d   1       0.108  -0.759  -0.806  0.00  0.00     0.078 C 
ATOM      2  C1  UNL d   1       0.818  -0.281  -2.037  0.00  0.00    -0.077 A 
ATOM      3  C2  UNL d   1       2.079  -0.782  -2.383  0.00  0.00    -0.001 A 
ATOM      4  C3  UNL d   1       2.732  -0.321  -3.527  0.00  0.00     0.003 A 
ATOM      5  C4  UNL d   1       2.133   0.644  -4.334  0.00  0.00    -0.005 A 
ATOM      6  C5  UNL d   1       0.879   1.150  -3.997  0.00  0.00     0.003 A 
ATOM      7  C6  UNL d   1       0.224   0.690  -2.853  0.00  0.00    -0.001 A 
ENDROOT
TORSDOF 0
ENDMDL
