MODEL 1
REMARK minimizedAffinity -4.68673801
REMARK minimizedRMSD -1
REMARK  0 active torsions:
REMARK  status: ('A' for Active; 'I' for Inactive)
ROOT
ATOM      1  C   UNL d   1      -0.862   1.748   3.257  0.00  0.00     0.078 C 
ATOM      2  C1  UNL d   1      -0.151   1.037   2.145  0.00  0.00    -0.077 A 
ATOM      3  C2  UNL d   1      -0.808   0.736   0.945  0.00  0.00    -0.001 A 
ATOM      4  C3  UNL d   1      -0.136   0.064  -0.078  0.00  0.00     0.003 A 
ATOM      5  C4  UNL d   1       1.195  -0.313   0.089  0.00  0.00    -0.005 A 
ATOM      6  C5  UNL d   1       1.856  -0.020   1.280  0.00  0.00     0.003 A 
ATOM      7  C6  UNL d   1       1.186   0.651   2.304  0.00  0.00    -0.001 A 
ENDROOT
TORSDOF 0
ENDMDL
