MODEL 1
REMARK minimizedAffinity 1.42050302
REMARK minimizedRMSD -1
REMARK  0 active torsions:
REMARK  status: ('A' for Active; 'I' for Inactive)
ROOT
ATOM      1  C   UNL d   1      -0.072   0.304  -0.704  0.00  0.00     0.078 C 
ATOM      2  C1  UNL d   1       0.650   0.457  -2.009  0.00  0.00    -0.077 A 
ATOM      3  C2  UNL d   1       2.020   0.185  -2.112  0.00  0.00    -0.001 A 
ATOM      4  C3  UNL d   1       2.681   0.341  -3.331  0.00  0.00     0.003 A 
ATOM      5  C4  UNL d   1       1.981   0.770  -4.457  0.00  0.00    -0.005 A 
ATOM      6  C5  UNL d   1       0.619   1.046  -4.364  0.00  0.00     0.003 A 
ATOM      7  C6  UNL d   1      -0.044   0.891  -3.145  0.00  0.00    -0.001 A 
ENDROOT
TORSDOF 0
ENDMDL
