MODEL 1
REMARK minimizedAffinity -3.95204902
REMARK minimizedRMSD -1
REMARK  0 active torsions:
REMARK  status: ('A' for Active; 'I' for Inactive)
ROOT
ATOM      1  C   UNL d   1      -1.711  -0.456  -5.341  0.00  0.00     0.078 C 
ATOM      2  C1  UNL d   1      -0.396   0.054  -4.833  0.00  0.00    -0.077 A 
ATOM      3  C2  UNL d   1       0.298   1.063  -5.512  0.00  0.00    -0.001 A 
ATOM      4  C3  UNL d   1       1.526   1.521  -5.033  0.00  0.00     0.003 A 
ATOM      5  C4  UNL d   1       2.072   0.975  -3.873  0.00  0.00    -0.005 A 
ATOM      6  C5  UNL d   1       1.390  -0.031  -3.191  0.00  0.00     0.003 A 
ATOM      7  C6  UNL d   1       0.162  -0.490  -3.669  0.00  0.00    -0.001 A 
ENDROOT
TORSDOF 0
ENDMDL
