MODEL 1
REMARK minimizedAffinity -5.10185337
REMARK minimizedRMSD -1
REMARK  1 active torsions:
REMARK  status: ('A' for Active; 'I' for Inactive)
REMARK    1  A    between atoms: C1_2  and  C2_3 
ROOT
ATOM      1  C2  UNL d   1       0.047  -0.073   0.119  0.00  0.00    -0.076 A 
ATOM      2  C3  UNL d   1       1.084   0.351   0.969  0.00  0.00     0.004 A 
ATOM      3  C4  UNL d   1       0.817   1.126   2.096  0.00  0.00    -0.003 A 
ATOM      4  C5  UNL d   1      -0.492   1.490   2.392  0.00  0.00     0.000 A 
ATOM      5  C6  UNL d   1      -1.535   1.064   1.570  0.00  0.00     0.000 A 
ATOM      6  C7  UNL d   1      -1.284   0.268   0.439  0.00  0.00    -0.073 A 
ATOM      7  C8  UNL d   1      -2.447  -0.158  -0.416  0.00  0.00     0.078 C 
ENDROOT
BRANCH   1   8
ATOM      8  C1  UNL d   1       0.400  -0.888  -1.104  0.00  0.00     0.053 C 
ATOM      9  C   UNL d   1       0.718  -0.020  -2.312  0.00  0.00     0.018 C 
ENDBRANCH   1   8
TORSDOF 1
ENDMDL
