MODEL 1
REMARK minimizedAffinity 10.106864
REMARK minimizedRMSD -1
REMARK  0 active torsions:
REMARK  status: ('A' for Active; 'I' for Inactive)
ROOT
ATOM      1  C   UNL d   1      -5.188   6.000   3.269  0.00  0.00     0.078 C 
ATOM      2  C1  UNL d   1      -4.938   5.828   1.801  0.00  0.00    -0.077 A 
ATOM      3  C2  UNL d   1      -3.651   5.571   1.313  0.00  0.00    -0.001 A 
ATOM      4  C3  UNL d   1      -3.431   5.423  -0.057  0.00  0.00     0.003 A 
ATOM      5  C4  UNL d   1      -4.494   5.530  -0.952  0.00  0.00    -0.005 A 
ATOM      6  C5  UNL d   1      -5.779   5.787  -0.476  0.00  0.00     0.003 A 
ATOM      7  C6  UNL d   1      -6.000   5.936   0.894  0.00  0.00    -0.001 A 
ENDROOT
TORSDOF 0
ENDMDL
