MODEL 1
REMARK minimizedAffinity 12.482955
REMARK minimizedRMSD -1
REMARK  0 active torsions:
REMARK  status: ('A' for Active; 'I' for Inactive)
ROOT
ATOM      1  C   UNL d   1      -0.776  -3.018  -5.988  0.00  0.00     0.078 C 
ATOM      2  C1  UNL d   1       0.663  -2.598  -5.998  0.00  0.00    -0.077 A 
ATOM      3  C2  UNL d   1       1.692  -3.547  -5.993  0.00  0.00    -0.001 A 
ATOM      4  C3  UNL d   1       3.027  -3.141  -5.993  0.00  0.00     0.003 A 
ATOM      5  C4  UNL d   1       3.346  -1.785  -5.996  0.00  0.00    -0.005 A 
ATOM      6  C5  UNL d   1       2.329  -0.833  -5.999  0.00  0.00     0.003 A 
ATOM      7  C6  UNL d   1       0.993  -1.237  -5.999  0.00  0.00    -0.001 A 
ENDROOT
TORSDOF 0
ENDMDL
