MODEL 1
REMARK minimizedAffinity 5.73043346
REMARK minimizedRMSD -1
REMARK  0 active torsions:
REMARK  status: ('A' for Active; 'I' for Inactive)
ROOT
ATOM      1  C   UNL d   1      -1.896  -2.654   5.231  0.00  0.00     0.078 C 
ATOM      2  C1  UNL d   1      -3.324  -3.083   5.076  0.00  0.00    -0.077 A 
ATOM      3  C2  UNL d   1      -4.301  -2.689   5.999  0.00  0.00    -0.001 A 
ATOM      4  C3  UNL d   1      -5.625  -3.104   5.847  0.00  0.00     0.003 A 
ATOM      5  C4  UNL d   1      -5.984  -3.916   4.773  0.00  0.00    -0.005 A 
ATOM      6  C5  UNL d   1      -5.019  -4.316   3.851  0.00  0.00     0.003 A 
ATOM      7  C6  UNL d   1      -3.695  -3.902   4.001  0.00  0.00    -0.001 A 
ENDROOT
TORSDOF 0
ENDMDL
