MODEL 1
REMARK minimizedAffinity 12.6782007
REMARK minimizedRMSD -1
REMARK  0 active torsions:
REMARK  status: ('A' for Active; 'I' for Inactive)
ROOT
ATOM      1  C   UNL d   1      -1.318   3.199  -3.368  0.00  0.00     0.078 C 
ATOM      2  C1  UNL d   1      -0.758   2.924  -2.004  0.00  0.00    -0.077 A 
ATOM      3  C2  UNL d   1       0.520   3.371  -1.646  0.00  0.00    -0.001 A 
ATOM      4  C3  UNL d   1       1.032   3.099  -0.376  0.00  0.00     0.003 A 
ATOM      5  C4  UNL d   1       0.275   2.378   0.545  0.00  0.00    -0.005 A 
ATOM      6  C5  UNL d   1      -0.997   1.927   0.196  0.00  0.00     0.003 A 
ATOM      7  C6  UNL d   1      -1.511   2.198  -1.073  0.00  0.00    -0.001 A 
ENDROOT
TORSDOF 0
ENDMDL
