MODEL 1
REMARK minimizedAffinity 16.5975647
REMARK minimizedRMSD -1
REMARK  0 active torsions:
REMARK  status: ('A' for Active; 'I' for Inactive)
ROOT
ATOM      1  C   UNL d   1       1.217  -4.147  -1.865  0.00  0.00     0.078 C 
ATOM      2  C1  UNL d   1       1.489  -3.380  -0.605  0.00  0.00    -0.077 A 
ATOM      3  C2  UNL d   1       2.044  -2.095  -0.648  0.00  0.00    -0.001 A 
ATOM      4  C3  UNL d   1       2.300  -1.397   0.533  0.00  0.00     0.003 A 
ATOM      5  C4  UNL d   1       2.006  -1.976   1.766  0.00  0.00    -0.005 A 
ATOM      6  C5  UNL d   1       1.456  -3.255   1.819  0.00  0.00     0.003 A 
ATOM      7  C6  UNL d   1       1.199  -3.955   0.639  0.00  0.00    -0.001 A 
ENDROOT
TORSDOF 0
ENDMDL
