MODEL 1
REMARK minimizedAffinity 13.4841032
REMARK minimizedRMSD -1
REMARK  0 active torsions:
REMARK  status: ('A' for Active; 'I' for Inactive)
ROOT
ATOM      1  C   UNL d   1      -1.288   2.411   0.228  0.00  0.00     0.078 C 
ATOM      2  C1  UNL d   1      -0.681   3.023  -0.999  0.00  0.00    -0.077 A 
ATOM      3  C2  UNL d   1      -1.446   3.237  -2.152  0.00  0.00    -0.001 A 
ATOM      4  C3  UNL d   1      -0.866   3.799  -3.290  0.00  0.00     0.003 A 
ATOM      5  C4  UNL d   1       0.483   4.150  -3.287  0.00  0.00    -0.005 A 
ATOM      6  C5  UNL d   1       1.252   3.939  -2.145  0.00  0.00     0.003 A 
ATOM      7  C6  UNL d   1       0.674   3.378  -1.005  0.00  0.00    -0.001 A 
ENDROOT
TORSDOF 0
ENDMDL
