MODEL 1
REMARK minimizedAffinity 17.0841789
REMARK minimizedRMSD -1
REMARK  0 active torsions:
REMARK  status: ('A' for Active; 'I' for Inactive)
ROOT
ATOM      1  C   UNL d   1       2.447  -2.739  -5.998  0.00  0.00     0.078 C 
ATOM      2  C1  UNL d   1       2.058  -3.791  -5.003  0.00  0.00    -0.077 A 
ATOM      3  C2  UNL d   1       2.230  -3.584  -3.629  0.00  0.00    -0.001 A 
ATOM      4  C3  UNL d   1       1.872  -4.576  -2.715  0.00  0.00     0.003 A 
ATOM      5  C4  UNL d   1       1.341  -5.783  -3.165  0.00  0.00    -0.005 A 
ATOM      6  C5  UNL d   1       1.167  -5.999  -4.531  0.00  0.00     0.003 A 
ATOM      7  C6  UNL d   1       1.525  -5.008  -5.446  0.00  0.00    -0.001 A 
ENDROOT
TORSDOF 0
ENDMDL
