MODEL 1
REMARK minimizedAffinity 3.58707404
REMARK minimizedRMSD -1
REMARK  0 active torsions:
REMARK  status: ('A' for Active; 'I' for Inactive)
ROOT
ATOM      1  C   UNL d   1       1.505  -4.126  -2.569  0.00  0.00     0.078 C 
ATOM      2  C1  UNL d   1       2.164  -3.506  -3.765  0.00  0.00    -0.077 A 
ATOM      3  C2  UNL d   1       1.404  -3.006  -4.829  0.00  0.00    -0.001 A 
ATOM      4  C3  UNL d   1       2.031  -2.440  -5.940  0.00  0.00     0.003 A 
ATOM      5  C4  UNL d   1       3.422  -2.369  -5.998  0.00  0.00    -0.005 A 
ATOM      6  C5  UNL d   1       4.187  -2.866  -4.944  0.00  0.00     0.003 A 
ATOM      7  C6  UNL d   1       3.561  -3.432  -3.833  0.00  0.00    -0.001 A 
ENDROOT
TORSDOF 0
ENDMDL
