MODEL 1
REMARK minimizedAffinity 8.86898041
REMARK minimizedRMSD -1
REMARK  0 active torsions:
REMARK  status: ('A' for Active; 'I' for Inactive)
ROOT
ATOM      1  C   UNL d   1      -4.776   6.000   3.712  0.00  0.00     0.078 C 
ATOM      2  C1  UNL d   1      -4.792   5.947   2.214  0.00  0.00    -0.077 A 
ATOM      3  C2  UNL d   1      -5.997   6.000   1.503  0.00  0.00    -0.001 A 
ATOM      4  C3  UNL d   1      -5.998   5.940   0.108  0.00  0.00     0.003 A 
ATOM      5  C4  UNL d   1      -4.796   5.827  -0.587  0.00  0.00    -0.005 A 
ATOM      6  C5  UNL d   1      -3.591   5.772   0.111  0.00  0.00     0.003 A 
ATOM      7  C6  UNL d   1      -3.589   5.831   1.506  0.00  0.00    -0.001 A 
ENDROOT
TORSDOF 0
ENDMDL
