MODEL 1
REMARK minimizedAffinity 7.14310694
REMARK minimizedRMSD -1
REMARK  0 active torsions:
REMARK  status: ('A' for Active; 'I' for Inactive)
ROOT
ATOM      1  C   UNL d   1      -4.904   6.000   3.072  0.00  0.00     0.078 C 
ATOM      2  C1  UNL d   1      -4.825   5.946   1.575  0.00  0.00    -0.077 A 
ATOM      3  C2  UNL d   1      -3.591   5.856   0.921  0.00  0.00    -0.001 A 
ATOM      4  C3  UNL d   1      -3.532   5.816  -0.473  0.00  0.00     0.003 A 
ATOM      5  C4  UNL d   1      -4.704   5.868  -1.224  0.00  0.00    -0.005 A 
ATOM      6  C5  UNL d   1      -5.937   5.960  -0.582  0.00  0.00     0.003 A 
ATOM      7  C6  UNL d   1      -5.998   6.000   0.812  0.00  0.00    -0.001 A 
ENDROOT
TORSDOF 0
ENDMDL
