MODEL 1
REMARK minimizedAffinity 11.4932318
REMARK minimizedRMSD -1
REMARK  0 active torsions:
REMARK  status: ('A' for Active; 'I' for Inactive)
ROOT
ATOM      1  C   UNL d   1      -1.423   3.206  -2.617  0.00  0.00     0.078 C 
ATOM      2  C1  UNL d   1      -0.759   2.818  -1.330  0.00  0.00    -0.077 A 
ATOM      3  C2  UNL d   1       0.553   3.217  -1.046  0.00  0.00    -0.001 A 
ATOM      4  C3  UNL d   1       1.163   2.840   0.151  0.00  0.00     0.003 A 
ATOM      5  C4  UNL d   1       0.468   2.061   1.075  0.00  0.00    -0.005 A 
ATOM      6  C5  UNL d   1      -0.837   1.657   0.800  0.00  0.00     0.003 A 
ATOM      7  C6  UNL d   1      -1.448   2.033  -0.397  0.00  0.00    -0.001 A 
ENDROOT
TORSDOF 0
ENDMDL
