MODEL 1
REMARK minimizedAffinity 9.36381531
REMARK minimizedRMSD -1
REMARK  0 active torsions:
REMARK  status: ('A' for Active; 'I' for Inactive)
ROOT
ATOM      1  C   UNL d   1       1.559  -4.597  -2.747  0.00  0.00     0.078 C 
ATOM      2  C1  UNL d   1       1.546  -3.615  -3.880  0.00  0.00    -0.077 A 
ATOM      3  C2  UNL d   1       0.593  -3.707  -4.903  0.00  0.00    -0.001 A 
ATOM      4  C3  UNL d   1       0.598  -2.792  -5.956  0.00  0.00     0.003 A 
ATOM      5  C4  UNL d   1       1.555  -1.779  -5.999  0.00  0.00    -0.005 A 
ATOM      6  C5  UNL d   1       2.508  -1.681  -4.988  0.00  0.00     0.003 A 
ATOM      7  C6  UNL d   1       2.504  -2.596  -3.933  0.00  0.00    -0.001 A 
ENDROOT
TORSDOF 0
ENDMDL
