MODEL 1
REMARK minimizedAffinity 2.76898193
REMARK minimizedRMSD -1
REMARK  0 active torsions:
REMARK  status: ('A' for Active; 'I' for Inactive)
ROOT
ATOM      1  C   UNL d   1      -0.238   1.744   0.758  0.00  0.00     0.078 C 
ATOM      2  C1  UNL d   1      -0.303   2.842  -0.261  0.00  0.00    -0.077 A 
ATOM      3  C2  UNL d   1       0.324   4.074  -0.036  0.00  0.00    -0.001 A 
ATOM      4  C3  UNL d   1       0.247   5.090  -0.989  0.00  0.00     0.003 A 
ATOM      5  C4  UNL d   1      -0.456   4.886  -2.175  0.00  0.00    -0.005 A 
ATOM      6  C5  UNL d   1      -1.085   3.664  -2.407  0.00  0.00     0.003 A 
ATOM      7  C6  UNL d   1      -1.010   2.647  -1.455  0.00  0.00    -0.001 A 
ENDROOT
TORSDOF 0
ENDMDL
