MODEL 1
REMARK minimizedAffinity 3.74463439
REMARK minimizedRMSD -1
REMARK  0 active torsions:
REMARK  status: ('A' for Active; 'I' for Inactive)
ROOT
ATOM      1  C   UNL d   1      -1.794   2.815  -3.308  0.00  0.00     0.078 C 
ATOM      2  C1  UNL d   1      -1.092   3.577  -2.224  0.00  0.00    -0.077 A 
ATOM      3  C2  UNL d   1      -0.367   2.912  -1.228  0.00  0.00    -0.001 A 
ATOM      4  C3  UNL d   1       0.273   3.634  -0.219  0.00  0.00     0.003 A 
ATOM      5  C4  UNL d   1       0.194   5.025  -0.197  0.00  0.00    -0.005 A 
ATOM      6  C5  UNL d   1      -0.527   5.695  -1.182  0.00  0.00     0.003 A 
ATOM      7  C6  UNL d   1      -1.168   4.975  -2.192  0.00  0.00    -0.001 A 
ENDROOT
TORSDOF 0
ENDMDL
