MODEL 1
REMARK minimizedAffinity 7.96795702
REMARK minimizedRMSD -1
REMARK  0 active torsions:
REMARK  status: ('A' for Active; 'I' for Inactive)
ROOT
ATOM      1  C   UNL d   1      -4.616   0.171   0.696  0.00  0.00     0.078 C 
ATOM      2  C1  UNL d   1      -3.364   0.501   1.453  0.00  0.00    -0.077 A 
ATOM      3  C2  UNL d   1      -2.104   0.161   0.945  0.00  0.00    -0.001 A 
ATOM      4  C3  UNL d   1      -0.947   0.466   1.665  0.00  0.00     0.003 A 
ATOM      5  C4  UNL d   1      -1.039   1.110   2.897  0.00  0.00    -0.005 A 
ATOM      6  C5  UNL d   1      -2.289   1.450   3.411  0.00  0.00     0.003 A 
ATOM      7  C6  UNL d   1      -3.446   1.146   2.693  0.00  0.00    -0.001 A 
ENDROOT
TORSDOF 0
ENDMDL
