MODEL 1
REMARK minimizedAffinity 3.06364703
REMARK minimizedRMSD -1
REMARK  0 active torsions:
REMARK  status: ('A' for Active; 'I' for Inactive)
ROOT
ATOM      1  C   UNL d   1       0.151   3.545  -0.064  0.00  0.00    -0.002 A 
ATOM      2  C1  UNL d   1       0.653   4.009   1.143  0.00  0.00     0.010 A 
ATOM      3  C2  UNL d   1       1.005   3.115   2.157  0.00  0.00     0.041 A 
ATOM      4  C3  UNL d   1       0.846   1.734   1.933  0.00  0.00    -0.075 A 
ATOM      5  S   UNL d   1       1.212   0.454   3.028  0.00  0.00     0.015 SA
ATOM      6  C4  UNL d   1       0.712  -0.739   1.919  0.00  0.00     0.022 A 
ATOM      7  C5  UNL d   1       0.273  -0.192   0.736  0.00  0.00     0.026 A 
ATOM      8  C6  UNL d   1       0.343   1.242   0.724  0.00  0.00    -0.082 A 
ATOM      9  C7  UNL d   1      -0.006   2.174  -0.283  0.00  0.00     0.045 A 
ENDROOT
TORSDOF 0
ENDMDL
