MODEL 1
REMARK minimizedAffinity 4.44723034
REMARK minimizedRMSD -1
REMARK  0 active torsions:
REMARK  status: ('A' for Active; 'I' for Inactive)
ROOT
ATOM      1  C   UNL d   1       0.949   4.054   1.823  0.00  0.00    -0.002 A 
ATOM      2  C1  UNL d   1       1.214   3.062   2.757  0.00  0.00     0.010 A 
ATOM      3  C2  UNL d   1       0.851   1.737   2.508  0.00  0.00     0.041 A 
ATOM      4  C3  UNL d   1       0.213   1.422   1.292  0.00  0.00    -0.075 A 
ATOM      5  S   UNL d   1      -0.321  -0.132   0.771  0.00  0.00     0.015 SA
ATOM      6  C4  UNL d   1      -0.912   0.483  -0.705  0.00  0.00     0.022 A 
ATOM      7  C5  UNL d   1      -0.715   1.840  -0.813  0.00  0.00     0.026 A 
ATOM      8  C6  UNL d   1      -0.063   2.403   0.335  0.00  0.00    -0.082 A 
ATOM      9  C7  UNL d   1       0.316   3.737   0.618  0.00  0.00     0.045 A 
ENDROOT
TORSDOF 0
ENDMDL
