MODEL 1
REMARK minimizedAffinity 12.5343218
REMARK minimizedRMSD -1
REMARK  0 active torsions:
REMARK  status: ('A' for Active; 'I' for Inactive)
ROOT
ATOM      1  C   UNL d   1      -0.784   0.440  -2.304  0.00  0.00    -0.002 A 
ATOM      2  C1  UNL d   1      -1.642  -0.418  -1.631  0.00  0.00     0.010 A 
ATOM      3  C2  UNL d   1      -2.977  -0.067  -1.419  0.00  0.00     0.041 A 
ATOM      4  C3  UNL d   1      -3.439   1.174  -1.901  0.00  0.00    -0.075 A 
ATOM      5  S   UNL d   1      -5.033   1.815  -1.758  0.00  0.00     0.015 SA
ATOM      6  C4  UNL d   1      -4.613   3.243  -2.588  0.00  0.00     0.022 A 
ATOM      7  C5  UNL d   1      -3.293   3.248  -2.971  0.00  0.00     0.026 A 
ATOM      8  C6  UNL d   1      -2.595   2.055  -2.582  0.00  0.00    -0.082 A 
ATOM      9  C7  UNL d   1      -1.247   1.670  -2.780  0.00  0.00     0.045 A 
ENDROOT
TORSDOF 0
ENDMDL
