MODEL 1
REMARK minimizedAffinity 5.84723616
REMARK minimizedRMSD -1
REMARK  0 active torsions:
REMARK  status: ('A' for Active; 'I' for Inactive)
ROOT
ATOM      1  C   UNL d   1      -0.367   5.331  -1.510  0.00  0.00    -0.002 A 
ATOM      2  C1  UNL d   1      -1.541   5.312  -2.250  0.00  0.00     0.010 A 
ATOM      3  C2  UNL d   1      -2.179   4.105  -2.540  0.00  0.00     0.041 A 
ATOM      4  C3  UNL d   1      -1.614   2.904  -2.066  0.00  0.00    -0.075 A 
ATOM      5  S   UNL d   1      -2.221   1.307  -2.297  0.00  0.00     0.015 SA
ATOM      6  C4  UNL d   1      -0.937   0.612  -1.417  0.00  0.00     0.022 A 
ATOM      7  C5  UNL d   1      -0.058   1.561  -0.952  0.00  0.00     0.026 A 
ATOM      8  C6  UNL d   1      -0.433   2.898  -1.317  0.00  0.00    -0.082 A 
ATOM      9  C7  UNL d   1       0.190   4.138  -1.042  0.00  0.00     0.045 A 
ENDROOT
TORSDOF 0
ENDMDL
