MODEL 1
REMARK minimizedAffinity -0.433155686
REMARK minimizedRMSD -1
REMARK  0 active torsions:
REMARK  status: ('A' for Active; 'I' for Inactive)
ROOT
ATOM      1  C   UNL d   1       0.172   0.489   1.570  0.00  0.00    -0.002 A 
ATOM      2  C1  UNL d   1      -0.103  -0.032   0.313  0.00  0.00     0.010 A 
ATOM      3  C2  UNL d   1      -0.351   0.815  -0.768  0.00  0.00     0.041 A 
ATOM      4  C3  UNL d   1      -0.315   2.209  -0.564  0.00  0.00    -0.075 A 
ATOM      5  S   UNL d   1      -0.586   3.439  -1.742  0.00  0.00     0.015 SA
ATOM      6  C4  UNL d   1      -0.343   4.685  -0.604  0.00  0.00     0.022 A 
ATOM      7  C5  UNL d   1      -0.061   4.192   0.648  0.00  0.00     0.026 A 
ATOM      8  C6  UNL d   1      -0.040   2.757   0.692  0.00  0.00    -0.082 A 
ATOM      9  C7  UNL d   1       0.206   1.871   1.768  0.00  0.00     0.045 A 
ENDROOT
TORSDOF 0
ENDMDL
