MODEL 1
REMARK minimizedAffinity 8.47978687
REMARK minimizedRMSD -1
REMARK  2 active torsions:
REMARK  status: ('A' for Active; 'I' for Inactive)
REMARK    1  A    between atoms: C1_2  and  C2_3 
REMARK    2  A    between atoms: C2_3  and  C3_4 
ROOT
ATOM      1  C3  UNL d   1      -1.094  -0.000   0.076  0.00  0.00    -0.075 A 
ATOM      2  C4  UNL d   1      -0.734  -0.161  -1.270  0.00  0.00     0.002 A 
ATOM      3  C5  UNL d   1       0.607  -0.276  -1.636  0.00  0.00     0.002 A 
ATOM      4  C6  UNL d   1       1.604  -0.222  -0.665  0.00  0.00    -0.004 A 
ATOM      5  C7  UNL d   1       1.259  -0.046   0.674  0.00  0.00     0.002 A 
ATOM      6  C8  UNL d   1      -0.082   0.065   1.043  0.00  0.00     0.002 A 
ENDROOT
BRANCH   1   7
ATOM      7  C2  UNL d   1      -2.545   0.095   0.482  0.00  0.00     0.056 C 
BRANCH   7   8
ATOM      8  C1  UNL d   1      -2.766   0.161   1.997  0.00  0.00     0.007 C 
ATOM      9  C   UNL d   1      -3.245  -1.156   2.591  0.00  0.00     0.009 C 
ENDBRANCH   7   8
ENDBRANCH   1   7
TORSDOF 2
ENDMDL
