MODEL 1
REMARK minimizedAffinity -3.90763855
REMARK minimizedRMSD -1
REMARK  2 active torsions:
REMARK  status: ('A' for Active; 'I' for Inactive)
REMARK    1  A    between atoms: C1_2  and  C2_3 
REMARK    2  A    between atoms: C2_3  and  C3_4 
ROOT
ATOM      1  C3  UNL d   1       0.175  -0.187   3.587  0.00  0.00    -0.075 A 
ATOM      2  C4  UNL d   1      -0.236   0.133   2.285  0.00  0.00     0.002 A 
ATOM      3  C5  UNL d   1      -1.188   1.130   2.067  0.00  0.00     0.002 A 
ATOM      4  C6  UNL d   1      -1.747   1.811   3.146  0.00  0.00    -0.004 A 
ATOM      5  C7  UNL d   1      -1.359   1.489   4.445  0.00  0.00     0.002 A 
ATOM      6  C8  UNL d   1      -0.404   0.496   4.666  0.00  0.00     0.002 A 
ENDROOT
BRANCH   1   7
ATOM      7  C2  UNL d   1       1.226  -1.244   3.828  0.00  0.00     0.056 C 
BRANCH   7   8
ATOM      8  C1  UNL d   1       2.199  -0.908   4.963  0.00  0.00     0.007 C 
ATOM      9  C   UNL d   1       2.784  -2.143   5.637  0.00  0.00     0.009 C 
ENDBRANCH   7   8
ENDBRANCH   1   7
TORSDOF 2
ENDMDL
