MODEL 1
REMARK minimizedAffinity 1.85118723
REMARK minimizedRMSD -1
REMARK  2 active torsions:
REMARK  status: ('A' for Active; 'I' for Inactive)
REMARK    1  A    between atoms: C1_2  and  C2_3 
REMARK    2  A    between atoms: C2_3  and  C3_4 
ROOT
ATOM      1  C3  UNL d   1      -0.867  -0.249   2.771  0.00  0.00    -0.075 A 
ATOM      2  C4  UNL d   1      -1.552   0.097   1.597  0.00  0.00     0.002 A 
ATOM      3  C5  UNL d   1      -0.870   0.206   0.385  0.00  0.00     0.002 A 
ATOM      4  C6  UNL d   1       0.504  -0.020   0.332  0.00  0.00    -0.004 A 
ATOM      5  C7  UNL d   1       1.197  -0.348   1.495  0.00  0.00     0.002 A 
ATOM      6  C8  UNL d   1       0.516  -0.461   2.709  0.00  0.00     0.002 A 
ENDROOT
BRANCH   1   7
ATOM      7  C2  UNL d   1      -1.604  -0.396   4.081  0.00  0.00     0.056 C 
BRANCH   7   8
ATOM      8  C1  UNL d   1      -2.464  -1.661   4.174  0.00  0.00     0.007 C 
ATOM      9  C   UNL d   1      -3.715  -1.602   3.308  0.00  0.00     0.009 C 
ENDBRANCH   7   8
ENDBRANCH   1   7
TORSDOF 2
ENDMDL
