MODEL 1
REMARK minimizedAffinity 7.80269337
REMARK minimizedRMSD -1
REMARK  2 active torsions:
REMARK  status: ('A' for Active; 'I' for Inactive)
REMARK    1  A    between atoms: C1_2  and  C2_3 
REMARK    2  A    between atoms: C2_3  and  C3_4 
ROOT
ATOM      1  C3  UNL d   1      -0.373  -0.153   2.041  0.00  0.00    -0.075 A 
ATOM      2  C4  UNL d   1      -1.487   0.286   2.771  0.00  0.00     0.002 A 
ATOM      3  C5  UNL d   1      -2.702   0.532   2.131  0.00  0.00     0.002 A 
ATOM      4  C6  UNL d   1      -2.816   0.352   0.755  0.00  0.00    -0.004 A 
ATOM      5  C7  UNL d   1      -1.712  -0.068   0.016  0.00  0.00     0.002 A 
ATOM      6  C8  UNL d   1      -0.496  -0.319   0.655  0.00  0.00     0.002 A 
ENDROOT
BRANCH   1   7
ATOM      7  C2  UNL d   1       0.936  -0.450   2.732  0.00  0.00     0.056 C 
BRANCH   7   8
ATOM      8  C1  UNL d   1       0.784  -1.186   4.067  0.00  0.00     0.007 C 
ATOM      9  C   UNL d   1       2.091  -1.302   4.841  0.00  0.00     0.009 C 
ENDBRANCH   7   8
ENDBRANCH   1   7
TORSDOF 2
ENDMDL
