MODEL 1
REMARK minimizedAffinity -0.971855342
REMARK minimizedRMSD -1
REMARK  2 active torsions:
REMARK  status: ('A' for Active; 'I' for Inactive)
REMARK    1  A    between atoms: C1_2  and  C2_3 
REMARK    2  A    between atoms: C2_3  and  C3_4 
ROOT
ATOM      1  C3  UNL d   1      -1.055  -0.553   2.847  0.00  0.00    -0.075 A 
ATOM      2  C4  UNL d   1      -0.577  -1.356   3.893  0.00  0.00     0.002 A 
ATOM      3  C5  UNL d   1      -1.456  -2.127   4.653  0.00  0.00     0.002 A 
ATOM      4  C6  UNL d   1      -2.823  -2.099   4.385  0.00  0.00    -0.004 A 
ATOM      5  C7  UNL d   1      -3.311  -1.293   3.359  0.00  0.00     0.002 A 
ATOM      6  C8  UNL d   1      -2.433  -0.523   2.594  0.00  0.00     0.002 A 
ENDROOT
BRANCH   1   7
ATOM      7  C2  UNL d   1      -0.105   0.261   2.002  0.00  0.00     0.056 C 
BRANCH   7   8
ATOM      8  C1  UNL d   1       0.148  -0.324   0.609  0.00  0.00     0.007 C 
ATOM      9  C   UNL d   1      -1.033  -0.157  -0.337  0.00  0.00     0.009 C 
ENDBRANCH   7   8
ENDBRANCH   1   7
TORSDOF 2
ENDMDL
