MODEL 1
REMARK minimizedAffinity -2.34175467
REMARK minimizedRMSD -1
REMARK  2 active torsions:
REMARK  status: ('A' for Active; 'I' for Inactive)
REMARK    1  A    between atoms: C1_2  and  C2_3 
REMARK    2  A    between atoms: C2_3  and  C3_4 
ROOT
ATOM      1  C3  UNL d   1      -0.987  -0.386   2.333  0.00  0.00    -0.075 A 
ATOM      2  C4  UNL d   1      -2.274   0.086   2.037  0.00  0.00     0.002 A 
ATOM      3  C5  UNL d   1      -2.709   0.175   0.714  0.00  0.00     0.002 A 
ATOM      4  C6  UNL d   1      -1.861  -0.196  -0.327  0.00  0.00    -0.004 A 
ATOM      5  C7  UNL d   1      -0.575  -0.651  -0.045  0.00  0.00     0.002 A 
ATOM      6  C8  UNL d   1      -0.139  -0.745   1.277  0.00  0.00     0.002 A 
ENDROOT
BRANCH   1   7
ATOM      7  C2  UNL d   1      -0.521  -0.513   3.764  0.00  0.00     0.056 C 
BRANCH   7   8
ATOM      8  C1  UNL d   1       0.667  -1.463   3.952  0.00  0.00     0.007 C 
ATOM      9  C   UNL d   1       0.951  -1.787   5.412  0.00  0.00     0.009 C 
ENDBRANCH   7   8
ENDBRANCH   1   7
TORSDOF 2
ENDMDL
