MODEL 1
REMARK minimizedAffinity 4.32472277
REMARK minimizedRMSD -1
REMARK  0 active torsions:
REMARK  status: ('A' for Active; 'I' for Inactive)
ROOT
ATOM      1  C   UNL d   1       1.875  -0.010   0.205  0.00  0.00     0.078 C 
ATOM      2  C1  UNL d   1       1.090   1.268   0.192  0.00  0.00    -0.077 A 
ATOM      3  C2  UNL d   1       1.449   2.326  -0.651  0.00  0.00    -0.001 A 
ATOM      4  C3  UNL d   1       0.714   3.513  -0.646  0.00  0.00     0.003 A 
ATOM      5  C4  UNL d   1      -0.383   3.653   0.201  0.00  0.00    -0.005 A 
ATOM      6  C5  UNL d   1      -0.746   2.606   1.045  0.00  0.00     0.003 A 
ATOM      7  C6  UNL d   1      -0.013   1.418   1.041  0.00  0.00    -0.001 A 
ENDROOT
TORSDOF 0
ENDMDL
