MODEL 1
REMARK minimizedAffinity -0.55794096
REMARK minimizedRMSD -1
REMARK  0 active torsions:
REMARK  status: ('A' for Active; 'I' for Inactive)
ROOT
ATOM      1  C   UNL d   1      -0.062  -2.203   1.543  0.00  0.00     0.078 C 
ATOM      2  C1  UNL d   1      -0.759  -3.467   1.950  0.00  0.00    -0.077 A 
ATOM      3  C2  UNL d   1      -0.607  -3.992   3.239  0.00  0.00    -0.001 A 
ATOM      4  C3  UNL d   1      -1.254  -5.175   3.601  0.00  0.00     0.003 A 
ATOM      5  C4  UNL d   1      -2.057  -5.843   2.678  0.00  0.00    -0.005 A 
ATOM      6  C5  UNL d   1      -2.212  -5.330   1.392  0.00  0.00     0.003 A 
ATOM      7  C6  UNL d   1      -1.566  -4.148   1.029  0.00  0.00    -0.001 A 
ENDROOT
TORSDOF 0
ENDMDL
