MODEL 1
REMARK minimizedAffinity 5.23309469
REMARK minimizedRMSD -1
REMARK  0 active torsions:
REMARK  status: ('A' for Active; 'I' for Inactive)
ROOT
ATOM      1  C   UNL d   1       2.609   2.774   0.634  0.00  0.00     0.078 C 
ATOM      2  C1  UNL d   1       1.115   2.795   0.771  0.00  0.00    -0.077 A 
ATOM      3  C2  UNL d   1       0.312   3.415  -0.193  0.00  0.00    -0.001 A 
ATOM      4  C3  UNL d   1      -1.077   3.435  -0.048  0.00  0.00     0.003 A 
ATOM      5  C4  UNL d   1      -1.673   2.838   1.061  0.00  0.00    -0.005 A 
ATOM      6  C5  UNL d   1      -0.881   2.221   2.027  0.00  0.00     0.003 A 
ATOM      7  C6  UNL d   1       0.507   2.200   1.883  0.00  0.00    -0.001 A 
ENDROOT
TORSDOF 0
ENDMDL
