MODEL 1
REMARK minimizedAffinity 2.21750426
REMARK minimizedRMSD -1
REMARK  0 active torsions:
REMARK  status: ('A' for Active; 'I' for Inactive)
ROOT
ATOM      1  C   UNL d   1      -5.997   5.635  -3.674  0.00  0.00     0.078 C 
ATOM      2  C1  UNL d   1      -5.999   4.791  -2.434  0.00  0.00    -0.077 A 
ATOM      3  C2  UNL d   1      -5.997   5.377  -1.163  0.00  0.00    -0.001 A 
ATOM      4  C3  UNL d   1      -5.989   4.579  -0.018  0.00  0.00     0.003 A 
ATOM      5  C4  UNL d   1      -5.981   3.190  -0.133  0.00  0.00    -0.005 A 
ATOM      6  C5  UNL d   1      -5.981   2.598  -1.394  0.00  0.00     0.003 A 
ATOM      7  C6  UNL d   1      -5.989   3.394  -2.540  0.00  0.00    -0.001 A 
ENDROOT
TORSDOF 0
ENDMDL
