MODEL 1
REMARK minimizedAffinity -3.66700578
REMARK minimizedRMSD -1
REMARK  0 active torsions:
REMARK  status: ('A' for Active; 'I' for Inactive)
ROOT
ATOM      1  C   UNL d   1       2.788   2.211   0.567  0.00  0.00     0.078 C 
ATOM      2  C1  UNL d   1       1.292   2.146   0.489  0.00  0.00    -0.077 A 
ATOM      3  C2  UNL d   1       0.537   3.275   0.148  0.00  0.00    -0.001 A 
ATOM      4  C3  UNL d   1      -0.855   3.203   0.089  0.00  0.00     0.003 A 
ATOM      5  C4  UNL d   1      -1.506   2.003   0.371  0.00  0.00    -0.005 A 
ATOM      6  C5  UNL d   1      -0.764   0.875   0.714  0.00  0.00     0.003 A 
ATOM      7  C6  UNL d   1       0.629   0.945   0.773  0.00  0.00    -0.001 A 
ENDROOT
TORSDOF 0
ENDMDL
