MODEL 1
REMARK minimizedAffinity 0.21181944
REMARK minimizedRMSD -1
REMARK  0 active torsions:
REMARK  status: ('A' for Active; 'I' for Inactive)
ROOT
ATOM      1  C   UNL d   1      -3.515   2.142  -0.101  0.00  0.00     0.078 C 
ATOM      2  C1  UNL d   1      -2.086   2.223   0.347  0.00  0.00    -0.077 A 
ATOM      3  C2  UNL d   1      -1.422   1.097   0.846  0.00  0.00    -0.001 A 
ATOM      4  C3  UNL d   1      -0.095   1.189   1.268  0.00  0.00     0.003 A 
ATOM      5  C4  UNL d   1       0.579   2.407   1.197  0.00  0.00    -0.005 A 
ATOM      6  C5  UNL d   1      -0.075   3.534   0.704  0.00  0.00     0.003 A 
ATOM      7  C6  UNL d   1      -1.402   3.443   0.281  0.00  0.00    -0.001 A 
ENDROOT
TORSDOF 0
ENDMDL
