MODEL 1
REMARK minimizedAffinity 3.74707794
REMARK minimizedRMSD -1
REMARK  0 active torsions:
REMARK  status: ('A' for Active; 'I' for Inactive)
ROOT
ATOM      1  C   UNL d   1       1.139   0.767  -3.965  0.00  0.00     0.078 C 
ATOM      2  C1  UNL d   1       1.490   0.288  -2.588  0.00  0.00    -0.077 A 
ATOM      3  C2  UNL d   1       1.562   1.179  -1.511  0.00  0.00    -0.001 A 
ATOM      4  C3  UNL d   1       1.898   0.721  -0.236  0.00  0.00     0.003 A 
ATOM      5  C4  UNL d   1       2.167  -0.630  -0.027  0.00  0.00    -0.005 A 
ATOM      6  C5  UNL d   1       2.101  -1.525  -1.094  0.00  0.00     0.003 A 
ATOM      7  C6  UNL d   1       1.764  -1.068  -2.369  0.00  0.00    -0.001 A 
ENDROOT
TORSDOF 0
ENDMDL
