MODEL 1
REMARK minimizedAffinity -1.29651737
REMARK minimizedRMSD -1
REMARK  0 active torsions:
REMARK  status: ('A' for Active; 'I' for Inactive)
ROOT
ATOM      1  C   UNL d   1       2.522  -0.061   0.485  0.00  0.00     0.078 C 
ATOM      2  C1  UNL d   1       1.926   1.282   0.183  0.00  0.00    -0.077 A 
ATOM      3  C2  UNL d   1       0.777   1.727   0.848  0.00  0.00    -0.001 A 
ATOM      4  C3  UNL d   1       0.228   2.975   0.550  0.00  0.00     0.003 A 
ATOM      5  C4  UNL d   1       0.821   3.788  -0.414  0.00  0.00    -0.005 A 
ATOM      6  C5  UNL d   1       1.963   3.353  -1.082  0.00  0.00     0.003 A 
ATOM      7  C6  UNL d   1       2.514   2.106  -0.785  0.00  0.00    -0.001 A 
ENDROOT
TORSDOF 0
ENDMDL
