MODEL 1
REMARK minimizedAffinity 2.86294651
REMARK minimizedRMSD -1
REMARK  0 active torsions:
REMARK  status: ('A' for Active; 'I' for Inactive)
ROOT
ATOM      1  C   UNL d   1      -0.585   2.343   1.051  0.00  0.00     0.078 C 
ATOM      2  C1  UNL d   1       0.616   1.467   0.855  0.00  0.00    -0.077 A 
ATOM      3  C2  UNL d   1       1.906   2.011   0.817  0.00  0.00    -0.001 A 
ATOM      4  C3  UNL d   1       3.015   1.186   0.624  0.00  0.00     0.003 A 
ATOM      5  C4  UNL d   1       2.845  -0.188   0.466  0.00  0.00    -0.005 A 
ATOM      6  C5  UNL d   1       1.565  -0.738   0.501  0.00  0.00     0.003 A 
ATOM      7  C6  UNL d   1       0.455   0.086   0.693  0.00  0.00    -0.001 A 
ENDROOT
TORSDOF 0
ENDMDL
