MODEL 1
REMARK minimizedAffinity 6.06170607
REMARK minimizedRMSD -1
REMARK  0 active torsions:
REMARK  status: ('A' for Active; 'I' for Inactive)
ROOT
ATOM      1  C   UNL d   1      -1.106   2.637   0.945  0.00  0.00     0.078 C 
ATOM      2  C1  UNL d   1       0.342   2.743   0.570  0.00  0.00    -0.077 A 
ATOM      3  C2  UNL d   1       1.285   1.835   1.069  0.00  0.00    -0.001 A 
ATOM      4  C3  UNL d   1       2.631   1.951   0.719  0.00  0.00     0.003 A 
ATOM      5  C4  UNL d   1       3.047   2.974  -0.131  0.00  0.00    -0.005 A 
ATOM      6  C5  UNL d   1       2.117   3.883  -0.631  0.00  0.00     0.003 A 
ATOM      7  C6  UNL d   1       0.770   3.769  -0.282  0.00  0.00    -0.001 A 
ENDROOT
TORSDOF 0
ENDMDL
