MODEL 1
REMARK minimizedAffinity 10.473424
REMARK minimizedRMSD -1
REMARK  0 active torsions:
REMARK  status: ('A' for Active; 'I' for Inactive)
ROOT
ATOM      1  C   UNL d   1       2.665   1.089   0.227  0.00  0.00     0.078 C 
ATOM      2  C1  UNL d   1       1.395   1.647   0.796  0.00  0.00    -0.077 A 
ATOM      3  C2  UNL d   1       0.456   0.814   1.418  0.00  0.00    -0.001 A 
ATOM      4  C3  UNL d   1      -0.726   1.346   1.935  0.00  0.00     0.003 A 
ATOM      5  C4  UNL d   1      -0.981   2.712   1.834  0.00  0.00    -0.005 A 
ATOM      6  C5  UNL d   1      -0.054   3.548   1.215  0.00  0.00     0.003 A 
ATOM      7  C6  UNL d   1       1.129   3.018   0.698  0.00  0.00    -0.001 A 
ENDROOT
TORSDOF 0
ENDMDL
