MODEL 1
REMARK minimizedAffinity -4.59306431
REMARK minimizedRMSD -1
REMARK  1 active torsions:
REMARK  status: ('A' for Active; 'I' for Inactive)
REMARK    1  A    between atoms: C3_4  and  O_7 
ROOT
ATOM      1  C   UNL d   1      -0.267   0.145  -0.013  0.00  0.00    -0.033 A 
ATOM      2  C1  UNL d   1      -1.239  -0.562   0.697  0.00  0.00     0.039 A 
ATOM      3  C2  UNL d   1      -1.079  -1.930   0.929  0.00  0.00    -0.080 A 
ATOM      4  C3  UNL d   1       0.055  -2.577   0.447  0.00  0.00     0.150 A 
ATOM      5  C4  UNL d   1       1.029  -1.878  -0.258  0.00  0.00    -0.007 A 
ATOM      6  C5  UNL d   1       0.868  -0.512  -0.490  0.00  0.00     0.039 A 
ENDROOT
BRANCH   4   7
ATOM      7  O   UNL d   1       0.252  -3.911   0.645  0.00  0.00    -0.526 OA
ATOM      8  H5  UNL d   1      -0.515  -4.268   1.121  0.00  0.00     0.418 HD
ENDBRANCH   4   7
TORSDOF 1
ENDMDL
