MODEL 1
REMARK minimizedAffinity -4.32603168
REMARK minimizedRMSD -1
REMARK  1 active torsions:
REMARK  status: ('A' for Active; 'I' for Inactive)
REMARK    1  A    between atoms: C3_4  and  O_7 
ROOT
ATOM      1  C   UNL d   1       0.217  -2.856   1.050  0.00  0.00    -0.033 A 
ATOM      2  C1  UNL d   1      -0.840  -1.983   1.314  0.00  0.00     0.039 A 
ATOM      3  C2  UNL d   1      -0.912  -0.753   0.659  0.00  0.00    -0.080 A 
ATOM      4  C3  UNL d   1       0.077  -0.408  -0.258  0.00  0.00     0.150 A 
ATOM      5  C4  UNL d   1       1.131  -1.274  -0.529  0.00  0.00    -0.007 A 
ATOM      6  C5  UNL d   1       1.202  -2.502   0.127  0.00  0.00     0.039 A 
ENDROOT
BRANCH   4   7
ATOM      7  O   UNL d   1       0.052   0.784  -0.919  0.00  0.00    -0.526 OA
ATOM      8  H5  UNL d   1      -0.717   1.291  -0.610  0.00  0.00     0.418 HD
ENDBRANCH   4   7
TORSDOF 1
ENDMDL
