MODEL 1
REMARK minimizedAffinity -3.37244844
REMARK minimizedRMSD -1
REMARK  1 active torsions:
REMARK  status: ('A' for Active; 'I' for Inactive)
REMARK    1  A    between atoms: C3_4  and  O_7 
ROOT
ATOM      1  C   UNL d   1      -0.085   0.585   0.255  0.00  0.00    -0.033 A 
ATOM      2  C1  UNL d   1       1.072  -0.094  -0.132  0.00  0.00     0.039 A 
ATOM      3  C2  UNL d   1       1.132  -1.486  -0.039  0.00  0.00    -0.080 A 
ATOM      4  C3  UNL d   1       0.029  -2.186   0.442  0.00  0.00     0.150 A 
ATOM      5  C4  UNL d   1      -1.128  -1.517   0.826  0.00  0.00    -0.007 A 
ATOM      6  C5  UNL d   1      -1.186  -0.127   0.733  0.00  0.00     0.039 A 
ENDROOT
BRANCH   4   7
ATOM      7  O   UNL d   1       0.042  -3.545   0.555  0.00  0.00    -0.526 OA
ATOM      8  H5  UNL d   1       0.916  -3.868   0.281  0.00  0.00     0.418 HD
ENDBRANCH   4   7
TORSDOF 1
ENDMDL
