MODEL 1
REMARK minimizedAffinity -3.6769166
REMARK minimizedRMSD -1
REMARK  1 active torsions:
REMARK  status: ('A' for Active; 'I' for Inactive)
REMARK    1  A    between atoms: C3_4  and  O_7 
ROOT
ATOM      1  C   UNL d   1      -0.383  -2.650   0.226  0.00  0.00    -0.033 A 
ATOM      2  C1  UNL d   1      -1.095  -1.858   1.128  0.00  0.00     0.039 A 
ATOM      3  C2  UNL d   1      -1.050  -0.466   1.024  0.00  0.00    -0.080 A 
ATOM      4  C3  UNL d   1      -0.293   0.120   0.014  0.00  0.00     0.150 A 
ATOM      5  C4  UNL d   1       0.416  -0.664  -0.891  0.00  0.00    -0.007 A 
ATOM      6  C5  UNL d   1       0.371  -2.053  -0.785  0.00  0.00     0.039 A 
ENDROOT
BRANCH   4   7
ATOM      7  O   UNL d   1      -0.215   1.474  -0.125  0.00  0.00    -0.526 OA
ATOM      8  H5  UNL d   1      -0.731   1.886   0.588  0.00  0.00     0.418 HD
ENDBRANCH   4   7
TORSDOF 1
ENDMDL
