MODEL 1
REMARK minimizedAffinity -4.8343215
REMARK minimizedRMSD -1
REMARK  1 active torsions:
REMARK  status: ('A' for Active; 'I' for Inactive)
REMARK    1  A    between atoms: C3_4  and  O_7 
ROOT
ATOM      1  C   UNL d   1      -0.044   0.432  -0.132  0.00  0.00    -0.033 A 
ATOM      2  C1  UNL d   1       0.747  -0.410  -0.916  0.00  0.00     0.039 A 
ATOM      3  C2  UNL d   1       0.827  -1.772  -0.618  0.00  0.00    -0.080 A 
ATOM      4  C3  UNL d   1       0.111  -2.278   0.463  0.00  0.00     0.150 A 
ATOM      5  C4  UNL d   1      -0.682  -1.445   1.245  0.00  0.00    -0.007 A 
ATOM      6  C5  UNL d   1      -0.760  -0.086   0.947  0.00  0.00     0.039 A 
ENDROOT
BRANCH   4   7
ATOM      7  O   UNL d   1       0.161  -3.599   0.795  0.00  0.00    -0.526 OA
ATOM      8  H5  UNL d   1       0.770  -4.047   0.185  0.00  0.00     0.418 HD
ENDBRANCH   4   7
TORSDOF 1
ENDMDL
