MODEL 1
REMARK minimizedAffinity -3.73936176
REMARK minimizedRMSD -1
REMARK  1 active torsions:
REMARK  status: ('A' for Active; 'I' for Inactive)
REMARK    1  A    between atoms: C3_4  and  O_7 
ROOT
ATOM      1  C   UNL d   1       0.253   0.422  -0.992  0.00  0.00    -0.033 A 
ATOM      2  C1  UNL d   1       0.905  -0.603  -1.679  0.00  0.00     0.039 A 
ATOM      3  C2  UNL d   1       0.905  -1.901  -1.166  0.00  0.00    -0.080 A 
ATOM      4  C3  UNL d   1       0.248  -2.161   0.034  0.00  0.00     0.150 A 
ATOM      5  C4  UNL d   1      -0.408  -1.146   0.722  0.00  0.00    -0.007 A 
ATOM      6  C5  UNL d   1      -0.405   0.150   0.208  0.00  0.00     0.039 A 
ENDROOT
BRANCH   4   7
ATOM      7  O   UNL d   1       0.224  -3.411   0.577  0.00  0.00    -0.526 OA
ATOM      8  H5  UNL d   1       0.742  -4.004   0.007  0.00  0.00     0.418 HD
ENDBRANCH   4   7
TORSDOF 1
ENDMDL
