MODEL 1
REMARK minimizedAffinity -5.90996265
REMARK minimizedRMSD -1
REMARK  1 active torsions:
REMARK  status: ('A' for Active; 'I' for Inactive)
REMARK    1  A    between atoms: C3_4  and  O_7 
ROOT
ATOM      1  C   UNL d   1       0.355  -0.295  -1.815  0.00  0.00    -0.033 A 
ATOM      2  C1  UNL d   1      -0.090  -0.248  -0.493  0.00  0.00     0.039 A 
ATOM      3  C2  UNL d   1      -0.196  -1.425   0.252  0.00  0.00    -0.080 A 
ATOM      4  C3  UNL d   1       0.147  -2.639  -0.336  0.00  0.00     0.150 A 
ATOM      5  C4  UNL d   1       0.595  -2.692  -1.652  0.00  0.00    -0.007 A 
ATOM      6  C5  UNL d   1       0.699  -1.517  -2.394  0.00  0.00     0.039 A 
ENDROOT
BRANCH   4   7
ATOM      7  O   UNL d   1       0.055  -3.814   0.350  0.00  0.00    -0.526 OA
ATOM      8  H5  UNL d   1      -0.296  -3.626   1.236  0.00  0.00     0.418 HD
ENDBRANCH   4   7
TORSDOF 1
ENDMDL
