MODEL 1
REMARK minimizedAffinity -4.10671282
REMARK minimizedRMSD -1
REMARK  1 active torsions:
REMARK  status: ('A' for Active; 'I' for Inactive)
REMARK    1  A    between atoms: C3_4  and  O_7 
ROOT
ATOM      1  C   UNL d   1      -0.787  -0.357   1.135  0.00  0.00    -0.033 A 
ATOM      2  C1  UNL d   1      -0.916  -1.699   0.771  0.00  0.00     0.039 A 
ATOM      3  C2  UNL d   1      -0.707  -2.089  -0.553  0.00  0.00    -0.080 A 
ATOM      4  C3  UNL d   1      -0.369  -1.128  -1.503  0.00  0.00     0.150 A 
ATOM      5  C4  UNL d   1      -0.236   0.210  -1.147  0.00  0.00    -0.007 A 
ATOM      6  C5  UNL d   1      -0.446   0.597   0.176  0.00  0.00     0.039 A 
ENDROOT
BRANCH   4   7
ATOM      7  O   UNL d   1      -0.160  -1.460  -2.808  0.00  0.00    -0.526 OA
ATOM      8  H5  UNL d   1      -0.315  -2.413  -2.912  0.00  0.00     0.418 HD
ENDBRANCH   4   7
TORSDOF 1
ENDMDL
