MODEL 1
REMARK minimizedAffinity -4.50423861
REMARK minimizedRMSD -1
REMARK  1 active torsions:
REMARK  status: ('A' for Active; 'I' for Inactive)
REMARK    1  A    between atoms: C3_4  and  O_7 
ROOT
ATOM      1  C   UNL d   1      -0.663   0.030   0.115  0.00  0.00    -0.033 A 
ATOM      2  C1  UNL d   1      -1.512  -0.903   0.711  0.00  0.00     0.039 A 
ATOM      3  C2  UNL d   1      -1.053  -2.192   0.988  0.00  0.00    -0.080 A 
ATOM      4  C3  UNL d   1       0.258  -2.534   0.665  0.00  0.00     0.150 A 
ATOM      5  C4  UNL d   1       1.111  -1.608   0.074  0.00  0.00    -0.007 A 
ATOM      6  C5  UNL d   1       0.650  -0.322  -0.203  0.00  0.00     0.039 A 
ENDROOT
BRANCH   4   7
ATOM      7  O   UNL d   1       0.750  -3.781   0.912  0.00  0.00    -0.526 OA
ATOM      8  H5  UNL d   1       0.040  -4.322   1.296  0.00  0.00     0.418 HD
ENDBRANCH   4   7
TORSDOF 1
ENDMDL
