MODEL 1
REMARK minimizedAffinity -4.21261835
REMARK minimizedRMSD -1
REMARK  1 active torsions:
REMARK  status: ('A' for Active; 'I' for Inactive)
REMARK    1  A    between atoms: C3_4  and  O_7 
ROOT
ATOM      1  C   UNL d   1       0.054   0.223  -1.087  0.00  0.00    -0.033 A 
ATOM      2  C1  UNL d   1      -0.203   0.202   0.285  0.00  0.00     0.039 A 
ATOM      3  C2  UNL d   1      -0.259  -1.015   0.967  0.00  0.00    -0.080 A 
ATOM      4  C3  UNL d   1      -0.057  -2.201   0.267  0.00  0.00     0.150 A 
ATOM      5  C4  UNL d   1       0.203  -2.187  -1.099  0.00  0.00    -0.007 A 
ATOM      6  C5  UNL d   1       0.258  -0.971  -1.779  0.00  0.00     0.039 A 
ENDROOT
BRANCH   4   7
ATOM      7  O   UNL d   1      -0.107  -3.413   0.889  0.00  0.00    -0.526 OA
ATOM      8  H5  UNL d   1      -0.324  -3.270   1.825  0.00  0.00     0.418 HD
ENDBRANCH   4   7
TORSDOF 1
ENDMDL
