MODEL 1
REMARK minimizedAffinity -5.31194305
REMARK minimizedRMSD -1
REMARK  1 active torsions:
REMARK  status: ('A' for Active; 'I' for Inactive)
REMARK    1  A    between atoms: C3_4  and  O_7 
ROOT
ATOM      1  C   UNL d   1       0.214  -3.442  -0.940  0.00  0.00    -0.033 A 
ATOM      2  C1  UNL d   1       0.383  -2.561  -2.010  0.00  0.00     0.039 A 
ATOM      3  C2  UNL d   1       0.489  -1.188  -1.777  0.00  0.00    -0.080 A 
ATOM      4  C3  UNL d   1       0.426  -0.711  -0.471  0.00  0.00     0.150 A 
ATOM      5  C4  UNL d   1       0.262  -1.583   0.600  0.00  0.00    -0.007 A 
ATOM      6  C5  UNL d   1       0.155  -2.953   0.365  0.00  0.00     0.039 A 
ENDROOT
BRANCH   4   7
ATOM      7  O   UNL d   1       0.520   0.621  -0.194  0.00  0.00    -0.526 OA
ATOM      8  H5  UNL d   1       0.602   1.105  -1.033  0.00  0.00     0.418 HD
ENDBRANCH   4   7
TORSDOF 1
ENDMDL
