MODEL 1
REMARK minimizedAffinity -3.8133328
REMARK minimizedRMSD -1
REMARK  1 active torsions:
REMARK  status: ('A' for Active; 'I' for Inactive)
REMARK    1  A    between atoms: C3_4  and  O_7 
ROOT
ATOM      1  C   UNL d   1       1.357  -1.285   0.257  0.00  0.00    -0.033 A 
ATOM      2  C1  UNL d   1       0.301  -0.426   0.567  0.00  0.00     0.039 A 
ATOM      3  C2  UNL d   1      -0.992  -0.931   0.716  0.00  0.00    -0.080 A 
ATOM      4  C3  UNL d   1      -1.215  -2.295   0.553  0.00  0.00     0.150 A 
ATOM      5  C4  UNL d   1      -0.167  -3.158   0.248  0.00  0.00    -0.007 A 
ATOM      6  C5  UNL d   1       1.123  -2.651   0.098  0.00  0.00     0.039 A 
ENDROOT
BRANCH   4   7
ATOM      7  O   UNL d   1      -2.461  -2.834   0.684  0.00  0.00    -0.526 OA
ATOM      8  H5  UNL d   1      -3.089  -2.116   0.867  0.00  0.00     0.418 HD
ENDBRANCH   4   7
TORSDOF 1
ENDMDL
