MODEL 1
REMARK minimizedAffinity -4.3074255
REMARK minimizedRMSD -1
REMARK  1 active torsions:
REMARK  status: ('A' for Active; 'I' for Inactive)
REMARK    1  A    between atoms: C3_4  and  O_7 
ROOT
ATOM      1  C   UNL d   1       0.075   0.607  -0.859  0.00  0.00    -0.033 A 
ATOM      2  C1  UNL d   1      -0.610   0.311   0.321  0.00  0.00     0.039 A 
ATOM      3  C2  UNL d   1      -0.544  -0.973   0.866  0.00  0.00    -0.080 A 
ATOM      4  C3  UNL d   1       0.209  -1.951   0.222  0.00  0.00     0.150 A 
ATOM      5  C4  UNL d   1       0.897  -1.662  -0.952  0.00  0.00    -0.007 A 
ATOM      6  C5  UNL d   1       0.830  -0.380  -1.495  0.00  0.00     0.039 A 
ENDROOT
BRANCH   4   7
ATOM      7  O   UNL d   1       0.300  -3.219   0.712  0.00  0.00    -0.526 OA
ATOM      8  H5  UNL d   1      -0.250  -3.280   1.512  0.00  0.00     0.418 HD
ENDBRANCH   4   7
TORSDOF 1
ENDMDL
