MODEL 1
REMARK minimizedAffinity -2.4636445
REMARK minimizedRMSD -1
REMARK  1 active torsions:
REMARK  status: ('A' for Active; 'I' for Inactive)
REMARK    1  A    between atoms: C3_4  and  O_7 
ROOT
ATOM      1  C   UNL d   1       0.010   3.660   1.302  0.00  0.00    -0.033 A 
ATOM      2  C1  UNL d   1       0.021   2.621   0.370  0.00  0.00     0.039 A 
ATOM      3  C2  UNL d   1       1.234   2.147  -0.135  0.00  0.00    -0.080 A 
ATOM      4  C3  UNL d   1       2.426   2.718   0.301  0.00  0.00     0.150 A 
ATOM      5  C4  UNL d   1       2.422   3.751   1.233  0.00  0.00    -0.007 A 
ATOM      6  C5  UNL d   1       1.211   4.224   1.735  0.00  0.00     0.039 A 
ENDROOT
BRANCH   4   7
ATOM      7  O   UNL d   1       3.633   2.292  -0.167  0.00  0.00    -0.526 OA
ATOM      8  H5  UNL d   1       3.479   1.594  -0.825  0.00  0.00     0.418 HD
ENDBRANCH   4   7
TORSDOF 1
ENDMDL
