MODEL 1
REMARK minimizedAffinity -3.10742068
REMARK minimizedRMSD -1
REMARK  1 active torsions:
REMARK  status: ('A' for Active; 'I' for Inactive)
REMARK    1  A    between atoms: C3_4  and  O_7 
ROOT
ATOM      1  C   UNL d   1      -0.024   0.437  -0.072  0.00  0.00    -0.033 A 
ATOM      2  C1  UNL d   1       0.912  -0.306  -0.793  0.00  0.00     0.039 A 
ATOM      3  C2  UNL d   1       1.055  -1.674  -0.553  0.00  0.00    -0.080 A 
ATOM      4  C3  UNL d   1       0.255  -2.286   0.409  0.00  0.00     0.150 A 
ATOM      5  C4  UNL d   1      -0.682  -1.552   1.128  0.00  0.00    -0.007 A 
ATOM      6  C5  UNL d   1      -0.822  -0.186   0.888  0.00  0.00     0.039 A 
ENDROOT
BRANCH   4   7
ATOM      7  O   UNL d   1       0.361  -3.617   0.681  0.00  0.00    -0.526 OA
ATOM      8  H5  UNL d   1       1.069  -3.989   0.129  0.00  0.00     0.418 HD
ENDBRANCH   4   7
TORSDOF 1
ENDMDL
