MODEL 1
REMARK minimizedAffinity 2.43038297
REMARK minimizedRMSD -1
REMARK  0 active torsions:
REMARK  status: ('A' for Active; 'I' for Inactive)
ROOT
ATOM      1  C   UNL d   1      -4.229   1.006   0.475  0.00  0.00     0.023 A 
ATOM      2  C1  UNL d   1      -3.671   2.133  -0.128  0.00  0.00     0.003 A 
ATOM      3  C2  UNL d   1      -2.292   2.348  -0.068  0.00  0.00     0.048 A 
ATOM      4  C3  UNL d   1      -1.478   1.431   0.596  0.00  0.00     0.023 A 
ATOM      5  C4  UNL d   1      -2.032   0.301   1.200  0.00  0.00     0.048 A 
ATOM      6  C5  UNL d   1      -3.411   0.091   1.138  0.00  0.00     0.003 A 
ATOM      7  I   UNL d   1       0.574   1.748   0.686  0.00  0.00    -0.146 I 
ENDROOT
TORSDOF 0
ENDMDL
