MODEL 1
REMARK minimizedAffinity 2.8548727
REMARK minimizedRMSD -1
REMARK  0 active torsions:
REMARK  status: ('A' for Active; 'I' for Inactive)
ROOT
ATOM      1  C   UNL d   1      -3.854   0.850   0.198  0.00  0.00     0.023 A 
ATOM      2  C1  UNL d   1      -3.312   2.037  -0.296  0.00  0.00     0.003 A 
ATOM      3  C2  UNL d   1      -1.940   2.275  -0.193  0.00  0.00     0.048 A 
ATOM      4  C3  UNL d   1      -1.115   1.321   0.403  0.00  0.00     0.023 A 
ATOM      5  C4  UNL d   1      -1.654   0.132   0.898  0.00  0.00     0.048 A 
ATOM      6  C5  UNL d   1      -3.026  -0.101   0.793  0.00  0.00     0.003 A 
ATOM      7  I   UNL d   1       0.927   1.672   0.557  0.00  0.00    -0.146 I 
ENDROOT
TORSDOF 0
ENDMDL
