MODEL 1
REMARK minimizedAffinity 3.77744699
REMARK minimizedRMSD -1
REMARK  0 active torsions:
REMARK  status: ('A' for Active; 'I' for Inactive)
ROOT
ATOM      1  C   UNL d   1      -0.869   2.665  -0.023  0.00  0.00     0.023 A 
ATOM      2  C1  UNL d   1      -2.224   2.371   0.133  0.00  0.00     0.003 A 
ATOM      3  C2  UNL d   1      -2.616   1.235   0.844  0.00  0.00     0.048 A 
ATOM      4  C3  UNL d   1      -1.648   0.398   1.398  0.00  0.00     0.023 A 
ATOM      5  C4  UNL d   1      -0.291   0.688   1.246  0.00  0.00     0.048 A 
ATOM      6  C5  UNL d   1       0.096   1.825   0.533  0.00  0.00     0.003 A 
ATOM      7  I   UNL d   1      -2.229  -1.293   2.457  0.00  0.00    -0.146 I 
ENDROOT
TORSDOF 0
ENDMDL
