MODEL 1
REMARK minimizedAffinity 1.14314616
REMARK minimizedRMSD -1
REMARK  0 active torsions:
REMARK  status: ('A' for Active; 'I' for Inactive)
ROOT
ATOM      1  C   UNL d   1      -3.699   1.170   0.396  0.00  0.00     0.023 A 
ATOM      2  C1  UNL d   1      -2.993   2.347   0.144  0.00  0.00     0.003 A 
ATOM      3  C2  UNL d   1      -1.630   2.421   0.435  0.00  0.00     0.048 A 
ATOM      4  C3  UNL d   1      -0.978   1.314   0.978  0.00  0.00     0.023 A 
ATOM      5  C4  UNL d   1      -1.679   0.135   1.231  0.00  0.00     0.048 A 
ATOM      6  C5  UNL d   1      -3.043   0.066   0.939  0.00  0.00     0.003 A 
ATOM      7  I   UNL d   1       1.052   1.422   1.412  0.00  0.00    -0.146 I 
ENDROOT
TORSDOF 0
ENDMDL
