MODEL 1
REMARK minimizedAffinity 2.12789488
REMARK minimizedRMSD -1
REMARK  0 active torsions:
REMARK  status: ('A' for Active; 'I' for Inactive)
ROOT
ATOM      1  C   UNL d   1       4.090   5.978  -0.350  0.00  0.00     0.023 A 
ATOM      2  C1  UNL d   1       3.043   5.984   0.572  0.00  0.00     0.003 A 
ATOM      3  C2  UNL d   1       3.317   5.990   1.941  0.00  0.00     0.048 A 
ATOM      4  C3  UNL d   1       4.640   5.991   2.381  0.00  0.00     0.023 A 
ATOM      5  C4  UNL d   1       5.691   5.986   1.462  0.00  0.00     0.048 A 
ATOM      6  C5  UNL d   1       5.412   5.979   0.094  0.00  0.00     0.003 A 
ATOM      7  I   UNL d   1       5.050   6.000   4.419  0.00  0.00    -0.146 I 
ENDROOT
TORSDOF 0
ENDMDL
