MODEL 1
REMARK minimizedAffinity 3.87290549
REMARK minimizedRMSD -1
REMARK  0 active torsions:
REMARK  status: ('A' for Active; 'I' for Inactive)
ROOT
ATOM      1  C   UNL d   1       0.066   3.802   3.488  0.00  0.00     0.023 A 
ATOM      2  C1  UNL d   1      -0.492   2.537   3.299  0.00  0.00     0.003 A 
ATOM      3  C2  UNL d   1      -0.034   1.718   2.265  0.00  0.00     0.048 A 
ATOM      4  C3  UNL d   1       0.982   2.169   1.424  0.00  0.00     0.023 A 
ATOM      5  C4  UNL d   1       1.545   3.433   1.610  0.00  0.00     0.048 A 
ATOM      6  C5  UNL d   1       1.083   4.249   2.644  0.00  0.00     0.003 A 
ATOM      7  I   UNL d   1       1.665   0.951  -0.115  0.00  0.00    -0.146 I 
ENDROOT
TORSDOF 0
ENDMDL
