MODEL 1
REMARK minimizedAffinity 7.03586006
REMARK minimizedRMSD -1
REMARK  0 active torsions:
REMARK  status: ('A' for Active; 'I' for Inactive)
ROOT
ATOM      1  C   UNL d   1      -0.464   3.432   3.153  0.00  0.00     0.023 A 
ATOM      2  C1  UNL d   1       0.697   3.914   2.548  0.00  0.00     0.003 A 
ATOM      3  C2  UNL d   1       1.379   3.127   1.618  0.00  0.00     0.048 A 
ATOM      4  C3  UNL d   1       0.896   1.859   1.297  0.00  0.00     0.023 A 
ATOM      5  C4  UNL d   1      -0.266   1.373   1.900  0.00  0.00     0.048 A 
ATOM      6  C5  UNL d   1      -0.944   2.163   2.829  0.00  0.00     0.003 A 
ATOM      7  I   UNL d   1       1.910   0.686  -0.087  0.00  0.00    -0.146 I 
ENDROOT
TORSDOF 0
ENDMDL
