MODEL 1
REMARK minimizedAffinity 4.90884161
REMARK minimizedRMSD -1
REMARK  0 active torsions:
REMARK  status: ('A' for Active; 'I' for Inactive)
ROOT
ATOM      1  C   UNL d   1      -1.083   2.624   2.676  0.00  0.00     0.023 A 
ATOM      2  C1  UNL d   1      -0.237   3.195   3.627  0.00  0.00     0.003 A 
ATOM      3  C2  UNL d   1       1.144   3.200   3.421  0.00  0.00     0.048 A 
ATOM      4  C3  UNL d   1       1.673   2.633   2.262  0.00  0.00     0.023 A 
ATOM      5  C4  UNL d   1       0.830   2.062   1.307  0.00  0.00     0.048 A 
ATOM      6  C5  UNL d   1      -0.550   2.058   1.518  0.00  0.00     0.003 A 
ATOM      7  I   UNL d   1       3.728   2.640   1.953  0.00  0.00    -0.146 I 
ENDROOT
TORSDOF 0
ENDMDL
