MODEL 1
REMARK minimizedAffinity 2.58161092
REMARK minimizedRMSD -1
REMARK  0 active torsions:
REMARK  status: ('A' for Active; 'I' for Inactive)
ROOT
ATOM      1  C   UNL d   1      -0.148   2.998   2.863  0.00  0.00     0.023 A 
ATOM      2  C1  UNL d   1       0.737   3.503   3.815  0.00  0.00     0.003 A 
ATOM      3  C2  UNL d   1       1.765   4.364   3.428  0.00  0.00     0.048 A 
ATOM      4  C3  UNL d   1       1.902   4.717   2.086  0.00  0.00     0.023 A 
ATOM      5  C4  UNL d   1       1.019   4.215   1.129  0.00  0.00     0.048 A 
ATOM      6  C5  UNL d   1      -0.007   3.354   1.521  0.00  0.00     0.003 A 
ATOM      7  I   UNL d   1       3.432   6.000   1.506  0.00  0.00    -0.146 I 
ENDROOT
TORSDOF 0
ENDMDL
