MODEL 1
REMARK minimizedAffinity 6.61537981
REMARK minimizedRMSD -1
REMARK  0 active torsions:
REMARK  status: ('A' for Active; 'I' for Inactive)
ROOT
ATOM      1  C   UNL d   1       0.919   3.123   2.677  0.00  0.00     0.023 A 
ATOM      2  C1  UNL d   1      -0.464   3.305   2.718  0.00  0.00     0.003 A 
ATOM      3  C2  UNL d   1      -1.311   2.375   2.112  0.00  0.00     0.048 A 
ATOM      4  C3  UNL d   1      -0.769   1.264   1.467  0.00  0.00     0.023 A 
ATOM      5  C4  UNL d   1       0.614   1.077   1.424  0.00  0.00     0.048 A 
ATOM      6  C5  UNL d   1       1.457   2.010   2.031  0.00  0.00     0.003 A 
ATOM      7  I   UNL d   1      -2.027  -0.122   0.564  0.00  0.00    -0.146 I 
ENDROOT
TORSDOF 0
ENDMDL
