MODEL 1
REMARK minimizedAffinity 7.55263281
REMARK minimizedRMSD -1
REMARK  0 active torsions:
REMARK  status: ('A' for Active; 'I' for Inactive)
ROOT
ATOM      1  C   UNL d   1       2.232   1.657  -3.049  0.00  0.00     0.023 A 
ATOM      2  C1  UNL d   1       2.799   1.081  -1.913  0.00  0.00     0.003 A 
ATOM      3  C2  UNL d   1       2.050   0.964  -0.740  0.00  0.00     0.048 A 
ATOM      4  C3  UNL d   1       0.734   1.425  -0.711  0.00  0.00     0.023 A 
ATOM      5  C4  UNL d   1       0.163   2.002  -1.846  0.00  0.00     0.048 A 
ATOM      6  C5  UNL d   1       0.915   2.117  -3.016  0.00  0.00     0.003 A 
ATOM      7  I   UNL d   1      -0.382   1.252   1.034  0.00  0.00    -0.146 I 
ENDROOT
TORSDOF 0
ENDMDL
