MODEL 1
REMARK minimizedAffinity -2.24933076
REMARK minimizedRMSD -1
REMARK  0 active torsions:
REMARK  status: ('A' for Active; 'I' for Inactive)
ROOT
ATOM      1  C   UNL d   1       1.438   1.976   2.063  0.00  0.00     0.023 A 
ATOM      2  C1  UNL d   1       1.526   1.076   1.001  0.00  0.00     0.003 A 
ATOM      3  C2  UNL d   1       0.366   0.530   0.449  0.00  0.00     0.048 A 
ATOM      4  C3  UNL d   1      -0.880   0.888   0.963  0.00  0.00     0.023 A 
ATOM      5  C4  UNL d   1      -0.973   1.789   2.025  0.00  0.00     0.048 A 
ATOM      6  C5  UNL d   1       0.190   2.332   2.575  0.00  0.00     0.003 A 
ATOM      7  I   UNL d   1      -2.608   0.076   0.143  0.00  0.00    -0.146 I 
ENDROOT
TORSDOF 0
ENDMDL
