MODEL 1
REMARK minimizedAffinity 2.87972426
REMARK minimizedRMSD -1
REMARK  0 active torsions:
REMARK  status: ('A' for Active; 'I' for Inactive)
ROOT
ATOM      1  C   UNL d   1       1.577  -5.996   4.486  0.00  0.00     0.023 A 
ATOM      2  C1  UNL d   1       1.790  -5.998   3.108  0.00  0.00     0.003 A 
ATOM      3  C2  UNL d   1       0.703  -5.999   2.232  0.00  0.00     0.048 A 
ATOM      4  C3  UNL d   1      -0.595  -5.998   2.741  0.00  0.00     0.023 A 
ATOM      5  C4  UNL d   1      -0.814  -5.995   4.120  0.00  0.00     0.048 A 
ATOM      6  C5  UNL d   1       0.277  -5.995   4.992  0.00  0.00     0.003 A 
ATOM      7  I   UNL d   1      -2.215  -6.000   1.439  0.00  0.00    -0.146 I 
ENDROOT
TORSDOF 0
ENDMDL
