MODEL 1
REMARK minimizedAffinity 10.4077892
REMARK minimizedRMSD -1
REMARK  0 active torsions:
REMARK  status: ('A' for Active; 'I' for Inactive)
ROOT
ATOM      1  C   UNL d   1       2.594   0.628   1.059  0.00  0.00     0.023 A 
ATOM      2  C1  UNL d   1       2.722   1.674   1.973  0.00  0.00     0.003 A 
ATOM      3  C2  UNL d   1       1.585   2.334   2.444  0.00  0.00     0.048 A 
ATOM      4  C3  UNL d   1       0.323   1.942   1.997  0.00  0.00     0.023 A 
ATOM      5  C4  UNL d   1       0.191   0.895   1.084  0.00  0.00     0.048 A 
ATOM      6  C5  UNL d   1       1.330   0.239   0.615  0.00  0.00     0.003 A 
ATOM      7  I   UNL d   1      -1.371   2.923   2.697  0.00  0.00    -0.146 I 
ENDROOT
TORSDOF 0
ENDMDL
