MODEL 1
REMARK minimizedAffinity 1.64078569
REMARK minimizedRMSD -1
REMARK  0 active torsions:
REMARK  status: ('A' for Active; 'I' for Inactive)
ROOT
ATOM      1  C   UNL d   1       3.211   1.499   0.953  0.00  0.00     0.023 A 
ATOM      2  C1  UNL d   1       2.044   0.817   0.607  0.00  0.00     0.003 A 
ATOM      3  C2  UNL d   1       0.842   1.118   1.251  0.00  0.00     0.048 A 
ATOM      4  C3  UNL d   1       0.813   2.102   2.238  0.00  0.00     0.023 A 
ATOM      5  C4  UNL d   1       1.978   2.788   2.586  0.00  0.00     0.048 A 
ATOM      6  C5  UNL d   1       3.178   2.483   1.941  0.00  0.00     0.003 A 
ATOM      7  I   UNL d   1      -0.975   2.552   3.196  0.00  0.00    -0.146 I 
ENDROOT
TORSDOF 0
ENDMDL
