MODEL 1
REMARK minimizedAffinity 2.67674565
REMARK minimizedRMSD -1
REMARK  0 active torsions:
REMARK  status: ('A' for Active; 'I' for Inactive)
ROOT
ATOM      1  C   UNL d   1       1.351   2.541   2.258  0.00  0.00     0.023 A 
ATOM      2  C1  UNL d   1       0.055   2.814   2.695  0.00  0.00     0.003 A 
ATOM      3  C2  UNL d   1      -1.026   2.110   2.162  0.00  0.00     0.048 A 
ATOM      4  C3  UNL d   1      -0.804   1.132   1.192  0.00  0.00     0.023 A 
ATOM      5  C4  UNL d   1       0.492   0.855   0.752  0.00  0.00     0.048 A 
ATOM      6  C5  UNL d   1       1.569   1.563   1.288  0.00  0.00     0.003 A 
ATOM      7  I   UNL d   1      -2.411   0.082   0.397  0.00  0.00    -0.146 I 
ENDROOT
TORSDOF 0
ENDMDL
