MODEL 1
REMARK minimizedAffinity -0.449273616
REMARK minimizedRMSD -1
REMARK  1 active torsions:
REMARK  status: ('A' for Active; 'I' for Inactive)
REMARK    1  A    between atoms: N_2  and  C1_3 
ROOT
ATOM      1  C1  UNL d   1      -0.404   0.838   2.546  0.00  0.00     0.143 A 
ATOM      2  C2  UNL d   1      -0.075   2.048   3.166  0.00  0.00    -0.057 A 
ATOM      3  C3  UNL d   1       1.258   2.441   3.329  0.00  0.00     0.033 A 
ATOM      4  C4  UNL d   1       2.291   1.615   2.899  0.00  0.00    -0.042 A 
ATOM      5  C5  UNL d   1       1.988   0.396   2.302  0.00  0.00     0.033 A 
ATOM      6  C6  UNL d   1       0.654   0.012   2.136  0.00  0.00    -0.057 A 
ENDROOT
BRANCH   1   7
ATOM      7  N   UNL d   1      -1.708   0.346   2.443  0.00  0.00    -0.732 N 
ATOM      8  C   UNL d   1      -2.225  -0.110   1.170  0.00  0.00     0.284 C 
ATOM      9  H3  UNL d   1      -1.963  -0.245   3.231  0.00  0.00     0.395 HD
ENDBRANCH   1   7
TORSDOF 1
ENDMDL
