MODEL 1
REMARK minimizedAffinity 0.953100324
REMARK minimizedRMSD -1
REMARK  1 active torsions:
REMARK  status: ('A' for Active; 'I' for Inactive)
REMARK    1  A    between atoms: N_2  and  C1_3 
ROOT
ATOM      1  C1  UNL d   1      -2.974   1.129   0.601  0.00  0.00     0.143 A 
ATOM      2  C2  UNL d   1      -2.343   2.011   1.484  0.00  0.00    -0.057 A 
ATOM      3  C3  UNL d   1      -1.316   1.579   2.331  0.00  0.00     0.033 A 
ATOM      4  C4  UNL d   1      -0.920   0.246   2.331  0.00  0.00    -0.042 A 
ATOM      5  C5  UNL d   1      -1.550  -0.654   1.480  0.00  0.00     0.033 A 
ATOM      6  C6  UNL d   1      -2.571  -0.216   0.631  0.00  0.00    -0.057 A 
ENDROOT
BRANCH   1   7
ATOM      7  N   UNL d   1      -4.068   1.475  -0.196  0.00  0.00    -0.732 N 
ATOM      8  C   UNL d   1      -4.632   0.523  -1.129  0.00  0.00     0.284 C 
ATOM      9  H3  UNL d   1      -4.761   2.020   0.312  0.00  0.00     0.395 HD
ENDBRANCH   1   7
TORSDOF 1
ENDMDL
