MODEL 1
REMARK minimizedAffinity 2.61032462
REMARK minimizedRMSD -1
REMARK  1 active torsions:
REMARK  status: ('A' for Active; 'I' for Inactive)
REMARK    1  A    between atoms: N_2  and  C1_3 
ROOT
ATOM      1  C1  UNL d   1      -0.058  -1.721  -0.192  0.00  0.00     0.143 A 
ATOM      2  C2  UNL d   1       1.227  -1.454   0.293  0.00  0.00    -0.057 A 
ATOM      3  C3  UNL d   1       1.424  -0.676   1.440  0.00  0.00     0.033 A 
ATOM      4  C4  UNL d   1       0.336  -0.126   2.109  0.00  0.00    -0.042 A 
ATOM      5  C5  UNL d   1      -0.949  -0.357   1.631  0.00  0.00     0.033 A 
ATOM      6  C6  UNL d   1      -1.139  -1.140   0.489  0.00  0.00    -0.057 A 
ENDROOT
BRANCH   1   7
ATOM      7  N   UNL d   1      -0.313  -2.404  -1.383  0.00  0.00    -0.732 N 
ATOM      8  C   UNL d   1      -0.390  -3.849  -1.402  0.00  0.00     0.284 C 
ATOM      9  H3  UNL d   1      -1.020  -1.943  -1.951  0.00  0.00     0.395 HD
ENDBRANCH   1   7
TORSDOF 1
ENDMDL
