MODEL 1
REMARK minimizedAffinity -4.09956789
REMARK minimizedRMSD -1
REMARK  0 active torsions:
REMARK  status: ('A' for Active; 'I' for Inactive)
ROOT
ATOM      1  C   UNL d   1      -0.784   1.216   3.376  0.00  0.00    -0.002 A 
ATOM      2  C1  UNL d   1       0.585   0.993   3.354  0.00  0.00     0.010 A 
ATOM      3  C2  UNL d   1       1.194   0.419   2.236  0.00  0.00     0.041 A 
ATOM      4  C3  UNL d   1       0.395   0.071   1.129  0.00  0.00    -0.075 A 
ATOM      5  S   UNL d   1       0.922  -0.643  -0.349  0.00  0.00     0.015 SA
ATOM      6  C4  UNL d   1      -0.658  -0.668  -0.987  0.00  0.00     0.022 A 
ATOM      7  C5  UNL d   1      -1.578  -0.149  -0.107  0.00  0.00     0.026 A 
ATOM      8  C6  UNL d   1      -0.986   0.287   1.127  0.00  0.00    -0.082 A 
ATOM      9  C7  UNL d   1      -1.573   0.869   2.275  0.00  0.00     0.045 A 
ENDROOT
TORSDOF 0
ENDMDL
