MODEL 1
REMARK minimizedAffinity -2.26465034
REMARK minimizedRMSD -1
REMARK  0 active torsions:
REMARK  status: ('A' for Active; 'I' for Inactive)
ROOT
ATOM      1  C   UNL d   1      -1.186   1.407   2.708  0.00  0.00    -0.002 A 
ATOM      2  C1  UNL d   1       0.182   1.188   2.790  0.00  0.00     0.010 A 
ATOM      3  C2  UNL d   1       0.865   0.564   1.745  0.00  0.00     0.041 A 
ATOM      4  C3  UNL d   1       0.144   0.161   0.604  0.00  0.00    -0.075 A 
ATOM      5  S   UNL d   1       0.770  -0.621  -0.799  0.00  0.00     0.015 SA
ATOM      6  C4  UNL d   1      -0.763  -0.682  -1.541  0.00  0.00     0.022 A 
ATOM      7  C5  UNL d   1      -1.741  -0.124  -0.751  0.00  0.00     0.026 A 
ATOM      8  C6  UNL d   1      -1.234   0.372   0.498  0.00  0.00    -0.082 A 
ATOM      9  C7  UNL d   1      -1.898   1.006   1.575  0.00  0.00     0.045 A 
ENDROOT
TORSDOF 0
ENDMDL
