MODEL 1
REMARK minimizedAffinity -6.00843239
REMARK minimizedRMSD -1
REMARK  0 active torsions:
REMARK  status: ('A' for Active; 'I' for Inactive)
ROOT
ATOM      1  C   UNL d   1       0.704   0.738   3.260  0.00  0.00    -0.002 A 
ATOM      2  C1  UNL d   1      -0.612   1.177   3.315  0.00  0.00     0.010 A 
ATOM      3  C2  UNL d   1      -1.447   1.056   2.203  0.00  0.00     0.041 A 
ATOM      4  C3  UNL d   1      -0.935   0.480   1.024  0.00  0.00    -0.075 A 
ATOM      5  S   UNL d   1      -1.774   0.229  -0.461  0.00  0.00     0.015 SA
ATOM      6  C4  UNL d   1      -0.406  -0.468  -1.202  0.00  0.00     0.022 A 
ATOM      7  C5  UNL d   1       0.673  -0.515  -0.352  0.00  0.00     0.026 A 
ATOM      8  C6  UNL d   1       0.386   0.030   0.945  0.00  0.00    -0.082 A 
ATOM      9  C7  UNL d   1       1.209   0.167   2.090  0.00  0.00     0.045 A 
ENDROOT
TORSDOF 0
ENDMDL
