MODEL 1
REMARK minimizedAffinity -2.99410987
REMARK minimizedRMSD -1
REMARK  0 active torsions:
REMARK  status: ('A' for Active; 'I' for Inactive)
ROOT
ATOM      1  C   UNL d   1      -0.747   1.049   2.898  0.00  0.00    -0.002 A 
ATOM      2  C1  UNL d   1       0.605   1.355   2.842  0.00  0.00     0.010 A 
ATOM      3  C2  UNL d   1       1.365   1.013   1.722  0.00  0.00     0.041 A 
ATOM      4  C3  UNL d   1       0.736   0.355   0.647  0.00  0.00    -0.075 A 
ATOM      5  S   UNL d   1       1.466  -0.158  -0.828  0.00  0.00     0.015 SA
ATOM      6  C4  UNL d   1      -0.000  -0.794  -1.420  0.00  0.00     0.022 A 
ATOM      7  C5  UNL d   1      -1.032  -0.628  -0.527  0.00  0.00     0.026 A 
ATOM      8  C6  UNL d   1      -0.625   0.038   0.679  0.00  0.00    -0.082 A 
ATOM      9  C7  UNL d   1      -1.368   0.396   1.829  0.00  0.00     0.045 A 
ENDROOT
TORSDOF 0
ENDMDL
