MODEL 1
REMARK minimizedAffinity -4.16328096
REMARK minimizedRMSD -1
REMARK  0 active torsions:
REMARK  status: ('A' for Active; 'I' for Inactive)
ROOT
ATOM      1  C   UNL d   1       0.127   1.106   3.531  0.00  0.00    -0.002 A 
ATOM      2  C1  UNL d   1       1.418   0.604   3.451  0.00  0.00     0.010 A 
ATOM      3  C2  UNL d   1       1.865  -0.023   2.286  0.00  0.00     0.041 A 
ATOM      4  C3  UNL d   1       0.985  -0.135   1.192  0.00  0.00    -0.075 A 
ATOM      5  S   UNL d   1       1.315  -0.862  -0.337  0.00  0.00     0.015 SA
ATOM      6  C4  UNL d   1      -0.250  -0.521  -0.920  0.00  0.00     0.022 A 
ATOM      7  C5  UNL d   1      -1.019   0.130   0.016  0.00  0.00     0.026 A 
ATOM      8  C6  UNL d   1      -0.319   0.364   1.248  0.00  0.00    -0.082 A 
ATOM      9  C7  UNL d   1      -0.743   0.993   2.443  0.00  0.00     0.045 A 
ENDROOT
TORSDOF 0
ENDMDL
