MODEL 1
REMARK minimizedAffinity -4.47204304
REMARK minimizedRMSD -1
REMARK  0 active torsions:
REMARK  status: ('A' for Active; 'I' for Inactive)
ROOT
ATOM      1  C   UNL d   1       1.094   0.603   3.725  0.00  0.00    -0.002 A 
ATOM      2  C1  UNL d   1       1.932  -0.054   2.835  0.00  0.00     0.010 A 
ATOM      3  C2  UNL d   1       1.489  -0.382   1.552  0.00  0.00     0.041 A 
ATOM      4  C3  UNL d   1       0.177  -0.035   1.175  0.00  0.00    -0.075 A 
ATOM      5  S   UNL d   1      -0.582  -0.336  -0.343  0.00  0.00     0.015 SA
ATOM      6  C4  UNL d   1      -2.037   0.401   0.153  0.00  0.00     0.022 A 
ATOM      7  C5  UNL d   1      -1.963   0.870   1.444  0.00  0.00     0.026 A 
ATOM      8  C6  UNL d   1      -0.686   0.627   2.054  0.00  0.00    -0.082 A 
ATOM      9  C7  UNL d   1      -0.207   0.945   3.347  0.00  0.00     0.045 A 
ENDROOT
TORSDOF 0
ENDMDL
