MODEL 1
REMARK minimizedAffinity 4.44599199
REMARK minimizedRMSD -1
REMARK  0 active torsions:
REMARK  status: ('A' for Active; 'I' for Inactive)
ROOT
ATOM      1  C   UNL d   1      -5.958  -2.087   4.119  0.00  0.00     0.172 C 
ATOM      2  N   UNL d   1      -5.964  -0.700   4.520  0.00  0.00    -0.070 N 
ATOM      3  C1  UNL d   1      -5.935   0.376   3.674  0.00  0.00    -0.004 A 
ATOM      4  C2  UNL d   1      -5.952   1.519   4.444  0.00  0.00    -0.047 A 
ATOM      5  C3  UNL d   1      -5.993   1.116   5.800  0.00  0.00    -0.047 A 
ATOM      6  C4  UNL d   1      -5.999  -0.263   5.818  0.00  0.00    -0.004 A 
ENDROOT
TORSDOF 0
ENDMDL
