MODEL 1
REMARK minimizedAffinity 2.94653916
REMARK minimizedRMSD -1
REMARK  0 active torsions:
REMARK  status: ('A' for Active; 'I' for Inactive)
ROOT
ATOM      1  C   UNL d   1       0.970   3.654   2.248  0.00  0.00     0.172 C 
ATOM      2  N   UNL d   1       0.607   4.361   1.043  0.00  0.00    -0.070 N 
ATOM      3  C1  UNL d   1       0.611   5.721   0.883  0.00  0.00    -0.004 A 
ATOM      4  C2  UNL d   1       0.203   5.996  -0.405  0.00  0.00    -0.047 A 
ATOM      5  C3  UNL d   1      -0.055   4.758  -1.040  0.00  0.00    -0.047 A 
ATOM      6  C4  UNL d   1       0.203   3.763  -0.121  0.00  0.00    -0.004 A 
ENDROOT
TORSDOF 0
ENDMDL
