MODEL 1
REMARK minimizedAffinity -1.26444185
REMARK minimizedRMSD -1
REMARK  0 active torsions:
REMARK  status: ('A' for Active; 'I' for Inactive)
ROOT
ATOM      1  C   UNL d   1      -1.817   6.000   1.952  0.00  0.00     0.172 C 
ATOM      2  N   UNL d   1      -0.923   5.393   0.994  0.00  0.00    -0.070 N 
ATOM      3  C1  UNL d   1      -0.421   6.000  -0.126  0.00  0.00    -0.004 A 
ATOM      4  C2  UNL d   1       0.389   5.091  -0.771  0.00  0.00    -0.047 A 
ATOM      5  C3  UNL d   1       0.373   3.896  -0.014  0.00  0.00    -0.047 A 
ATOM      6  C4  UNL d   1      -0.447   4.110   1.074  0.00  0.00    -0.004 A 
ENDROOT
TORSDOF 0
ENDMDL
