MODEL 1
REMARK minimizedAffinity 2.13031745
REMARK minimizedRMSD -1
REMARK  0 active torsions:
REMARK  status: ('A' for Active; 'I' for Inactive)
ROOT
ATOM      1  C   UNL d   1      -0.015   5.368  -0.737  0.00  0.00     0.172 C 
ATOM      2  N   UNL d   1       0.405   4.443   0.289  0.00  0.00    -0.070 N 
ATOM      3  C1  UNL d   1      -0.352   3.426   0.807  0.00  0.00    -0.004 A 
ATOM      4  C2  UNL d   1       0.405   2.778   1.758  0.00  0.00    -0.047 A 
ATOM      5  C3  UNL d   1       1.661   3.427   1.815  0.00  0.00    -0.047 A 
ATOM      6  C4  UNL d   1       1.634   4.455   0.895  0.00  0.00    -0.004 A 
ENDROOT
TORSDOF 0
ENDMDL
