MODEL 1
REMARK minimizedAffinity 0.317620069
REMARK minimizedRMSD -1
REMARK  0 active torsions:
REMARK  status: ('A' for Active; 'I' for Inactive)
ROOT
ATOM      1  C   UNL d   1      -1.137  -5.931  -5.404  0.00  0.00     0.172 C 
ATOM      2  N   UNL d   1      -2.544  -5.957  -5.078  0.00  0.00    -0.070 N 
ATOM      3  C1  UNL d   1      -3.070  -5.980  -3.814  0.00  0.00    -0.004 A 
ATOM      4  C2  UNL d   1      -4.443  -6.000  -3.929  0.00  0.00    -0.047 A 
ATOM      5  C3  UNL d   1      -4.753  -5.990  -5.309  0.00  0.00    -0.047 A 
ATOM      6  C4  UNL d   1      -3.559  -5.963  -5.998  0.00  0.00    -0.004 A 
ENDROOT
TORSDOF 0
ENDMDL
