MODEL 1
REMARK minimizedAffinity 2.59518242
REMARK minimizedRMSD -1
REMARK  0 active torsions:
REMARK  status: ('A' for Active; 'I' for Inactive)
ROOT
ATOM      1  C   UNL d   1      -4.114   4.613  -2.906  0.00  0.00     0.172 C 
ATOM      2  N   UNL d   1      -4.796   4.815  -4.163  0.00  0.00    -0.070 N 
ATOM      3  C1  UNL d   1      -5.504   3.865  -4.848  0.00  0.00    -0.004 A 
ATOM      4  C2  UNL d   1      -5.999   4.451  -5.993  0.00  0.00    -0.047 A 
ATOM      5  C3  UNL d   1      -5.572   5.801  -5.996  0.00  0.00    -0.047 A 
ATOM      6  C4  UNL d   1      -4.829   5.999  -4.852  0.00  0.00    -0.004 A 
ENDROOT
TORSDOF 0
ENDMDL
