MODEL 1
REMARK minimizedAffinity 3.00766563
REMARK minimizedRMSD -1
REMARK  0 active torsions:
REMARK  status: ('A' for Active; 'I' for Inactive)
ROOT
ATOM      1  C   UNL d   1       0.002   2.732   0.750  0.00  0.00     0.172 C 
ATOM      2  N   UNL d   1       0.074   3.988   0.041  0.00  0.00    -0.070 N 
ATOM      3  C1  UNL d   1      -0.884   4.966   0.050  0.00  0.00    -0.004 A 
ATOM      4  C2  UNL d   1      -0.440   6.000  -0.745  0.00  0.00    -0.047 A 
ATOM      5  C3  UNL d   1       0.829   5.630  -1.251  0.00  0.00    -0.047 A 
ATOM      6  C4  UNL d   1       1.123   4.380  -0.749  0.00  0.00    -0.004 A 
ENDROOT
TORSDOF 0
ENDMDL
