MODEL 1
REMARK minimizedAffinity 6.36952925
REMARK minimizedRMSD -1
REMARK  0 active torsions:
REMARK  status: ('A' for Active; 'I' for Inactive)
ROOT
ATOM      1  C   UNL d   1      -2.605   0.993  -4.264  0.00  0.00     0.172 C 
ATOM      2  N   UNL d   1      -2.116   0.370  -3.057  0.00  0.00    -0.070 N 
ATOM      3  C1  UNL d   1      -1.071  -0.512  -2.982  0.00  0.00    -0.004 A 
ATOM      4  C2  UNL d   1      -0.919  -0.874  -1.661  0.00  0.00    -0.047 A 
ATOM      5  C3  UNL d   1      -1.907  -0.187  -0.917  0.00  0.00    -0.047 A 
ATOM      6  C4  UNL d   1      -2.634   0.576  -1.806  0.00  0.00    -0.004 A 
ENDROOT
TORSDOF 0
ENDMDL
