MODEL 1
REMARK minimizedAffinity -0.965437412
REMARK minimizedRMSD -1
REMARK  0 active torsions:
REMARK  status: ('A' for Active; 'I' for Inactive)
ROOT
ATOM      1  C   UNL d   1      -5.969   5.756  -4.917  0.00  0.00     0.172 C 
ATOM      2  N   UNL d   1      -5.938   4.312  -4.900  0.00  0.00    -0.070 N 
ATOM      3  C1  UNL d   1      -5.842   3.503  -6.000  0.00  0.00    -0.004 A 
ATOM      4  C2  UNL d   1      -5.842   2.195  -5.564  0.00  0.00    -0.047 A 
ATOM      5  C3  UNL d   1      -5.943   2.220  -4.152  0.00  0.00    -0.047 A 
ATOM      6  C4  UNL d   1      -6.000   3.543  -3.768  0.00  0.00    -0.004 A 
ENDROOT
TORSDOF 0
ENDMDL
