MODEL 1
REMARK minimizedAffinity 4.11386681
REMARK minimizedRMSD -1
REMARK  0 active torsions:
REMARK  status: ('A' for Active; 'I' for Inactive)
ROOT
ATOM      1  C   UNL d   1       5.269  -5.999   1.791  0.00  0.00     0.172 C 
ATOM      2  N   UNL d   1       5.056  -5.736   0.388  0.00  0.00    -0.070 N 
ATOM      3  C1  UNL d   1       3.925  -5.190  -0.159  0.00  0.00    -0.004 A 
ATOM      4  C2  UNL d   1       4.116  -5.103  -1.522  0.00  0.00    -0.047 A 
ATOM      5  C3  UNL d   1       5.404  -5.615  -1.803  0.00  0.00    -0.047 A 
ATOM      6  C4  UNL d   1       5.964  -6.000  -0.603  0.00  0.00    -0.004 A 
ENDROOT
TORSDOF 0
ENDMDL
