MODEL 1
REMARK minimizedAffinity 15.2862215
REMARK minimizedRMSD -1
REMARK  0 active torsions:
REMARK  status: ('A' for Active; 'I' for Inactive)
ROOT
ATOM      1  C1  DEN d   1      -4.721  -5.988  -2.966  0.00  0.00     0.130 A 
ATOM      2  C2  DEN d   1      -5.994  -5.306  -3.178  0.00  0.00    -0.031 A 
ATOM      3  C3  DEN d   1      -5.727  -3.855  -3.256  0.00  0.00     0.027 A 
ATOM      4  C4  DEN d   1      -3.477  -2.608  -3.075  0.00  0.00     0.027 A 
ATOM      5  C5  DEN d   1      -2.122  -2.759  -2.882  0.00  0.00    -0.003 A 
ATOM      6  C6  DEN d   1      -1.547  -3.985  -2.671  0.00  0.00     0.001 A 
ATOM      7  C7  DEN d   1      -2.324  -5.112  -2.694  0.00  0.00     0.017 A 
ATOM      8  C8  DEN d   1      -3.693  -4.966  -2.880  0.00  0.00    -0.094 A 
ATOM      9  C9  DEN d   1      -4.253  -3.720  -3.103  0.00  0.00    -0.072 A 
ENDROOT
TORSDOF 0
ENDMDL
