MODEL 1
REMARK minimizedAffinity 14.8615541
REMARK minimizedRMSD -1
REMARK  0 active torsions:
REMARK  status: ('A' for Active; 'I' for Inactive)
ROOT
ATOM      1  C1  DEN d   1       1.301   1.706   0.912  0.00  0.00     0.130 A 
ATOM      2  C2  DEN d   1       2.311   1.522  -0.126  0.00  0.00    -0.031 A 
ATOM      3  C3  DEN d   1       3.477   0.852   0.485  0.00  0.00     0.027 A 
ATOM      4  C4  DEN d   1       3.812   0.083   2.924  0.00  0.00     0.027 A 
ATOM      5  C5  DEN d   1       3.236   0.034   4.175  0.00  0.00    -0.003 A 
ATOM      6  C6  DEN d   1       2.000   0.564   4.431  0.00  0.00     0.001 A 
ATOM      7  C7  DEN d   1       1.279   1.128   3.412  0.00  0.00     0.017 A 
ATOM      8  C8  DEN d   1       1.855   1.188   2.150  0.00  0.00    -0.094 A 
ATOM      9  C9  DEN d   1       3.101   0.635   1.908  0.00  0.00    -0.072 A 
ENDROOT
TORSDOF 0
ENDMDL
