MODEL 1
REMARK minimizedAffinity 12.5945663
REMARK minimizedRMSD -1
REMARK  0 active torsions:
REMARK  status: ('A' for Active; 'I' for Inactive)
ROOT
ATOM      1  C1  DEN d   1      -1.025  -5.579  -3.169  0.00  0.00     0.130 A 
ATOM      2  C2  DEN d   1      -0.257  -4.587  -3.916  0.00  0.00    -0.031 A 
ATOM      3  C3  DEN d   1      -1.078  -3.365  -4.030  0.00  0.00     0.027 A 
ATOM      4  C4  DEN d   1      -3.449  -2.913  -3.122  0.00  0.00     0.027 A 
ATOM      5  C5  DEN d   1      -4.510  -3.458  -2.433  0.00  0.00    -0.003 A 
ATOM      6  C6  DEN d   1      -4.497  -4.749  -1.974  0.00  0.00     0.001 A 
ATOM      7  C7  DEN d   1      -3.383  -5.524  -2.159  0.00  0.00     0.017 A 
ATOM      8  C8  DEN d   1      -2.313  -4.984  -2.860  0.00  0.00    -0.094 A 
ATOM      9  C9  DEN d   1      -2.340  -3.673  -3.305  0.00  0.00    -0.072 A 
ENDROOT
TORSDOF 0
ENDMDL
