MODEL 1
REMARK minimizedAffinity 9.69472122
REMARK minimizedRMSD -1
REMARK  0 active torsions:
REMARK  status: ('A' for Active; 'I' for Inactive)
ROOT
ATOM      1  C1  DEN d   1       5.454  -0.787   0.966  0.00  0.00     0.130 A 
ATOM      2  C2  DEN d   1       5.326  -0.264  -0.392  0.00  0.00    -0.031 A 
ATOM      3  C3  DEN d   1       4.000   0.373  -0.513  0.00  0.00     0.027 A 
ATOM      4  C4  DEN d   1       2.142   0.605   1.261  0.00  0.00     0.027 A 
ATOM      5  C5  DEN d   1       1.786   0.308   2.558  0.00  0.00    -0.003 A 
ATOM      6  C6  DEN d   1       2.606  -0.398   3.398  0.00  0.00     0.001 A 
ATOM      7  C7  DEN d   1       3.844  -0.793   2.964  0.00  0.00     0.017 A 
ATOM      8  C8  DEN d   1       4.208  -0.504   1.655  0.00  0.00    -0.094 A 
ATOM      9  C9  DEN d   1       3.369   0.222   0.826  0.00  0.00    -0.072 A 
ENDROOT
TORSDOF 0
ENDMDL
