MODEL 1
REMARK minimizedAffinity 15.6954994
REMARK minimizedRMSD -1
REMARK  0 active torsions:
REMARK  status: ('A' for Active; 'I' for Inactive)
ROOT
ATOM      1  C1  DEN d   1      -0.559  -3.084  -4.347  0.00  0.00     0.130 A 
ATOM      2  C2  DEN d   1       0.300  -4.258  -4.468  0.00  0.00    -0.031 A 
ATOM      3  C3  DEN d   1      -0.416  -5.410  -3.886  0.00  0.00     0.027 A 
ATOM      4  C4  DEN d   1      -2.762  -5.491  -2.817  0.00  0.00     0.027 A 
ATOM      5  C5  DEN d   1      -3.867  -4.741  -2.477  0.00  0.00    -0.003 A 
ATOM      6  C6  DEN d   1      -3.932  -3.392  -2.703  0.00  0.00     0.001 A 
ATOM      7  C7  DEN d   1      -2.891  -2.758  -3.328  0.00  0.00     0.017 A 
ATOM      8  C8  DEN d   1      -1.771  -3.505  -3.667  0.00  0.00    -0.094 A 
ATOM      9  C9  DEN d   1      -1.729  -4.870  -3.441  0.00  0.00    -0.072 A 
ENDROOT
TORSDOF 0
ENDMDL
