MODEL 1
REMARK minimizedAffinity 17.0025558
REMARK minimizedRMSD -1
REMARK  0 active torsions:
REMARK  status: ('A' for Active; 'I' for Inactive)
ROOT
ATOM      1  C1  DEN d   1      -2.282  -5.255  -2.362  0.00  0.00     0.130 A 
ATOM      2  C2  DEN d   1      -1.417  -4.115  -2.653  0.00  0.00    -0.031 A 
ATOM      3  C3  DEN d   1      -2.271  -2.999  -3.107  0.00  0.00     0.027 A 
ATOM      4  C4  DEN d   1      -4.835  -2.925  -3.381  0.00  0.00     0.027 A 
ATOM      5  C5  DEN d   1      -5.997  -3.655  -3.267  0.00  0.00    -0.003 A 
ATOM      6  C6  DEN d   1      -6.000  -4.969  -2.879  0.00  0.00     0.001 A 
ATOM      7  C7  DEN d   1      -4.820  -5.581  -2.547  0.00  0.00     0.017 A 
ATOM      8  C8  DEN d   1      -3.643  -4.853  -2.667  0.00  0.00    -0.094 A 
ATOM      9  C9  DEN d   1      -3.663  -3.523  -3.050  0.00  0.00    -0.072 A 
ENDROOT
TORSDOF 0
ENDMDL
