MODEL 1
REMARK minimizedAffinity 13.2157335
REMARK minimizedRMSD -1
REMARK  0 active torsions:
REMARK  status: ('A' for Active; 'I' for Inactive)
ROOT
ATOM      1  C1  DEN d   1      -5.272   3.316   5.996  0.00  0.00     0.130 A 
ATOM      2  C2  DEN d   1      -4.581   4.135   5.004  0.00  0.00    -0.031 A 
ATOM      3  C3  DEN d   1      -4.314   3.292   3.821  0.00  0.00     0.027 A 
ATOM      4  C4  DEN d   1      -4.906   0.812   3.430  0.00  0.00     0.027 A 
ATOM      5  C5  DEN d   1      -5.484  -0.306   3.989  0.00  0.00    -0.003 A 
ATOM      6  C6  DEN d   1      -5.998  -0.304   5.259  0.00  0.00     0.001 A 
ATOM      7  C7  DEN d   1      -5.984   0.851   5.995  0.00  0.00     0.017 A 
ATOM      8  C8  DEN d   1      -5.396   1.980   5.441  0.00  0.00    -0.094 A 
ATOM      9  C9  DEN d   1      -4.893   1.961   4.151  0.00  0.00    -0.072 A 
ENDROOT
TORSDOF 0
ENDMDL
