MODEL 1
REMARK minimizedAffinity 14.9929457
REMARK minimizedRMSD -1
REMARK  0 active torsions:
REMARK  status: ('A' for Active; 'I' for Inactive)
ROOT
ATOM      1  C1  DEN d   1       2.064   2.469   0.922  0.00  0.00     0.130 A 
ATOM      2  C2  DEN d   1       1.413   1.504   1.804  0.00  0.00    -0.031 A 
ATOM      3  C3  DEN d   1       2.198   0.254   1.773  0.00  0.00     0.027 A 
ATOM      4  C4  DEN d   1       4.350  -0.277   0.454  0.00  0.00     0.027 A 
ATOM      5  C5  DEN d   1       5.272   0.223  -0.439  0.00  0.00    -0.003 A 
ATOM      6  C6  DEN d   1       5.171   1.485  -0.962  0.00  0.00     0.001 A 
ATOM      7  C7  DEN d   1       4.150   2.306  -0.563  0.00  0.00     0.017 A 
ATOM      8  C8  DEN d   1       3.213   1.806   0.332  0.00  0.00    -0.094 A 
ATOM      9  C9  DEN d   1       3.339   0.532   0.859  0.00  0.00    -0.072 A 
ENDROOT
TORSDOF 0
ENDMDL
