MODEL 1
REMARK minimizedAffinity 13.8864698
REMARK minimizedRMSD -1
REMARK  0 active torsions:
REMARK  status: ('A' for Active; 'I' for Inactive)
ROOT
ATOM      1  C1  DEN d   1       4.098   1.667  -1.473  0.00  0.00     0.130 A 
ATOM      2  C2  DEN d   1       3.177   2.684  -1.977  0.00  0.00    -0.031 A 
ATOM      3  C3  DEN d   1       1.934   2.606  -1.185  0.00  0.00     0.027 A 
ATOM      4  C4  DEN d   1       1.348   1.023   0.765  0.00  0.00     0.027 A 
ATOM      5  C5  DEN d   1       1.806  -0.018   1.542  0.00  0.00    -0.003 A 
ATOM      6  C6  DEN d   1       3.036  -0.588   1.348  0.00  0.00     0.001 A 
ATOM      7  C7  DEN d   1       3.870  -0.090   0.382  0.00  0.00     0.017 A 
ATOM      8  C8  DEN d   1       3.412   0.954  -0.411  0.00  0.00    -0.094 A 
ATOM      9  C9  DEN d   1       2.170   1.525  -0.191  0.00  0.00    -0.072 A 
ENDROOT
TORSDOF 0
ENDMDL
