MODEL 1
REMARK minimizedAffinity 17.0119877
REMARK minimizedRMSD -1
REMARK  0 active torsions:
REMARK  status: ('A' for Active; 'I' for Inactive)
ROOT
ATOM      1  C1  DEN d   1      -3.079   3.086   4.576  0.00  0.00     0.130 A 
ATOM      2  C2  DEN d   1      -3.525   2.434   3.347  0.00  0.00    -0.031 A 
ATOM      3  C3  DEN d   1      -4.750   3.118   2.886  0.00  0.00     0.027 A 
ATOM      4  C4  DEN d   1      -5.991   5.115   3.947  0.00  0.00     0.027 A 
ATOM      5  C5  DEN d   1      -5.998   6.000   5.003  0.00  0.00    -0.003 A 
ATOM      6  C6  DEN d   1      -5.060   5.954   6.000  0.00  0.00     0.001 A 
ATOM      7  C7  DEN d   1      -4.048   5.033   5.938  0.00  0.00     0.017 A 
ATOM      8  C8  DEN d   1      -4.039   4.132   4.881  0.00  0.00    -0.094 A 
ATOM      9  C9  DEN d   1      -4.989   4.202   3.877  0.00  0.00    -0.072 A 
ENDROOT
TORSDOF 0
ENDMDL
