MODEL 1
REMARK minimizedAffinity 27.8915386
REMARK minimizedRMSD -1
REMARK  0 active torsions:
REMARK  status: ('A' for Active; 'I' for Inactive)
ROOT
ATOM      1  C1  DEN d   1       1.766   2.512   1.212  0.00  0.00     0.130 A 
ATOM      2  C2  DEN d   1       1.448   1.389   2.090  0.00  0.00    -0.031 A 
ATOM      3  C3  DEN d   1       2.137   0.192   1.568  0.00  0.00     0.027 A 
ATOM      4  C4  DEN d   1       3.663  -0.030  -0.499  0.00  0.00     0.027 A 
ATOM      5  C5  DEN d   1       4.218   0.647  -1.562  0.00  0.00    -0.003 A 
ATOM      6  C6  DEN d   1       3.970   1.974  -1.793  0.00  0.00     0.001 A 
ATOM      7  C7  DEN d   1       3.180   2.678  -0.922  0.00  0.00     0.017 A 
ATOM      8  C8  DEN d   1       2.611   2.001   0.148  0.00  0.00    -0.094 A 
ATOM      9  C9  DEN d   1       2.884   0.662   0.371  0.00  0.00    -0.072 A 
ENDROOT
TORSDOF 0
ENDMDL
