MODEL 1
REMARK minimizedAffinity 13.9092865
REMARK minimizedRMSD -1
REMARK  0 active torsions:
REMARK  status: ('A' for Active; 'I' for Inactive)
ROOT
ATOM      1  C1  DEN d   1       5.077  -1.061   1.364  0.00  0.00     0.130 A 
ATOM      2  C2  DEN d   1       5.005  -0.763  -0.064  0.00  0.00    -0.031 A 
ATOM      3  C3  DEN d   1       3.717  -0.089  -0.326  0.00  0.00     0.027 A 
ATOM      4  C4  DEN d   1       1.840   0.524   1.334  0.00  0.00     0.027 A 
ATOM      5  C5  DEN d   1       1.442   0.463   2.651  0.00  0.00    -0.003 A 
ATOM      6  C6  DEN d   1       2.206  -0.136   3.618  0.00  0.00     0.001 A 
ATOM      7  C7  DEN d   1       3.430  -0.658   3.289  0.00  0.00     0.017 A 
ATOM      8  C8  DEN d   1       3.834  -0.606   1.962  0.00  0.00    -0.094 A 
ATOM      9  C9  DEN d   1       3.053   0.014   1.002  0.00  0.00    -0.072 A 
ENDROOT
TORSDOF 0
ENDMDL
