MODEL 1
REMARK minimizedAffinity 18.2451096
REMARK minimizedRMSD -1
REMARK  0 active torsions:
REMARK  status: ('A' for Active; 'I' for Inactive)
ROOT
ATOM      1  C1  DEN d   1       1.732  -0.144   4.101  0.00  0.00     0.130 A 
ATOM      2  C2  DEN d   1       0.540   0.682   4.273  0.00  0.00    -0.031 A 
ATOM      3  C3  DEN d   1       0.312   1.422   3.015  0.00  0.00     0.027 A 
ATOM      4  C4  DEN d   1       1.680   1.367   0.829  0.00  0.00     0.027 A 
ATOM      5  C5  DEN d   1       2.784   0.825   0.210  0.00  0.00    -0.003 A 
ATOM      6  C6  DEN d   1       3.628  -0.044   0.849  0.00  0.00     0.001 A 
ATOM      7  C7  DEN d   1       3.355  -0.432   2.134  0.00  0.00     0.017 A 
ATOM      8  C8  DEN d   1       2.247   0.115   2.768  0.00  0.00    -0.094 A 
ATOM      9  C9  DEN d   1       1.400   0.983   2.100  0.00  0.00    -0.072 A 
ENDROOT
TORSDOF 0
ENDMDL
