MODEL 1
REMARK minimizedAffinity 16.8958454
REMARK minimizedRMSD -1
REMARK  0 active torsions:
REMARK  status: ('A' for Active; 'I' for Inactive)
ROOT
ATOM      1  C1  DEN d   1       2.838   2.888  -1.656  0.00  0.00     0.130 A 
ATOM      2  C2  DEN d   1       3.858   2.321  -2.534  0.00  0.00    -0.031 A 
ATOM      3  C3  DEN d   1       4.277   1.024  -1.967  0.00  0.00     0.027 A 
ATOM      4  C4  DEN d   1       3.447  -0.159   0.169  0.00  0.00     0.027 A 
ATOM      5  C5  DEN d   1       2.597  -0.060   1.248  0.00  0.00    -0.003 A 
ATOM      6  C6  DEN d   1       1.798   1.034   1.451  0.00  0.00     0.001 A 
ATOM      7  C7  DEN d   1       1.801   2.055   0.538  0.00  0.00     0.017 A 
ATOM      8  C8  DEN d   1       2.661   1.966  -0.549  0.00  0.00    -0.094 A 
ATOM      9  C9  DEN d   1       3.451   0.846  -0.743  0.00  0.00    -0.072 A 
ENDROOT
TORSDOF 0
ENDMDL
