MODEL 1
REMARK minimizedAffinity 17.9206276
REMARK minimizedRMSD -1
REMARK  0 active torsions:
REMARK  status: ('A' for Active; 'I' for Inactive)
ROOT
ATOM      1  C1  DEN d   1      -0.368  -3.607  -3.811  0.00  0.00     0.130 A 
ATOM      2  C2  DEN d   1       0.337  -4.882  -3.922  0.00  0.00    -0.031 A 
ATOM      3  C3  DEN d   1      -0.511  -5.927  -3.314  0.00  0.00     0.027 A 
ATOM      4  C4  DEN d   1      -2.837  -5.697  -2.221  0.00  0.00     0.027 A 
ATOM      5  C5  DEN d   1      -3.835  -4.811  -1.883  0.00  0.00    -0.003 A 
ATOM      6  C6  DEN d   1      -3.734  -3.467  -2.130  0.00  0.00     0.001 A 
ATOM      7  C7  DEN d   1      -2.629  -2.977  -2.775  0.00  0.00     0.017 A 
ATOM      8  C8  DEN d   1      -1.615  -3.864  -3.113  0.00  0.00    -0.094 A 
ATOM      9  C9  DEN d   1      -1.741  -5.220  -2.865  0.00  0.00    -0.072 A 
ENDROOT
TORSDOF 0
ENDMDL
