MODEL 1
REMARK minimizedAffinity 27.4359779
REMARK minimizedRMSD -1
REMARK  0 active torsions:
REMARK  status: ('A' for Active; 'I' for Inactive)
ROOT
ATOM      1  C1  DEN d   1      -3.124  -2.920  -2.903  0.00  0.00     0.130 A 
ATOM      2  C2  DEN d   1      -3.966  -2.261  -3.898  0.00  0.00    -0.031 A 
ATOM      3  C3  DEN d   1      -5.245  -2.996  -3.972  0.00  0.00     0.027 A 
ATOM      4  C4  DEN d   1      -6.000  -5.076  -2.648  0.00  0.00     0.027 A 
ATOM      5  C5  DEN d   1      -5.623  -6.000  -1.698  0.00  0.00    -0.003 A 
ATOM      6  C6  DEN d   1      -4.385  -5.982  -1.113  0.00  0.00     0.001 A 
ATOM      7  C7  DEN d   1      -3.494  -4.994  -1.439  0.00  0.00     0.017 A 
ATOM      8  C8  DEN d   1      -3.864  -4.063  -2.402  0.00  0.00    -0.094 A 
ATOM      9  C9  DEN d   1      -5.125  -4.091  -2.972  0.00  0.00    -0.072 A 
ENDROOT
TORSDOF 0
ENDMDL
