MODEL 1
REMARK minimizedAffinity 6.13449383
REMARK minimizedRMSD -1
REMARK  0 active torsions:
REMARK  status: ('A' for Active; 'I' for Inactive)
ROOT
ATOM      1  N1  IND d   1       2.685  -0.879  -1.177  0.00  0.00    -0.196 N 
ATOM      2  C2  IND d   1       1.464  -1.322  -0.751  0.00  0.00     0.054 A 
ATOM      3  C3  IND d   1       1.474  -2.667  -0.610  0.00  0.00    -0.031 A 
ATOM      4  C4  IND d   1       3.414  -4.329  -0.925  0.00  0.00     0.051 A 
ATOM      5  C5  IND d   1       4.713  -4.402  -1.344  0.00  0.00    -0.031 A 
ATOM      6  C6  IND d   1       5.417  -3.281  -1.734  0.00  0.00     0.015 A 
ATOM      7  C7  IND d   1       4.850  -2.039  -1.708  0.00  0.00    -0.016 A 
ATOM      8  C8  IND d   1       3.529  -1.962  -1.291  0.00  0.00    -0.047 A 
ATOM      9  C9  IND d   1       2.796  -3.101  -0.934  0.00  0.00    -0.096 A 
ATOM     10  HN1 IND d   1       2.891  -0.062  -1.346  0.00  0.00     0.298 HD
ENDROOT
TORSDOF 0
ENDMDL
