MODEL 1
REMARK minimizedAffinity 16.9067497
REMARK minimizedRMSD -1
REMARK  0 active torsions:
REMARK  status: ('A' for Active; 'I' for Inactive)
ROOT
ATOM      1  N1  IND d   1       2.259  -3.144   5.081  0.00  0.00    -0.196 N 
ATOM      2  C2  IND d   1       2.908  -3.199   3.879  0.00  0.00     0.054 A 
ATOM      3  C3  IND d   1       2.368  -2.313   3.013  0.00  0.00    -0.031 A 
ATOM      4  C4  IND d   1       0.481  -0.602   3.386  0.00  0.00     0.051 A 
ATOM      5  C5  IND d   1      -0.443  -0.202   4.310  0.00  0.00    -0.031 A 
ATOM      6  C6  IND d   1      -0.513  -0.772   5.565  0.00  0.00     0.015 A 
ATOM      7  C7  IND d   1       0.349  -1.760   5.948  0.00  0.00    -0.016 A 
ATOM      8  C8  IND d   1       1.284  -2.173   5.009  0.00  0.00    -0.047 A 
ATOM      9  C9  IND d   1       1.333  -1.628   3.720  0.00  0.00    -0.096 A 
ATOM     10  HN1 IND d   1       2.430  -3.634   5.767  0.00  0.00     0.298 HD
ENDROOT
TORSDOF 0
ENDMDL
