MODEL 1
REMARK minimizedAffinity 1.34794056
REMARK minimizedRMSD -1
REMARK  0 active torsions:
REMARK  status: ('A' for Active; 'I' for Inactive)
ROOT
ATOM      1  N1  IND d   1      -2.701   3.101   3.193  0.00  0.00    -0.196 N 
ATOM      2  C2  IND d   1      -2.666   4.141   2.307  0.00  0.00     0.054 A 
ATOM      3  C3  IND d   1      -1.670   3.962   1.411  0.00  0.00    -0.031 A 
ATOM      4  C4  IND d   1      -0.040   1.986   1.150  0.00  0.00     0.051 A 
ATOM      5  C5  IND d   1       0.339   0.816   1.747  0.00  0.00    -0.031 A 
ATOM      6  C6  IND d   1      -0.291   0.337   2.878  0.00  0.00     0.015 A 
ATOM      7  C7  IND d   1      -1.335   1.008   3.450  0.00  0.00    -0.016 A 
ATOM      8  C8  IND d   1      -1.717   2.199   2.851  0.00  0.00    -0.047 A 
ATOM      9  C9  IND d   1      -1.055   2.712   1.728  0.00  0.00    -0.096 A 
ATOM     10  HN1 IND d   1      -3.245   3.024   3.854  0.00  0.00     0.298 HD
ENDROOT
TORSDOF 0
ENDMDL
