MODEL 1
REMARK minimizedAffinity -0.715492606
REMARK minimizedRMSD -1
REMARK  0 active torsions:
REMARK  status: ('A' for Active; 'I' for Inactive)
ROOT
ATOM      1  N1  IND d   1      -5.206   1.126  -2.897  0.00  0.00    -0.196 N 
ATOM      2  C2  IND d   1      -4.059   0.836  -2.210  0.00  0.00     0.054 A 
ATOM      3  C3  IND d   1      -3.210   1.887  -2.249  0.00  0.00    -0.031 A 
ATOM      4  C4  IND d   1      -3.536   4.217  -3.294  0.00  0.00     0.051 A 
ATOM      5  C5  IND d   1      -4.405   4.942  -4.060  0.00  0.00    -0.031 A 
ATOM      6  C6  IND d   1      -5.612   4.423  -4.483  0.00  0.00     0.015 A 
ATOM      7  C7  IND d   1      -6.000   3.157  -4.145  0.00  0.00    -0.016 A 
ATOM      8  C8  IND d   1      -5.116   2.415  -3.374  0.00  0.00    -0.047 A 
ATOM      9  C9  IND d   1      -3.872   2.922  -2.977  0.00  0.00    -0.096 A 
ATOM     10  HN1 IND d   1      -5.870   0.593  -3.011  0.00  0.00     0.298 HD
ENDROOT
TORSDOF 0
ENDMDL
