MODEL 1
REMARK minimizedAffinity 9.17581367
REMARK minimizedRMSD -1
REMARK  0 active torsions:
REMARK  status: ('A' for Active; 'I' for Inactive)
ROOT
ATOM      1  N1  IND d   1      -2.399   1.991   2.908  0.00  0.00    -0.196 N 
ATOM      2  C2  IND d   1      -2.574   2.943   1.943  0.00  0.00     0.054 A 
ATOM      3  C3  IND d   1      -1.428   3.128   1.251  0.00  0.00    -0.031 A 
ATOM      4  C4  IND d   1       0.827   1.905   1.465  0.00  0.00     0.051 A 
ATOM      5  C5  IND d   1       1.483   0.980   2.228  0.00  0.00    -0.031 A 
ATOM      6  C6  IND d   1       0.865   0.330   3.277  0.00  0.00     0.015 A 
ATOM      7  C7  IND d   1      -0.442   0.573   3.595  0.00  0.00    -0.016 A 
ATOM      8  C8  IND d   1      -1.108   1.517   2.826  0.00  0.00    -0.047 A 
ATOM      9  C9  IND d   1      -0.474   2.211   1.788  0.00  0.00    -0.096 A 
ATOM     10  HN1 IND d   1      -2.995   1.732   3.471  0.00  0.00     0.298 HD
ENDROOT
TORSDOF 0
ENDMDL
