MODEL 1
REMARK minimizedAffinity 4.56214285
REMARK minimizedRMSD -1
REMARK  0 active torsions:
REMARK  status: ('A' for Active; 'I' for Inactive)
ROOT
ATOM      1  N1  IND d   1      -2.244  -3.769   5.996  0.00  0.00    -0.196 N 
ATOM      2  C2  IND d   1      -3.372  -2.997   5.992  0.00  0.00     0.054 A 
ATOM      3  C3  IND d   1      -3.045  -1.686   5.998  0.00  0.00    -0.031 A 
ATOM      4  C4  IND d   1      -0.722  -0.579   5.913  0.00  0.00     0.051 A 
ATOM      5  C5  IND d   1       0.613  -0.872   5.942  0.00  0.00    -0.031 A 
ATOM      6  C6  IND d   1       1.073  -2.173   5.989  0.00  0.00     0.015 A 
ATOM      7  C7  IND d   1       0.211  -3.233   5.997  0.00  0.00    -0.016 A 
ATOM      8  C8  IND d   1      -1.145  -2.939   5.975  0.00  0.00    -0.047 A 
ATOM      9  C9  IND d   1      -1.618  -1.620   5.970  0.00  0.00    -0.096 A 
ATOM     10  HN1 IND d   1      -2.224  -4.629   6.011  0.00  0.00     0.298 HD
ENDROOT
TORSDOF 0
ENDMDL
