MODEL 1
REMARK minimizedAffinity 7.73324442
REMARK minimizedRMSD -1
REMARK  0 active torsions:
REMARK  status: ('A' for Active; 'I' for Inactive)
ROOT
ATOM      1  N1  IND d   1      -3.473  -1.292  -1.154  0.00  0.00    -0.196 N 
ATOM      2  C2  IND d   1      -3.820  -0.382  -0.194  0.00  0.00     0.054 A 
ATOM      3  C3  IND d   1      -2.958   0.660  -0.202  0.00  0.00    -0.031 A 
ATOM      4  C4  IND d   1      -0.971   1.128  -1.770  0.00  0.00     0.051 A 
ATOM      5  C5  IND d   1      -0.242   0.569  -2.781  0.00  0.00    -0.031 A 
ATOM      6  C6  IND d   1      -0.561  -0.663  -3.315  0.00  0.00     0.015 A 
ATOM      7  C7  IND d   1      -1.632  -1.380  -2.862  0.00  0.00    -0.016 A 
ATOM      8  C8  IND d   1      -2.371  -0.818  -1.830  0.00  0.00    -0.047 A 
ATOM      9  C9  IND d   1      -2.027   0.413  -1.256  0.00  0.00    -0.096 A 
ATOM     10  HN1 IND d   1      -3.877  -2.035  -1.310  0.00  0.00     0.298 HD
ENDROOT
TORSDOF 0
ENDMDL
