MODEL 1
REMARK minimizedAffinity -5.52930021
REMARK minimizedRMSD -1
REMARK  3 active torsions:
REMARK  status: ('A' for Active; 'I' for Inactive)
REMARK    1  A    between atoms: C3'_2  and  C2'_3 
REMARK    2  A    between atoms: C2'_3  and  C1'_4 
REMARK    3  A    between atoms: C1'_4  and  C1_5 
ROOT
ATOM      1  C1  N4B d   1      -0.101   0.080  -0.187  0.00  0.00    -0.075 A 
ATOM      2  C2  N4B d   1      -0.824   1.243  -0.530  0.00  0.00     0.002 A 
ATOM      3  C3  N4B d   1      -1.564   1.898   0.425  0.00  0.00     0.002 A 
ATOM      4  C4  N4B d   1      -1.610   1.400   1.718  0.00  0.00    -0.004 A 
ATOM      5  C5  N4B d   1      -0.888   0.290   2.047  0.00  0.00     0.002 A 
ATOM      6  C6  N4B d   1      -0.137  -0.376   1.099  0.00  0.00     0.002 A 
ENDROOT
BRANCH   1   7
ATOM      7  C1' N4B d   1       0.652  -0.718  -1.216  0.00  0.00     0.057 C 
BRANCH   7   8
ATOM      8  C2' N4B d   1       0.656  -2.188  -0.805  0.00  0.00     0.009 C 
BRANCH   8   9
ATOM      9  C3' N4B d   1       0.307  -3.103  -1.965  0.00  0.00     0.004 C 
ATOM     10  C4' N4B d   1      -0.429  -2.395  -3.063  0.00  0.00     0.003 C 
ENDBRANCH   8   9
ENDBRANCH   7   8
ENDBRANCH   1   7
TORSDOF 3
ENDMDL
