MODEL 1
REMARK minimizedAffinity -1.71136987
REMARK minimizedRMSD -1
REMARK  3 active torsions:
REMARK  status: ('A' for Active; 'I' for Inactive)
REMARK    1  A    between atoms: C3'_2  and  C2'_3 
REMARK    2  A    between atoms: C2'_3  and  C1'_4 
REMARK    3  A    between atoms: C1'_4  and  C1_5 
ROOT
ATOM      1  C1  N4B d   1       0.592  -0.799  -0.643  0.00  0.00    -0.075 A 
ATOM      2  C2  N4B d   1       0.262   0.513  -1.049  0.00  0.00     0.002 A 
ATOM      3  C3  N4B d   1      -0.536   1.297  -0.252  0.00  0.00     0.002 A 
ATOM      4  C4  N4B d   1      -1.028   0.787   0.940  0.00  0.00    -0.004 A 
ATOM      5  C5  N4B d   1      -0.683  -0.472   1.336  0.00  0.00     0.002 A 
ATOM      6  C6  N4B d   1       0.121  -1.270   0.548  0.00  0.00     0.002 A 
ENDROOT
BRANCH   1   7
ATOM      7  C1' N4B d   1       1.391  -1.724  -1.521  0.00  0.00     0.057 C 
BRANCH   7   8
ATOM      8  C2' N4B d   1       0.997  -3.167  -1.217  0.00  0.00     0.009 C 
BRANCH   8   9
ATOM      9  C3' N4B d   1       0.037  -3.724  -2.253  0.00  0.00     0.004 C 
ATOM     10  C4' N4B d   1      -0.006  -2.902  -3.507  0.00  0.00     0.003 C 
ENDBRANCH   8   9
ENDBRANCH   7   8
ENDBRANCH   1   7
TORSDOF 3
ENDMDL
