MODEL 1
REMARK minimizedAffinity -5.3150177
REMARK minimizedRMSD -1
REMARK  3 active torsions:
REMARK  status: ('A' for Active; 'I' for Inactive)
REMARK    1  A    between atoms: C3'_2  and  C2'_3 
REMARK    2  A    between atoms: C2'_3  and  C1'_4 
REMARK    3  A    between atoms: C1'_4  and  C1_5 
ROOT
ATOM      1  C1  N4B d   1      -0.072   0.023   0.167  0.00  0.00    -0.075 A 
ATOM      2  C2  N4B d   1      -0.907   1.090  -0.230  0.00  0.00     0.002 A 
ATOM      3  C3  N4B d   1      -1.606   1.803   0.713  0.00  0.00     0.002 A 
ATOM      4  C4  N4B d   1      -1.501   1.456   2.052  0.00  0.00    -0.004 A 
ATOM      5  C5  N4B d   1      -0.672   0.440   2.429  0.00  0.00     0.002 A 
ATOM      6  C6  N4B d   1       0.039  -0.283   1.493  0.00  0.00     0.002 A 
ENDROOT
BRANCH   1   7
ATOM      7  C1' N4B d   1       0.645  -0.840  -0.835  0.00  0.00     0.057 C 
BRANCH   7   8
ATOM      8  C2' N4B d   1       0.850  -2.231  -0.243  0.00  0.00     0.009 C 
BRANCH   8   9
ATOM      9  C3' N4B d   1       1.206  -3.255  -1.307  0.00  0.00     0.004 C 
ATOM     10  C4' N4B d   1       0.010  -3.736  -2.073  0.00  0.00     0.003 C 
ENDBRANCH   8   9
ENDBRANCH   7   8
ENDBRANCH   1   7
TORSDOF 3
ENDMDL
