MODEL 1
REMARK minimizedAffinity -3.9873786
REMARK minimizedRMSD -1
REMARK  3 active torsions:
REMARK  status: ('A' for Active; 'I' for Inactive)
REMARK    1  A    between atoms: C3'_2  and  C2'_3 
REMARK    2  A    between atoms: C2'_3  and  C1'_4 
REMARK    3  A    between atoms: C1'_4  and  C1_5 
ROOT
ATOM      1  C1  N4B d   1       0.026   1.065  -0.499  0.00  0.00    -0.075 A 
ATOM      2  C2  N4B d   1      -0.864   0.797   0.564  0.00  0.00     0.002 A 
ATOM      3  C3  N4B d   1      -1.653   1.801   1.069  0.00  0.00     0.002 A 
ATOM      4  C4  N4B d   1      -1.555   3.080   0.542  0.00  0.00    -0.004 A 
ATOM      5  C5  N4B d   1      -0.711   3.325  -0.502  0.00  0.00     0.002 A 
ATOM      6  C6  N4B d   1       0.084   2.324  -1.022  0.00  0.00     0.002 A 
ENDROOT
BRANCH   1   7
ATOM      7  C1' N4B d   1       0.970   0.019  -1.027  0.00  0.00     0.057 C 
BRANCH   7   8
ATOM      8  C2' N4B d   1       0.454  -1.363  -0.639  0.00  0.00     0.009 C 
BRANCH   8   9
ATOM      9  C3' N4B d   1       1.184  -2.471  -1.379  0.00  0.00     0.004 C 
ATOM     10  C4' N4B d   1       0.376  -3.051  -2.501  0.00  0.00     0.003 C 
ENDBRANCH   8   9
ENDBRANCH   7   8
ENDBRANCH   1   7
TORSDOF 3
ENDMDL
