MODEL 1
REMARK minimizedAffinity -6.19384003
REMARK minimizedRMSD -1
REMARK  3 active torsions:
REMARK  status: ('A' for Active; 'I' for Inactive)
REMARK    1  A    between atoms: C3'_2  and  C2'_3 
REMARK    2  A    between atoms: C2'_3  and  C1'_4 
REMARK    3  A    between atoms: C1'_4  and  C1_5 
ROOT
ATOM      1  C1  N4B d   1      -0.202  -0.200   0.152  0.00  0.00    -0.075 A 
ATOM      2  C2  N4B d   1      -1.016   0.948   0.031  0.00  0.00     0.002 A 
ATOM      3  C3  N4B d   1      -1.827   1.327   1.072  0.00  0.00     0.002 A 
ATOM      4  C4  N4B d   1      -1.856   0.566   2.231  0.00  0.00    -0.004 A 
ATOM      5  C5  N4B d   1      -1.048  -0.527   2.350  0.00  0.00     0.002 A 
ATOM      6  C6  N4B d   1      -0.224  -0.917   1.313  0.00  0.00     0.002 A 
ENDROOT
BRANCH   1   7
ATOM      7  C1' N4B d   1       0.638  -0.703  -0.991  0.00  0.00     0.057 C 
BRANCH   7   8
ATOM      8  C2' N4B d   1       0.998  -2.164  -0.743  0.00  0.00     0.009 C 
BRANCH   8   9
ATOM      9  C3' N4B d   1       0.590  -3.055  -1.904  0.00  0.00     0.004 C 
ATOM     10  C4' N4B d   1      -0.095  -2.299  -3.003  0.00  0.00     0.003 C 
ENDBRANCH   8   9
ENDBRANCH   7   8
ENDBRANCH   1   7
TORSDOF 3
ENDMDL
