MODEL 1
REMARK minimizedAffinity -3.23812699
REMARK minimizedRMSD -1
REMARK  3 active torsions:
REMARK  status: ('A' for Active; 'I' for Inactive)
REMARK    1  A    between atoms: C3'_2  and  C2'_3 
REMARK    2  A    between atoms: C2'_3  and  C1'_4 
REMARK    3  A    between atoms: C1'_4  and  C1_5 
ROOT
ATOM      1  C1  N4B d   1       0.658  -0.145  -0.803  0.00  0.00    -0.075 A 
ATOM      2  C2  N4B d   1       0.181   1.045  -1.393  0.00  0.00     0.002 A 
ATOM      3  C3  N4B d   1      -0.732   1.825  -0.726  0.00  0.00     0.002 A 
ATOM      4  C4  N4B d   1      -1.194   1.426   0.519  0.00  0.00    -0.004 A 
ATOM      5  C5  N4B d   1      -0.709   0.288   1.094  0.00  0.00     0.002 A 
ATOM      6  C6  N4B d   1       0.212  -0.503   0.437  0.00  0.00     0.002 A 
ENDROOT
BRANCH   1   7
ATOM      7  C1' N4B d   1       1.592  -1.074  -1.530  0.00  0.00     0.057 C 
BRANCH   7   8
ATOM      8  C2' N4B d   1       1.304  -2.510  -1.102  0.00  0.00     0.009 C 
BRANCH   8   9
ATOM      9  C3' N4B d   1       0.539  -3.278  -2.166  0.00  0.00     0.004 C 
ATOM     10  C4' N4B d   1       0.428  -2.525  -3.458  0.00  0.00     0.003 C 
ENDBRANCH   8   9
ENDBRANCH   7   8
ENDBRANCH   1   7
TORSDOF 3
ENDMDL
