MODEL 1
REMARK minimizedAffinity -4.200634
REMARK minimizedRMSD -1
REMARK  3 active torsions:
REMARK  status: ('A' for Active; 'I' for Inactive)
REMARK    1  A    between atoms: C3'_2  and  C2'_3 
REMARK    2  A    between atoms: C2'_3  and  C1'_4 
REMARK    3  A    between atoms: C1'_4  and  C1_5 
ROOT
ATOM      1  C1  N4B d   1      -0.333   0.088   0.258  0.00  0.00    -0.075 A 
ATOM      2  C2  N4B d   1      -0.843   1.138  -0.536  0.00  0.00     0.002 A 
ATOM      3  C3  N4B d   1      -1.717   2.048   0.007  0.00  0.00     0.002 A 
ATOM      4  C4  N4B d   1      -2.108   1.917   1.331  0.00  0.00    -0.004 A 
ATOM      5  C5  N4B d   1      -1.591   0.914   2.098  0.00  0.00     0.002 A 
ATOM      6  C6  N4B d   1      -0.709  -0.005   1.567  0.00  0.00     0.002 A 
ENDROOT
BRANCH   1   7
ATOM      7  C1' N4B d   1       0.558  -0.981  -0.315  0.00  0.00     0.057 C 
BRANCH   7   8
ATOM      8  C2' N4B d   1      -0.082  -1.539  -1.583  0.00  0.00     0.009 C 
BRANCH   8   9
ATOM      9  C3' N4B d   1       0.008  -3.054  -1.644  0.00  0.00     0.004 C 
ATOM     10  C4' N4B d   1      -0.397  -3.607  -2.978  0.00  0.00     0.003 C 
ENDBRANCH   8   9
ENDBRANCH   7   8
ENDBRANCH   1   7
TORSDOF 3
ENDMDL
