MODEL 1
REMARK minimizedAffinity -4.09043264
REMARK minimizedRMSD -1
REMARK  3 active torsions:
REMARK  status: ('A' for Active; 'I' for Inactive)
REMARK    1  A    between atoms: C3'_2  and  C2'_3 
REMARK    2  A    between atoms: C2'_3  and  C1'_4 
REMARK    3  A    between atoms: C1'_4  and  C1_5 
ROOT
ATOM      1  C1  N4B d   1      -0.005  -0.277   0.047  0.00  0.00    -0.075 A 
ATOM      2  C2  N4B d   1      -0.246   0.983  -0.544  0.00  0.00     0.002 A 
ATOM      3  C3  N4B d   1      -1.092   1.877   0.066  0.00  0.00     0.002 A 
ATOM      4  C4  N4B d   1      -1.720   1.527   1.252  0.00  0.00    -0.004 A 
ATOM      5  C5  N4B d   1      -1.462   0.319   1.829  0.00  0.00     0.002 A 
ATOM      6  C6  N4B d   1      -0.611  -0.588   1.230  0.00  0.00     0.002 A 
ENDROOT
BRANCH   1   7
ATOM      7  C1' N4B d   1       0.845  -1.320  -0.626  0.00  0.00     0.057 C 
BRANCH   7   8
ATOM      8  C2' N4B d   1       0.012  -2.039  -1.683  0.00  0.00     0.009 C 
BRANCH   8   9
ATOM      9  C3' N4B d   1       0.299  -3.530  -1.715  0.00  0.00     0.004 C 
ATOM     10  C4' N4B d   1       1.548  -3.897  -0.970  0.00  0.00     0.003 C 
ENDBRANCH   8   9
ENDBRANCH   7   8
ENDBRANCH   1   7
TORSDOF 3
ENDMDL
