MODEL 1
REMARK minimizedAffinity -6.47494507
REMARK minimizedRMSD -1
REMARK  3 active torsions:
REMARK  status: ('A' for Active; 'I' for Inactive)
REMARK    1  A    between atoms: C3'_2  and  C2'_3 
REMARK    2  A    between atoms: C2'_3  and  C1'_4 
REMARK    3  A    between atoms: C1'_4  and  C1_5 
ROOT
ATOM      1  C1  N4B d   1      -0.212  -0.054   0.170  0.00  0.00    -0.075 A 
ATOM      2  C2  N4B d   1      -0.439   1.278  -0.241  0.00  0.00     0.002 A 
ATOM      3  C3  N4B d   1      -1.245   2.099   0.508  0.00  0.00     0.002 A 
ATOM      4  C4  N4B d   1      -1.847   1.608   1.657  0.00  0.00    -0.004 A 
ATOM      5  C5  N4B d   1      -1.602   0.328   2.060  0.00  0.00     0.002 A 
ATOM      6  C6  N4B d   1      -0.791  -0.508   1.319  0.00  0.00     0.002 A 
ENDROOT
BRANCH   1   7
ATOM      7  C1' N4B d   1       0.593  -1.016  -0.662  0.00  0.00     0.057 C 
BRANCH   7   8
ATOM      8  C2' N4B d   1      -0.358  -1.923  -1.439  0.00  0.00     0.009 C 
BRANCH   8   9
ATOM      9  C3' N4B d   1       0.151  -3.352  -1.507  0.00  0.00     0.004 C 
ATOM     10  C4' N4B d   1       1.494  -3.523  -0.863  0.00  0.00     0.003 C 
ENDBRANCH   8   9
ENDBRANCH   7   8
ENDBRANCH   1   7
TORSDOF 3
ENDMDL
