MODEL 1
REMARK minimizedAffinity -4.84999514
REMARK minimizedRMSD -1
REMARK  3 active torsions:
REMARK  status: ('A' for Active; 'I' for Inactive)
REMARK    1  A    between atoms: C3'_2  and  C2'_3 
REMARK    2  A    between atoms: C2'_3  and  C1'_4 
REMARK    3  A    between atoms: C1'_4  and  C1_5 
ROOT
ATOM      1  C1  N4B d   1       0.375  -1.052  -0.213  0.00  0.00    -0.075 A 
ATOM      2  C2  N4B d   1       0.910   0.240  -0.407  0.00  0.00     0.002 A 
ATOM      3  C3  N4B d   1       0.274   1.334   0.126  0.00  0.00     0.002 A 
ATOM      4  C4  N4B d   1      -0.904   1.163   0.838  0.00  0.00    -0.004 A 
ATOM      5  C5  N4B d   1      -1.400  -0.091   1.043  0.00  0.00     0.002 A 
ATOM      6  C6  N4B d   1      -0.769  -1.200   0.516  0.00  0.00     0.002 A 
ENDROOT
BRANCH   1   7
ATOM      7  C1' N4B d   1       0.989  -2.269  -0.850  0.00  0.00     0.057 C 
BRANCH   7   8
ATOM      8  C2' N4B d   1       0.364  -2.484  -2.225  0.00  0.00     0.009 C 
BRANCH   8   9
ATOM      9  C3' N4B d   1      -0.081  -3.922  -2.429  0.00  0.00     0.004 C 
ATOM     10  C4' N4B d   1      -0.071  -4.718  -1.159  0.00  0.00     0.003 C 
ENDBRANCH   8   9
ENDBRANCH   7   8
ENDBRANCH   1   7
TORSDOF 3
ENDMDL
