MODEL 1
REMARK minimizedAffinity 5.09140825
REMARK minimizedRMSD -1
REMARK  1 active torsions:
REMARK  status: ('A' for Active; 'I' for Inactive)
REMARK    1  A    between atoms: N_2  and  C1_3 
ROOT
ATOM      1  C1  UNL d   1      -1.403  -3.631  -5.446  0.00  0.00     0.143 A 
ATOM      2  C2  UNL d   1      -1.248  -2.334  -5.948  0.00  0.00    -0.057 A 
ATOM      3  C3  UNL d   1      -0.439  -1.395  -5.296  0.00  0.00     0.033 A 
ATOM      4  C4  UNL d   1       0.208  -1.729  -4.111  0.00  0.00    -0.042 A 
ATOM      5  C5  UNL d   1       0.048  -3.004  -3.580  0.00  0.00     0.033 A 
ATOM      6  C6  UNL d   1      -0.756  -3.940  -4.240  0.00  0.00    -0.057 A 
ENDROOT
BRANCH   1   7
ATOM      7  N   UNL d   1      -2.271  -4.578  -5.995  0.00  0.00    -0.732 N 
ATOM      8  C   UNL d   1      -2.156  -5.976  -5.639  0.00  0.00     0.284 C 
ATOM      9  H3  UNL d   1      -3.229  -4.241  -6.051  0.00  0.00     0.395 HD
ENDBRANCH   1   7
TORSDOF 1
ENDMDL
