MODEL 1
REMARK minimizedAffinity 16.7900791
REMARK minimizedRMSD -1
REMARK  1 active torsions:
REMARK  status: ('A' for Active; 'I' for Inactive)
REMARK    1  A    between atoms: N_2  and  C1_3 
ROOT
ATOM      1  C1  UNL d   1       0.044   1.387   2.939  0.00  0.00     0.143 A 
ATOM      2  C2  UNL d   1      -1.226   1.647   2.413  0.00  0.00    -0.057 A 
ATOM      3  C3  UNL d   1      -1.393   2.048   1.082  0.00  0.00     0.033 A 
ATOM      4  C4  UNL d   1      -0.287   2.225   0.259  0.00  0.00    -0.042 A 
ATOM      5  C5  UNL d   1       0.987   1.996   0.767  0.00  0.00     0.033 A 
ATOM      6  C6  UNL d   1       1.147   1.589   2.095  0.00  0.00    -0.057 A 
ENDROOT
BRANCH   1   7
ATOM      7  N   UNL d   1       0.283   1.080   4.280  0.00  0.00    -0.732 N 
ATOM      8  C   UNL d   1       0.694  -0.252   4.671  0.00  0.00     0.284 C 
ATOM      9  H3  UNL d   1       0.774   1.826   4.768  0.00  0.00     0.395 HD
ENDBRANCH   1   7
TORSDOF 1
ENDMDL
