MODEL 1
REMARK minimizedAffinity 15.9526157
REMARK minimizedRMSD -1
REMARK  1 active torsions:
REMARK  status: ('A' for Active; 'I' for Inactive)
REMARK    1  A    between atoms: N_2  and  C1_3 
ROOT
ATOM      1  C1  UNL d   1      -0.058   2.407  -0.061  0.00  0.00     0.143 A 
ATOM      2  C2  UNL d   1       0.244   3.773  -0.090  0.00  0.00    -0.057 A 
ATOM      3  C3  UNL d   1      -0.116   4.573  -1.180  0.00  0.00     0.033 A 
ATOM      4  C4  UNL d   1      -0.762   4.014  -2.278  0.00  0.00    -0.042 A 
ATOM      5  C5  UNL d   1      -1.050   2.653  -2.282  0.00  0.00     0.033 A 
ATOM      6  C6  UNL d   1      -0.693   1.861  -1.187  0.00  0.00    -0.057 A 
ENDROOT
BRANCH   1   7
ATOM      7  N   UNL d   1       0.361   1.539   0.951  0.00  0.00    -0.732 N 
ATOM      8  C   UNL d   1      -0.260   1.575   2.257  0.00  0.00     0.284 C 
ATOM      9  H3  UNL d   1       0.547   0.601   0.605  0.00  0.00     0.395 HD
ENDBRANCH   1   7
TORSDOF 1
ENDMDL
