MODEL 1
REMARK minimizedAffinity 6.69174862
REMARK minimizedRMSD -1
REMARK  1 active torsions:
REMARK  status: ('A' for Active; 'I' for Inactive)
REMARK    1  A    between atoms: N_2  and  C1_3 
ROOT
ATOM      1  C1  UNL d   1      -0.641   1.828  -3.353  0.00  0.00     0.143 A 
ATOM      2  C2  UNL d   1      -0.046   0.904  -4.217  0.00  0.00    -0.057 A 
ATOM      3  C3  UNL d   1      -0.804   0.195  -5.157  0.00  0.00     0.033 A 
ATOM      4  C4  UNL d   1      -2.181   0.378  -5.229  0.00  0.00    -0.042 A 
ATOM      5  C5  UNL d   1      -2.798   1.273  -4.362  0.00  0.00     0.033 A 
ATOM      6  C6  UNL d   1      -2.034   1.983  -3.431  0.00  0.00    -0.057 A 
ENDROOT
BRANCH   1   7
ATOM      7  N   UNL d   1       0.043   2.491  -2.331  0.00  0.00    -0.732 N 
ATOM      8  C   UNL d   1      -0.589   2.724  -1.050  0.00  0.00     0.284 C 
ATOM      9  H3  UNL d   1       1.018   2.205  -2.267  0.00  0.00     0.395 HD
ENDBRANCH   1   7
TORSDOF 1
ENDMDL
