MODEL 1
REMARK minimizedAffinity -0.805193424
REMARK minimizedRMSD -1
REMARK  1 active torsions:
REMARK  status: ('A' for Active; 'I' for Inactive)
REMARK    1  A    between atoms: N_2  and  C1_3 
ROOT
ATOM      1  C1  UNL d   1      -0.544   5.100  -2.679  0.00  0.00     0.143 A 
ATOM      2  C2  UNL d   1       0.847   5.252  -2.654  0.00  0.00    -0.057 A 
ATOM      3  C3  UNL d   1       1.660   4.373  -1.929  0.00  0.00     0.033 A 
ATOM      4  C4  UNL d   1       1.093   3.340  -1.190  0.00  0.00    -0.042 A 
ATOM      5  C5  UNL d   1      -0.289   3.185  -1.180  0.00  0.00     0.033 A 
ATOM      6  C6  UNL d   1      -1.095   4.062  -1.912  0.00  0.00    -0.057 A 
ENDROOT
BRANCH   1   7
ATOM      7  N   UNL d   1      -1.414   5.999  -3.301  0.00  0.00    -0.732 N 
ATOM      8  C   UNL d   1      -1.879   5.762  -4.650  0.00  0.00     0.284 C 
ATOM      9  H3  UNL d   1      -2.132   6.345  -2.668  0.00  0.00     0.395 HD
ENDBRANCH   1   7
TORSDOF 1
ENDMDL
