MODEL 1
REMARK minimizedAffinity -3.08959126
REMARK minimizedRMSD -1
REMARK  1 active torsions:
REMARK  status: ('A' for Active; 'I' for Inactive)
REMARK    1  A    between atoms: N_2  and  C1_3 
ROOT
ATOM      1  C1  UNL d   1       1.299   0.271   1.001  0.00  0.00     0.143 A 
ATOM      2  C2  UNL d   1       0.895   1.536   0.561  0.00  0.00    -0.057 A 
ATOM      3  C3  UNL d   1       0.422   2.500   1.460  0.00  0.00     0.033 A 
ATOM      4  C4  UNL d   1       0.317   2.204   2.815  0.00  0.00    -0.042 A 
ATOM      5  C5  UNL d   1       0.689   0.945   3.271  0.00  0.00     0.033 A 
ATOM      6  C6  UNL d   1       1.167  -0.011   2.370  0.00  0.00    -0.057 A 
ENDROOT
BRANCH   1   7
ATOM      7  N   UNL d   1       1.686  -0.763   0.145  0.00  0.00    -0.732 N 
ATOM      8  C   UNL d   1       2.488  -0.488  -1.028  0.00  0.00     0.284 C 
ATOM      9  H3  UNL d   1       1.961  -1.603   0.649  0.00  0.00     0.395 HD
ENDBRANCH   1   7
TORSDOF 1
ENDMDL
