MODEL 1
REMARK minimizedAffinity -5.06609201
REMARK minimizedRMSD -1
REMARK  1 active torsions:
REMARK  status: ('A' for Active; 'I' for Inactive)
REMARK    1  A    between atoms: N_2  and  C1_3 
ROOT
ATOM      1  C1  UNL d   1       0.593   0.544   0.417  0.00  0.00     0.143 A 
ATOM      2  C2  UNL d   1       0.212   1.498  -0.533  0.00  0.00    -0.057 A 
ATOM      3  C3  UNL d   1       0.601   1.384  -1.873  0.00  0.00     0.033 A 
ATOM      4  C4  UNL d   1       1.405   0.326  -2.283  0.00  0.00    -0.042 A 
ATOM      5  C5  UNL d   1       1.817  -0.620  -1.351  0.00  0.00     0.033 A 
ATOM      6  C6  UNL d   1       1.420  -0.505  -0.016  0.00  0.00    -0.057 A 
ENDROOT
BRANCH   1   7
ATOM      7  N   UNL d   1       0.321   0.654   1.783  0.00  0.00    -0.732 N 
ATOM      8  C   UNL d   1       0.247   1.953   2.417  0.00  0.00     0.284 C 
ATOM      9  H3  UNL d   1      -0.395  -0.000   2.090  0.00  0.00     0.395 HD
ENDBRANCH   1   7
TORSDOF 1
ENDMDL
