MODEL 1
REMARK minimizedAffinity -2.81728339
REMARK minimizedRMSD -1
REMARK  1 active torsions:
REMARK  status: ('A' for Active; 'I' for Inactive)
REMARK    1  A    between atoms: N_2  and  C1_3 
ROOT
ATOM      1  C1  UNL d   1       1.295   0.254   1.145  0.00  0.00     0.143 A 
ATOM      2  C2  UNL d   1       0.850   1.234   0.251  0.00  0.00    -0.057 A 
ATOM      3  C3  UNL d   1       0.622   2.550   0.672  0.00  0.00     0.033 A 
ATOM      4  C4  UNL d   1       0.808   2.903   2.004  0.00  0.00    -0.042 A 
ATOM      5  C5  UNL d   1       1.225   1.939   2.915  0.00  0.00     0.033 A 
ATOM      6  C6  UNL d   1       1.458   0.628   2.488  0.00  0.00    -0.057 A 
ENDROOT
BRANCH   1   7
ATOM      7  N   UNL d   1       1.445  -1.094   0.809  0.00  0.00    -0.732 N 
ATOM      8  C   UNL d   1       1.434  -1.515  -0.575  0.00  0.00     0.284 C 
ATOM      9  H3  UNL d   1       2.147  -1.560   1.380  0.00  0.00     0.395 HD
ENDBRANCH   1   7
TORSDOF 1
ENDMDL
