MODEL 1
REMARK minimizedAffinity 13.6193905
REMARK minimizedRMSD -1
REMARK  0 active torsions:
REMARK  status: ('A' for Active; 'I' for Inactive)
ROOT
ATOM      1  C1  DEN d   1       5.997   5.999  -1.558  0.00  0.00     0.130 A 
ATOM      2  C2  DEN d   1       5.044   5.999  -0.451  0.00  0.00    -0.031 A 
ATOM      3  C3  DEN d   1       3.933   5.093  -0.805  0.00  0.00     0.027 A 
ATOM      4  C4  DEN d   1       3.600   3.694  -2.946  0.00  0.00     0.027 A 
ATOM      5  C5  DEN d   1       4.137   3.375  -4.174  0.00  0.00    -0.003 A 
ATOM      6  C6  DEN d   1       5.305   3.930  -4.626  0.00  0.00     0.001 A 
ATOM      7  C7  DEN d   1       5.998   4.799  -3.826  0.00  0.00     0.017 A 
ATOM      8  C8  DEN d   1       5.459   5.131  -2.590  0.00  0.00    -0.094 A 
ATOM      9  C9  DEN d   1       4.283   4.550  -2.146  0.00  0.00    -0.072 A 
ENDROOT
TORSDOF 0
ENDMDL
