MODEL 1
REMARK minimizedAffinity 11.7495575
REMARK minimizedRMSD -1
REMARK  0 active torsions:
REMARK  status: ('A' for Active; 'I' for Inactive)
ROOT
ATOM      1  C1  DEN d   1      -2.759   5.240  -4.307  0.00  0.00     0.130 A 
ATOM      2  C2  DEN d   1      -2.180   5.065  -5.636  0.00  0.00    -0.031 A 
ATOM      3  C3  DEN d   1      -0.716   5.220  -5.520  0.00  0.00     0.027 A 
ATOM      4  C4  DEN d   1       0.703   5.706  -3.422  0.00  0.00     0.027 A 
ATOM      5  C5  DEN d   1       0.657   5.945  -2.066  0.00  0.00    -0.003 A 
ATOM      6  C6  DEN d   1      -0.523   5.999  -1.374  0.00  0.00     0.001 A 
ATOM      7  C7  DEN d   1      -1.705   5.767  -2.028  0.00  0.00     0.017 A 
ATOM      8  C8  DEN d   1      -1.667   5.532  -3.396  0.00  0.00    -0.094 A 
ATOM      9  C9  DEN d   1      -0.462   5.469  -4.076  0.00  0.00    -0.072 A 
ENDROOT
TORSDOF 0
ENDMDL
