MODEL 1
REMARK minimizedAffinity 16.0296059
REMARK minimizedRMSD -1
REMARK  0 active torsions:
REMARK  status: ('A' for Active; 'I' for Inactive)
ROOT
ATOM      1  C1  DEN d   1       5.997   4.204  -3.173  0.00  0.00     0.130 A 
ATOM      2  C2  DEN d   1       5.999   4.915  -1.898  0.00  0.00    -0.031 A 
ATOM      3  C3  DEN d   1       4.640   4.830  -1.326  0.00  0.00     0.027 A 
ATOM      4  C4  DEN d   1       2.546   3.670  -2.284  0.00  0.00     0.027 A 
ATOM      5  C5  DEN d   1       2.051   2.945  -3.346  0.00  0.00    -0.003 A 
ATOM      6  C6  DEN d   1       2.821   2.620  -4.431  0.00  0.00     0.001 A 
ATOM      7  C7  DEN d   1       4.142   2.983  -4.458  0.00  0.00     0.017 A 
ATOM      8  C8  DEN d   1       4.646   3.721  -3.395  0.00  0.00    -0.094 A 
ATOM      9  C9  DEN d   1       3.854   4.028  -2.302  0.00  0.00    -0.072 A 
ENDROOT
TORSDOF 0
ENDMDL
