MODEL 1
REMARK minimizedAffinity 22.3076477
REMARK minimizedRMSD -1
REMARK  0 active torsions:
REMARK  status: ('A' for Active; 'I' for Inactive)
ROOT
ATOM      1  C1  DEN d   1      -2.664   5.483  -4.996  0.00  0.00     0.130 A 
ATOM      2  C2  DEN d   1      -1.220   5.479  -5.213  0.00  0.00    -0.031 A 
ATOM      3  C3  DEN d   1      -0.559   5.440  -3.893  0.00  0.00     0.027 A 
ATOM      4  C4  DEN d   1      -1.627   5.380  -1.546  0.00  0.00     0.027 A 
ATOM      5  C5  DEN d   1      -2.818   5.380  -0.854  0.00  0.00    -0.003 A 
ATOM      6  C6  DEN d   1      -4.030   5.449  -1.488  0.00  0.00     0.001 A 
ATOM      7  C7  DEN d   1      -4.080   5.474  -2.857  0.00  0.00     0.017 A 
ATOM      8  C8  DEN d   1      -2.883   5.481  -3.561  0.00  0.00    -0.094 A 
ATOM      9  C9  DEN d   1      -1.668   5.399  -2.902  0.00  0.00    -0.072 A 
ENDROOT
TORSDOF 0
ENDMDL
