MODEL 1
REMARK minimizedAffinity 14.1342039
REMARK minimizedRMSD -1
REMARK  0 active torsions:
REMARK  status: ('A' for Active; 'I' for Inactive)
ROOT
ATOM      1  C1  DEN d   1      -2.271   5.636  -5.100  0.00  0.00     0.130 A 
ATOM      2  C2  DEN d   1      -1.121   5.677  -6.000  0.00  0.00    -0.031 A 
ATOM      3  C3  DEN d   1       0.103   5.698  -5.175  0.00  0.00     0.027 A 
ATOM      4  C4  DEN d   1       0.330   5.666  -2.606  0.00  0.00     0.027 A 
ATOM      5  C5  DEN d   1      -0.367   5.644  -1.418  0.00  0.00    -0.003 A 
ATOM      6  C6  DEN d   1      -1.736   5.652  -1.374  0.00  0.00     0.001 A 
ATOM      7  C7  DEN d   1      -2.453   5.637  -2.541  0.00  0.00     0.017 A 
ATOM      8  C8  DEN d   1      -1.757   5.667  -3.743  0.00  0.00    -0.094 A 
ATOM      9  C9  DEN d   1      -0.373   5.646  -3.766  0.00  0.00    -0.072 A 
ENDROOT
TORSDOF 0
ENDMDL
