MODEL 1
REMARK minimizedAffinity 7.82446718
REMARK minimizedRMSD -1
REMARK  0 active torsions:
REMARK  status: ('A' for Active; 'I' for Inactive)
ROOT
ATOM      1  C1  DEN d   1      -3.848  -2.320   3.875  0.00  0.00     0.130 A 
ATOM      2  C2  DEN d   1      -5.244  -2.495   3.485  0.00  0.00    -0.031 A 
ATOM      3  C3  DEN d   1      -5.486  -1.683   2.276  0.00  0.00     0.027 A 
ATOM      4  C4  DEN d   1      -3.841  -0.182   0.974  0.00  0.00     0.027 A 
ATOM      5  C5  DEN d   1      -2.549   0.294   0.930  0.00  0.00    -0.003 A 
ATOM      6  C6  DEN d   1      -1.616  -0.039   1.876  0.00  0.00     0.001 A 
ATOM      7  C7  DEN d   1      -1.950  -0.907   2.882  0.00  0.00     0.017 A 
ATOM      8  C8  DEN d   1      -3.253  -1.385   2.937  0.00  0.00    -0.094 A 
ATOM      9  C9  DEN d   1      -4.178  -1.046   1.964  0.00  0.00    -0.072 A 
ENDROOT
TORSDOF 0
ENDMDL
