MODEL 1
REMARK minimizedAffinity 18.1033344
REMARK minimizedRMSD -1
REMARK  0 active torsions:
REMARK  status: ('A' for Active; 'I' for Inactive)
ROOT
ATOM      1  C1  DEN d   1      -2.030  -0.545   5.257  0.00  0.00     0.130 A 
ATOM      2  C2  DEN d   1      -0.814   0.076   4.739  0.00  0.00    -0.031 A 
ATOM      3  C3  DEN d   1      -0.740  -0.202   3.291  0.00  0.00     0.027 A 
ATOM      4  C4  DEN d   1      -2.385  -1.522   1.806  0.00  0.00     0.027 A 
ATOM      5  C5  DEN d   1      -3.557  -2.246   1.798  0.00  0.00    -0.003 A 
ATOM      6  C6  DEN d   1      -4.278  -2.480   2.938  0.00  0.00     0.001 A 
ATOM      7  C7  DEN d   1      -3.858  -1.948   4.128  0.00  0.00     0.017 A 
ATOM      8  C8  DEN d   1      -2.674  -1.223   4.146  0.00  0.00    -0.094 A 
ATOM      9  C9  DEN d   1      -1.965  -0.987   2.980  0.00  0.00    -0.072 A 
ENDROOT
TORSDOF 0
ENDMDL
