MODEL 1
REMARK minimizedAffinity 13.3628139
REMARK minimizedRMSD -1
REMARK  0 active torsions:
REMARK  status: ('A' for Active; 'I' for Inactive)
ROOT
ATOM      1  C1  DEN d   1      -4.510   1.336   2.288  0.00  0.00     0.130 A 
ATOM      2  C2  DEN d   1      -5.439   0.718   1.346  0.00  0.00    -0.031 A 
ATOM      3  C3  DEN d   1      -4.777  -0.467   0.763  0.00  0.00     0.027 A 
ATOM      4  C4  DEN d   1      -2.418  -1.401   1.230  0.00  0.00     0.027 A 
ATOM      5  C5  DEN d   1      -1.257  -1.210   1.944  0.00  0.00    -0.003 A 
ATOM      6  C6  DEN d   1      -1.086  -0.147   2.791  0.00  0.00     0.001 A 
ATOM      7  C7  DEN d   1      -2.112   0.742   2.979  0.00  0.00     0.017 A 
ATOM      8  C8  DEN d   1      -3.284   0.560   2.256  0.00  0.00    -0.094 A 
ATOM      9  C9  DEN d   1      -3.441  -0.528   1.415  0.00  0.00    -0.072 A 
ENDROOT
TORSDOF 0
ENDMDL
