MODEL 1
REMARK minimizedAffinity -1.25648534
REMARK minimizedRMSD -1
REMARK  0 active torsions:
REMARK  status: ('A' for Active; 'I' for Inactive)
ROOT
ATOM      1  C1  DEN d   1      -5.156  -0.371   2.000  0.00  0.00     0.130 A 
ATOM      2  C2  DEN d   1      -5.696   0.562   2.986  0.00  0.00    -0.031 A 
ATOM      3  C3  DEN d   1      -4.564   1.120   3.752  0.00  0.00     0.027 A 
ATOM      4  C4  DEN d   1      -2.042   0.639   3.506  0.00  0.00     0.027 A 
ATOM      5  C5  DEN d   1      -1.101  -0.091   2.814  0.00  0.00    -0.003 A 
ATOM      6  C6  DEN d   1      -1.445  -0.983   1.833  0.00  0.00     0.001 A 
ATOM      7  C7  DEN d   1      -2.761  -1.135   1.485  0.00  0.00     0.017 A 
ATOM      8  C8  DEN d   1      -3.717  -0.408   2.184  0.00  0.00    -0.094 A 
ATOM      9  C9  DEN d   1      -3.348   0.497   3.164  0.00  0.00    -0.072 A 
ENDROOT
TORSDOF 0
ENDMDL
