MODEL 1
REMARK minimizedAffinity 17.542305
REMARK minimizedRMSD -1
REMARK  0 active torsions:
REMARK  status: ('A' for Active; 'I' for Inactive)
ROOT
ATOM      1  C1  DEN d   1      -5.202   1.658   1.258  0.00  0.00     0.130 A 
ATOM      2  C2  DEN d   1      -5.754   0.711   0.293  0.00  0.00    -0.031 A 
ATOM      3  C3  DEN d   1      -4.960  -0.532   0.367  0.00  0.00     0.027 A 
ATOM      4  C4  DEN d   1      -2.943  -1.081   1.878  0.00  0.00     0.027 A 
ATOM      5  C5  DEN d   1      -2.103  -0.588   2.852  0.00  0.00    -0.003 A 
ATOM      6  C6  DEN d   1      -2.215   0.689   3.335  0.00  0.00     0.001 A 
ATOM      7  C7  DEN d   1      -3.218   1.502   2.877  0.00  0.00     0.017 A 
ATOM      8  C8  DEN d   1      -4.063   1.015   1.889  0.00  0.00    -0.094 A 
ATOM      9  C9  DEN d   1      -3.942  -0.283   1.423  0.00  0.00    -0.072 A 
ENDROOT
TORSDOF 0
ENDMDL
