MODEL 1
REMARK minimizedAffinity 14.4392757
REMARK minimizedRMSD -1
REMARK  0 active torsions:
REMARK  status: ('A' for Active; 'I' for Inactive)
ROOT
ATOM      1  C1  DEN d   1      -2.578  -0.250   1.928  0.00  0.00     0.130 A 
ATOM      2  C2  DEN d   1      -1.628  -0.159   3.033  0.00  0.00    -0.031 A 
ATOM      3  C3  DEN d   1      -2.286   0.561   4.142  0.00  0.00     0.027 A 
ATOM      4  C4  DEN d   1      -4.672   1.535   4.256  0.00  0.00     0.027 A 
ATOM      5  C5  DEN d   1      -5.846   1.714   3.557  0.00  0.00    -0.003 A 
ATOM      6  C6  DEN d   1      -6.000   1.285   2.266  0.00  0.00     0.001 A 
ATOM      7  C7  DEN d   1      -4.978   0.614   1.647  0.00  0.00     0.017 A 
ATOM      8  C8  DEN d   1      -3.789   0.436   2.342  0.00  0.00    -0.094 A 
ATOM      9  C9  DEN d   1      -3.657   0.867   3.651  0.00  0.00    -0.072 A 
ENDROOT
TORSDOF 0
ENDMDL
