MODEL 1
REMARK minimizedAffinity 12.2600536
REMARK minimizedRMSD -1
REMARK  0 active torsions:
REMARK  status: ('A' for Active; 'I' for Inactive)
ROOT
ATOM      1  C1  DEN d   1      -0.125  -1.830   2.416  0.00  0.00     0.130 A 
ATOM      2  C2  DEN d   1      -0.488  -2.973   1.583  0.00  0.00    -0.031 A 
ATOM      3  C3  DEN d   1      -1.952  -2.947   1.385  0.00  0.00     0.027 A 
ATOM      4  C4  DEN d   1      -3.680  -1.255   2.279  0.00  0.00     0.027 A 
ATOM      5  C5  DEN d   1      -3.849  -0.120   3.041  0.00  0.00    -0.003 A 
ATOM      6  C6  DEN d   1      -2.803   0.500   3.671  0.00  0.00     0.001 A 
ATOM      7  C7  DEN d   1      -1.532   0.014   3.513  0.00  0.00     0.017 A 
ATOM      8  C8  DEN d   1      -1.354  -1.134   2.752  0.00  0.00    -0.094 A 
ATOM      9  C9  DEN d   1      -2.423  -1.739   2.114  0.00  0.00    -0.072 A 
ENDROOT
TORSDOF 0
ENDMDL
