MODEL 1
REMARK minimizedAffinity 8.80652523
REMARK minimizedRMSD -1
REMARK  0 active torsions:
REMARK  status: ('A' for Active; 'I' for Inactive)
ROOT
ATOM      1  C1  DEN d   1       3.219   2.002  -0.788  0.00  0.00     0.130 A 
ATOM      2  C2  DEN d   1       2.562   1.193   0.235  0.00  0.00    -0.031 A 
ATOM      3  C3  DEN d   1       3.171   1.524   1.539  0.00  0.00     0.027 A 
ATOM      4  C4  DEN d   1       5.054   3.205   2.071  0.00  0.00     0.027 A 
ATOM      5  C5  DEN d   1       5.931   4.117   1.527  0.00  0.00    -0.003 A 
ATOM      6  C6  DEN d   1       5.988   4.361   0.180  0.00  0.00     0.001 A 
ATOM      7  C7  DEN d   1       5.122   3.718  -0.664  0.00  0.00     0.017 A 
ATOM      8  C8  DEN d   1       4.240   2.791  -0.124  0.00  0.00    -0.094 A 
ATOM      9  C9  DEN d   1       4.189   2.568   1.241  0.00  0.00    -0.072 A 
ENDROOT
TORSDOF 0
ENDMDL
