MODEL 1
REMARK minimizedAffinity 4.01246691
REMARK minimizedRMSD -1
REMARK  0 active torsions:
REMARK  status: ('A' for Active; 'I' for Inactive)
ROOT
ATOM      1  C1  DEN d   1      -2.942  -0.678   1.534  0.00  0.00     0.130 A 
ATOM      2  C2  DEN d   1      -3.297   0.617   2.108  0.00  0.00    -0.031 A 
ATOM      3  C3  DEN d   1      -2.294   0.950   3.139  0.00  0.00     0.027 A 
ATOM      4  C4  DEN d   1      -0.234  -0.405   3.896  0.00  0.00     0.027 A 
ATOM      5  C5  DEN d   1       0.473  -1.572   3.708  0.00  0.00    -0.003 A 
ATOM      6  C6  DEN d   1       0.075  -2.530   2.814  0.00  0.00     0.001 A 
ATOM      7  C7  DEN d   1      -1.035  -2.318   2.041  0.00  0.00     0.017 A 
ATOM      8  C8  DEN d   1      -1.757  -1.147   2.230  0.00  0.00    -0.094 A 
ATOM      9  C9  DEN d   1      -1.332  -0.185   3.130  0.00  0.00    -0.072 A 
ENDROOT
TORSDOF 0
ENDMDL
