MODEL 1
REMARK minimizedAffinity 12.6894779
REMARK minimizedRMSD -1
REMARK  3 active torsions:
REMARK  status: ('A' for Active; 'I' for Inactive)
REMARK    1  A    between atoms: C3'_2  and  C2'_3 
REMARK    2  A    between atoms: C2'_3  and  C1'_4 
REMARK    3  A    between atoms: C1'_4  and  C1_5 
ROOT
ATOM      1  C1  N4B d   1      -1.925   0.677   1.782  0.00  0.00    -0.075 A 
ATOM      2  C2  N4B d   1      -2.548   1.940   1.888  0.00  0.00     0.002 A 
ATOM      3  C3  N4B d   1      -1.802   3.048   2.206  0.00  0.00     0.002 A 
ATOM      4  C4  N4B d   1      -0.442   2.916   2.440  0.00  0.00    -0.004 A 
ATOM      5  C5  N4B d   1       0.157   1.697   2.311  0.00  0.00     0.002 A 
ATOM      6  C6  N4B d   1      -0.580   0.575   1.988  0.00  0.00     0.002 A 
ENDROOT
BRANCH   1   7
ATOM      7  C1' N4B d   1      -2.713  -0.578   1.521  0.00  0.00     0.057 C 
BRANCH   7   8
ATOM      8  C2' N4B d   1      -3.750  -0.301   0.437  0.00  0.00     0.009 C 
BRANCH   8   9
ATOM      9  C3' N4B d   1      -4.526  -1.551   0.060  0.00  0.00     0.004 C 
ATOM     10  C4' N4B d   1      -5.854  -1.641   0.750  0.00  0.00     0.003 C 
ENDBRANCH   8   9
ENDBRANCH   7   8
ENDBRANCH   1   7
TORSDOF 3
ENDMDL
