MODEL 1
REMARK minimizedAffinity 12.3030443
REMARK minimizedRMSD -1
REMARK  3 active torsions:
REMARK  status: ('A' for Active; 'I' for Inactive)
REMARK    1  A    between atoms: C3'_2  and  C2'_3 
REMARK    2  A    between atoms: C2'_3  and  C1'_4 
REMARK    3  A    between atoms: C1'_4  and  C1_5 
ROOT
ATOM      1  C1  N4B d   1      -4.984  -3.287  -0.017  0.00  0.00    -0.075 A 
ATOM      2  C2  N4B d   1      -5.818  -4.011   0.862  0.00  0.00     0.002 A 
ATOM      3  C3  N4B d   1      -6.000  -5.360   0.681  0.00  0.00     0.002 A 
ATOM      4  C4  N4B d   1      -5.377  -6.000  -0.380  0.00  0.00    -0.004 A 
ATOM      5  C5  N4B d   1      -4.552  -5.298  -1.210  0.00  0.00     0.002 A 
ATOM      6  C6  N4B d   1      -4.357  -3.942  -1.037  0.00  0.00     0.002 A 
ENDROOT
BRANCH   1   7
ATOM      7  C1' N4B d   1      -4.822  -1.795   0.090  0.00  0.00     0.057 C 
BRANCH   7   8
ATOM      8  C2' N4B d   1      -3.601  -1.484   0.951  0.00  0.00     0.009 C 
BRANCH   8   9
ATOM      9  C3' N4B d   1      -2.974  -0.150   0.587  0.00  0.00     0.004 C 
ATOM     10  C4' N4B d   1      -1.823   0.213   1.477  0.00  0.00     0.003 C 
ENDBRANCH   8   9
ENDBRANCH   7   8
ENDBRANCH   1   7
TORSDOF 3
ENDMDL
