MODEL 1
REMARK minimizedAffinity -4.1397543
REMARK minimizedRMSD -1
REMARK  3 active torsions:
REMARK  status: ('A' for Active; 'I' for Inactive)
REMARK    1  A    between atoms: C3'_2  and  C2'_3 
REMARK    2  A    between atoms: C2'_3  and  C1'_4 
REMARK    3  A    between atoms: C1'_4  and  C1_5 
ROOT
ATOM      1  C1  N4B d   1      -1.141  -1.464  -2.316  0.00  0.00    -0.075 A 
ATOM      2  C2  N4B d   1      -0.012  -1.734  -3.119  0.00  0.00     0.002 A 
ATOM      3  C3  N4B d   1       1.150  -1.026  -2.931  0.00  0.00     0.002 A 
ATOM      4  C4  N4B d   1       1.199  -0.034  -1.963  0.00  0.00    -0.004 A 
ATOM      5  C5  N4B d   1       0.112   0.203  -1.174  0.00  0.00     0.002 A 
ATOM      6  C6  N4B d   1      -1.061  -0.504  -1.349  0.00  0.00     0.002 A 
ENDROOT
BRANCH   1   7
ATOM      7  C1' N4B d   1      -2.459  -2.153  -2.541  0.00  0.00     0.057 C 
BRANCH   7   8
ATOM      8  C2' N4B d   1      -3.575  -1.112  -2.540  0.00  0.00     0.009 C 
BRANCH   8   9
ATOM      9  C3' N4B d   1      -4.413  -1.176  -3.805  0.00  0.00     0.004 C 
ATOM     10  C4' N4B d   1      -5.886  -1.198  -3.526  0.00  0.00     0.003 C 
ENDBRANCH   8   9
ENDBRANCH   7   8
ENDBRANCH   1   7
TORSDOF 3
ENDMDL
