MODEL 1
REMARK minimizedAffinity -3.69999433
REMARK minimizedRMSD -1
REMARK  3 active torsions:
REMARK  status: ('A' for Active; 'I' for Inactive)
REMARK    1  A    between atoms: C3'_2  and  C2'_3 
REMARK    2  A    between atoms: C2'_3  and  C1'_4 
REMARK    3  A    between atoms: C1'_4  and  C1_5 
ROOT
ATOM      1  C1  N4B d   1      -0.546  -0.759  -0.609  0.00  0.00    -0.075 A 
ATOM      2  C2  N4B d   1       0.566   0.101  -0.469  0.00  0.00     0.002 A 
ATOM      3  C3  N4B d   1       0.949   0.530   0.778  0.00  0.00     0.002 A 
ATOM      4  C4  N4B d   1       0.228   0.129   1.893  0.00  0.00    -0.004 A 
ATOM      5  C5  N4B d   1      -0.829  -0.721   1.751  0.00  0.00     0.002 A 
ATOM      6  C6  N4B d   1      -1.223  -1.164   0.505  0.00  0.00     0.002 A 
ENDROOT
BRANCH   1   7
ATOM      7  C1' N4B d   1      -1.055  -1.185  -1.959  0.00  0.00     0.057 C 
BRANCH   7   8
ATOM      8  C2' N4B d   1      -0.178  -2.315  -2.491  0.00  0.00     0.009 C 
BRANCH   8   9
ATOM      9  C3' N4B d   1       0.733  -1.846  -3.612  0.00  0.00     0.004 C 
ATOM     10  C4' N4B d   1       2.042  -2.578  -3.641  0.00  0.00     0.003 C 
ENDBRANCH   8   9
ENDBRANCH   7   8
ENDBRANCH   1   7
TORSDOF 3
ENDMDL
