MODEL 1
REMARK minimizedAffinity -4.45508099
REMARK minimizedRMSD -1
REMARK  3 active torsions:
REMARK  status: ('A' for Active; 'I' for Inactive)
REMARK    1  A    between atoms: C3'_2  and  C2'_3 
REMARK    2  A    between atoms: C2'_3  and  C1'_4 
REMARK    3  A    between atoms: C1'_4  and  C1_5 
ROOT
ATOM      1  C1  N4B d   1      -1.259   0.349   0.426  0.00  0.00    -0.075 A 
ATOM      2  C2  N4B d   1       0.070   0.708   0.115  0.00  0.00     0.002 A 
ATOM      3  C3  N4B d   1       0.995   0.854   1.119  0.00  0.00     0.002 A 
ATOM      4  C4  N4B d   1       0.611   0.666   2.438  0.00  0.00    -0.004 A 
ATOM      5  C5  N4B d   1      -0.669   0.294   2.729  0.00  0.00     0.002 A 
ATOM      6  C6  N4B d   1      -1.608   0.140   1.729  0.00  0.00     0.002 A 
ENDROOT
BRANCH   1   7
ATOM      7  C1' N4B d   1      -2.327   0.261  -0.630  0.00  0.00     0.057 C 
BRANCH   7   8
ATOM      8  C2' N4B d   1      -2.320  -1.141  -1.233  0.00  0.00     0.009 C 
BRANCH   8   9
ATOM      9  C3' N4B d   1      -2.971  -1.172  -2.605  0.00  0.00     0.004 C 
ATOM     10  C4' N4B d   1      -4.270  -0.425  -2.649  0.00  0.00     0.003 C 
ENDBRANCH   8   9
ENDBRANCH   7   8
ENDBRANCH   1   7
TORSDOF 3
ENDMDL
