MODEL 1
REMARK minimizedAffinity 7.77212048
REMARK minimizedRMSD -1
REMARK  1 active torsions:
REMARK  status: ('A' for Active; 'I' for Inactive)
REMARK    1  A    between atoms: C1_2  and  C2_3 
ROOT
ATOM      1  C2  UNL d   1       4.184   0.089   0.031  0.00  0.00    -0.081 A 
ATOM      2  C3  UNL d   1       3.217  -0.914   0.175  0.00  0.00     0.006 A 
ATOM      3  C4  UNL d   1       1.977  -0.799  -0.457  0.00  0.00     0.002 A 
ATOM      4  C5  UNL d   1       1.686   0.316  -1.251  0.00  0.00    -0.080 A 
ATOM      5  C6  UNL d   1       0.370   0.438  -1.960  0.00  0.00     0.076 C 
ATOM      6  C7  UNL d   1       2.645   1.326  -1.381  0.00  0.00     0.002 A 
ATOM      7  C8  UNL d   1       3.885   1.212  -0.749  0.00  0.00     0.006 A 
ENDROOT
BRANCH   1   8
ATOM      8  C1  UNL d   1       5.546  -0.063   0.659  0.00  0.00     0.054 C 
ATOM      9  C   UNL d   1       5.998  -1.517   0.654  0.00  0.00     0.018 C 
ENDBRANCH   1   8
TORSDOF 1
ENDMDL
