MODEL 1
REMARK minimizedAffinity 2.23810148
REMARK minimizedRMSD -1
REMARK  1 active torsions:
REMARK  status: ('A' for Active; 'I' for Inactive)
REMARK    1  A    between atoms: C1_2  and  C2_3 
ROOT
ATOM      1  C2  UNL d   1      -0.040  -1.509   1.576  0.00  0.00    -0.081 A 
ATOM      2  C3  UNL d   1      -1.231  -0.776   1.638  0.00  0.00     0.006 A 
ATOM      3  C4  UNL d   1      -1.661  -0.028   0.539  0.00  0.00     0.002 A 
ATOM      4  C5  UNL d   1      -0.911  -0.008  -0.642  0.00  0.00    -0.080 A 
ATOM      5  C6  UNL d   1      -1.376   0.766  -1.840  0.00  0.00     0.076 C 
ATOM      6  C7  UNL d   1       0.288  -0.727  -0.698  0.00  0.00     0.002 A 
ATOM      7  C8  UNL d   1       0.718  -1.474   0.401  0.00  0.00     0.006 A 
ENDROOT
BRANCH   1   8
ATOM      8  C1  UNL d   1       0.392  -2.368   2.737  0.00  0.00     0.054 C 
ATOM      9  C   UNL d   1       0.932  -3.709   2.262  0.00  0.00     0.018 C 
ENDBRANCH   1   8
TORSDOF 1
ENDMDL
