MODEL 1
REMARK minimizedAffinity 7.80970144
REMARK minimizedRMSD -1
REMARK  1 active torsions:
REMARK  status: ('A' for Active; 'I' for Inactive)
REMARK    1  A    between atoms: C1_2  and  C2_3 
ROOT
ATOM      1  C2  UNL d   1       0.801  -1.485   1.251  0.00  0.00    -0.081 A 
ATOM      2  C3  UNL d   1      -0.275  -0.750   1.766  0.00  0.00     0.006 A 
ATOM      3  C4  UNL d   1      -1.128  -1.314   2.716  0.00  0.00     0.002 A 
ATOM      4  C5  UNL d   1      -0.917  -2.619   3.174  0.00  0.00    -0.080 A 
ATOM      5  C6  UNL d   1      -1.807  -3.227   4.217  0.00  0.00     0.076 C 
ATOM      6  C7  UNL d   1       0.147  -3.360   2.648  0.00  0.00     0.002 A 
ATOM      7  C8  UNL d   1       1.001  -2.796   1.697  0.00  0.00     0.006 A 
ENDROOT
BRANCH   1   8
ATOM      8  C1  UNL d   1       1.761  -0.856   0.274  0.00  0.00     0.054 C 
ATOM      9  C   UNL d   1       1.022  -0.192  -0.878  0.00  0.00     0.018 C 
ENDBRANCH   1   8
TORSDOF 1
ENDMDL
