MODEL 1
REMARK minimizedAffinity 3.84736896
REMARK minimizedRMSD -1
REMARK  1 active torsions:
REMARK  status: ('A' for Active; 'I' for Inactive)
REMARK    1  A    between atoms: C1_2  and  C2_3 
ROOT
ATOM      1  C2  UNL d   1      -3.821   1.160  -3.815  0.00  0.00    -0.081 A 
ATOM      2  C3  UNL d   1      -3.149   0.297  -2.940  0.00  0.00     0.006 A 
ATOM      3  C4  UNL d   1      -3.689  -0.953  -2.626  0.00  0.00     0.002 A 
ATOM      4  C5  UNL d   1      -4.904  -1.362  -3.186  0.00  0.00    -0.080 A 
ATOM      5  C6  UNL d   1      -5.480  -2.713  -2.881  0.00  0.00     0.076 C 
ATOM      6  C7  UNL d   1      -5.583  -0.492  -4.046  0.00  0.00     0.002 A 
ATOM      7  C8  UNL d   1      -5.044   0.757  -4.360  0.00  0.00     0.006 A 
ENDROOT
BRANCH   1   8
ATOM      8  C1  UNL d   1      -3.209   2.482  -4.206  0.00  0.00     0.054 C 
ATOM      9  C   UNL d   1      -2.350   3.047  -3.085  0.00  0.00     0.018 C 
ENDBRANCH   1   8
TORSDOF 1
ENDMDL
