MODEL 1
REMARK minimizedAffinity 0.704300761
REMARK minimizedRMSD -1
REMARK  1 active torsions:
REMARK  status: ('A' for Active; 'I' for Inactive)
REMARK    1  A    between atoms: C1_2  and  C2_3 
ROOT
ATOM      1  C2  UNL d   1      -0.051  -1.266   1.679  0.00  0.00    -0.081 A 
ATOM      2  C3  UNL d   1       0.725  -2.415   1.486  0.00  0.00     0.006 A 
ATOM      3  C4  UNL d   1       0.458  -3.579   2.211  0.00  0.00     0.002 A 
ATOM      4  C5  UNL d   1      -0.593  -3.616   3.134  0.00  0.00    -0.080 A 
ATOM      5  C6  UNL d   1      -0.909  -4.868   3.896  0.00  0.00     0.076 C 
ATOM      6  C7  UNL d   1      -1.357  -2.462   3.338  0.00  0.00     0.002 A 
ATOM      7  C8  UNL d   1      -1.091  -1.298   2.615  0.00  0.00     0.006 A 
ENDROOT
BRANCH   1   8
ATOM      8  C1  UNL d   1       0.192  -0.029   0.852  0.00  0.00     0.054 C 
ATOM      9  C   UNL d   1      -0.994   0.922   0.917  0.00  0.00     0.018 C 
ENDBRANCH   1   8
TORSDOF 1
ENDMDL
