MODEL 1
REMARK minimizedAffinity 5.38821936
REMARK minimizedRMSD -1
REMARK  1 active torsions:
REMARK  status: ('A' for Active; 'I' for Inactive)
REMARK    1  A    between atoms: C1_2  and  C2_3 
ROOT
ATOM      1  C2  UNL d   1       0.582  -0.367  -0.307  0.00  0.00    -0.081 A 
ATOM      2  C3  UNL d   1       0.323  -0.491   1.063  0.00  0.00     0.006 A 
ATOM      3  C4  UNL d   1      -0.991  -0.538   1.535  0.00  0.00     0.002 A 
ATOM      4  C5  UNL d   1      -2.067  -0.469   0.644  0.00  0.00    -0.080 A 
ATOM      5  C6  UNL d   1      -3.483  -0.548   1.135  0.00  0.00     0.076 C 
ATOM      6  C7  UNL d   1      -1.809  -0.327  -0.723  0.00  0.00     0.002 A 
ATOM      7  C8  UNL d   1      -0.496  -0.280  -1.195  0.00  0.00     0.006 A 
ENDROOT
BRANCH   1   8
ATOM      8  C1  UNL d   1       1.997  -0.381  -0.825  0.00  0.00     0.054 C 
ATOM      9  C   UNL d   1       2.887   0.565  -0.030  0.00  0.00     0.018 C 
ENDBRANCH   1   8
TORSDOF 1
ENDMDL
