MODEL 1
REMARK minimizedAffinity -0.721768618
REMARK minimizedRMSD -1
REMARK  1 active torsions:
REMARK  status: ('A' for Active; 'I' for Inactive)
REMARK    1  A    between atoms: C1_2  and  C2_3 
ROOT
ATOM      1  C2  UNL d   1       1.480  -2.609   1.557  0.00  0.00    -0.081 A 
ATOM      2  C3  UNL d   1       1.134  -1.866   0.421  0.00  0.00     0.006 A 
ATOM      3  C4  UNL d   1       0.112  -0.916   0.480  0.00  0.00     0.002 A 
ATOM      4  C5  UNL d   1      -0.576  -0.687   1.676  0.00  0.00    -0.080 A 
ATOM      5  C6  UNL d   1      -1.655   0.351   1.761  0.00  0.00     0.076 C 
ATOM      6  C7  UNL d   1      -0.242  -1.441   2.807  0.00  0.00     0.002 A 
ATOM      7  C8  UNL d   1       0.779  -2.391   2.748  0.00  0.00     0.006 A 
ENDROOT
BRANCH   1   8
ATOM      8  C1  UNL d   1       2.625  -3.588   1.514  0.00  0.00     0.054 C 
ATOM      9  C   UNL d   1       2.136  -4.998   1.215  0.00  0.00     0.018 C 
ENDBRANCH   1   8
TORSDOF 1
ENDMDL
