MODEL 1
REMARK minimizedAffinity -2.31018972
REMARK minimizedRMSD -1
REMARK  1 active torsions:
REMARK  status: ('A' for Active; 'I' for Inactive)
REMARK    1  A    between atoms: C1_2  and  C2_3 
ROOT
ATOM      1  C2  UNL d   1       0.978  -1.538   1.047  0.00  0.00    -0.081 A 
ATOM      2  C3  UNL d   1       1.262  -2.779   1.630  0.00  0.00     0.006 A 
ATOM      3  C4  UNL d   1       0.427  -3.305   2.619  0.00  0.00     0.002 A 
ATOM      4  C5  UNL d   1      -0.709  -2.603   3.035  0.00  0.00    -0.080 A 
ATOM      5  C6  UNL d   1      -1.631  -3.170   4.074  0.00  0.00     0.076 C 
ATOM      6  C7  UNL d   1      -0.984  -1.355   2.465  0.00  0.00     0.002 A 
ATOM      7  C8  UNL d   1      -0.149  -0.829   1.476  0.00  0.00     0.006 A 
ENDROOT
BRANCH   1   8
ATOM      8  C1  UNL d   1       1.840  -0.999  -0.066  0.00  0.00     0.054 C 
ATOM      9  C   UNL d   1       0.994  -0.428  -1.195  0.00  0.00     0.018 C 
ENDBRANCH   1   8
TORSDOF 1
ENDMDL
