MODEL 1
REMARK minimizedAffinity -4.6784215
REMARK minimizedRMSD -1
REMARK  0 active torsions:
REMARK  status: ('A' for Active; 'I' for Inactive)
ROOT
ATOM      1  C1  BNZ d   1       1.303   1.700   0.293  0.00  0.00     0.000 A 
ATOM      2  C2  BNZ d   1       2.590   1.350   0.601  0.00  0.00     0.000 A 
ATOM      3  C3  BNZ d   1       2.965   0.037   0.653  0.00  0.00     0.000 A 
ATOM      4  C4  BNZ d   1       2.044  -0.925   0.435  0.00  0.00     0.000 A 
ATOM      5  C5  BNZ d   1       0.740  -0.588   0.132  0.00  0.00     0.000 A 
ATOM      6  C6  BNZ d   1       0.375   0.736   0.043  0.00  0.00     0.000 A 
ENDROOT
TORSDOF 0
ENDMDL
