MODEL 1
REMARK minimizedAffinity -1.43768108
REMARK minimizedRMSD -1
REMARK  0 active torsions:
REMARK  status: ('A' for Active; 'I' for Inactive)
ROOT
ATOM      1  C1  BNZ d   1      -2.679   0.955  -2.758  0.00  0.00     0.000 A 
ATOM      2  C2  BNZ d   1      -2.294   1.283  -1.486  0.00  0.00     0.000 A 
ATOM      3  C3  BNZ d   1      -1.630   0.382  -0.701  0.00  0.00     0.000 A 
ATOM      4  C4  BNZ d   1      -1.387  -0.857  -1.174  0.00  0.00     0.000 A 
ATOM      5  C5  BNZ d   1      -1.778  -1.206  -2.452  0.00  0.00     0.000 A 
ATOM      6  C6  BNZ d   1      -2.412  -0.284  -3.253  0.00  0.00     0.000 A 
ENDROOT
TORSDOF 0
ENDMDL
