MODEL 1
REMARK minimizedAffinity -4.34284067
REMARK minimizedRMSD -1
REMARK  0 active torsions:
REMARK  status: ('A' for Active; 'I' for Inactive)
ROOT
ATOM      1  C1  BNZ d   1       1.041   1.018  -0.012  0.00  0.00     0.000 A 
ATOM      2  C2  BNZ d   1       2.144   0.244   0.233  0.00  0.00     0.000 A 
ATOM      3  C3  BNZ d   1       2.029  -1.109   0.392  0.00  0.00     0.000 A 
ATOM      4  C4  BNZ d   1       0.808  -1.680   0.348  0.00  0.00     0.000 A 
ATOM      5  C5  BNZ d   1      -0.315  -0.912   0.112  0.00  0.00     0.000 A 
ATOM      6  C6  BNZ d   1      -0.191   0.444  -0.088  0.00  0.00     0.000 A 
ENDROOT
TORSDOF 0
ENDMDL
