MODEL 1
REMARK minimizedAffinity -5.08476734
REMARK minimizedRMSD -1
REMARK  0 active torsions:
REMARK  status: ('A' for Active; 'I' for Inactive)
ROOT
ATOM      1  C1  BNZ d   1       1.866   1.684   1.024  0.00  0.00     0.000 A 
ATOM      2  C2  BNZ d   1       2.374   0.413   1.093  0.00  0.00     0.000 A 
ATOM      3  C3  BNZ d   1       1.731  -0.631   0.490  0.00  0.00     0.000 A 
ATOM      4  C4  BNZ d   1       0.562  -0.412  -0.147  0.00  0.00     0.000 A 
ATOM      5  C5  BNZ d   1       0.033   0.861  -0.218  0.00  0.00     0.000 A 
ATOM      6  C6  BNZ d   1       0.703   1.917   0.357  0.00  0.00     0.000 A 
ENDROOT
TORSDOF 0
ENDMDL
