MODEL 1
REMARK minimizedAffinity 1.35431767
REMARK minimizedRMSD -1
REMARK  0 active torsions:
REMARK  status: ('A' for Active; 'I' for Inactive)
ROOT
ATOM      1  C1  BNZ d   1       1.875  -0.164   1.079  0.00  0.00     0.000 A 
ATOM      2  C2  BNZ d   1       1.911   1.180   0.819  0.00  0.00     0.000 A 
ATOM      3  C3  BNZ d   1       2.912   1.719   0.060  0.00  0.00     0.000 A 
ATOM      4  C4  BNZ d   1       3.896   0.922  -0.404  0.00  0.00     0.000 A 
ATOM      5  C5  BNZ d   1       3.878  -0.434  -0.142  0.00  0.00     0.000 A 
ATOM      6  C6  BNZ d   1       2.848  -0.980   0.589  0.00  0.00     0.000 A 
ENDROOT
TORSDOF 0
ENDMDL
