MODEL 1
REMARK minimizedAffinity -4.40760612
REMARK minimizedRMSD -1
REMARK  0 active torsions:
REMARK  status: ('A' for Active; 'I' for Inactive)
ROOT
ATOM      1  C1  BNZ d   1       1.207  -1.333   0.940  0.00  0.00     0.000 A 
ATOM      2  C2  BNZ d   1       0.323  -0.685   0.119  0.00  0.00     0.000 A 
ATOM      3  C3  BNZ d   1       0.584   0.578  -0.333  0.00  0.00     0.000 A 
ATOM      4  C4  BNZ d   1       1.707   1.207   0.069  0.00  0.00     0.000 A 
ATOM      5  C5  BNZ d   1       2.604   0.571   0.904  0.00  0.00     0.000 A 
ATOM      6  C6  BNZ d   1       2.356  -0.715   1.326  0.00  0.00     0.000 A 
ENDROOT
TORSDOF 0
ENDMDL
