MODEL 1
REMARK minimizedAffinity -2.6389513
REMARK minimizedRMSD -1
REMARK  0 active torsions:
REMARK  status: ('A' for Active; 'I' for Inactive)
ROOT
ATOM      1  C1  BNZ d   1       1.882  -0.818   0.366  0.00  0.00     0.000 A 
ATOM      2  C2  BNZ d   1       0.711  -0.542  -0.289  0.00  0.00     0.000 A 
ATOM      3  C3  BNZ d   1       0.084   0.662  -0.124  0.00  0.00     0.000 A 
ATOM      4  C4  BNZ d   1       0.607   1.571   0.724  0.00  0.00     0.000 A 
ATOM      5  C5  BNZ d   1       1.782   1.304   1.398  0.00  0.00     0.000 A 
ATOM      6  C6  BNZ d   1       2.430   0.106   1.200  0.00  0.00     0.000 A 
ENDROOT
TORSDOF 0
ENDMDL
