MODEL 1
REMARK minimizedAffinity -4.07308245
REMARK minimizedRMSD -1
REMARK  0 active torsions:
REMARK  status: ('A' for Active; 'I' for Inactive)
ROOT
ATOM      1  C1  BNZ d   1       2.073  -1.238   1.425  0.00  0.00     0.000 A 
ATOM      2  C2  BNZ d   1       0.964  -1.052   0.644  0.00  0.00     0.000 A 
ATOM      3  C3  BNZ d   1       0.851   0.048  -0.161  0.00  0.00     0.000 A 
ATOM      4  C4  BNZ d   1       1.828   0.977  -0.154  0.00  0.00     0.000 A 
ATOM      5  C5  BNZ d   1       2.948   0.808   0.635  0.00  0.00     0.000 A 
ATOM      6  C6  BNZ d   1       3.076  -0.319   1.415  0.00  0.00     0.000 A 
ENDROOT
TORSDOF 0
ENDMDL
