MODEL 1
REMARK minimizedAffinity 8.02835941
REMARK minimizedRMSD -1
REMARK  2 active torsions:
REMARK  status: ('A' for Active; 'I' for Inactive)
REMARK    1  A    between atoms: C1_2  and  C2_3 
REMARK    2  A    between atoms: C2_3  and  C3_4 
ROOT
ATOM      1  C3  UNL d   1       1.339  -1.776   0.690  0.00  0.00    -0.075 A 
ATOM      2  C4  UNL d   1       2.641  -1.256   0.636  0.00  0.00     0.002 A 
ATOM      3  C5  UNL d   1       3.078  -0.557  -0.489  0.00  0.00     0.002 A 
ATOM      4  C6  UNL d   1       2.226  -0.378  -1.577  0.00  0.00    -0.004 A 
ATOM      5  C7  UNL d   1       0.937  -0.905  -1.541  0.00  0.00     0.002 A 
ATOM      6  C8  UNL d   1       0.495  -1.601  -0.415  0.00  0.00     0.002 A 
ENDROOT
BRANCH   1   7
ATOM      7  C2  UNL d   1       0.850  -2.508   1.917  0.00  0.00     0.056 C 
BRANCH   7   8
ATOM      8  C1  UNL d   1      -0.609  -2.210   2.280  0.00  0.00     0.007 C 
ATOM      9  C   UNL d   1      -0.771  -0.966   3.143  0.00  0.00     0.009 C 
ENDBRANCH   7   8
ENDBRANCH   1   7
TORSDOF 2
ENDMDL
