MODEL 1
REMARK minimizedAffinity 9.13111782
REMARK minimizedRMSD -1
REMARK  2 active torsions:
REMARK  status: ('A' for Active; 'I' for Inactive)
REMARK    1  A    between atoms: C1_2  and  C2_3 
REMARK    2  A    between atoms: C2_3  and  C3_4 
ROOT
ATOM      1  C3  UNL d   1      -3.827   2.451  -3.684  0.00  0.00    -0.075 A 
ATOM      2  C4  UNL d   1      -4.141   1.192  -4.217  0.00  0.00     0.002 A 
ATOM      3  C5  UNL d   1      -5.216   1.042  -5.093  0.00  0.00     0.002 A 
ATOM      4  C6  UNL d   1      -5.996   2.143  -5.439  0.00  0.00    -0.004 A 
ATOM      5  C7  UNL d   1      -5.704   3.395  -4.903  0.00  0.00     0.002 A 
ATOM      6  C8  UNL d   1      -4.626   3.549  -4.029  0.00  0.00     0.002 A 
ENDROOT
BRANCH   1   7
ATOM      7  C2  UNL d   1      -2.647   2.626  -2.759  0.00  0.00     0.056 C 
BRANCH   7   8
ATOM      8  C1  UNL d   1      -1.482   3.409  -3.374  0.00  0.00     0.007 C 
ATOM      9  C   UNL d   1      -0.151   2.675  -3.284  0.00  0.00     0.009 C 
ENDBRANCH   7   8
ENDBRANCH   1   7
TORSDOF 2
ENDMDL
