MODEL 1
REMARK minimizedAffinity 9.29645157
REMARK minimizedRMSD -1
REMARK  2 active torsions:
REMARK  status: ('A' for Active; 'I' for Inactive)
REMARK    1  A    between atoms: C1_2  and  C2_3 
REMARK    2  A    between atoms: C2_3  and  C3_4 
ROOT
ATOM      1  C3  UNL d   1      -3.395   0.815  -3.904  0.00  0.00    -0.075 A 
ATOM      2  C4  UNL d   1      -2.790  -0.365  -4.362  0.00  0.00     0.002 A 
ATOM      3  C5  UNL d   1      -3.359  -1.093  -5.407  0.00  0.00     0.002 A 
ATOM      4  C6  UNL d   1      -4.543  -0.658  -6.000  0.00  0.00    -0.004 A 
ATOM      5  C7  UNL d   1      -5.161   0.503  -5.542  0.00  0.00     0.002 A 
ATOM      6  C8  UNL d   1      -4.592   1.236  -4.499  0.00  0.00     0.002 A 
ENDROOT
BRANCH   1   7
ATOM      7  C2  UNL d   1      -2.769   1.623  -2.793  0.00  0.00     0.056 C 
BRANCH   7   8
ATOM      8  C1  UNL d   1      -2.596   3.109  -3.124  0.00  0.00     0.007 C 
ATOM      9  C   UNL d   1      -1.140   3.523  -3.288  0.00  0.00     0.009 C 
ENDBRANCH   7   8
ENDBRANCH   1   7
TORSDOF 2
ENDMDL
