MODEL 1
REMARK minimizedAffinity 3.24265361
REMARK minimizedRMSD -1
REMARK  2 active torsions:
REMARK  status: ('A' for Active; 'I' for Inactive)
REMARK    1  A    between atoms: C1_2  and  C2_3 
REMARK    2  A    between atoms: C2_3  and  C3_4 
ROOT
ATOM      1  C3  UNL d   1      -4.684   1.730  -4.604  0.00  0.00    -0.075 A 
ATOM      2  C4  UNL d   1      -5.645   2.648  -5.052  0.00  0.00     0.002 A 
ATOM      3  C5  UNL d   1      -5.592   3.982  -4.648  0.00  0.00     0.002 A 
ATOM      4  C6  UNL d   1      -4.586   4.413  -3.785  0.00  0.00    -0.004 A 
ATOM      5  C7  UNL d   1      -3.636   3.506  -3.321  0.00  0.00     0.002 A 
ATOM      6  C8  UNL d   1      -3.684   2.171  -3.727  0.00  0.00     0.002 A 
ENDROOT
BRANCH   1   7
ATOM      7  C2  UNL d   1      -4.718   0.291  -5.061  0.00  0.00     0.056 C 
BRANCH   7   8
ATOM      8  C1  UNL d   1      -5.305  -0.677  -4.029  0.00  0.00     0.007 C 
ATOM      9  C   UNL d   1      -4.243  -1.452  -3.261  0.00  0.00     0.009 C 
ENDBRANCH   7   8
ENDBRANCH   1   7
TORSDOF 2
ENDMDL
