MODEL 1
REMARK minimizedAffinity 9.2594986
REMARK minimizedRMSD -1
REMARK  2 active torsions:
REMARK  status: ('A' for Active; 'I' for Inactive)
REMARK    1  A    between atoms: C1_2  and  C2_3 
REMARK    2  A    between atoms: C2_3  and  C3_4 
ROOT
ATOM      1  C3  UNL d   1       3.530  -1.099   0.018  0.00  0.00    -0.075 A 
ATOM      2  C4  UNL d   1       4.687  -1.859  -0.210  0.00  0.00     0.002 A 
ATOM      3  C5  UNL d   1       5.912  -1.461   0.325  0.00  0.00     0.002 A 
ATOM      4  C6  UNL d   1       6.000  -0.296   1.084  0.00  0.00    -0.004 A 
ATOM      5  C7  UNL d   1       4.860   0.475   1.303  0.00  0.00     0.002 A 
ATOM      6  C8  UNL d   1       3.632   0.077   0.772  0.00  0.00     0.002 A 
ENDROOT
BRANCH   1   7
ATOM      7  C2  UNL d   1       2.195  -1.539  -0.534  0.00  0.00     0.056 C 
BRANCH   7   8
ATOM      8  C1  UNL d   1       2.097  -1.468  -2.061  0.00  0.00     0.007 C 
ATOM      9  C   UNL d   1       0.701  -1.119  -2.558  0.00  0.00     0.009 C 
ENDBRANCH   7   8
ENDBRANCH   1   7
TORSDOF 2
ENDMDL
