MODEL 1
REMARK minimizedAffinity 0.459076285
REMARK minimizedRMSD -1
REMARK  2 active torsions:
REMARK  status: ('A' for Active; 'I' for Inactive)
REMARK    1  A    between atoms: C1_2  and  C2_3 
REMARK    2  A    between atoms: C2_3  and  C3_4 
ROOT
ATOM      1  C3  UNL d   1       2.182   0.372  -1.389  0.00  0.00    -0.075 A 
ATOM      2  C4  UNL d   1       2.453   1.588  -0.743  0.00  0.00     0.002 A 
ATOM      3  C5  UNL d   1       2.215   2.801  -1.389  0.00  0.00     0.002 A 
ATOM      4  C6  UNL d   1       1.715   2.816  -2.689  0.00  0.00    -0.004 A 
ATOM      5  C7  UNL d   1       1.458   1.615  -3.346  0.00  0.00     0.002 A 
ATOM      6  C8  UNL d   1       1.690   0.399  -2.701  0.00  0.00     0.002 A 
ENDROOT
BRANCH   1   7
ATOM      7  C2  UNL d   1       2.409  -0.944  -0.685  0.00  0.00     0.056 C 
BRANCH   7   8
ATOM      8  C1  UNL d   1       1.164  -1.501   0.012  0.00  0.00     0.007 C 
ATOM      9  C   UNL d   1       1.229  -1.398   1.530  0.00  0.00     0.009 C 
ENDBRANCH   7   8
ENDBRANCH   1   7
TORSDOF 2
ENDMDL
