MODEL 1
REMARK minimizedAffinity 1.74091351
REMARK minimizedRMSD -1
REMARK  2 active torsions:
REMARK  status: ('A' for Active; 'I' for Inactive)
REMARK    1  A    between atoms: C1_2  and  C2_3 
REMARK    2  A    between atoms: C2_3  and  C3_4 
ROOT
ATOM      1  C3  UNL d   1       1.765  -1.505  -0.392  0.00  0.00    -0.075 A 
ATOM      2  C4  UNL d   1       1.090  -1.032  -1.527  0.00  0.00     0.002 A 
ATOM      3  C5  UNL d   1       1.790  -0.746  -2.699  0.00  0.00     0.002 A 
ATOM      4  C6  UNL d   1       3.172  -0.918  -2.749  0.00  0.00    -0.004 A 
ATOM      5  C7  UNL d   1       3.855  -1.371  -1.622  0.00  0.00     0.002 A 
ATOM      6  C8  UNL d   1       3.156  -1.663  -0.449  0.00  0.00     0.002 A 
ENDROOT
BRANCH   1   7
ATOM      7  C2  UNL d   1       1.010  -1.845   0.871  0.00  0.00     0.056 C 
BRANCH   7   8
ATOM      8  C1  UNL d   1       1.513  -1.107   2.116  0.00  0.00     0.007 C 
ATOM      9  C   UNL d   1       0.392  -0.483   2.937  0.00  0.00     0.009 C 
ENDBRANCH   7   8
ENDBRANCH   1   7
TORSDOF 2
ENDMDL
