MODEL 1
REMARK minimizedAffinity -0.318872541
REMARK minimizedRMSD -1
REMARK  2 active torsions:
REMARK  status: ('A' for Active; 'I' for Inactive)
REMARK    1  A    between atoms: C1_2  and  C2_3 
REMARK    2  A    between atoms: C2_3  and  C3_4 
ROOT
ATOM      1  C3  UNL d   1       1.698  -0.402  -0.561  0.00  0.00    -0.075 A 
ATOM      2  C4  UNL d   1       0.845   0.309  -1.418  0.00  0.00     0.002 A 
ATOM      3  C5  UNL d   1       1.164   1.606  -1.819  0.00  0.00     0.002 A 
ATOM      4  C6  UNL d   1       2.332   2.213  -1.361  0.00  0.00    -0.004 A 
ATOM      5  C7  UNL d   1       3.178   1.522  -0.496  0.00  0.00     0.002 A 
ATOM      6  C8  UNL d   1       2.863   0.222  -0.097  0.00  0.00     0.002 A 
ENDROOT
BRANCH   1   7
ATOM      7  C2  UNL d   1       1.373  -1.818  -0.147  0.00  0.00     0.056 C 
BRANCH   7   8
ATOM      8  C1  UNL d   1       2.070  -2.266   1.142  0.00  0.00     0.007 C 
ATOM      9  C   UNL d   1       2.478  -3.733   1.124  0.00  0.00     0.009 C 
ENDBRANCH   7   8
ENDBRANCH   1   7
TORSDOF 2
ENDMDL
