MODEL 1
REMARK minimizedAffinity 1.92700601
REMARK minimizedRMSD -1
REMARK  2 active torsions:
REMARK  status: ('A' for Active; 'I' for Inactive)
REMARK    1  A    between atoms: C1_2  and  C2_3 
REMARK    2  A    between atoms: C2_3  and  C3_4 
ROOT
ATOM      1  C3  UNL d   1       1.339   2.283  -2.260  0.00  0.00    -0.075 A 
ATOM      2  C4  UNL d   1       0.500   3.314  -2.707  0.00  0.00     0.002 A 
ATOM      3  C5  UNL d   1      -0.851   3.072  -2.954  0.00  0.00     0.002 A 
ATOM      4  C6  UNL d   1      -1.378   1.796  -2.769  0.00  0.00    -0.004 A 
ATOM      5  C7  UNL d   1      -0.551   0.759  -2.342  0.00  0.00     0.002 A 
ATOM      6  C8  UNL d   1       0.800   1.000  -2.089  0.00  0.00     0.002 A 
ENDROOT
BRANCH   1   7
ATOM      7  C2  UNL d   1       2.795   2.545  -1.962  0.00  0.00     0.056 C 
BRANCH   7   8
ATOM      8  C1  UNL d   1       3.262   2.003  -0.607  0.00  0.00     0.007 C 
ATOM      9  C   UNL d   1       2.514   2.610   0.572  0.00  0.00     0.009 C 
ENDBRANCH   7   8
ENDBRANCH   1   7
TORSDOF 2
ENDMDL
