MODEL 1
REMARK minimizedAffinity 12.5400486
REMARK minimizedRMSD -1
REMARK  2 active torsions:
REMARK  status: ('A' for Active; 'I' for Inactive)
REMARK    1  A    between atoms: C1_2  and  C2_3 
REMARK    2  A    between atoms: C2_3  and  C3_4 
ROOT
ATOM      1  C3  UNL d   1       1.834  -0.363  -0.704  0.00  0.00    -0.075 A 
ATOM      2  C4  UNL d   1       2.501   0.491   0.187  0.00  0.00     0.002 A 
ATOM      3  C5  UNL d   1       3.083   1.674  -0.268  0.00  0.00     0.002 A 
ATOM      4  C6  UNL d   1       3.015   2.014  -1.618  0.00  0.00    -0.004 A 
ATOM      5  C7  UNL d   1       2.370   1.165  -2.514  0.00  0.00     0.002 A 
ATOM      6  C8  UNL d   1       1.783  -0.018  -2.061  0.00  0.00     0.002 A 
ENDROOT
BRANCH   1   7
ATOM      7  C2  UNL d   1       1.177  -1.631  -0.213  0.00  0.00     0.056 C 
BRANCH   7   8
ATOM      8  C1  UNL d   1       1.352  -1.883   1.288  0.00  0.00     0.007 C 
ATOM      9  C   UNL d   1       0.059  -1.728   2.078  0.00  0.00     0.009 C 
ENDBRANCH   7   8
ENDBRANCH   1   7
TORSDOF 2
ENDMDL
