MODEL 1
REMARK minimizedAffinity -3.35538435
REMARK minimizedRMSD -1
REMARK  2 active torsions:
REMARK  status: ('A' for Active; 'I' for Inactive)
REMARK    1  A    between atoms: C1_2  and  C2_3 
REMARK    2  A    between atoms: C2_3  and  C3_4 
ROOT
ATOM      1  C3  UNL d   1       0.182   0.158   0.328  0.00  0.00    -0.075 A 
ATOM      2  C4  UNL d   1      -0.867   0.834  -0.311  0.00  0.00     0.002 A 
ATOM      3  C5  UNL d   1      -2.179   0.698   0.145  0.00  0.00     0.002 A 
ATOM      4  C6  UNL d   1      -2.459  -0.122   1.236  0.00  0.00    -0.004 A 
ATOM      5  C7  UNL d   1      -1.427  -0.811   1.868  0.00  0.00     0.002 A 
ATOM      6  C8  UNL d   1      -0.113  -0.674   1.416  0.00  0.00     0.002 A 
ENDROOT
BRANCH   1   7
ATOM      7  C2  UNL d   1       1.607   0.324  -0.142  0.00  0.00     0.056 C 
BRANCH   7   8
ATOM      8  C1  UNL d   1       2.047  -0.714  -1.180  0.00  0.00     0.007 C 
ATOM      9  C   UNL d   1       2.865  -0.117  -2.317  0.00  0.00     0.009 C 
ENDBRANCH   7   8
ENDBRANCH   1   7
TORSDOF 2
ENDMDL
