MODEL 1
REMARK minimizedAffinity -3.21948266
REMARK minimizedRMSD -1
REMARK  0 active torsions:
REMARK  status: ('A' for Active; 'I' for Inactive)
ROOT
ATOM      1  O1  BZF d   1      -0.068   2.283  -0.691  0.00  0.00    -0.204 OA
ATOM      2  C2  BZF d   1       1.144   2.582  -0.100  0.00  0.00     0.174 A 
ATOM      3  C3  BZF d   1       1.772   1.457   0.300  0.00  0.00    -0.012 A 
ATOM      4  C3A BZF d   1       0.940   0.383  -0.147  0.00  0.00    -0.107 A 
ATOM      5  C4  BZF d   1       1.037  -0.977  -0.064  0.00  0.00     0.055 A 
ATOM      6  C5  BZF d   1       0.018  -1.742  -0.537  0.00  0.00    -0.016 A 
ATOM      7  C6  BZF d   1      -1.112  -1.181  -1.094  0.00  0.00     0.022 A 
ATOM      8  C7  BZF d   1      -1.252   0.162  -1.203  0.00  0.00     0.029 A 
ATOM      9  C7A BZF d   1      -0.210   0.937  -0.756  0.00  0.00     0.058 A 
ENDROOT
TORSDOF 0
ENDMDL
