MODEL 1
REMARK minimizedAffinity -0.452508956
REMARK minimizedRMSD -1
REMARK  0 active torsions:
REMARK  status: ('A' for Active; 'I' for Inactive)
ROOT
ATOM      1  O1  BZF d   1      -1.143   0.243  -0.118  0.00  0.00    -0.204 OA
ATOM      2  C2  BZF d   1      -1.738  -0.963  -0.432  0.00  0.00     0.174 A 
ATOM      3  C3  BZF d   1      -0.811  -1.934  -0.566  0.00  0.00    -0.012 A 
ATOM      4  C3A BZF d   1       0.434  -1.314  -0.229  0.00  0.00    -0.107 A 
ATOM      5  C4  BZF d   1       1.720  -1.767  -0.160  0.00  0.00     0.055 A 
ATOM      6  C5  BZF d   1       2.715  -0.888   0.129  0.00  0.00    -0.016 A 
ATOM      7  C6  BZF d   1       2.461   0.450   0.348  0.00  0.00     0.022 A 
ATOM      8  C7  BZF d   1       1.201   0.946   0.295  0.00  0.00     0.029 A 
ATOM      9  C7A BZF d   1       0.189   0.054   0.036  0.00  0.00     0.058 A 
ENDROOT
TORSDOF 0
ENDMDL
