MODEL 1
REMARK minimizedAffinity -2.1512537
REMARK minimizedRMSD -1
REMARK  0 active torsions:
REMARK  status: ('A' for Active; 'I' for Inactive)
ROOT
ATOM      1  O1  BZF d   1       1.644   1.815  -0.003  0.00  0.00    -0.204 OA
ATOM      2  C2  BZF d   1       3.014   1.742  -0.167  0.00  0.00     0.174 A 
ATOM      3  C3  BZF d   1       3.410   0.461  -0.315  0.00  0.00    -0.012 A 
ATOM      4  C3A BZF d   1       2.203  -0.307  -0.332  0.00  0.00    -0.107 A 
ATOM      5  C4  BZF d   1       1.940  -1.640  -0.467  0.00  0.00     0.055 A 
ATOM      6  C5  BZF d   1       0.657  -2.074  -0.366  0.00  0.00    -0.016 A 
ATOM      7  C6  BZF d   1      -0.387  -1.205  -0.125  0.00  0.00     0.022 A 
ATOM      8  C7  BZF d   1      -0.176   0.127   0.011  0.00  0.00     0.029 A 
ATOM      9  C7A BZF d   1       1.116   0.573  -0.123  0.00  0.00     0.058 A 
ENDROOT
TORSDOF 0
ENDMDL
