MODEL 1
REMARK minimizedAffinity -5.13431454
REMARK minimizedRMSD -1
REMARK  0 active torsions:
REMARK  status: ('A' for Active; 'I' for Inactive)
ROOT
ATOM      1  O1  BZF d   1      -0.483   1.351  -0.235  0.00  0.00    -0.204 OA
ATOM      2  C2  BZF d   1      -1.334   0.275  -0.400  0.00  0.00     0.174 A 
ATOM      3  C3  BZF d   1      -0.639  -0.880  -0.456  0.00  0.00    -0.012 A 
ATOM      4  C3A BZF d   1       0.724  -0.511  -0.224  0.00  0.00    -0.107 A 
ATOM      5  C4  BZF d   1       1.888  -1.220  -0.144  0.00  0.00     0.055 A 
ATOM      6  C5  BZF d   1       3.059  -0.551   0.020  0.00  0.00    -0.016 A 
ATOM      7  C6  BZF d   1       3.104   0.825   0.101  0.00  0.00     0.022 A 
ATOM      8  C7  BZF d   1       1.975   1.572   0.032  0.00  0.00     0.029 A 
ATOM      9  C7A BZF d   1       0.786   0.897  -0.100  0.00  0.00     0.058 A 
ENDROOT
TORSDOF 0
ENDMDL
