MODEL 1
REMARK minimizedAffinity -0.451243281
REMARK minimizedRMSD -1
REMARK  0 active torsions:
REMARK  status: ('A' for Active; 'I' for Inactive)
ROOT
ATOM      1  O1  BZF d   1       0.242   1.335  -0.257  0.00  0.00    -0.204 OA
ATOM      2  C2  BZF d   1      -1.041   0.928  -0.569  0.00  0.00     0.174 A 
ATOM      3  C3  BZF d   1      -1.071  -0.392  -0.842  0.00  0.00    -0.012 A 
ATOM      4  C3A BZF d   1       0.260  -0.857  -0.601  0.00  0.00    -0.107 A 
ATOM      5  C4  BZF d   1       0.856  -2.083  -0.683  0.00  0.00     0.055 A 
ATOM      6  C5  BZF d   1       2.191  -2.186  -0.452  0.00  0.00    -0.016 A 
ATOM      7  C6  BZF d   1       2.961  -1.084  -0.142  0.00  0.00     0.022 A 
ATOM      8  C7  BZF d   1       2.414   0.152  -0.045  0.00  0.00     0.029 A 
ATOM      9  C7A BZF d   1       1.059   0.254  -0.246  0.00  0.00     0.058 A 
ENDROOT
TORSDOF 0
ENDMDL
