MODEL 1
REMARK minimizedAffinity 1.14031839
REMARK minimizedRMSD -1
REMARK  0 active torsions:
REMARK  status: ('A' for Active; 'I' for Inactive)
ROOT
ATOM      1  O1  BZF d   1      -0.437   1.219  -0.494  0.00  0.00    -0.204 OA
ATOM      2  C2  BZF d   1      -0.086  -0.113  -0.602  0.00  0.00     0.174 A 
ATOM      3  C3  BZF d   1      -0.962  -0.894   0.063  0.00  0.00    -0.012 A 
ATOM      4  C3A BZF d   1      -1.972  -0.001   0.544  0.00  0.00    -0.107 A 
ATOM      5  C4  BZF d   1      -3.119  -0.182   1.262  0.00  0.00     0.055 A 
ATOM      6  C5  BZF d   1      -3.845   0.906   1.631  0.00  0.00    -0.016 A 
ATOM      7  C6  BZF d   1      -3.451   2.187   1.303  0.00  0.00     0.022 A 
ATOM      8  C7  BZF d   1      -2.323   2.416   0.587  0.00  0.00     0.029 A 
ATOM      9  C7A BZF d   1      -1.605   1.316   0.185  0.00  0.00     0.058 A 
ENDROOT
TORSDOF 0
ENDMDL
