MODEL 1
REMARK minimizedAffinity -2.87556577
REMARK minimizedRMSD -1
REMARK  0 active torsions:
REMARK  status: ('A' for Active; 'I' for Inactive)
ROOT
ATOM      1  O1  BZF d   1       2.281   0.796  -0.509  0.00  0.00    -0.204 OA
ATOM      2  C2  BZF d   1       1.456   1.903  -0.515  0.00  0.00     0.174 A 
ATOM      3  C3  BZF d   1       0.172   1.542  -0.716  0.00  0.00    -0.012 A 
ATOM      4  C3A BZF d   1       0.185   0.112  -0.752  0.00  0.00    -0.107 A 
ATOM      5  C4  BZF d   1      -0.790  -0.832  -0.908  0.00  0.00     0.055 A 
ATOM      6  C5  BZF d   1      -0.436  -2.143  -0.970  0.00  0.00    -0.016 A 
ATOM      7  C6  BZF d   1       0.881  -2.544  -0.885  0.00  0.00     0.022 A 
ATOM      8  C7  BZF d   1       1.882  -1.645  -0.726  0.00  0.00     0.029 A 
ATOM      9  C7A BZF d   1       1.525  -0.322  -0.629  0.00  0.00     0.058 A 
ENDROOT
TORSDOF 0
ENDMDL
