MODEL 1
REMARK minimizedAffinity -4.01626205
REMARK minimizedRMSD -1
REMARK  0 active torsions:
REMARK  status: ('A' for Active; 'I' for Inactive)
ROOT
ATOM      1  O1  BZF d   1       0.540   1.411  -0.268  0.00  0.00    -0.204 OA
ATOM      2  C2  BZF d   1      -0.530   0.548  -0.412  0.00  0.00     0.174 A 
ATOM      3  C3  BZF d   1      -0.113  -0.734  -0.402  0.00  0.00    -0.012 A 
ATOM      4  C3A BZF d   1       1.293  -0.672  -0.150  0.00  0.00    -0.107 A 
ATOM      5  C4  BZF d   1       2.265  -1.621  -0.010  0.00  0.00     0.055 A 
ATOM      6  C5  BZF d   1       3.555  -1.226   0.158  0.00  0.00    -0.016 A 
ATOM      7  C6  BZF d   1       3.908   0.107   0.184  0.00  0.00     0.022 A 
ATOM      8  C7  BZF d   1       2.979   1.085   0.055  0.00  0.00     0.029 A 
ATOM      9  C7A BZF d   1       1.670   0.689  -0.081  0.00  0.00     0.058 A 
ENDROOT
TORSDOF 0
ENDMDL
