MODEL 1
REMARK minimizedAffinity -2.26541948
REMARK minimizedRMSD -1
REMARK  0 active torsions:
REMARK  status: ('A' for Active; 'I' for Inactive)
ROOT
ATOM      1  O1  BZF d   1       0.563   2.086  -0.115  0.00  0.00    -0.204 OA
ATOM      2  C2  BZF d   1      -0.788   2.157  -0.396  0.00  0.00     0.174 A 
ATOM      3  C3  BZF d   1      -1.280   0.936  -0.689  0.00  0.00    -0.012 A 
ATOM      4  C3A BZF d   1      -0.188   0.033  -0.495  0.00  0.00    -0.107 A 
ATOM      5  C4  BZF d   1      -0.057  -1.321  -0.613  0.00  0.00     0.055 A 
ATOM      6  C5  BZF d   1       1.165  -1.885  -0.424  0.00  0.00    -0.016 A 
ATOM      7  C6  BZF d   1       2.276  -1.126  -0.120  0.00  0.00     0.022 A 
ATOM      8  C7  BZF d   1       2.195   0.220   0.013  0.00  0.00     0.029 A 
ATOM      9  C7A BZF d   1       0.955   0.790  -0.146  0.00  0.00     0.058 A 
ENDROOT
TORSDOF 0
ENDMDL
