MODEL 1
REMARK minimizedAffinity 2.31082535
REMARK minimizedRMSD -1
REMARK  0 active torsions:
REMARK  status: ('A' for Active; 'I' for Inactive)
ROOT
ATOM      1  O1  BZF d   1      -0.383  -0.495   1.026  0.00  0.00    -0.204 OA
ATOM      2  C2  BZF d   1       0.117  -0.370  -0.256  0.00  0.00     0.174 A 
ATOM      3  C3  BZF d   1      -0.838   0.071  -1.100  0.00  0.00    -0.012 A 
ATOM      4  C3A BZF d   1      -1.982   0.320  -0.278  0.00  0.00    -0.107 A 
ATOM      5  C4  BZF d   1      -3.240   0.786  -0.535  0.00  0.00     0.055 A 
ATOM      6  C5  BZF d   1      -4.143   0.843   0.478  0.00  0.00    -0.016 A 
ATOM      7  C6  BZF d   1      -3.826   0.437   1.758  0.00  0.00     0.022 A 
ATOM      8  C7  BZF d   1      -2.590  -0.028   2.062  0.00  0.00     0.029 A 
ATOM      9  C7A BZF d   1      -1.664  -0.056   1.048  0.00  0.00     0.058 A 
ENDROOT
TORSDOF 0
ENDMDL
