MODEL 1
REMARK minimizedAffinity 4.3357048
REMARK minimizedRMSD -1
REMARK  0 active torsions:
REMARK  status: ('A' for Active; 'I' for Inactive)
ROOT
ATOM      1  C   UNL d   1      -1.156  -2.775  -0.380  0.00  0.00     0.077 C 
ATOM      2  C1  UNL d   1      -1.194  -1.687   0.652  0.00  0.00    -0.074 A 
ATOM      3  C2  UNL d   1      -0.332  -1.711   1.753  0.00  0.00    -0.005 A 
ATOM      4  C3  UNL d   1      -0.372  -0.688   2.701  0.00  0.00     0.006 A 
ATOM      5  C4  UNL d   1      -1.273   0.368   2.556  0.00  0.00    -0.005 A 
ATOM      6  C5  UNL d   1      -2.142   0.409   1.461  0.00  0.00    -0.074 A 
ATOM      7  C6  UNL d   1      -3.110   1.541   1.286  0.00  0.00     0.077 C 
ATOM      8  C7  UNL d   1      -2.091  -0.619   0.510  0.00  0.00    -0.001 A 
ENDROOT
TORSDOF 0
ENDMDL
