MODEL 1
REMARK minimizedAffinity 2.05541825
REMARK minimizedRMSD -1
REMARK  0 active torsions:
REMARK  status: ('A' for Active; 'I' for Inactive)
ROOT
ATOM      1  C   UNL d   1      -0.004  -3.296  -6.000  0.00  0.00     0.077 C 
ATOM      2  C1  UNL d   1      -0.151  -1.980  -5.294  0.00  0.00    -0.074 A 
ATOM      3  C2  UNL d   1      -0.088  -0.775  -6.000  0.00  0.00    -0.005 A 
ATOM      4  C3  UNL d   1      -0.236   0.440  -5.331  0.00  0.00     0.006 A 
ATOM      5  C4  UNL d   1      -0.448   0.462  -3.952  0.00  0.00    -0.005 A 
ATOM      6  C5  UNL d   1      -0.515  -0.734  -3.230  0.00  0.00    -0.074 A 
ATOM      7  C6  UNL d   1      -0.752  -0.729  -1.749  0.00  0.00     0.077 C 
ATOM      8  C7  UNL d   1      -0.372  -1.951  -3.910  0.00  0.00    -0.001 A 
ENDROOT
TORSDOF 0
ENDMDL
