MODEL 1
REMARK minimizedAffinity -3.19466352
REMARK minimizedRMSD -1
REMARK  0 active torsions:
REMARK  status: ('A' for Active; 'I' for Inactive)
ROOT
ATOM      1  C   UNL d   1      -1.191  -2.294  -6.000  0.00  0.00     0.077 C 
ATOM      2  C1  UNL d   1      -0.778  -0.915  -5.577  0.00  0.00    -0.074 A 
ATOM      3  C2  UNL d   1      -1.708  -0.019  -5.041  0.00  0.00    -0.005 A 
ATOM      4  C3  UNL d   1      -1.307   1.256  -4.643  0.00  0.00     0.006 A 
ATOM      5  C4  UNL d   1       0.026   1.648  -4.776  0.00  0.00    -0.005 A 
ATOM      6  C5  UNL d   1       0.970   0.765  -5.309  0.00  0.00    -0.074 A 
ATOM      7  C6  UNL d   1       2.408   1.166  -5.451  0.00  0.00     0.077 C 
ATOM      8  C7  UNL d   1       0.561  -0.518  -5.700  0.00  0.00    -0.001 A 
ENDROOT
TORSDOF 0
ENDMDL
