MODEL 1
REMARK minimizedAffinity -2.27011156
REMARK minimizedRMSD -1
REMARK  0 active torsions:
REMARK  status: ('A' for Active; 'I' for Inactive)
ROOT
ATOM      1  C   UNL d   1      -3.900   0.374  -5.250  0.00  0.00     0.077 C 
ATOM      2  C1  UNL d   1      -2.410   0.327  -5.413  0.00  0.00    -0.074 A 
ATOM      3  C2  UNL d   1      -1.701   1.447  -5.861  0.00  0.00    -0.005 A 
ATOM      4  C3  UNL d   1      -0.314   1.392  -5.999  0.00  0.00     0.006 A 
ATOM      5  C4  UNL d   1       0.377   0.219  -5.692  0.00  0.00    -0.005 A 
ATOM      6  C5  UNL d   1      -0.315  -0.910  -5.242  0.00  0.00    -0.074 A 
ATOM      7  C6  UNL d   1       0.413  -2.175  -4.897  0.00  0.00     0.077 C 
ATOM      8  C7  UNL d   1      -1.708  -0.845  -5.099  0.00  0.00    -0.001 A 
ENDROOT
TORSDOF 0
ENDMDL
