MODEL 1
REMARK minimizedAffinity 1.98465776
REMARK minimizedRMSD -1
REMARK  0 active torsions:
REMARK  status: ('A' for Active; 'I' for Inactive)
ROOT
ATOM      1  C   UNL d   1      -2.754   1.091   2.116  0.00  0.00     0.077 C 
ATOM      2  C1  UNL d   1      -1.746   0.116   2.648  0.00  0.00    -0.074 A 
ATOM      3  C2  UNL d   1      -0.378   0.402   2.605  0.00  0.00    -0.005 A 
ATOM      4  C3  UNL d   1       0.548  -0.510   3.112  0.00  0.00     0.006 A 
ATOM      5  C4  UNL d   1       0.115  -1.715   3.667  0.00  0.00    -0.005 A 
ATOM      6  C5  UNL d   1      -1.250  -2.018   3.720  0.00  0.00    -0.074 A 
ATOM      7  C6  UNL d   1      -1.733  -3.304   4.322  0.00  0.00     0.077 C 
ATOM      8  C7  UNL d   1      -2.174  -1.093   3.214  0.00  0.00    -0.001 A 
ENDROOT
TORSDOF 0
ENDMDL
