MODEL 1
REMARK minimizedAffinity -3.19168186
REMARK minimizedRMSD -1
REMARK  1 active torsions:
REMARK  status: ('A' for Active; 'I' for Inactive)
REMARK    1  A    between atoms: N_2  and  C1_3 
ROOT
ATOM      1  C1  UNL d   1       0.255  -0.147   0.415  0.00  0.00     0.143 A 
ATOM      2  C2  UNL d   1      -0.206  -0.816   1.553  0.00  0.00    -0.057 A 
ATOM      3  C3  UNL d   1      -1.112  -0.211   2.433  0.00  0.00     0.033 A 
ATOM      4  C4  UNL d   1      -1.551   1.089   2.204  0.00  0.00    -0.042 A 
ATOM      5  C5  UNL d   1      -1.086   1.782   1.092  0.00  0.00     0.033 A 
ATOM      6  C6  UNL d   1      -0.187   1.170   0.214  0.00  0.00    -0.057 A 
ENDROOT
BRANCH   1   7
ATOM      7  N   UNL d   1       1.232  -0.657  -0.445  0.00  0.00    -0.732 N 
ATOM      8  C   UNL d   1       1.004  -1.887  -1.171  0.00  0.00     0.284 C 
ATOM      9  H3  UNL d   1       1.686   0.071  -0.992  0.00  0.00     0.395 HD
ENDBRANCH   1   7
TORSDOF 1
ENDMDL
