MODEL 1
REMARK minimizedAffinity -4.25843334
REMARK minimizedRMSD -1
REMARK  1 active torsions:
REMARK  status: ('A' for Active; 'I' for Inactive)
REMARK    1  A    between atoms: N_2  and  C1_3 
ROOT
ATOM      1  C1  UNL d   1      -0.873   0.684   1.406  0.00  0.00     0.143 A 
ATOM      2  C2  UNL d   1      -0.135  -0.222   2.175  0.00  0.00    -0.057 A 
ATOM      3  C3  UNL d   1       1.032  -0.815   1.677  0.00  0.00     0.033 A 
ATOM      4  C4  UNL d   1       1.465  -0.534   0.386  0.00  0.00    -0.042 A 
ATOM      5  C5  UNL d   1       0.734   0.345  -0.405  0.00  0.00     0.033 A 
ATOM      6  C6  UNL d   1      -0.427   0.939   0.100  0.00  0.00    -0.057 A 
ENDROOT
BRANCH   1   7
ATOM      7  N   UNL d   1      -2.094   1.231   1.808  0.00  0.00    -0.732 N 
ATOM      8  C   UNL d   1      -3.180   1.383   0.864  0.00  0.00     0.284 C 
ATOM      9  H3  UNL d   1      -2.384   0.902   2.726  0.00  0.00     0.395 HD
ENDBRANCH   1   7
TORSDOF 1
ENDMDL
