MODEL 1
REMARK minimizedAffinity -2.19800901
REMARK minimizedRMSD -1
REMARK  1 active torsions:
REMARK  status: ('A' for Active; 'I' for Inactive)
REMARK    1  A    between atoms: N_2  and  C1_3 
ROOT
ATOM      1  C1  UNL d   1      -0.570   1.103   0.304  0.00  0.00     0.143 A 
ATOM      2  C2  UNL d   1       0.061   1.770  -0.751  0.00  0.00    -0.057 A 
ATOM      3  C3  UNL d   1       0.982   1.114  -1.577  0.00  0.00     0.033 A 
ATOM      4  C4  UNL d   1       1.310  -0.217  -1.343  0.00  0.00    -0.042 A 
ATOM      5  C5  UNL d   1       0.714  -0.893  -0.284  0.00  0.00     0.033 A 
ATOM      6  C6  UNL d   1      -0.210  -0.234   0.533  0.00  0.00    -0.057 A 
ENDROOT
BRANCH   1   7
ATOM      7  N   UNL d   1      -1.420   1.727   1.221  0.00  0.00    -0.732 N 
ATOM      8  C   UNL d   1      -0.950   2.073   2.545  0.00  0.00     0.284 C 
ATOM      9  H3  UNL d   1      -2.004   2.439   0.787  0.00  0.00     0.395 HD
ENDBRANCH   1   7
TORSDOF 1
ENDMDL
