MODEL 1
REMARK minimizedAffinity -4.62687302
REMARK minimizedRMSD -1
REMARK  1 active torsions:
REMARK  status: ('A' for Active; 'I' for Inactive)
REMARK    1  A    between atoms: N_2  and  C1_3 
ROOT
ATOM      1  C1  UNL d   1       0.568   0.314  -0.663  0.00  0.00     0.143 A 
ATOM      2  C2  UNL d   1       0.356   1.692  -0.780  0.00  0.00    -0.057 A 
ATOM      3  C3  UNL d   1      -0.883   2.264  -0.466  0.00  0.00     0.033 A 
ATOM      4  C4  UNL d   1      -1.943   1.462  -0.057  0.00  0.00    -0.042 A 
ATOM      5  C5  UNL d   1      -1.762   0.087   0.042  0.00  0.00     0.033 A 
ATOM      6  C6  UNL d   1      -0.521  -0.478  -0.266  0.00  0.00    -0.057 A 
ENDROOT
BRANCH   1   7
ATOM      7  N   UNL d   1       1.747  -0.327  -1.053  0.00  0.00    -0.732 N 
ATOM      8  C   UNL d   1       1.770  -1.757  -1.273  0.00  0.00     0.284 C 
ATOM      9  H3  UNL d   1       2.270   0.208  -1.743  0.00  0.00     0.395 HD
ENDBRANCH   1   7
TORSDOF 1
ENDMDL
