MODEL 1
REMARK minimizedAffinity -1.20006192
REMARK minimizedRMSD -1
REMARK  1 active torsions:
REMARK  status: ('A' for Active; 'I' for Inactive)
REMARK    1  A    between atoms: N_2  and  C1_3 
ROOT
ATOM      1  C1  UNL d   1      -0.695   1.606   0.505  0.00  0.00     0.143 A 
ATOM      2  C2  UNL d   1       0.066   2.270  -0.463  0.00  0.00    -0.057 A 
ATOM      3  C3  UNL d   1       0.908   1.566  -1.333  0.00  0.00     0.033 A 
ATOM      4  C4  UNL d   1       1.025   0.184  -1.230  0.00  0.00    -0.042 A 
ATOM      5  C5  UNL d   1       0.298  -0.494  -0.259  0.00  0.00     0.033 A 
ATOM      6  C6  UNL d   1      -0.546   0.214   0.603  0.00  0.00    -0.057 A 
ENDROOT
BRANCH   1   7
ATOM      7  N   UNL d   1      -1.474   2.258   1.464  0.00  0.00    -0.732 N 
ATOM      8  C   UNL d   1      -0.984   2.440   2.813  0.00  0.00     0.284 C 
ATOM      9  H3  UNL d   1      -1.958   3.069   1.084  0.00  0.00     0.395 HD
ENDBRANCH   1   7
TORSDOF 1
ENDMDL
