MODEL 1
REMARK minimizedAffinity -4.3704319
REMARK minimizedRMSD -1
REMARK  1 active torsions:
REMARK  status: ('A' for Active; 'I' for Inactive)
REMARK    1  A    between atoms: N_2  and  C1_3 
ROOT
ATOM      1  C1  UNL d   1      -0.227  -0.264   0.108  0.00  0.00     0.143 A 
ATOM      2  C2  UNL d   1      -1.449   0.335  -0.215  0.00  0.00    -0.057 A 
ATOM      3  C3  UNL d   1      -2.114   1.164   0.696  0.00  0.00     0.033 A 
ATOM      4  C4  UNL d   1      -1.582   1.385   1.962  0.00  0.00    -0.042 A 
ATOM      5  C5  UNL d   1      -0.381   0.780   2.314  0.00  0.00     0.033 A 
ATOM      6  C6  UNL d   1       0.282  -0.042   1.397  0.00  0.00    -0.057 A 
ENDROOT
BRANCH   1   7
ATOM      7  N   UNL d   1       0.434  -1.177  -0.717  0.00  0.00    -0.732 N 
ATOM      8  C   UNL d   1      -0.303  -2.205  -1.420  0.00  0.00     0.284 C 
ATOM      9  H3  UNL d   1       1.167  -0.739  -1.271  0.00  0.00     0.395 HD
ENDBRANCH   1   7
TORSDOF 1
ENDMDL
