MODEL 1
REMARK minimizedAffinity -1.2519927
REMARK minimizedRMSD -1
REMARK  1 active torsions:
REMARK  status: ('A' for Active; 'I' for Inactive)
REMARK    1  A    between atoms: N_2  and  C1_3 
ROOT
ATOM      1  C1  UNL d   1      -0.672   0.909   0.949  0.00  0.00     0.143 A 
ATOM      2  C2  UNL d   1      -0.228   1.716  -0.103  0.00  0.00    -0.057 A 
ATOM      3  C3  UNL d   1       0.539   1.188  -1.149  0.00  0.00     0.033 A 
ATOM      4  C4  UNL d   1       0.900  -0.155  -1.146  0.00  0.00    -0.042 A 
ATOM      5  C5  UNL d   1       0.491  -0.970  -0.096  0.00  0.00     0.033 A 
ATOM      6  C6  UNL d   1      -0.280  -0.439   0.942  0.00  0.00    -0.057 A 
ENDROOT
BRANCH   1   7
ATOM      7  N   UNL d   1      -1.354   1.395   2.068  0.00  0.00    -0.732 N 
ATOM      8  C   UNL d   1      -2.349   2.437   1.930  0.00  0.00     0.284 C 
ATOM      9  H3  UNL d   1      -1.614   0.655   2.716  0.00  0.00     0.395 HD
ENDBRANCH   1   7
TORSDOF 1
ENDMDL
