MODEL 1
REMARK minimizedAffinity -4.95349693
REMARK minimizedRMSD -1
REMARK  1 active torsions:
REMARK  status: ('A' for Active; 'I' for Inactive)
REMARK    1  A    between atoms: N_2  and  C1_3 
ROOT
ATOM      1  C1  UNL d   1      -0.030   0.239   0.140  0.00  0.00     0.143 A 
ATOM      2  C2  UNL d   1      -0.746   1.267  -0.482  0.00  0.00    -0.057 A 
ATOM      3  C3  UNL d   1      -1.602   2.101   0.247  0.00  0.00     0.033 A 
ATOM      4  C4  UNL d   1      -1.780   1.902   1.613  0.00  0.00    -0.042 A 
ATOM      5  C5  UNL d   1      -1.098   0.870   2.248  0.00  0.00     0.033 A 
ATOM      6  C6  UNL d   1      -0.239   0.045   1.515  0.00  0.00    -0.057 A 
ENDROOT
BRANCH   1   7
ATOM      7  N   UNL d   1       0.760  -0.685  -0.547  0.00  0.00    -0.732 N 
ATOM      8  C   UNL d   1       0.151  -1.758  -1.304  0.00  0.00     0.284 C 
ATOM      9  H3  UNL d   1       1.555  -0.249  -1.010  0.00  0.00     0.395 HD
ENDBRANCH   1   7
TORSDOF 1
ENDMDL
