MODEL 1
REMARK minimizedAffinity -4.19996881
REMARK minimizedRMSD -1
REMARK  1 active torsions:
REMARK  status: ('A' for Active; 'I' for Inactive)
REMARK    1  A    between atoms: N_2  and  C1_3 
ROOT
ATOM      1  C1  UNL d   1      -0.076   0.065   0.561  0.00  0.00     0.143 A 
ATOM      2  C2  UNL d   1      -0.473  -0.619   1.715  0.00  0.00    -0.057 A 
ATOM      3  C3  UNL d   1      -1.345  -0.034   2.641  0.00  0.00     0.033 A 
ATOM      4  C4  UNL d   1      -1.815   1.260   2.443  0.00  0.00    -0.042 A 
ATOM      5  C5  UNL d   1      -1.414   1.968   1.316  0.00  0.00     0.033 A 
ATOM      6  C6  UNL d   1      -0.548   1.376   0.391  0.00  0.00    -0.057 A 
ENDROOT
BRANCH   1   7
ATOM      7  N   UNL d   1       0.865  -0.424  -0.348  0.00  0.00    -0.732 N 
ATOM      8  C   UNL d   1       0.700  -1.729  -0.951  0.00  0.00     0.284 C 
ATOM      9  H3  UNL d   1       1.193   0.293  -0.992  0.00  0.00     0.395 HD
ENDBRANCH   1   7
TORSDOF 1
ENDMDL
