MODEL 1
REMARK minimizedAffinity -2.51182437
REMARK minimizedRMSD -1
REMARK  1 active torsions:
REMARK  status: ('A' for Active; 'I' for Inactive)
REMARK    1  A    between atoms: N_2  and  C1_3 
ROOT
ATOM      1  C1  UNL d   1      -0.101   0.223   0.277  0.00  0.00     0.143 A 
ATOM      2  C2  UNL d   1       0.272  -0.514   1.406  0.00  0.00    -0.057 A 
ATOM      3  C3  UNL d   1      -0.174  -0.159   2.685  0.00  0.00     0.033 A 
ATOM      4  C4  UNL d   1      -0.979   0.962   2.861  0.00  0.00    -0.042 A 
ATOM      5  C5  UNL d   1      -1.341   1.724   1.756  0.00  0.00     0.033 A 
ATOM      6  C6  UNL d   1      -0.898   1.360   0.481  0.00  0.00    -0.057 A 
ENDROOT
BRANCH   1   7
ATOM      7  N   UNL d   1       0.389  -0.022  -1.008  0.00  0.00    -0.732 N 
ATOM      8  C   UNL d   1       1.005   1.039  -1.777  0.00  0.00     0.284 C 
ATOM      9  H3  UNL d   1       0.868  -0.917  -1.077  0.00  0.00     0.395 HD
ENDBRANCH   1   7
TORSDOF 1
ENDMDL
