MODEL 1
REMARK minimizedAffinity -4.14375925
REMARK minimizedRMSD -1
REMARK  1 active torsions:
REMARK  status: ('A' for Active; 'I' for Inactive)
REMARK    1  A    between atoms: C1_2  and  C2_3 
ROOT
ATOM      1  C2  UNL d   1      -0.090  -0.152   0.498  0.00  0.00    -0.077 A 
ATOM      2  C3  UNL d   1      -1.169  -0.898   0.992  0.00  0.00     0.002 A 
ATOM      3  C4  UNL d   1      -1.394  -0.989   2.367  0.00  0.00     0.002 A 
ATOM      4  C5  UNL d   1      -0.547  -0.334   3.258  0.00  0.00    -0.004 A 
ATOM      5  C6  UNL d   1       0.530   0.410   2.777  0.00  0.00     0.002 A 
ATOM      6  C7  UNL d   1       0.757   0.501   1.403  0.00  0.00     0.002 A 
ENDROOT
BRANCH   1   7
ATOM      7  C1  UNL d   1       0.126  -0.012  -0.986  0.00  0.00     0.055 C 
ATOM      8  C   UNL d   1       0.720   1.346  -1.334  0.00  0.00     0.019 C 
ENDBRANCH   1   7
TORSDOF 1
ENDMDL
