MODEL 1
REMARK minimizedAffinity -3.6612308
REMARK minimizedRMSD -1
REMARK  1 active torsions:
REMARK  status: ('A' for Active; 'I' for Inactive)
REMARK    1  A    between atoms: C1_2  and  C2_3 
ROOT
ATOM      1  C2  UNL d   1      -0.291  -1.047   0.826  0.00  0.00    -0.077 A 
ATOM      2  C3  UNL d   1      -1.024   0.022   0.291  0.00  0.00     0.002 A 
ATOM      3  C4  UNL d   1      -1.827   0.811   1.118  0.00  0.00     0.002 A 
ATOM      4  C5  UNL d   1      -1.901   0.541   2.483  0.00  0.00    -0.004 A 
ATOM      5  C6  UNL d   1      -1.178  -0.521   3.023  0.00  0.00     0.002 A 
ATOM      6  C7  UNL d   1      -0.376  -1.311   2.199  0.00  0.00     0.002 A 
ENDROOT
BRANCH   1   7
ATOM      7  C1  UNL d   1       0.614  -1.869  -0.056  0.00  0.00     0.055 C 
ATOM      8  C   UNL d   1       0.555  -1.397  -1.501  0.00  0.00     0.019 C 
ENDBRANCH   1   7
TORSDOF 1
ENDMDL
