MODEL 1
REMARK minimizedAffinity -0.311068356
REMARK minimizedRMSD -1
REMARK  1 active torsions:
REMARK  status: ('A' for Active; 'I' for Inactive)
REMARK    1  A    between atoms: C1_2  and  C2_3 
ROOT
ATOM      1  C2  UNL d   1      -3.683  -5.395   3.135  0.00  0.00    -0.077 A 
ATOM      2  C3  UNL d   1      -3.362  -5.373   1.771  0.00  0.00     0.002 A 
ATOM      3  C4  UNL d   1      -4.335  -5.661   0.812  0.00  0.00     0.002 A 
ATOM      4  C5  UNL d   1      -5.635  -5.970   1.207  0.00  0.00    -0.004 A 
ATOM      5  C6  UNL d   1      -5.963  -5.997   2.562  0.00  0.00     0.002 A 
ATOM      6  C7  UNL d   1      -4.992  -5.709   3.522  0.00  0.00     0.002 A 
ENDROOT
BRANCH   1   7
ATOM      7  C1  UNL d   1      -2.647  -5.035   4.169  0.00  0.00     0.055 C 
ATOM      8  C   UNL d   1      -3.236  -5.051   5.572  0.00  0.00     0.019 C 
ENDBRANCH   1   7
TORSDOF 1
ENDMDL
