MODEL 1
REMARK minimizedAffinity 0.105832733
REMARK minimizedRMSD -1
REMARK  1 active torsions:
REMARK  status: ('A' for Active; 'I' for Inactive)
REMARK    1  A    between atoms: C1_2  and  C2_3 
ROOT
ATOM      1  C2  UNL d   1      -3.816  -5.118   1.450  0.00  0.00    -0.077 A 
ATOM      2  C3  UNL d   1      -3.049  -3.972   1.701  0.00  0.00     0.002 A 
ATOM      3  C4  UNL d   1      -2.633  -3.671   2.999  0.00  0.00     0.002 A 
ATOM      4  C5  UNL d   1      -2.976  -4.513   4.055  0.00  0.00    -0.004 A 
ATOM      5  C6  UNL d   1      -3.740  -5.654   3.816  0.00  0.00     0.002 A 
ATOM      6  C7  UNL d   1      -4.158  -5.956   2.519  0.00  0.00     0.002 A 
ENDROOT
BRANCH   1   7
ATOM      7  C1  UNL d   1      -4.224  -5.471   0.043  0.00  0.00     0.055 C 
ATOM      8  C   UNL d   1      -5.651  -5.997  -0.004  0.00  0.00     0.019 C 
ENDBRANCH   1   7
TORSDOF 1
ENDMDL
