MODEL 1
REMARK minimizedAffinity 3.44148183
REMARK minimizedRMSD -1
REMARK  1 active torsions:
REMARK  status: ('A' for Active; 'I' for Inactive)
REMARK    1  A    between atoms: C1_2  and  C2_3 
ROOT
ATOM      1  C2  UNL d   1      -0.989   1.718   2.460  0.00  0.00    -0.077 A 
ATOM      2  C3  UNL d   1      -1.936   0.856   1.889  0.00  0.00     0.002 A 
ATOM      3  C4  UNL d   1      -1.554  -0.066   0.914  0.00  0.00     0.002 A 
ATOM      4  C5  UNL d   1      -0.224  -0.138   0.504  0.00  0.00    -0.004 A 
ATOM      5  C6  UNL d   1       0.725   0.716   1.064  0.00  0.00     0.002 A 
ATOM      6  C7  UNL d   1       0.344   1.640   2.039  0.00  0.00     0.002 A 
ENDROOT
BRANCH   1   7
ATOM      7  C1  UNL d   1      -1.391   2.680   3.548  0.00  0.00     0.055 C 
ATOM      8  C   UNL d   1      -0.329   3.749   3.761  0.00  0.00     0.019 C 
ENDBRANCH   1   7
TORSDOF 1
ENDMDL
