MODEL 1
REMARK minimizedAffinity -5.19491005
REMARK minimizedRMSD -1
REMARK  1 active torsions:
REMARK  status: ('A' for Active; 'I' for Inactive)
REMARK    1  A    between atoms: C1_2  and  C2_3 
ROOT
ATOM      1  C2  UNL d   1       0.308   0.421   0.287  0.00  0.00    -0.077 A 
ATOM      2  C3  UNL d   1       1.424   0.360   1.133  0.00  0.00     0.002 A 
ATOM      3  C4  UNL d   1       1.261   0.150   2.504  0.00  0.00     0.002 A 
ATOM      4  C5  UNL d   1      -0.016  -0.006   3.039  0.00  0.00    -0.004 A 
ATOM      5  C6  UNL d   1      -1.133   0.055   2.206  0.00  0.00     0.002 A 
ATOM      6  C7  UNL d   1      -0.972   0.266   0.836  0.00  0.00     0.002 A 
ENDROOT
BRANCH   1   7
ATOM      7  C1  UNL d   1       0.484   0.598  -1.198  0.00  0.00     0.055 C 
ATOM      8  C   UNL d   1       1.395  -0.474  -1.779  0.00  0.00     0.019 C 
ENDBRANCH   1   7
TORSDOF 1
ENDMDL
