MODEL 1
REMARK minimizedAffinity -4.60097456
REMARK minimizedRMSD -1
REMARK  1 active torsions:
REMARK  status: ('A' for Active; 'I' for Inactive)
REMARK    1  A    between atoms: C1_2  and  C2_3 
ROOT
ATOM      1  C2  UNL d   1       0.124  -0.060   0.711  0.00  0.00    -0.077 A 
ATOM      2  C3  UNL d   1      -1.092  -0.463   1.282  0.00  0.00     0.002 A 
ATOM      3  C4  UNL d   1      -1.276  -0.406   2.664  0.00  0.00     0.002 A 
ATOM      4  C5  UNL d   1      -0.251   0.056   3.487  0.00  0.00    -0.004 A 
ATOM      5  C6  UNL d   1       0.962   0.457   2.930  0.00  0.00     0.002 A 
ATOM      6  C7  UNL d   1       1.149   0.400   1.548  0.00  0.00     0.002 A 
ENDROOT
BRANCH   1   7
ATOM      7  C1  UNL d   1       0.307  -0.073  -0.784  0.00  0.00     0.055 C 
ATOM      8  C   UNL d   1      -0.499   1.031  -1.451  0.00  0.00     0.019 C 
ENDBRANCH   1   7
TORSDOF 1
ENDMDL
