MODEL 1
REMARK minimizedAffinity 7.43301344
REMARK minimizedRMSD -1
REMARK  1 active torsions:
REMARK  status: ('A' for Active; 'I' for Inactive)
REMARK    1  A    between atoms: C1_2  and  C2_3 
ROOT
ATOM      1  C2  UNL d   1       1.534  -1.965  -3.365  0.00  0.00    -0.077 A 
ATOM      2  C3  UNL d   1       1.151  -0.950  -2.476  0.00  0.00     0.002 A 
ATOM      3  C4  UNL d   1       2.061   0.039  -2.100  0.00  0.00     0.002 A 
ATOM      4  C5  UNL d   1       3.357   0.026  -2.611  0.00  0.00    -0.004 A 
ATOM      5  C6  UNL d   1       3.748  -0.980  -3.494  0.00  0.00     0.002 A 
ATOM      6  C7  UNL d   1       2.840  -1.971  -3.869  0.00  0.00     0.002 A 
ENDROOT
BRANCH   1   7
ATOM      7  C1  UNL d   1       0.539  -3.005  -3.810  0.00  0.00     0.055 C 
ATOM      8  C   UNL d   1      -0.469  -2.424  -4.791  0.00  0.00     0.019 C 
ENDBRANCH   1   7
TORSDOF 1
ENDMDL
