MODEL 1
REMARK minimizedAffinity 13.4919071
REMARK minimizedRMSD -1
REMARK  1 active torsions:
REMARK  status: ('A' for Active; 'I' for Inactive)
REMARK    1  A    between atoms: C1_2  and  C2_3 
ROOT
ATOM      1  C2  UNL d   1       2.136  -0.516  -2.210  0.00  0.00    -0.077 A 
ATOM      2  C3  UNL d   1       2.340   0.856  -2.417  0.00  0.00     0.002 A 
ATOM      3  C4  UNL d   1       3.539   1.317  -2.964  0.00  0.00     0.002 A 
ATOM      4  C5  UNL d   1       4.541   0.414  -3.311  0.00  0.00    -0.004 A 
ATOM      5  C6  UNL d   1       4.349  -0.952  -3.108  0.00  0.00     0.002 A 
ATOM      6  C7  UNL d   1       3.152  -1.415  -2.560  0.00  0.00     0.002 A 
ENDROOT
BRANCH   1   7
ATOM      7  C1  UNL d   1       0.825  -1.020  -1.667  0.00  0.00     0.055 C 
ATOM      8  C   UNL d   1      -0.156  -1.331  -2.788  0.00  0.00     0.019 C 
ENDBRANCH   1   7
TORSDOF 1
ENDMDL
