MODEL 1
REMARK minimizedAffinity 0.20470728
REMARK minimizedRMSD -1
REMARK  1 active torsions:
REMARK  status: ('A' for Active; 'I' for Inactive)
REMARK    1  A    between atoms: C1_2  and  C2_3 
ROOT
ATOM      1  C2  UNL d   1       3.921  -1.287   4.375  0.00  0.00    -0.077 A 
ATOM      2  C3  UNL d   1       4.325  -0.675   3.180  0.00  0.00     0.002 A 
ATOM      3  C4  UNL d   1       3.711  -1.010   1.972  0.00  0.00     0.002 A 
ATOM      4  C5  UNL d   1       2.687  -1.954   1.948  0.00  0.00    -0.004 A 
ATOM      5  C6  UNL d   1       2.279  -2.570   3.130  0.00  0.00     0.002 A 
ATOM      6  C7  UNL d   1       2.893  -2.237   4.338  0.00  0.00     0.002 A 
ENDROOT
BRANCH   1   7
ATOM      7  C1  UNL d   1       4.549  -0.891   5.686  0.00  0.00     0.055 C 
ATOM      8  C   UNL d   1       5.770  -1.745   5.996  0.00  0.00     0.019 C 
ENDBRANCH   1   7
TORSDOF 1
ENDMDL
