MODEL 1
REMARK minimizedAffinity -2.08382225
REMARK minimizedRMSD -1
REMARK  0 active torsions:
REMARK  status: ('A' for Active; 'I' for Inactive)
ROOT
ATOM      1  C4' PXY d   1       0.882   2.714  -5.999  0.00  0.00     0.077 C 
ATOM      2  C1' PXY d   1      -3.993   2.727  -2.894  0.00  0.00     0.077 C 
ATOM      3  C1  PXY d   1      -2.711   2.713  -3.702  0.00  0.00    -0.082 A 
ATOM      4  C2  PXY d   1      -2.272   3.833  -4.253  0.00  0.00     0.003 A 
ATOM      5  C3  PXY d   1      -1.131   3.832  -5.013  0.00  0.00     0.003 A 
ATOM      6  C4  PXY d   1      -0.403   2.683  -5.168  0.00  0.00    -0.082 A 
ATOM      7  C5  PXY d   1      -0.838   1.538  -4.600  0.00  0.00     0.003 A 
ATOM      8  C6  PXY d   1      -2.020   1.552  -3.866  0.00  0.00     0.003 A 
ENDROOT
TORSDOF 0
ENDMDL
