MODEL 1
REMARK minimizedAffinity -3.0773406
REMARK minimizedRMSD -1
REMARK  0 active torsions:
REMARK  status: ('A' for Active; 'I' for Inactive)
ROOT
ATOM      1  C4' PXY d   1       2.074  -3.447   0.115  0.00  0.00     0.077 C 
ATOM      2  C1' PXY d   1      -1.452   0.584   2.291  0.00  0.00     0.077 C 
ATOM      3  C1  PXY d   1      -0.520  -0.464   1.714  0.00  0.00    -0.082 A 
ATOM      4  C2  PXY d   1      -0.934  -1.715   1.600  0.00  0.00     0.003 A 
ATOM      5  C3  PXY d   1      -0.094  -2.682   1.110  0.00  0.00     0.003 A 
ATOM      6  C4  PXY d   1       1.165  -2.354   0.683  0.00  0.00    -0.082 A 
ATOM      7  C5  PXY d   1       1.591  -1.077   0.786  0.00  0.00     0.003 A 
ATOM      8  C6  PXY d   1       0.737  -0.119   1.324  0.00  0.00     0.003 A 
ENDROOT
TORSDOF 0
ENDMDL
