MODEL 1
REMARK minimizedAffinity 2.06545067
REMARK minimizedRMSD -1
REMARK  0 active torsions:
REMARK  status: ('A' for Active; 'I' for Inactive)
ROOT
ATOM      1  C4' PXY d   1      -0.040   3.845  -5.998  0.00  0.00     0.077 C 
ATOM      2  C1' PXY d   1      -4.268   3.375  -2.084  0.00  0.00     0.077 C 
ATOM      3  C1  PXY d   1      -3.166   3.506  -3.117  0.00  0.00    -0.082 A 
ATOM      4  C2  PXY d   1      -2.258   2.551  -3.230  0.00  0.00     0.003 A 
ATOM      5  C3  PXY d   1      -1.236   2.669  -4.137  0.00  0.00     0.003 A 
ATOM      6  C4  PXY d   1      -1.175   3.750  -4.975  0.00  0.00    -0.082 A 
ATOM      7  C5  PXY d   1      -2.105   4.724  -4.874  0.00  0.00     0.003 A 
ATOM      8  C6  PXY d   1      -3.109   4.605  -3.918  0.00  0.00     0.003 A 
ENDROOT
TORSDOF 0
ENDMDL
