MODEL 1
REMARK minimizedAffinity 0.840349436
REMARK minimizedRMSD -1
REMARK  0 active torsions:
REMARK  status: ('A' for Active; 'I' for Inactive)
ROOT
ATOM      1  C4' PXY d   1       0.069   3.307  -5.773  0.00  0.00     0.077 C 
ATOM      2  C1' PXY d   1      -4.427   2.218  -2.306  0.00  0.00     0.077 C 
ATOM      3  C1  PXY d   1      -3.241   2.494  -3.210  0.00  0.00    -0.082 A 
ATOM      4  C2  PXY d   1      -3.111   3.684  -3.773  0.00  0.00     0.003 A 
ATOM      5  C3  PXY d   1      -2.062   3.941  -4.618  0.00  0.00     0.003 A 
ATOM      6  C4  PXY d   1      -1.107   2.987  -4.847  0.00  0.00    -0.082 A 
ATOM      7  C5  PXY d   1      -1.227   1.774  -4.267  0.00  0.00     0.003 A 
ATOM      8  C6  PXY d   1      -2.321   1.520  -3.445  0.00  0.00     0.003 A 
ENDROOT
TORSDOF 0
ENDMDL
