MODEL 1
REMARK minimizedAffinity 3.79729581
REMARK minimizedRMSD -1
REMARK  0 active torsions:
REMARK  status: ('A' for Active; 'I' for Inactive)
ROOT
ATOM      1  C4' PXY d   1      -1.103  -3.343   1.517  0.00  0.00     0.077 C 
ATOM      2  C1' PXY d   1       4.531  -4.536   1.012  0.00  0.00     0.077 C 
ATOM      3  C1  PXY d   1       3.051  -4.236   1.141  0.00  0.00    -0.082 A 
ATOM      4  C2  PXY d   1       2.626  -2.987   1.039  0.00  0.00     0.003 A 
ATOM      5  C3  PXY d   1       1.294  -2.693   1.185  0.00  0.00     0.003 A 
ATOM      6  C4  PXY d   1       0.382  -3.694   1.384  0.00  0.00    -0.082 A 
ATOM      7  C5  PXY d   1       0.806  -4.972   1.479  0.00  0.00     0.003 A 
ATOM      8  C6  PXY d   1       2.167  -5.245   1.369  0.00  0.00     0.003 A 
ENDROOT
TORSDOF 0
ENDMDL
