MODEL 1
REMARK minimizedAffinity 1.68447077
REMARK minimizedRMSD -1
REMARK  0 active torsions:
REMARK  status: ('A' for Active; 'I' for Inactive)
ROOT
ATOM      1  C4' PXY d   1       3.127  -3.499  -0.410  0.00  0.00     0.077 C 
ATOM      2  C1' PXY d   1      -1.517  -1.541   2.421  0.00  0.00     0.077 C 
ATOM      3  C1  PXY d   1      -0.295  -2.043   1.676  0.00  0.00    -0.082 A 
ATOM      4  C2  PXY d   1      -0.316  -3.241   1.116  0.00  0.00     0.003 A 
ATOM      5  C3  PXY d   1       0.791  -3.723   0.467  0.00  0.00     0.003 A 
ATOM      6  C4  PXY d   1       1.913  -2.949   0.344  0.00  0.00    -0.082 A 
ATOM      7  C5  PXY d   1       1.939  -1.720   0.903  0.00  0.00     0.003 A 
ATOM      8  C6  PXY d   1       0.819  -1.266   1.593  0.00  0.00     0.003 A 
ENDROOT
TORSDOF 0
ENDMDL
