MODEL 1
REMARK minimizedAffinity 13.6215925
REMARK minimizedRMSD -1
REMARK  0 active torsions:
REMARK  status: ('A' for Active; 'I' for Inactive)
ROOT
ATOM      1  C4' PXY d   1       6.000  -4.499  -0.689  0.00  0.00     0.077 C 
ATOM      2  C1' PXY d   1       0.526  -2.968   0.363  0.00  0.00     0.077 C 
ATOM      3  C1  PXY d   1       1.965  -3.366   0.099  0.00  0.00    -0.082 A 
ATOM      4  C2  PXY d   1       2.430  -3.357  -1.140  0.00  0.00     0.003 A 
ATOM      5  C3  PXY d   1       3.719  -3.745  -1.399  0.00  0.00     0.003 A 
ATOM      6  C4  PXY d   1       4.557  -4.096  -0.375  0.00  0.00    -0.082 A 
ATOM      7  C5  PXY d   1       4.093  -4.097   0.893  0.00  0.00     0.003 A 
ATOM      8  C6  PXY d   1       2.769  -3.740   1.131  0.00  0.00     0.003 A 
ENDROOT
TORSDOF 0
ENDMDL
