MODEL 1
REMARK minimizedAffinity 7.03377056
REMARK minimizedRMSD -1
REMARK  0 active torsions:
REMARK  status: ('A' for Active; 'I' for Inactive)
ROOT
ATOM      1  C4' PXY d   1       3.952  -4.001  -0.007  0.00  0.00     0.077 C 
ATOM      2  C1' PXY d   1      -1.619  -2.910   1.085  0.00  0.00     0.077 C 
ATOM      3  C1  PXY d   1      -0.157  -3.184   0.793  0.00  0.00    -0.082 A 
ATOM      4  C2  PXY d   1       0.269  -4.434   0.704  0.00  0.00     0.003 A 
ATOM      5  C3  PXY d   1       1.594  -4.700   0.473  0.00  0.00     0.003 A 
ATOM      6  C4  PXY d   1       2.483  -3.677   0.277  0.00  0.00    -0.082 A 
ATOM      7  C5  PXY d   1       2.054  -2.399   0.356  0.00  0.00     0.003 A 
ATOM      8  C6  PXY d   1       0.713  -2.150   0.633  0.00  0.00     0.003 A 
ENDROOT
TORSDOF 0
ENDMDL
