MODEL 1
REMARK minimizedAffinity -2.74333954
REMARK minimizedRMSD -1
REMARK  0 active torsions:
REMARK  status: ('A' for Active; 'I' for Inactive)
ROOT
ATOM      1  C4' PXY d   1      -4.449   2.548  -1.884  0.00  0.00     0.077 C 
ATOM      2  C1' PXY d   1      -0.723   4.158  -6.000  0.00  0.00     0.077 C 
ATOM      3  C1  PXY d   1      -1.708   3.746  -4.923  0.00  0.00    -0.082 A 
ATOM      4  C2  PXY d   1      -1.295   3.003  -3.909  0.00  0.00     0.003 A 
ATOM      5  C3  PXY d   1      -2.179   2.595  -2.944  0.00  0.00     0.003 A 
ATOM      6  C4  PXY d   1      -3.488   2.995  -2.988  0.00  0.00    -0.082 A 
ATOM      7  C5  PXY d   1      -3.914   3.762  -4.014  0.00  0.00     0.003 A 
ATOM      8  C6  PXY d   1      -3.010   4.132  -5.006  0.00  0.00     0.003 A 
ENDROOT
TORSDOF 0
ENDMDL
