MODEL 1
REMARK minimizedAffinity 3.23695207
REMARK minimizedRMSD -1
REMARK  0 active torsions:
REMARK  status: ('A' for Active; 'I' for Inactive)
ROOT
ATOM      1  C4' PXY d   1       0.679   3.654  -6.000  0.00  0.00     0.077 C 
ATOM      2  C1' PXY d   1      -3.715   2.951  -2.310  0.00  0.00     0.077 C 
ATOM      3  C1  PXY d   1      -2.555   3.128  -3.270  0.00  0.00    -0.082 A 
ATOM      4  C2  PXY d   1      -2.495   4.208  -4.032  0.00  0.00     0.003 A 
ATOM      5  C3  PXY d   1      -1.470   4.368  -4.929  0.00  0.00     0.003 A 
ATOM      6  C4  PXY d   1      -0.468   3.439  -5.009  0.00  0.00    -0.082 A 
ATOM      7  C5  PXY d   1      -0.517   2.339  -4.228  0.00  0.00     0.003 A 
ATOM      8  C6  PXY d   1      -1.587   2.175  -3.354  0.00  0.00     0.003 A 
ENDROOT
TORSDOF 0
ENDMDL
