MODEL 1
REMARK minimizedAffinity 11.5494719
REMARK minimizedRMSD -1
REMARK  0 active torsions:
REMARK  status: ('A' for Active; 'I' for Inactive)
ROOT
ATOM      1  C4' PXY d   1       4.677  -4.380   3.321  0.00  0.00     0.077 C 
ATOM      2  C1' PXY d   1       1.298  -2.306  -0.886  0.00  0.00     0.077 C 
ATOM      3  C1  PXY d   1       2.189  -2.859   0.209  0.00  0.00    -0.082 A 
ATOM      4  C2  PXY d   1       1.869  -2.657   1.477  0.00  0.00     0.003 A 
ATOM      5  C3  PXY d   1       2.681  -3.123   2.480  0.00  0.00     0.003 A 
ATOM      6  C4  PXY d   1       3.803  -3.849   2.182  0.00  0.00    -0.082 A 
ATOM      7  C5  PXY d   1       4.130  -4.068   0.891  0.00  0.00     0.003 A 
ATOM      8  C6  PXY d   1       3.315  -3.552  -0.112  0.00  0.00     0.003 A 
ENDROOT
TORSDOF 0
ENDMDL
