MODEL 1
REMARK minimizedAffinity 5.16980457
REMARK minimizedRMSD -1
REMARK  0 active torsions:
REMARK  status: ('A' for Active; 'I' for Inactive)
ROOT
ATOM      1  C4' PXY d   1       0.406   3.990  -6.000  0.00  0.00     0.077 C 
ATOM      2  C1' PXY d   1      -4.043   2.362  -2.688  0.00  0.00     0.077 C 
ATOM      3  C1  PXY d   1      -2.869   2.781  -3.550  0.00  0.00    -0.082 A 
ATOM      4  C2  PXY d   1      -2.881   3.964  -4.143  0.00  0.00     0.003 A 
ATOM      5  C3  PXY d   1      -1.842   4.346  -4.951  0.00  0.00     0.003 A 
ATOM      6  C4  PXY d   1      -0.754   3.530  -5.113  0.00  0.00    -0.082 A 
ATOM      7  C5  PXY d   1      -0.729   2.326  -4.503  0.00  0.00     0.003 A 
ATOM      8  C6  PXY d   1      -1.813   1.940  -3.719  0.00  0.00     0.003 A 
ENDROOT
TORSDOF 0
ENDMDL
