MODEL 1
REMARK minimizedAffinity 9.41592121
REMARK minimizedRMSD -1
REMARK  0 active torsions:
REMARK  status: ('A' for Active; 'I' for Inactive)
ROOT
ATOM      1  C4' PXY d   1       5.975  -4.499   0.318  0.00  0.00     0.077 C 
ATOM      2  C1' PXY d   1       0.516  -2.605   0.480  0.00  0.00     0.077 C 
ATOM      3  C1  PXY d   1       1.944  -3.110   0.447  0.00  0.00    -0.082 A 
ATOM      4  C2  PXY d   1       2.910  -2.315   0.015  0.00  0.00     0.003 A 
ATOM      5  C3  PXY d   1       4.203  -2.767  -0.052  0.00  0.00     0.003 A 
ATOM      6  C4  PXY d   1       4.519  -4.028   0.378  0.00  0.00    -0.082 A 
ATOM      7  C5  PXY d   1       3.541  -4.842   0.829  0.00  0.00     0.003 A 
ATOM      8  C6  PXY d   1       2.229  -4.378   0.850  0.00  0.00     0.003 A 
ENDROOT
TORSDOF 0
ENDMDL
