MODEL 1
REMARK minimizedAffinity 7.00742579
REMARK minimizedRMSD -1
REMARK  0 active torsions:
REMARK  status: ('A' for Active; 'I' for Inactive)
ROOT
ATOM      1  C4' PXY d   1      -3.375   2.823  -2.651  0.00  0.00     0.077 C 
ATOM      2  C1' PXY d   1       1.267   3.634  -5.999  0.00  0.00     0.077 C 
ATOM      3  C1  PXY d   1       0.050   3.409  -5.123  0.00  0.00    -0.082 A 
ATOM      4  C2  PXY d   1      -0.792   4.405  -4.905  0.00  0.00     0.003 A 
ATOM      5  C3  PXY d   1      -1.881   4.228  -4.090  0.00  0.00     0.003 A 
ATOM      6  C4  PXY d   1      -2.138   3.002  -3.536  0.00  0.00    -0.082 A 
ATOM      7  C5  PXY d   1      -1.289   1.978  -3.763  0.00  0.00     0.003 A 
ATOM      8  C6  PXY d   1      -0.168   2.190  -4.559  0.00  0.00     0.003 A 
ENDROOT
TORSDOF 0
ENDMDL
