MODEL 1
REMARK minimizedAffinity -4.04666948
REMARK minimizedRMSD -1
REMARK  1 active torsions:
REMARK  status: ('A' for Active; 'I' for Inactive)
REMARK    1  A    between atoms: C3_4  and  O_7 
ROOT
ATOM      1  C   UNL d   1      -0.474  -0.379   0.169  0.00  0.00    -0.033 A 
ATOM      2  C1  UNL d   1       0.251   0.740  -0.244  0.00  0.00     0.039 A 
ATOM      3  C2  UNL d   1       1.565   0.596  -0.695  0.00  0.00    -0.080 A 
ATOM      4  C3  UNL d   1       2.141  -0.671  -0.728  0.00  0.00     0.150 A 
ATOM      5  C4  UNL d   1       1.423  -1.791  -0.322  0.00  0.00    -0.007 A 
ATOM      6  C5  UNL d   1       0.112  -1.645   0.129  0.00  0.00     0.039 A 
ENDROOT
BRANCH   4   7
ATOM      7  O   UNL d   1       3.421  -0.860  -1.156  0.00  0.00    -0.526 OA
ATOM      8  H5  UNL d   1       3.803   0.005  -1.377  0.00  0.00     0.418 HD
ENDBRANCH   4   7
TORSDOF 1
ENDMDL
