MODEL 1
REMARK minimizedAffinity -5.26118374
REMARK minimizedRMSD -1
REMARK  1 active torsions:
REMARK  status: ('A' for Active; 'I' for Inactive)
REMARK    1  A    between atoms: C3_4  and  O_7 
ROOT
ATOM      1  C   UNL d   1       3.055   0.661  -2.993  0.00  0.00    -0.033 A 
ATOM      2  C1  UNL d   1       2.187   1.754  -3.008  0.00  0.00     0.039 A 
ATOM      3  C2  UNL d   1       1.081   1.781  -2.155  0.00  0.00    -0.080 A 
ATOM      4  C3  UNL d   1       0.857   0.711  -1.294  0.00  0.00     0.150 A 
ATOM      5  C4  UNL d   1       1.720  -0.379  -1.271  0.00  0.00    -0.007 A 
ATOM      6  C5  UNL d   1       2.823  -0.405  -2.124  0.00  0.00     0.039 A 
ENDROOT
BRANCH   4   7
ATOM      7  O   UNL d   1      -0.211   0.691  -0.447  0.00  0.00    -0.526 OA
ATOM      8  H5  UNL d   1      -0.736   1.495  -0.593  0.00  0.00     0.418 HD
ENDBRANCH   4   7
TORSDOF 1
ENDMDL
