MODEL 1
REMARK minimizedAffinity -4.77672529
REMARK minimizedRMSD -1
REMARK  1 active torsions:
REMARK  status: ('A' for Active; 'I' for Inactive)
REMARK    1  A    between atoms: C3_4  and  O_7 
ROOT
ATOM      1  C   UNL d   1       0.491   1.419  -0.920  0.00  0.00    -0.033 A 
ATOM      2  C1  UNL d   1       0.766   0.331  -0.089  0.00  0.00     0.039 A 
ATOM      3  C2  UNL d   1       1.914  -0.436  -0.297  0.00  0.00    -0.080 A 
ATOM      4  C3  UNL d   1       2.778  -0.104  -1.337  0.00  0.00     0.150 A 
ATOM      5  C4  UNL d   1       2.513   0.981  -2.166  0.00  0.00    -0.007 A 
ATOM      6  C5  UNL d   1       1.365   1.745  -1.957  0.00  0.00     0.039 A 
ENDROOT
BRANCH   4   7
ATOM      7  O   UNL d   1       3.909  -0.825  -1.582  0.00  0.00    -0.526 OA
ATOM      8  H5  UNL d   1       3.947  -1.562  -0.948  0.00  0.00     0.418 HD
ENDBRANCH   4   7
TORSDOF 1
ENDMDL
