MODEL 1
REMARK minimizedAffinity -2.41820884
REMARK minimizedRMSD -1
REMARK  1 active torsions:
REMARK  status: ('A' for Active; 'I' for Inactive)
REMARK    1  A    between atoms: C3_4  and  O_7 
ROOT
ATOM      1  C   UNL d   1      -1.497   1.256  -0.341  0.00  0.00    -0.033 A 
ATOM      2  C1  UNL d   1      -1.347  -0.038   0.159  0.00  0.00     0.039 A 
ATOM      3  C2  UNL d   1      -0.160  -0.741  -0.061  0.00  0.00    -0.080 A 
ATOM      4  C3  UNL d   1       0.867  -0.138  -0.782  0.00  0.00     0.150 A 
ATOM      5  C4  UNL d   1       0.725   1.153  -1.281  0.00  0.00    -0.007 A 
ATOM      6  C5  UNL d   1      -0.461   1.852  -1.060  0.00  0.00     0.039 A 
ENDROOT
BRANCH   4   7
ATOM      7  O   UNL d   1       2.041  -0.786  -1.027  0.00  0.00    -0.526 OA
ATOM      8  H5  UNL d   1       1.985  -1.679  -0.648  0.00  0.00     0.418 HD
ENDBRANCH   4   7
TORSDOF 1
ENDMDL
