MODEL 1
REMARK minimizedAffinity -4.10616684
REMARK minimizedRMSD -1
REMARK  1 active torsions:
REMARK  status: ('A' for Active; 'I' for Inactive)
REMARK    1  A    between atoms: C3_4  and  O_7 
ROOT
ATOM      1  C   UNL d   1       2.357  -0.016  -1.928  0.00  0.00    -0.033 A 
ATOM      2  C1  UNL d   1       1.914  -1.147  -1.239  0.00  0.00     0.039 A 
ATOM      3  C2  UNL d   1       0.735  -1.095  -0.494  0.00  0.00    -0.080 A 
ATOM      4  C3  UNL d   1       0.008   0.092  -0.447  0.00  0.00     0.150 A 
ATOM      5  C4  UNL d   1       0.441   1.221  -1.134  0.00  0.00    -0.007 A 
ATOM      6  C5  UNL d   1       1.620   1.167  -1.877  0.00  0.00     0.039 A 
ENDROOT
BRANCH   4   7
ATOM      7  O   UNL d   1      -1.147   0.192   0.271  0.00  0.00    -0.526 OA
ATOM      8  H5  UNL d   1      -1.307  -0.657   0.716  0.00  0.00     0.418 HD
ENDBRANCH   4   7
TORSDOF 1
ENDMDL
