MODEL 1
REMARK minimizedAffinity -4.34870911
REMARK minimizedRMSD -1
REMARK  1 active torsions:
REMARK  status: ('A' for Active; 'I' for Inactive)
REMARK    1  A    between atoms: C3_4  and  O_7 
ROOT
ATOM      1  C   UNL d   1      -0.577  -0.505  -0.020  0.00  0.00    -0.033 A 
ATOM      2  C1  UNL d   1       0.007  -1.720  -0.384  0.00  0.00     0.039 A 
ATOM      3  C2  UNL d   1       1.357  -1.769  -0.735  0.00  0.00    -0.080 A 
ATOM      4  C3  UNL d   1       2.112  -0.599  -0.717  0.00  0.00     0.150 A 
ATOM      5  C4  UNL d   1       1.537   0.614  -0.351  0.00  0.00    -0.007 A 
ATOM      6  C5  UNL d   1       0.188   0.662  -0.002  0.00  0.00     0.039 A 
ENDROOT
BRANCH   4   7
ATOM      7  O   UNL d   1       3.432  -0.597  -1.055  0.00  0.00    -0.526 OA
ATOM      8  H5  UNL d   1       3.685  -1.500  -1.313  0.00  0.00     0.418 HD
ENDBRANCH   4   7
TORSDOF 1
ENDMDL
