MODEL 1
REMARK minimizedAffinity -4.37591553
REMARK minimizedRMSD -1
REMARK  1 active torsions:
REMARK  status: ('A' for Active; 'I' for Inactive)
REMARK    1  A    between atoms: C3_4  and  O_7 
ROOT
ATOM      1  C   UNL d   1       2.839   0.366  -2.376  0.00  0.00    -0.033 A 
ATOM      2  C1  UNL d   1       1.806   1.305  -2.374  0.00  0.00     0.039 A 
ATOM      3  C2  UNL d   1       0.763   1.196  -1.452  0.00  0.00    -0.080 A 
ATOM      4  C3  UNL d   1       0.765   0.146  -0.538  0.00  0.00     0.150 A 
ATOM      5  C4  UNL d   1       1.793  -0.791  -0.532  0.00  0.00    -0.007 A 
ATOM      6  C5  UNL d   1       2.834  -0.682  -1.454  0.00  0.00     0.039 A 
ENDROOT
BRANCH   4   7
ATOM      7  O   UNL d   1      -0.234  -0.005   0.377  0.00  0.00    -0.526 OA
ATOM      8  H5  UNL d   1      -0.889   0.699   0.236  0.00  0.00     0.418 HD
ENDBRANCH   4   7
TORSDOF 1
ENDMDL
