MODEL 1
REMARK minimizedAffinity -3.23383713
REMARK minimizedRMSD -1
REMARK  1 active torsions:
REMARK  status: ('A' for Active; 'I' for Inactive)
REMARK    1  A    between atoms: C3_4  and  O_7 
ROOT
ATOM      1  C   UNL d   1      -0.891  -0.647   0.260  0.00  0.00    -0.033 A 
ATOM      2  C1  UNL d   1      -0.460  -1.949   0.524  0.00  0.00     0.039 A 
ATOM      3  C2  UNL d   1       0.868  -2.308   0.288  0.00  0.00    -0.080 A 
ATOM      4  C3  UNL d   1       1.754  -1.357  -0.211  0.00  0.00     0.150 A 
ATOM      5  C4  UNL d   1       1.333  -0.058  -0.473  0.00  0.00    -0.007 A 
ATOM      6  C5  UNL d   1       0.006   0.299  -0.237  0.00  0.00     0.039 A 
ENDROOT
BRANCH   4   7
ATOM      7  O   UNL d   1       3.059  -1.662  -0.463  0.00  0.00    -0.526 OA
ATOM      8  H5  UNL d   1       3.200  -2.603  -0.262  0.00  0.00     0.418 HD
ENDBRANCH   4   7
TORSDOF 1
ENDMDL
