MODEL 1
REMARK minimizedAffinity -3.48055077
REMARK minimizedRMSD -1
REMARK  1 active torsions:
REMARK  status: ('A' for Active; 'I' for Inactive)
REMARK    1  A    between atoms: C3_4  and  O_7 
ROOT
ATOM      1  C   UNL d   1       3.486  -0.491  -1.175  0.00  0.00    -0.033 A 
ATOM      2  C1  UNL d   1       3.409   0.210   0.031  0.00  0.00     0.039 A 
ATOM      3  C2  UNL d   1       2.176   0.385   0.662  0.00  0.00    -0.080 A 
ATOM      4  C3  UNL d   1       1.029  -0.145   0.079  0.00  0.00     0.150 A 
ATOM      5  C4  UNL d   1       1.098  -0.848  -1.120  0.00  0.00    -0.007 A 
ATOM      6  C5  UNL d   1       2.330  -1.021  -1.749  0.00  0.00     0.039 A 
ENDROOT
BRANCH   4   7
ATOM      7  O   UNL d   1      -0.198   0.004   0.655  0.00  0.00    -0.526 OA
ATOM      8  H5  UNL d   1      -0.096   0.535   1.462  0.00  0.00     0.418 HD
ENDBRANCH   4   7
TORSDOF 1
ENDMDL
