MODEL 1
REMARK minimizedAffinity -4.47761917
REMARK minimizedRMSD -1
REMARK  1 active torsions:
REMARK  status: ('A' for Active; 'I' for Inactive)
REMARK    1  A    between atoms: C3_4  and  O_7 
ROOT
ATOM      1  C   UNL d   1       2.251  -0.352  -1.793  0.00  0.00    -0.033 A 
ATOM      2  C1  UNL d   1       1.811  -1.272  -0.839  0.00  0.00     0.039 A 
ATOM      3  C2  UNL d   1       0.658  -1.011  -0.095  0.00  0.00    -0.080 A 
ATOM      4  C3  UNL d   1      -0.044   0.170  -0.314  0.00  0.00     0.150 A 
ATOM      5  C4  UNL d   1       0.386   1.089  -1.266  0.00  0.00    -0.007 A 
ATOM      6  C5  UNL d   1       1.537   0.828  -2.008  0.00  0.00     0.039 A 
ENDROOT
BRANCH   4   7
ATOM      7  O   UNL d   1      -1.172   0.470   0.391  0.00  0.00    -0.526 OA
ATOM      8  H5  UNL d   1      -1.332  -0.242   1.032  0.00  0.00     0.418 HD
ENDBRANCH   4   7
TORSDOF 1
ENDMDL
