MODEL 1
REMARK minimizedAffinity -5.52978611
REMARK minimizedRMSD -1
REMARK  1 active torsions:
REMARK  status: ('A' for Active; 'I' for Inactive)
REMARK    1  A    between atoms: C3_4  and  O_7 
ROOT
ATOM      1  C   UNL d   1       2.882   0.081  -2.313  0.00  0.00    -0.033 A 
ATOM      2  C1  UNL d   1       2.058   1.206  -2.369  0.00  0.00     0.039 A 
ATOM      3  C2  UNL d   1       1.079   1.405  -1.393  0.00  0.00    -0.080 A 
ATOM      4  C3  UNL d   1       0.935   0.474  -0.369  0.00  0.00     0.150 A 
ATOM      5  C4  UNL d   1       1.756  -0.647  -0.305  0.00  0.00    -0.007 A 
ATOM      6  C5  UNL d   1       2.733  -0.845  -1.280  0.00  0.00     0.039 A 
ENDROOT
BRANCH   4   7
ATOM      7  O   UNL d   1      -0.009   0.623   0.603  0.00  0.00    -0.526 OA
ATOM      8  H5  UNL d   1      -0.521   1.428   0.414  0.00  0.00     0.418 HD
ENDBRANCH   4   7
TORSDOF 1
ENDMDL
