MODEL 1
REMARK minimizedAffinity -5.70092487
REMARK minimizedRMSD -1
REMARK  1 active torsions:
REMARK  status: ('A' for Active; 'I' for Inactive)
REMARK    1  A    between atoms: C3_4  and  O_7 
ROOT
ATOM      1  C   UNL d   1       2.937  -0.380  -1.704  0.00  0.00    -0.033 A 
ATOM      2  C1  UNL d   1       2.456   0.923  -1.848  0.00  0.00     0.039 A 
ATOM      3  C2  UNL d   1       1.181   1.253  -1.386  0.00  0.00    -0.080 A 
ATOM      4  C3  UNL d   1       0.398   0.273  -0.781  0.00  0.00     0.150 A 
ATOM      5  C4  UNL d   1       0.873  -1.026  -0.631  0.00  0.00    -0.007 A 
ATOM      6  C5  UNL d   1       2.146  -1.354  -1.094  0.00  0.00     0.039 A 
ENDROOT
BRANCH   4   7
ATOM      7  O   UNL d   1      -0.855   0.546  -0.319  0.00  0.00    -0.526 OA
ATOM      8  H5  UNL d   1      -1.060   1.475  -0.517  0.00  0.00     0.418 HD
ENDBRANCH   4   7
TORSDOF 1
ENDMDL
