MODEL 1
REMARK minimizedAffinity -4.2293005
REMARK minimizedRMSD -1
REMARK  1 active torsions:
REMARK  status: ('A' for Active; 'I' for Inactive)
REMARK    1  A    between atoms: C3_4  and  O_7 
ROOT
ATOM      1  C   UNL d   1       1.016  -1.413  -0.129  0.00  0.00    -0.033 A 
ATOM      2  C1  UNL d   1       0.152  -0.322  -0.016  0.00  0.00     0.039 A 
ATOM      3  C2  UNL d   1       0.339   0.804  -0.819  0.00  0.00    -0.080 A 
ATOM      4  C3  UNL d   1       1.391   0.827  -1.730  0.00  0.00     0.150 A 
ATOM      5  C4  UNL d   1       2.253  -0.258  -1.851  0.00  0.00    -0.007 A 
ATOM      6  C5  UNL d   1       2.066  -1.382  -1.047  0.00  0.00     0.039 A 
ENDROOT
BRANCH   4   7
ATOM      7  O   UNL d   1       1.616   1.906  -2.532  0.00  0.00    -0.526 OA
ATOM      8  H5  UNL d   1       0.960   2.590  -2.319  0.00  0.00     0.418 HD
ENDBRANCH   4   7
TORSDOF 1
ENDMDL
