MODEL 1
REMARK minimizedAffinity -4.45704508
REMARK minimizedRMSD -1
REMARK  1 active torsions:
REMARK  status: ('A' for Active; 'I' for Inactive)
REMARK    1  A    between atoms: C3_4  and  O_7 
ROOT
ATOM      1  C   UNL d   1       2.407   0.363  -1.930  0.00  0.00    -0.033 A 
ATOM      2  C1  UNL d   1       2.016  -0.758  -1.195  0.00  0.00     0.039 A 
ATOM      3  C2  UNL d   1       0.829  -0.734  -0.460  0.00  0.00    -0.080 A 
ATOM      4  C3  UNL d   1       0.042   0.414  -0.470  0.00  0.00     0.150 A 
ATOM      5  C4  UNL d   1       0.423   1.533  -1.204  0.00  0.00    -0.007 A 
ATOM      6  C5  UNL d   1       1.610   1.508  -1.936  0.00  0.00     0.039 A 
ENDROOT
BRANCH   4   7
ATOM      7  O   UNL d   1      -1.122   0.486   0.235  0.00  0.00    -0.526 OA
ATOM      8  H5  UNL d   1      -1.243  -0.349   0.716  0.00  0.00     0.418 HD
ENDBRANCH   4   7
TORSDOF 1
ENDMDL
