MODEL 1
REMARK minimizedAffinity -4.12319088
REMARK minimizedRMSD -1
REMARK  1 active torsions:
REMARK  status: ('A' for Active; 'I' for Inactive)
REMARK    1  A    between atoms: C3_4  and  O_7 
ROOT
ATOM      1  C   UNL d   1      -0.301  -0.875   0.273  0.00  0.00    -0.033 A 
ATOM      2  C1  UNL d   1       0.332   0.347   0.038  0.00  0.00     0.039 A 
ATOM      3  C2  UNL d   1       1.657   0.376  -0.402  0.00  0.00    -0.080 A 
ATOM      4  C3  UNL d   1       2.336  -0.822  -0.603  0.00  0.00     0.150 A 
ATOM      5  C4  UNL d   1       1.711  -2.044  -0.373  0.00  0.00    -0.007 A 
ATOM      6  C5  UNL d   1       0.388  -2.070   0.067  0.00  0.00     0.039 A 
ENDROOT
BRANCH   4   7
ATOM      7  O   UNL d   1       3.632  -0.845  -1.026  0.00  0.00    -0.526 OA
ATOM      8  H5  UNL d   1       3.942   0.072  -1.115  0.00  0.00     0.418 HD
ENDBRANCH   4   7
TORSDOF 1
ENDMDL
