MODEL 1
REMARK minimizedAffinity -4.60034752
REMARK minimizedRMSD -1
REMARK  1 active torsions:
REMARK  status: ('A' for Active; 'I' for Inactive)
REMARK    1  A    between atoms: C3_4  and  O_7 
ROOT
ATOM      1  C   UNL d   1       2.710  -0.483  -1.898  0.00  0.00    -0.033 A 
ATOM      2  C1  UNL d   1       2.242  -1.451  -1.007  0.00  0.00     0.039 A 
ATOM      3  C2  UNL d   1       1.147  -1.175  -0.186  0.00  0.00    -0.080 A 
ATOM      4  C3  UNL d   1       0.529   0.070  -0.267  0.00  0.00     0.150 A 
ATOM      5  C4  UNL d   1       0.988   1.037  -1.155  0.00  0.00    -0.007 A 
ATOM      6  C5  UNL d   1       2.082   0.760  -1.973  0.00  0.00     0.039 A 
ENDROOT
BRANCH   4   7
ATOM      7  O   UNL d   1      -0.540   0.387   0.517  0.00  0.00    -0.526 OA
ATOM      8  H5  UNL d   1      -0.728  -0.367   1.101  0.00  0.00     0.418 HD
ENDBRANCH   4   7
TORSDOF 1
ENDMDL
