MODEL 1
REMARK minimizedAffinity -5.64957523
REMARK minimizedRMSD -1
REMARK  1 active torsions:
REMARK  status: ('A' for Active; 'I' for Inactive)
REMARK    1  A    between atoms: C3_4  and  O_7 
ROOT
ATOM      1  C   UNL d   1       1.866  -1.344  -1.168  0.00  0.00    -0.033 A 
ATOM      2  C1  UNL d   1       2.601  -0.554  -2.055  0.00  0.00     0.039 A 
ATOM      3  C2  UNL d   1       2.238   0.777  -2.272  0.00  0.00    -0.080 A 
ATOM      4  C3  UNL d   1       1.140   1.304  -1.597  0.00  0.00     0.150 A 
ATOM      5  C4  UNL d   1       0.406   0.524  -0.710  0.00  0.00    -0.007 A 
ATOM      6  C5  UNL d   1       0.770  -0.805  -0.495  0.00  0.00     0.039 A 
ENDROOT
BRANCH   4   7
ATOM      7  O   UNL d   1       0.745   2.596  -1.780  0.00  0.00    -0.526 OA
ATOM      8  H5  UNL d   1       1.327   3.005  -2.442  0.00  0.00     0.418 HD
ENDBRANCH   4   7
TORSDOF 1
ENDMDL
