MODEL 1
REMARK minimizedAffinity -4.32746363
REMARK minimizedRMSD -1
REMARK  1 active torsions:
REMARK  status: ('A' for Active; 'I' for Inactive)
REMARK    1  A    between atoms: C3_4  and  O_7 
ROOT
ATOM      1  C   UNL d   1       2.907   0.962  -2.696  0.00  0.00    -0.033 A 
ATOM      2  C1  UNL d   1       3.142  -0.038  -1.750  0.00  0.00     0.039 A 
ATOM      3  C2  UNL d   1       2.147  -0.382  -0.834  0.00  0.00    -0.080 A 
ATOM      4  C3  UNL d   1       0.922   0.279  -0.874  0.00  0.00     0.150 A 
ATOM      5  C4  UNL d   1       0.680   1.273  -1.816  0.00  0.00    -0.007 A 
ATOM      6  C5  UNL d   1       1.675   1.617  -2.730  0.00  0.00     0.039 A 
ENDROOT
BRANCH   4   7
ATOM      7  O   UNL d   1      -0.078  -0.020   0.003  0.00  0.00    -0.526 OA
ATOM      8  H5  UNL d   1       0.242  -0.705   0.613  0.00  0.00     0.418 HD
ENDBRANCH   4   7
TORSDOF 1
ENDMDL
