MODEL 1
REMARK minimizedAffinity 11.6181879
REMARK minimizedRMSD -1
REMARK  0 active torsions:
REMARK  status: ('A' for Active; 'I' for Inactive)
ROOT
ATOM      1  O1  BZF d   1       0.674   0.476   5.477  0.00  0.00    -0.204 OA
ATOM      2  C2  BZF d   1      -0.599   0.024   5.189  0.00  0.00     0.174 A 
ATOM      3  C3  BZF d   1      -0.679  -0.398   3.911  0.00  0.00    -0.012 A 
ATOM      4  C3A BZF d   1       0.650  -0.283   3.393  0.00  0.00    -0.107 A 
ATOM      5  C4  BZF d   1       1.213  -0.565   2.181  0.00  0.00     0.055 A 
ATOM      6  C5  BZF d   1       2.523  -0.269   1.977  0.00  0.00    -0.016 A 
ATOM      7  C6  BZF d   1       3.298   0.312   2.959  0.00  0.00     0.022 A 
ATOM      8  C7  BZF d   1       2.786   0.605   4.179  0.00  0.00     0.029 A 
ATOM      9  C7A BZF d   1       1.470   0.277   4.399  0.00  0.00     0.058 A 
ENDROOT
TORSDOF 0
ENDMDL
