MODEL 1
REMARK minimizedAffinity 19.7483997
REMARK minimizedRMSD -1
REMARK  0 active torsions:
REMARK  status: ('A' for Active; 'I' for Inactive)
ROOT
ATOM      1  O1  BZF d   1      -4.612   4.759  -0.723  0.00  0.00    -0.204 OA
ATOM      2  C2  BZF d   1      -5.062   3.456  -0.640  0.00  0.00     0.174 A 
ATOM      3  C3  BZF d   1      -4.458   2.681  -1.565  0.00  0.00    -0.012 A 
ATOM      4  C3A BZF d   1      -3.508   3.536  -2.208  0.00  0.00    -0.107 A 
ATOM      5  C4  BZF d   1      -2.593   3.341  -3.203  0.00  0.00     0.055 A 
ATOM      6  C5  BZF d   1      -1.869   4.400  -3.652  0.00  0.00    -0.016 A 
ATOM      7  C6  BZF d   1      -2.038   5.667  -3.132  0.00  0.00     0.022 A 
ATOM      8  C7  BZF d   1      -2.929   5.908  -2.140  0.00  0.00     0.029 A 
ATOM      9  C7A BZF d   1      -3.639   4.833  -1.662  0.00  0.00     0.058 A 
ENDROOT
TORSDOF 0
ENDMDL
