MODEL 1
REMARK minimizedAffinity 6.73616552
REMARK minimizedRMSD -1
REMARK  0 active torsions:
REMARK  status: ('A' for Active; 'I' for Inactive)
ROOT
ATOM      1  O1  BZF d   1      -4.543   3.616  -0.481  0.00  0.00    -0.204 OA
ATOM      2  C2  BZF d   1      -5.058   4.879  -0.700  0.00  0.00     0.174 A 
ATOM      3  C3  BZF d   1      -4.335   5.536  -1.629  0.00  0.00    -0.012 A 
ATOM      4  C3A BZF d   1      -3.358   4.593  -2.082  0.00  0.00    -0.107 A 
ATOM      5  C4  BZF d   1      -2.360   4.649  -3.012  0.00  0.00     0.055 A 
ATOM      6  C5  BZF d   1      -1.536   3.578  -3.161  0.00  0.00    -0.016 A 
ATOM      7  C6  BZF d   1      -1.679   2.440  -2.395  0.00  0.00     0.022 A 
ATOM      8  C7  BZF d   1      -2.657   2.336  -1.464  0.00  0.00     0.029 A 
ATOM      9  C7A BZF d   1      -3.512   3.403  -1.333  0.00  0.00     0.058 A 
ENDROOT
TORSDOF 0
ENDMDL
