MODEL 1
REMARK minimizedAffinity 23.0966778
REMARK minimizedRMSD -1
REMARK  0 active torsions:
REMARK  status: ('A' for Active; 'I' for Inactive)
ROOT
ATOM      1  O1  BZF d   1      -3.159   1.989  -2.128  0.00  0.00    -0.204 OA
ATOM      2  C2  BZF d   1      -2.033   1.847  -2.916  0.00  0.00     0.174 A 
ATOM      3  C3  BZF d   1      -1.528   3.052  -3.250  0.00  0.00    -0.012 A 
ATOM      4  C3A BZF d   1      -2.339   4.006  -2.557  0.00  0.00    -0.107 A 
ATOM      5  C4  BZF d   1      -2.324   5.369  -2.476  0.00  0.00     0.055 A 
ATOM      6  C5  BZF d   1      -3.300   5.999  -1.771  0.00  0.00    -0.016 A 
ATOM      7  C6  BZF d   1      -4.307   5.300  -1.140  0.00  0.00     0.022 A 
ATOM      8  C7  BZF d   1      -4.361   3.946  -1.188  0.00  0.00     0.029 A 
ATOM      9  C7A BZF d   1      -3.358   3.304  -1.871  0.00  0.00     0.058 A 
ENDROOT
TORSDOF 0
ENDMDL
