MODEL 1
REMARK minimizedAffinity 12.0732994
REMARK minimizedRMSD -1
REMARK  0 active torsions:
REMARK  status: ('A' for Active; 'I' for Inactive)
ROOT
ATOM      1  O1  BZF d   1      -1.823  -1.368   5.337  0.00  0.00    -0.204 OA
ATOM      2  C2  BZF d   1      -1.106  -0.391   6.000  0.00  0.00     0.174 A 
ATOM      3  C3  BZF d   1       0.012  -0.071   5.316  0.00  0.00    -0.012 A 
ATOM      4  C3A BZF d   1      -0.055  -0.834   4.108  0.00  0.00    -0.107 A 
ATOM      5  C4  BZF d   1       0.758  -0.936   3.015  0.00  0.00     0.055 A 
ATOM      6  C5  BZF d   1       0.444  -1.828   2.039  0.00  0.00    -0.016 A 
ATOM      7  C6  BZF d   1      -0.670  -2.636   2.125  0.00  0.00     0.022 A 
ATOM      8  C7  BZF d   1      -1.510  -2.567   3.187  0.00  0.00     0.029 A 
ATOM      9  C7A BZF d   1      -1.213  -1.644   4.159  0.00  0.00     0.058 A 
ENDROOT
TORSDOF 0
ENDMDL
