MODEL 1
REMARK minimizedAffinity 16.9168854
REMARK minimizedRMSD -1
REMARK  0 active torsions:
REMARK  status: ('A' for Active; 'I' for Inactive)
ROOT
ATOM      1  O1  BZF d   1       3.785   0.779   3.367  0.00  0.00    -0.204 OA
ATOM      2  C2  BZF d   1       4.393   0.503   2.158  0.00  0.00     0.174 A 
ATOM      3  C3  BZF d   1       3.594  -0.261   1.385  0.00  0.00    -0.012 A 
ATOM      4  C3A BZF d   1       2.376  -0.398   2.123  0.00  0.00    -0.107 A 
ATOM      5  C4  BZF d   1       1.193  -1.033   1.872  0.00  0.00     0.055 A 
ATOM      6  C5  BZF d   1       0.230  -1.037   2.831  0.00  0.00    -0.016 A 
ATOM      7  C6  BZF d   1       0.418  -0.423   4.052  0.00  0.00     0.022 A 
ATOM      8  C7  BZF d   1       1.573   0.224   4.344  0.00  0.00     0.029 A 
ATOM      9  C7A BZF d   1       2.535   0.258   3.365  0.00  0.00     0.058 A 
ENDROOT
TORSDOF 0
ENDMDL
