MODEL 1
REMARK minimizedAffinity 3.67483211
REMARK minimizedRMSD -1
REMARK  0 active torsions:
REMARK  status: ('A' for Active; 'I' for Inactive)
ROOT
ATOM      1  O1  BZF d   1      -2.308  -2.937   5.999  0.00  0.00    -0.204 OA
ATOM      2  C2  BZF d   1      -2.726  -4.071   5.329  0.00  0.00     0.174 A 
ATOM      3  C3  BZF d   1      -2.022  -4.240   4.191  0.00  0.00    -0.012 A 
ATOM      4  C3A BZF d   1      -1.045  -3.195   4.193  0.00  0.00    -0.107 A 
ATOM      5  C4  BZF d   1      -0.043  -2.845   3.334  0.00  0.00     0.055 A 
ATOM      6  C5  BZF d   1       0.685  -1.726   3.590  0.00  0.00    -0.016 A 
ATOM      7  C6  BZF d   1       0.436  -0.934   4.691  0.00  0.00     0.022 A 
ATOM      8  C7  BZF d   1      -0.544  -1.244   5.575  0.00  0.00     0.029 A 
ATOM      9  C7A BZF d   1      -1.260  -2.391   5.336  0.00  0.00     0.058 A 
ENDROOT
TORSDOF 0
ENDMDL
