MODEL 1
REMARK minimizedAffinity 9.45147228
REMARK minimizedRMSD -1
REMARK  0 active torsions:
REMARK  status: ('A' for Active; 'I' for Inactive)
ROOT
ATOM      1  O1  BZF d   1      -3.235   2.866  -0.755  0.00  0.00    -0.204 OA
ATOM      2  C2  BZF d   1      -3.695   2.745  -2.052  0.00  0.00     0.174 A 
ATOM      3  C3  BZF d   1      -2.667   2.729  -2.925  0.00  0.00    -0.012 A 
ATOM      4  C3A BZF d   1      -1.487   2.755  -2.116  0.00  0.00    -0.107 A 
ATOM      5  C4  BZF d   1      -0.152   2.740  -2.403  0.00  0.00     0.055 A 
ATOM      6  C5  BZF d   1       0.743   2.850  -1.387  0.00  0.00    -0.016 A 
ATOM      7  C6  BZF d   1       0.340   2.980  -0.075  0.00  0.00     0.022 A 
ATOM      8  C7  BZF d   1      -0.974   2.995   0.260  0.00  0.00     0.029 A 
ATOM      9  C7A BZF d   1      -1.881   2.851  -0.762  0.00  0.00     0.058 A 
ENDROOT
TORSDOF 0
ENDMDL
