MODEL 1
REMARK minimizedAffinity 16.4284649
REMARK minimizedRMSD -1
REMARK  0 active torsions:
REMARK  status: ('A' for Active; 'I' for Inactive)
ROOT
ATOM      1  O1  BZF d   1      -1.901  -3.085   1.348  0.00  0.00    -0.204 OA
ATOM      2  C2  BZF d   1      -2.960  -3.188   2.229  0.00  0.00     0.174 A 
ATOM      3  C3  BZF d   1      -2.714  -2.491   3.357  0.00  0.00    -0.012 A 
ATOM      4  C3A BZF d   1      -1.459  -1.841   3.131  0.00  0.00    -0.107 A 
ATOM      5  C4  BZF d   1      -0.693  -0.994   3.880  0.00  0.00     0.055 A 
ATOM      6  C5  BZF d   1       0.515  -0.596   3.399  0.00  0.00    -0.016 A 
ATOM      7  C6  BZF d   1       0.988  -1.030   2.178  0.00  0.00     0.022 A 
ATOM      8  C7  BZF d   1       0.261  -1.866   1.397  0.00  0.00     0.029 A 
ATOM      9  C7A BZF d   1      -0.974  -2.243   1.866  0.00  0.00     0.058 A 
ENDROOT
TORSDOF 0
ENDMDL
