MODEL 1
REMARK minimizedAffinity 6.1646986
REMARK minimizedRMSD -1
REMARK  0 active torsions:
REMARK  status: ('A' for Active; 'I' for Inactive)
ROOT
ATOM      1  O1  BZF d   1      -2.115   3.734  -5.320  0.00  0.00    -0.204 OA
ATOM      2  C2  BZF d   1      -1.825   4.928  -5.953  0.00  0.00     0.174 A 
ATOM      3  C3  BZF d   1      -2.143   5.976  -5.167  0.00  0.00    -0.012 A 
ATOM      4  C3A BZF d   1      -2.579   5.401  -3.931  0.00  0.00    -0.107 A 
ATOM      5  C4  BZF d   1      -3.012   5.932  -2.749  0.00  0.00     0.055 A 
ATOM      6  C5  BZF d   1      -3.433   5.096  -1.765  0.00  0.00    -0.016 A 
ATOM      7  C6  BZF d   1      -3.440   3.727  -1.929  0.00  0.00     0.022 A 
ATOM      8  C7  BZF d   1      -3.016   3.153  -3.081  0.00  0.00     0.029 A 
ATOM      9  C7A BZF d   1      -2.558   3.994  -4.066  0.00  0.00     0.058 A 
ENDROOT
TORSDOF 0
ENDMDL
