MODEL 1
REMARK minimizedAffinity 7.74018574
REMARK minimizedRMSD -1
REMARK  0 active torsions:
REMARK  status: ('A' for Active; 'I' for Inactive)
ROOT
ATOM      1  O1  BZF d   1       1.388   5.047   0.696  0.00  0.00    -0.204 OA
ATOM      2  C2  BZF d   1       1.878   6.000  -0.176  0.00  0.00     0.174 A 
ATOM      3  C3  BZF d   1       1.553   5.695  -1.449  0.00  0.00    -0.012 A 
ATOM      4  C3A BZF d   1       0.736   4.524  -1.359  0.00  0.00    -0.107 A 
ATOM      5  C4  BZF d   1       0.095   3.753  -2.286  0.00  0.00     0.055 A 
ATOM      6  C5  BZF d   1      -0.560   2.635  -1.876  0.00  0.00    -0.016 A 
ATOM      7  C6  BZF d   1      -0.590   2.256  -0.550  0.00  0.00     0.022 A 
ATOM      8  C7  BZF d   1       0.027   2.992   0.407  0.00  0.00     0.029 A 
ATOM      9  C7A BZF d   1       0.662   4.140   0.000  0.00  0.00     0.058 A 
ENDROOT
TORSDOF 0
ENDMDL
