MODEL 1
REMARK minimizedAffinity 13.0371943
REMARK minimizedRMSD -1
REMARK  0 active torsions:
REMARK  status: ('A' for Active; 'I' for Inactive)
ROOT
ATOM      1  O1  BZF d   1       1.143   0.318   4.987  0.00  0.00    -0.204 OA
ATOM      2  C2  BZF d   1      -0.110  -0.206   4.735  0.00  0.00     0.174 A 
ATOM      3  C3  BZF d   1      -0.188  -0.674   3.473  0.00  0.00    -0.012 A 
ATOM      4  C3A BZF d   1       1.126  -0.512   2.930  0.00  0.00    -0.107 A 
ATOM      5  C4  BZF d   1       1.685  -0.807   1.719  0.00  0.00     0.055 A 
ATOM      6  C5  BZF d   1       2.976  -0.454   1.484  0.00  0.00    -0.016 A 
ATOM      7  C6  BZF d   1       3.735   0.197   2.433  0.00  0.00     0.022 A 
ATOM      8  C7  BZF d   1       3.226   0.506   3.651  0.00  0.00     0.029 A 
ATOM      9  C7A BZF d   1       1.932   0.122   3.903  0.00  0.00     0.058 A 
ENDROOT
TORSDOF 0
ENDMDL
