MODEL 1
REMARK minimizedAffinity 6.40410423
REMARK minimizedRMSD -1
REMARK  0 active torsions:
REMARK  status: ('A' for Active; 'I' for Inactive)
ROOT
ATOM      1  O1  BZF d   1      -0.131   4.825   1.113  0.00  0.00    -0.204 OA
ATOM      2  C2  BZF d   1       0.517   5.998   0.779  0.00  0.00     0.174 A 
ATOM      3  C3  BZF d   1       1.215   5.850  -0.365  0.00  0.00    -0.012 A 
ATOM      4  C3A BZF d   1       0.914   4.528  -0.821  0.00  0.00    -0.107 A 
ATOM      5  C4  BZF d   1       1.294   3.802  -1.914  0.00  0.00     0.055 A 
ATOM      6  C5  BZF d   1       0.881   2.513  -2.027  0.00  0.00    -0.016 A 
ATOM      7  C6  BZF d   1       0.093   1.916  -1.064  0.00  0.00     0.022 A 
ATOM      8  C7  BZF d   1      -0.313   2.597   0.035  0.00  0.00     0.029 A 
ATOM      9  C7A BZF d   1       0.075   3.910   0.135  0.00  0.00     0.058 A 
ENDROOT
TORSDOF 0
ENDMDL
