MODEL 1
REMARK minimizedAffinity 21.082552
REMARK minimizedRMSD -1
REMARK  0 active torsions:
REMARK  status: ('A' for Active; 'I' for Inactive)
ROOT
ATOM      1  O1  BZF d   1       4.606  -0.956  -1.908  0.00  0.00    -0.204 OA
ATOM      2  C2  BZF d   1       4.584  -0.008  -2.913  0.00  0.00     0.174 A 
ATOM      3  C3  BZF d   1       4.238   1.200  -2.423  0.00  0.00    -0.012 A 
ATOM      4  C3A BZF d   1       4.121   1.013  -1.009  0.00  0.00    -0.107 A 
ATOM      5  C4  BZF d   1       3.817   1.850   0.027  0.00  0.00     0.055 A 
ATOM      6  C5  BZF d   1       3.714   1.337   1.281  0.00  0.00    -0.016 A 
ATOM      7  C6  BZF d   1       3.903  -0.005   1.535  0.00  0.00     0.022 A 
ATOM      8  C7  BZF d   1       4.211  -0.873   0.541  0.00  0.00     0.029 A 
ATOM      9  C7A BZF d   1       4.349  -0.353  -0.723  0.00  0.00     0.058 A 
ENDROOT
TORSDOF 0
ENDMDL
