MODEL 1
REMARK minimizedAffinity 13.2658367
REMARK minimizedRMSD -1
REMARK  0 active torsions:
REMARK  status: ('A' for Active; 'I' for Inactive)
ROOT
ATOM      1  O1  BZF d   1       1.188   4.916   0.734  0.00  0.00    -0.204 OA
ATOM      2  C2  BZF d   1       1.272   5.998  -0.120  0.00  0.00     0.174 A 
ATOM      3  C3  BZF d   1       0.814   5.677  -1.347  0.00  0.00    -0.012 A 
ATOM      4  C3A BZF d   1       0.333   4.334  -1.229  0.00  0.00    -0.107 A 
ATOM      5  C4  BZF d   1      -0.255   3.467  -2.105  0.00  0.00     0.055 A 
ATOM      6  C5  BZF d   1      -0.538   2.203  -1.694  0.00  0.00    -0.016 A 
ATOM      7  C6  BZF d   1      -0.243   1.772  -0.417  0.00  0.00     0.022 A 
ATOM      8  C7  BZF d   1       0.335   2.598   0.489  0.00  0.00     0.029 A 
ATOM      9  C7A BZF d   1       0.592   3.886   0.086  0.00  0.00     0.058 A 
ENDROOT
TORSDOF 0
ENDMDL
