MODEL 1
REMARK minimizedAffinity 5.09259796
REMARK minimizedRMSD -1
REMARK  0 active torsions:
REMARK  status: ('A' for Active; 'I' for Inactive)
ROOT
ATOM      1  O1  BZF d   1      -0.443  -0.428   4.737  0.00  0.00    -0.204 OA
ATOM      2  C2  BZF d   1      -1.469  -0.818   5.577  0.00  0.00     0.174 A 
ATOM      3  C3  BZF d   1      -2.208  -1.793   5.010  0.00  0.00    -0.012 A 
ATOM      4  C3A BZF d   1      -1.551  -2.092   3.774  0.00  0.00    -0.107 A 
ATOM      5  C4  BZF d   1      -1.799  -2.985   2.771  0.00  0.00     0.055 A 
ATOM      6  C5  BZF d   1      -1.008  -2.974   1.666  0.00  0.00    -0.016 A 
ATOM      7  C6  BZF d   1       0.034  -2.081   1.528  0.00  0.00     0.022 A 
ATOM      8  C7  BZF d   1       0.322  -1.179   2.499  0.00  0.00     0.029 A 
ATOM      9  C7A BZF d   1      -0.455  -1.211   3.631  0.00  0.00     0.058 A 
ENDROOT
TORSDOF 0
ENDMDL
