MODEL 1
REMARK minimizedAffinity 5.8437748
REMARK minimizedRMSD -1
REMARK  0 active torsions:
REMARK  status: ('A' for Active; 'I' for Inactive)
ROOT
ATOM      1  O1  BZF d   1       0.794   5.125   0.880  0.00  0.00    -0.204 OA
ATOM      2  C2  BZF d   1       1.411   5.989  -0.004  0.00  0.00     0.174 A 
ATOM      3  C3  BZF d   1       1.411   5.478  -1.252  0.00  0.00    -0.012 A 
ATOM      4  C3A BZF d   1       0.672   4.256  -1.158  0.00  0.00    -0.107 A 
ATOM      5  C4  BZF d   1       0.314   3.303  -2.068  0.00  0.00     0.055 A 
ATOM      6  C5  BZF d   1      -0.346   2.195  -1.639  0.00  0.00    -0.016 A 
ATOM      7  C6  BZF d   1      -0.659   2.006  -0.309  0.00  0.00     0.022 A 
ATOM      8  C7  BZF d   1      -0.329   2.926   0.630  0.00  0.00     0.029 A 
ATOM      9  C7A BZF d   1       0.309   4.062   0.195  0.00  0.00     0.058 A 
ENDROOT
TORSDOF 0
ENDMDL
