MODEL 1
REMARK minimizedAffinity 10.6869078
REMARK minimizedRMSD -1
REMARK  0 active torsions:
REMARK  status: ('A' for Active; 'I' for Inactive)
ROOT
ATOM      1  O1  BZF d   1      -2.705  -4.183  -0.807  0.00  0.00    -0.204 OA
ATOM      2  C2  BZF d   1      -3.140  -5.240  -0.032  0.00  0.00     0.174 A 
ATOM      3  C3  BZF d   1      -2.425  -5.324   1.108  0.00  0.00    -0.012 A 
ATOM      4  C3A BZF d   1      -1.544  -4.197   1.083  0.00  0.00    -0.107 A 
ATOM      5  C4  BZF d   1      -0.597  -3.726   1.947  0.00  0.00     0.055 A 
ATOM      6  C5  BZF d   1       0.139  -2.640   1.593  0.00  0.00    -0.016 A 
ATOM      7  C6  BZF d   1      -0.041  -2.004   0.382  0.00  0.00     0.022 A 
ATOM      8  C7  BZF d   1      -0.972  -2.432  -0.506  0.00  0.00     0.029 A 
ATOM      9  C7A BZF d   1      -1.740  -3.509  -0.137  0.00  0.00     0.058 A 
ENDROOT
TORSDOF 0
ENDMDL
