MODEL 1
REMARK minimizedAffinity 12.0394096
REMARK minimizedRMSD -1
REMARK  0 active torsions:
REMARK  status: ('A' for Active; 'I' for Inactive)
ROOT
ATOM      1  O1  BZF d   1       0.063  -0.303   4.591  0.00  0.00    -0.204 OA
ATOM      2  C2  BZF d   1      -0.966  -0.399   5.507  0.00  0.00     0.174 A 
ATOM      3  C3  BZF d   1      -1.890  -1.291   5.096  0.00  0.00    -0.012 A 
ATOM      4  C3A BZF d   1      -1.363  -1.851   3.889  0.00  0.00    -0.107 A 
ATOM      5  C4  BZF d   1      -1.814  -2.802   3.020  0.00  0.00     0.055 A 
ATOM      6  C5  BZF d   1      -1.094  -3.066   1.898  0.00  0.00    -0.016 A 
ATOM      7  C6  BZF d   1       0.076  -2.395   1.611  0.00  0.00     0.022 A 
ATOM      8  C7  BZF d   1       0.566  -1.446   2.446  0.00  0.00     0.029 A 
ATOM      9  C7A BZF d   1      -0.141  -1.201   3.597  0.00  0.00     0.058 A 
ENDROOT
TORSDOF 0
ENDMDL
