MODEL 1
REMARK minimizedAffinity 16.6902828
REMARK minimizedRMSD -1
REMARK  0 active torsions:
REMARK  status: ('A' for Active; 'I' for Inactive)
ROOT
ATOM      1  C   UNL d   1       5.123   1.502  -1.005  0.00  0.00     0.023 A 
ATOM      2  C1  UNL d   1       5.993   2.486  -1.475  0.00  0.00     0.003 A 
ATOM      3  C2  UNL d   1       5.940   3.778  -0.946  0.00  0.00     0.048 A 
ATOM      4  C3  UNL d   1       5.014   4.078   0.052  0.00  0.00     0.023 A 
ATOM      5  C4  UNL d   1       4.142   3.097   0.526  0.00  0.00     0.048 A 
ATOM      6  C5  UNL d   1       4.199   1.807  -0.006  0.00  0.00     0.003 A 
ATOM      7  I   UNL d   1       4.933   6.000   0.840  0.00  0.00    -0.146 I 
ENDROOT
TORSDOF 0
ENDMDL
