MODEL 1
REMARK minimizedAffinity 6.48342705
REMARK minimizedRMSD -1
REMARK  0 active torsions:
REMARK  status: ('A' for Active; 'I' for Inactive)
ROOT
ATOM      1  C   UNL d   1      -1.787  -3.122   4.692  0.00  0.00     0.023 A 
ATOM      2  C1  UNL d   1      -1.212  -2.255   5.621  0.00  0.00     0.003 A 
ATOM      3  C2  UNL d   1      -1.882  -1.089   5.997  0.00  0.00     0.048 A 
ATOM      4  C3  UNL d   1      -3.127  -0.797   5.441  0.00  0.00     0.023 A 
ATOM      5  C4  UNL d   1      -3.706  -1.662   4.512  0.00  0.00     0.048 A 
ATOM      6  C5  UNL d   1      -3.032  -2.826   4.138  0.00  0.00     0.003 A 
ATOM      7  I   UNL d   1      -4.126   0.938   6.000  0.00  0.00    -0.146 I 
ENDROOT
TORSDOF 0
ENDMDL
