MODEL 1
REMARK minimizedAffinity 8.82857609
REMARK minimizedRMSD -1
REMARK  0 active torsions:
REMARK  status: ('A' for Active; 'I' for Inactive)
ROOT
ATOM      1  C   UNL d   1      -5.563   1.689   6.000  0.00  0.00     0.023 A 
ATOM      2  C1  UNL d   1      -5.971   0.408   5.629  0.00  0.00     0.003 A 
ATOM      3  C2  UNL d   1      -5.024  -0.547   5.253  0.00  0.00     0.048 A 
ATOM      4  C3  UNL d   1      -3.670  -0.213   5.252  0.00  0.00     0.023 A 
ATOM      5  C4  UNL d   1      -3.257   1.067   5.623  0.00  0.00     0.048 A 
ATOM      6  C5  UNL d   1      -4.208   2.018   5.997  0.00  0.00     0.003 A 
ATOM      7  I   UNL d   1      -2.257  -1.632   4.693  0.00  0.00    -0.146 I 
ENDROOT
TORSDOF 0
ENDMDL
