MODEL 1
REMARK minimizedAffinity 7.99818325
REMARK minimizedRMSD -1
REMARK  0 active torsions:
REMARK  status: ('A' for Active; 'I' for Inactive)
ROOT
ATOM      1  C   UNL d   1       6.000   0.383  -4.184  0.00  0.00     0.023 A 
ATOM      2  C1  UNL d   1       5.182   1.504  -4.037  0.00  0.00     0.003 A 
ATOM      3  C2  UNL d   1       3.957   1.394  -3.375  0.00  0.00     0.048 A 
ATOM      4  C3  UNL d   1       3.557   0.161  -2.861  0.00  0.00     0.023 A 
ATOM      5  C4  UNL d   1       4.373  -0.963  -3.006  0.00  0.00     0.048 A 
ATOM      6  C5  UNL d   1       5.596  -0.849  -3.669  0.00  0.00     0.003 A 
ATOM      7  I   UNL d   1       1.735  -0.006  -1.876  0.00  0.00    -0.146 I 
ENDROOT
TORSDOF 0
ENDMDL
