MODEL 1
REMARK minimizedAffinity 10.307848
REMARK minimizedRMSD -1
REMARK  0 active torsions:
REMARK  status: ('A' for Active; 'I' for Inactive)
ROOT
ATOM      1  C   UNL d   1      -5.097   1.680   5.960  0.00  0.00     0.023 A 
ATOM      2  C1  UNL d   1      -5.524   0.353   6.000  0.00  0.00     0.003 A 
ATOM      3  C2  UNL d   1      -4.608  -0.683   5.807  0.00  0.00     0.048 A 
ATOM      4  C3  UNL d   1      -3.266  -0.385   5.577  0.00  0.00     0.023 A 
ATOM      5  C4  UNL d   1      -2.833   0.942   5.537  0.00  0.00     0.048 A 
ATOM      6  C5  UNL d   1      -3.753   1.974   5.728  0.00  0.00     0.003 A 
ATOM      7  I   UNL d   1      -1.900  -1.925   5.291  0.00  0.00    -0.146 I 
ENDROOT
TORSDOF 0
ENDMDL
