MODEL 1
REMARK minimizedAffinity 5.71763277
REMARK minimizedRMSD -1
REMARK  0 active torsions:
REMARK  status: ('A' for Active; 'I' for Inactive)
ROOT
ATOM      1  C   UNL d   1       4.299   3.982   0.327  0.00  0.00     0.023 A 
ATOM      2  C1  UNL d   1       3.559   3.036   1.036  0.00  0.00     0.003 A 
ATOM      3  C2  UNL d   1       2.962   1.968   0.363  0.00  0.00     0.048 A 
ATOM      4  C3  UNL d   1       3.110   1.851  -1.018  0.00  0.00     0.023 A 
ATOM      5  C4  UNL d   1       3.850   2.795  -1.732  0.00  0.00     0.048 A 
ATOM      6  C5  UNL d   1       4.444   3.862  -1.055  0.00  0.00     0.003 A 
ATOM      7  I   UNL d   1       2.223   0.262  -2.022  0.00  0.00    -0.146 I 
ENDROOT
TORSDOF 0
ENDMDL
