MODEL 1
REMARK minimizedAffinity 9.36912632
REMARK minimizedRMSD -1
REMARK  0 active torsions:
REMARK  status: ('A' for Active; 'I' for Inactive)
ROOT
ATOM      1  C   UNL d   1       0.216   0.573  -3.398  0.00  0.00     0.023 A 
ATOM      2  C1  UNL d   1       0.787  -0.187  -2.377  0.00  0.00     0.003 A 
ATOM      3  C2  UNL d   1       1.696   0.399  -1.494  0.00  0.00     0.048 A 
ATOM      4  C3  UNL d   1       2.030   1.745  -1.637  0.00  0.00     0.023 A 
ATOM      5  C4  UNL d   1       1.461   2.510  -2.657  0.00  0.00     0.048 A 
ATOM      6  C5  UNL d   1       0.553   1.920  -3.538  0.00  0.00     0.003 A 
ATOM      7  I   UNL d   1       3.383   2.619  -0.323  0.00  0.00    -0.146 I 
ENDROOT
TORSDOF 0
ENDMDL
