MODEL 1
REMARK minimizedAffinity 14.6622105
REMARK minimizedRMSD -1
REMARK  0 active torsions:
REMARK  status: ('A' for Active; 'I' for Inactive)
ROOT
ATOM      1  C   UNL d   1      -0.775  -2.164   0.438  0.00  0.00     0.023 A 
ATOM      2  C1  UNL d   1      -1.686  -1.568  -0.434  0.00  0.00     0.003 A 
ATOM      3  C2  UNL d   1      -3.058  -1.725  -0.228  0.00  0.00     0.048 A 
ATOM      4  C3  UNL d   1      -3.513  -2.478   0.853  0.00  0.00     0.023 A 
ATOM      5  C4  UNL d   1      -2.605  -3.076   1.730  0.00  0.00     0.048 A 
ATOM      6  C5  UNL d   1      -1.234  -2.917   1.519  0.00  0.00     0.003 A 
ATOM      7  I   UNL d   1      -5.554  -2.713   1.163  0.00  0.00    -0.146 I 
ENDROOT
TORSDOF 0
ENDMDL
