MODEL 1
REMARK minimizedAffinity 7.12755489
REMARK minimizedRMSD -1
REMARK  0 active torsions:
REMARK  status: ('A' for Active; 'I' for Inactive)
ROOT
ATOM      1  C   UNL d   1      -0.179  -4.837   0.386  0.00  0.00     0.023 A 
ATOM      2  C1  UNL d   1      -0.263  -3.451   0.248  0.00  0.00     0.003 A 
ATOM      3  C2  UNL d   1      -0.902  -2.688   1.228  0.00  0.00     0.048 A 
ATOM      4  C3  UNL d   1      -1.454  -3.317   2.343  0.00  0.00     0.023 A 
ATOM      5  C4  UNL d   1      -1.371  -4.703   2.486  0.00  0.00     0.048 A 
ATOM      6  C5  UNL d   1      -0.732  -5.462   1.504  0.00  0.00     0.003 A 
ATOM      7  I   UNL d   1      -2.406  -2.184   3.803  0.00  0.00    -0.146 I 
ENDROOT
TORSDOF 0
ENDMDL
