MODEL 1
REMARK minimizedAffinity 6.80315638
REMARK minimizedRMSD -1
REMARK  0 active torsions:
REMARK  status: ('A' for Active; 'I' for Inactive)
ROOT
ATOM      1  C   UNL d   1      -5.564   1.511   6.000  0.00  0.00     0.023 A 
ATOM      2  C1  UNL d   1      -5.742   0.135   5.849  0.00  0.00     0.003 A 
ATOM      3  C2  UNL d   1      -4.635  -0.696   5.666  0.00  0.00     0.048 A 
ATOM      4  C3  UNL d   1      -3.354  -0.146   5.635  0.00  0.00     0.023 A 
ATOM      5  C4  UNL d   1      -3.172   1.229   5.785  0.00  0.00     0.048 A 
ATOM      6  C5  UNL d   1      -4.281   2.057   5.968  0.00  0.00     0.003 A 
ATOM      7  I   UNL d   1      -1.706  -1.383   5.362  0.00  0.00    -0.146 I 
ENDROOT
TORSDOF 0
ENDMDL
