MODEL 1
REMARK minimizedAffinity 12.5369377
REMARK minimizedRMSD -1
REMARK  0 active torsions:
REMARK  status: ('A' for Active; 'I' for Inactive)
ROOT
ATOM      1  C   UNL d   1      -5.999   5.630  -5.313  0.00  0.00     0.023 A 
ATOM      2  C1  UNL d   1      -5.931   4.396  -5.960  0.00  0.00     0.003 A 
ATOM      3  C2  UNL d   1      -4.867   3.530  -5.703  0.00  0.00     0.048 A 
ATOM      4  C3  UNL d   1      -3.874   3.903  -4.798  0.00  0.00     0.023 A 
ATOM      5  C4  UNL d   1      -3.938   5.136  -4.147  0.00  0.00     0.048 A 
ATOM      6  C5  UNL d   1      -5.004   6.000  -4.407  0.00  0.00     0.003 A 
ATOM      7  I   UNL d   1      -2.289   2.614  -4.414  0.00  0.00    -0.146 I 
ENDROOT
TORSDOF 0
ENDMDL
