MODEL 1
REMARK minimizedAffinity 17.5399284
REMARK minimizedRMSD -1
REMARK  0 active torsions:
REMARK  status: ('A' for Active; 'I' for Inactive)
ROOT
ATOM      1  C   UNL d   1      -3.147   2.053  -4.804  0.00  0.00     0.023 A 
ATOM      2  C1  UNL d   1      -2.985   3.188  -4.008  0.00  0.00     0.003 A 
ATOM      3  C2  UNL d   1      -3.803   4.302  -4.205  0.00  0.00     0.048 A 
ATOM      4  C3  UNL d   1      -4.781   4.275  -5.199  0.00  0.00     0.023 A 
ATOM      5  C4  UNL d   1      -4.946   3.142  -5.997  0.00  0.00     0.048 A 
ATOM      6  C5  UNL d   1      -4.126   2.031  -5.797  0.00  0.00     0.003 A 
ATOM      7  I   UNL d   1      -5.999   5.933  -5.494  0.00  0.00    -0.146 I 
ENDROOT
TORSDOF 0
ENDMDL
