MODEL 1
REMARK minimizedAffinity 13.498436
REMARK minimizedRMSD -1
REMARK  0 active torsions:
REMARK  status: ('A' for Active; 'I' for Inactive)
ROOT
ATOM      1  C   UNL d   1       5.709   5.156  -0.382  0.00  0.00     0.023 A 
ATOM      2  C1  UNL d   1       6.000   4.017  -1.134  0.00  0.00     0.003 A 
ATOM      3  C2  UNL d   1       5.119   2.934  -1.132  0.00  0.00     0.048 A 
ATOM      4  C3  UNL d   1       3.948   2.996  -0.378  0.00  0.00     0.023 A 
ATOM      5  C4  UNL d   1       3.652   4.133   0.376  0.00  0.00     0.048 A 
ATOM      6  C5  UNL d   1       4.537   5.214   0.372  0.00  0.00     0.003 A 
ATOM      7  I   UNL d   1       2.635   1.385  -0.374  0.00  0.00    -0.146 I 
ENDROOT
TORSDOF 0
ENDMDL
