MODEL 1
REMARK minimizedAffinity 6.22763157
REMARK minimizedRMSD -1
REMARK  0 active torsions:
REMARK  status: ('A' for Active; 'I' for Inactive)
ROOT
ATOM      1  C   UNL d   1      -4.615   0.787   5.988  0.00  0.00     0.023 A 
ATOM      2  C1  UNL d   1      -5.816   1.497   5.981  0.00  0.00     0.003 A 
ATOM      3  C2  UNL d   1      -5.803   2.894   5.985  0.00  0.00     0.048 A 
ATOM      4  C3  UNL d   1      -4.586   3.574   5.994  0.00  0.00     0.023 A 
ATOM      5  C4  UNL d   1      -3.382   2.868   6.000  0.00  0.00     0.048 A 
ATOM      6  C5  UNL d   1      -3.400   1.472   5.997  0.00  0.00     0.003 A 
ATOM      7  I   UNL d   1      -4.564   5.652   6.000  0.00  0.00    -0.146 I 
ENDROOT
TORSDOF 0
ENDMDL
