MODEL 1
REMARK minimizedAffinity 9.45273399
REMARK minimizedRMSD -1
REMARK  0 active torsions:
REMARK  status: ('A' for Active; 'I' for Inactive)
ROOT
ATOM      1  C   UNL d   1      -5.100   1.902   5.999  0.00  0.00     0.023 A 
ATOM      2  C1  UNL d   1      -5.777   0.771   5.545  0.00  0.00     0.003 A 
ATOM      3  C2  UNL d   1      -5.060  -0.338   5.090  0.00  0.00     0.048 A 
ATOM      4  C3  UNL d   1      -3.666  -0.308   5.092  0.00  0.00     0.023 A 
ATOM      5  C4  UNL d   1      -2.984   0.822   5.546  0.00  0.00     0.048 A 
ATOM      6  C5  UNL d   1      -3.705   1.928   5.999  0.00  0.00     0.003 A 
ATOM      7  I   UNL d   1      -2.597  -1.957   4.414  0.00  0.00    -0.146 I 
ENDROOT
TORSDOF 0
ENDMDL
