MODEL 1
REMARK minimizedAffinity 0.46106723
REMARK minimizedRMSD -1
REMARK  0 active torsions:
REMARK  status: ('A' for Active; 'I' for Inactive)
ROOT
ATOM      1  C   UNL d   1      -5.591   4.236   1.475  0.00  0.00     0.023 A 
ATOM      2  C1  UNL d   1      -4.663   3.487   0.751  0.00  0.00     0.003 A 
ATOM      3  C2  UNL d   1      -4.131   3.990  -0.437  0.00  0.00     0.048 A 
ATOM      4  C3  UNL d   1      -4.530   5.245  -0.896  0.00  0.00     0.023 A 
ATOM      5  C4  UNL d   1      -5.457   5.999  -0.176  0.00  0.00     0.048 A 
ATOM      6  C5  UNL d   1      -5.988   5.491   1.012  0.00  0.00     0.003 A 
ATOM      7  I   UNL d   1      -3.739   5.997  -2.665  0.00  0.00    -0.146 I 
ENDROOT
TORSDOF 0
ENDMDL
