MODEL 1
REMARK minimizedAffinity 12.1690969
REMARK minimizedRMSD -1
REMARK  0 active torsions:
REMARK  status: ('A' for Active; 'I' for Inactive)
ROOT
ATOM      1  C   UNL d   1      -0.063  -5.500   0.055  0.00  0.00     0.023 A 
ATOM      2  C1  UNL d   1       0.019  -5.591  -1.335  0.00  0.00     0.003 A 
ATOM      3  C2  UNL d   1       0.040  -4.431  -2.112  0.00  0.00     0.048 A 
ATOM      4  C3  UNL d   1      -0.022  -3.183  -1.493  0.00  0.00     0.023 A 
ATOM      5  C4  UNL d   1      -0.103  -3.087  -0.103  0.00  0.00     0.048 A 
ATOM      6  C5  UNL d   1      -0.124  -4.249   0.670  0.00  0.00     0.003 A 
ATOM      7  I   UNL d   1       0.009  -1.455  -2.648  0.00  0.00    -0.146 I 
ENDROOT
TORSDOF 0
ENDMDL
