MODEL 1
REMARK minimizedAffinity 9.94878292
REMARK minimizedRMSD -1
REMARK  0 active torsions:
REMARK  status: ('A' for Active; 'I' for Inactive)
ROOT
ATOM      1  C   UNL d   1      -1.255  -1.661  -1.168  0.00  0.00     0.023 A 
ATOM      2  C1  UNL d   1      -2.283  -1.020  -0.477  0.00  0.00     0.003 A 
ATOM      3  C2  UNL d   1      -2.691  -1.496   0.771  0.00  0.00     0.048 A 
ATOM      4  C3  UNL d   1      -2.065  -2.613   1.323  0.00  0.00     0.023 A 
ATOM      5  C4  UNL d   1      -1.035  -3.257   0.636  0.00  0.00     0.048 A 
ATOM      6  C5  UNL d   1      -0.631  -2.778  -0.612  0.00  0.00     0.003 A 
ATOM      7  I   UNL d   1      -2.669  -3.323   3.180  0.00  0.00    -0.146 I 
ENDROOT
TORSDOF 0
ENDMDL
