MODEL 1
REMARK minimizedAffinity 0.53882426
REMARK minimizedRMSD -1
REMARK  0 active torsions:
REMARK  status: ('A' for Active; 'I' for Inactive)
ROOT
ATOM      1  C1  DEN d   1       0.825  -1.573   0.739  0.00  0.00     0.130 A 
ATOM      2  C2  DEN d   1       0.207  -0.408   1.367  0.00  0.00    -0.031 A 
ATOM      3  C3  DEN d   1       0.841   0.802   0.805  0.00  0.00     0.027 A 
ATOM      4  C4  DEN d   1       2.703   0.984  -0.969  0.00  0.00     0.027 A 
ATOM      5  C5  DEN d   1       3.550   0.267  -1.785  0.00  0.00    -0.003 A 
ATOM      6  C6  DEN d   1       3.572  -1.103  -1.792  0.00  0.00     0.001 A 
ATOM      7  C7  DEN d   1       2.698  -1.799  -0.999  0.00  0.00     0.017 A 
ATOM      8  C8  DEN d   1       1.846  -1.083  -0.169  0.00  0.00    -0.094 A 
ATOM      9  C9  DEN d   1       1.831   0.301  -0.185  0.00  0.00    -0.072 A 
ENDROOT
TORSDOF 0
ENDMDL
