MODEL 1
REMARK minimizedAffinity -0.137567565
REMARK minimizedRMSD -1
REMARK  0 active torsions:
REMARK  status: ('A' for Active; 'I' for Inactive)
ROOT
ATOM      1  C1  DEN d   1       1.671  -2.505  -0.801  0.00  0.00     0.130 A 
ATOM      2  C2  DEN d   1       1.855  -2.212  -2.220  0.00  0.00    -0.031 A 
ATOM      3  C3  DEN d   1       1.791  -0.747  -2.395  0.00  0.00     0.027 A 
ATOM      4  C4  DEN d   1       1.431   1.087  -0.617  0.00  0.00     0.027 A 
ATOM      5  C5  DEN d   1       1.214   1.324   0.722  0.00  0.00    -0.003 A 
ATOM      6  C6  DEN d   1       1.102   0.309   1.635  0.00  0.00     0.001 A 
ATOM      7  C7  DEN d   1       1.251  -0.990   1.227  0.00  0.00     0.017 A 
ATOM      8  C8  DEN d   1       1.462  -1.238  -0.123  0.00  0.00    -0.094 A 
ATOM      9  C9  DEN d   1       1.585  -0.198  -1.028  0.00  0.00    -0.072 A 
ENDROOT
TORSDOF 0
ENDMDL
