MODEL 1
REMARK minimizedAffinity 3.18731332
REMARK minimizedRMSD -1
REMARK  0 active torsions:
REMARK  status: ('A' for Active; 'I' for Inactive)
ROOT
ATOM      1  C1  DEN d   1       3.099   1.571  -1.075  0.00  0.00     0.130 A 
ATOM      2  C2  DEN d   1       3.810   0.879  -2.147  0.00  0.00    -0.031 A 
ATOM      3  C3  DEN d   1       3.580  -0.571  -1.985  0.00  0.00     0.027 A 
ATOM      4  C4  DEN d   1       2.196  -1.804  -0.192  0.00  0.00     0.027 A 
ATOM      5  C5  DEN d   1       1.419  -1.642   0.934  0.00  0.00    -0.003 A 
ATOM      6  C6  DEN d   1       1.177  -0.411   1.484  0.00  0.00     0.001 A 
ATOM      7  C7  DEN d   1       1.681   0.712   0.882  0.00  0.00     0.017 A 
ATOM      8  C8  DEN d   1       2.472   0.556  -0.249  0.00  0.00    -0.094 A 
ATOM      9  C9  DEN d   1       2.695  -0.696  -0.796  0.00  0.00    -0.072 A 
ENDROOT
TORSDOF 0
ENDMDL
