MODEL 1
REMARK minimizedAffinity 4.94643259
REMARK minimizedRMSD -1
REMARK  0 active torsions:
REMARK  status: ('A' for Active; 'I' for Inactive)
ROOT
ATOM      1  C1  DEN d   1       2.828   1.335  -1.759  0.00  0.00     0.130 A 
ATOM      2  C2  DEN d   1       3.812   0.454  -2.381  0.00  0.00    -0.031 A 
ATOM      3  C3  DEN d   1       3.748  -0.855  -1.701  0.00  0.00     0.027 A 
ATOM      4  C4  DEN d   1       2.224  -1.601   0.241  0.00  0.00     0.027 A 
ATOM      5  C5  DEN d   1       1.233  -1.198   1.110  0.00  0.00    -0.003 A 
ATOM      6  C6  DEN d   1       0.733   0.077   1.106  0.00  0.00     0.001 A 
ATOM      7  C7  DEN d   1       1.190   0.982   0.185  0.00  0.00     0.017 A 
ATOM      8  C8  DEN d   1       2.194   0.586  -0.689  0.00  0.00    -0.094 A 
ATOM      9  C9  DEN d   1       2.678  -0.712  -0.677  0.00  0.00    -0.072 A 
ENDROOT
TORSDOF 0
ENDMDL
