MODEL 1
REMARK minimizedAffinity 2.916605
REMARK minimizedRMSD -1
REMARK  0 active torsions:
REMARK  status: ('A' for Active; 'I' for Inactive)
ROOT
ATOM      1  C1  DEN d   1      -0.487   0.113   2.253  0.00  0.00     0.130 A 
ATOM      2  C2  DEN d   1      -1.247  -1.134   2.256  0.00  0.00    -0.031 A 
ATOM      3  C3  DEN d   1      -0.627  -2.049   1.277  0.00  0.00     0.027 A 
ATOM      4  C4  DEN d   1       1.428  -1.661  -0.232  0.00  0.00     0.027 A 
ATOM      5  C5  DEN d   1       2.398  -0.753  -0.596  0.00  0.00    -0.003 A 
ATOM      6  C6  DEN d   1       2.453   0.508  -0.065  0.00  0.00     0.001 A 
ATOM      7  C7  DEN d   1       1.549   0.882   0.893  0.00  0.00     0.017 A 
ATOM      8  C8  DEN d   1       0.563  -0.025   1.260  0.00  0.00    -0.094 A 
ATOM      9  C9  DEN d   1       0.531  -1.300   0.721  0.00  0.00    -0.072 A 
ENDROOT
TORSDOF 0
ENDMDL
