MODEL 1
REMARK minimizedAffinity 3.38389778
REMARK minimizedRMSD -1
REMARK  0 active torsions:
REMARK  status: ('A' for Active; 'I' for Inactive)
ROOT
ATOM      1  C1  DEN d   1       0.026  -1.742   1.748  0.00  0.00     0.130 A 
ATOM      2  C2  DEN d   1      -0.328  -0.896   2.884  0.00  0.00    -0.031 A 
ATOM      3  C3  DEN d   1       0.266   0.437   2.663  0.00  0.00     0.027 A 
ATOM      4  C4  DEN d   1       1.688   1.272   0.680  0.00  0.00     0.027 A 
ATOM      5  C5  DEN d   1       2.262   0.912  -0.519  0.00  0.00    -0.003 A 
ATOM      6  C6  DEN d   1       2.160  -0.356  -1.026  0.00  0.00     0.001 A 
ATOM      7  C7  DEN d   1       1.431  -1.300  -0.353  0.00  0.00     0.017 A 
ATOM      8  C8  DEN d   1       0.855  -0.947   0.860  0.00  0.00    -0.094 A 
ATOM      9  C9  DEN d   1       0.959   0.344   1.350  0.00  0.00    -0.072 A 
ENDROOT
TORSDOF 0
ENDMDL
