MODEL 1
REMARK minimizedAffinity 1.58979988
REMARK minimizedRMSD -1
REMARK  0 active torsions:
REMARK  status: ('A' for Active; 'I' for Inactive)
ROOT
ATOM      1  C1  DEN d   1       3.223  -0.544  -1.503  0.00  0.00     0.130 A 
ATOM      2  C2  DEN d   1       3.201  -1.985  -1.743  0.00  0.00    -0.031 A 
ATOM      3  C3  DEN d   1       2.115  -2.567  -0.929  0.00  0.00     0.027 A 
ATOM      4  C4  DEN d   1       0.471  -1.383   0.667  0.00  0.00     0.027 A 
ATOM      5  C5  DEN d   1       0.107  -0.168   1.206  0.00  0.00    -0.003 A 
ATOM      6  C6  DEN d   1       0.773   0.991   0.908  0.00  0.00     0.001 A 
ATOM      7  C7  DEN d   1       1.810   0.968   0.013  0.00  0.00     0.017 A 
ATOM      8  C8  DEN d   1       2.186  -0.254  -0.529  0.00  0.00    -0.094 A 
ATOM      9  C9  DEN d   1       1.493  -1.413  -0.225  0.00  0.00    -0.072 A 
ENDROOT
TORSDOF 0
ENDMDL
