MODEL 1
REMARK minimizedAffinity -1.94570756
REMARK minimizedRMSD -1
REMARK  0 active torsions:
REMARK  status: ('A' for Active; 'I' for Inactive)
ROOT
ATOM      1  C1  DEN d   1       0.039  -2.398   1.648  0.00  0.00     0.130 A 
ATOM      2  C2  DEN d   1      -0.678  -1.541   2.588  0.00  0.00    -0.031 A 
ATOM      3  C3  DEN d   1      -0.394  -0.136   2.234  0.00  0.00     0.027 A 
ATOM      4  C4  DEN d   1       1.076   0.791   0.328  0.00  0.00     0.027 A 
ATOM      5  C5  DEN d   1       1.898   0.449  -0.724  0.00  0.00    -0.003 A 
ATOM      6  C6  DEN d   1       2.182  -0.854  -1.035  0.00  0.00     0.001 A 
ATOM      7  C7  DEN d   1       1.604  -1.865  -0.314  0.00  0.00     0.017 A 
ATOM      8  C8  DEN d   1       0.781  -1.529   0.752  0.00  0.00    -0.094 A 
ATOM      9  C9  DEN d   1       0.496  -0.206   1.043  0.00  0.00    -0.072 A 
ENDROOT
TORSDOF 0
ENDMDL
