MODEL 1
REMARK minimizedAffinity 8.82338047
REMARK minimizedRMSD -1
REMARK  0 active torsions:
REMARK  status: ('A' for Active; 'I' for Inactive)
ROOT
ATOM      1  C1  DEN d   1       0.470   4.343  -3.038  0.00  0.00     0.130 A 
ATOM      2  C2  DEN d   1      -0.509   5.381  -2.730  0.00  0.00    -0.031 A 
ATOM      3  C3  DEN d   1      -1.856   4.822  -2.960  0.00  0.00     0.027 A 
ATOM      4  C4  DEN d   1      -2.517   2.460  -3.757  0.00  0.00     0.027 A 
ATOM      5  C5  DEN d   1      -2.033   1.233  -4.156  0.00  0.00    -0.003 A 
ATOM      6  C6  DEN d   1      -0.692   0.970  -4.242  0.00  0.00     0.001 A 
ATOM      7  C7  DEN d   1       0.213   1.933  -3.882  0.00  0.00     0.017 A 
ATOM      8  C8  DEN d   1      -0.267   3.175  -3.486  0.00  0.00    -0.094 A 
ATOM      9  C9  DEN d   1      -1.627   3.417  -3.393  0.00  0.00    -0.072 A 
ENDROOT
TORSDOF 0
ENDMDL
