MODEL 1
REMARK minimizedAffinity 9.61842632
REMARK minimizedRMSD -1
REMARK  0 active torsions:
REMARK  status: ('A' for Active; 'I' for Inactive)
ROOT
ATOM      1  C1  DEN d   1      -0.072   5.105  -2.973  0.00  0.00     0.130 A 
ATOM      2  C2  DEN d   1      -1.295   5.719  -2.462  0.00  0.00    -0.031 A 
ATOM      3  C3  DEN d   1      -2.380   4.723  -2.557  0.00  0.00     0.027 A 
ATOM      4  C4  DEN d   1      -2.287   2.300  -3.437  0.00  0.00     0.027 A 
ATOM      5  C5  DEN d   1      -1.471   1.336  -3.987  0.00  0.00    -0.003 A 
ATOM      6  C6  DEN d   1      -0.151   1.570  -4.267  0.00  0.00     0.001 A 
ATOM      7  C7  DEN d   1       0.405   2.783  -3.955  0.00  0.00     0.017 A 
ATOM      8  C8  DEN d   1      -0.413   3.762  -3.407  0.00  0.00    -0.094 A 
ATOM      9  C9  DEN d   1      -1.743   3.502  -3.121  0.00  0.00    -0.072 A 
ENDROOT
TORSDOF 0
ENDMDL
