MODEL 1
REMARK minimizedAffinity 4.87533617
REMARK minimizedRMSD -1
REMARK  0 active torsions:
REMARK  status: ('A' for Active; 'I' for Inactive)
ROOT
ATOM      1  C1  DEN d   1       1.304   3.969  -4.635  0.00  0.00     0.130 A 
ATOM      2  C2  DEN d   1       2.010   3.154  -5.619  0.00  0.00    -0.031 A 
ATOM      3  C3  DEN d   1       1.165   1.985  -5.936  0.00  0.00     0.027 A 
ATOM      4  C4  DEN d   1      -1.160   1.365  -5.006  0.00  0.00     0.027 A 
ATOM      5  C5  DEN d   1      -2.160   1.745  -4.138  0.00  0.00    -0.003 A 
ATOM      6  C6  DEN d   1      -2.061   2.866  -3.356  0.00  0.00     0.001 A 
ATOM      7  C7  DEN d   1      -0.957   3.671  -3.460  0.00  0.00     0.017 A 
ATOM      8  C8  DEN d   1       0.058   3.290  -4.328  0.00  0.00    -0.094 A 
ATOM      9  C9  DEN d   1      -0.066   2.160  -5.118  0.00  0.00    -0.072 A 
ENDROOT
TORSDOF 0
ENDMDL
