MODEL 1
REMARK minimizedAffinity 3.17462826
REMARK minimizedRMSD -1
REMARK  0 active torsions:
REMARK  status: ('A' for Active; 'I' for Inactive)
ROOT
ATOM      1  C1  DEN d   1       3.390  -0.837  -1.714  0.00  0.00     0.130 A 
ATOM      2  C2  DEN d   1       3.224  -2.264  -1.978  0.00  0.00    -0.031 A 
ATOM      3  C3  DEN d   1       2.068  -2.742  -1.193  0.00  0.00     0.027 A 
ATOM      4  C4  DEN d   1       0.525  -1.418   0.393  0.00  0.00     0.027 A 
ATOM      5  C5  DEN d   1       0.278  -0.180   0.946  0.00  0.00    -0.003 A 
ATOM      6  C6  DEN d   1       1.066   0.908   0.679  0.00  0.00     0.001 A 
ATOM      7  C7  DEN d   1       2.111   0.791  -0.198  0.00  0.00     0.017 A 
ATOM      8  C8  DEN d   1       2.370  -0.455  -0.754  0.00  0.00    -0.094 A 
ATOM      9  C9  DEN d   1       1.555  -1.541  -0.481  0.00  0.00    -0.072 A 
ENDROOT
TORSDOF 0
ENDMDL
