MODEL 1
REMARK minimizedAffinity -0.77938807
REMARK minimizedRMSD -1
REMARK  0 active torsions:
REMARK  status: ('A' for Active; 'I' for Inactive)
ROOT
ATOM      1  C1  DEN d   1       1.346   0.958   0.701  0.00  0.00     0.130 A 
ATOM      2  C2  DEN d   1       0.725  -0.183   1.367  0.00  0.00    -0.031 A 
ATOM      3  C3  DEN d   1       1.232  -1.415   0.730  0.00  0.00     0.027 A 
ATOM      4  C4  DEN d   1       2.915  -1.664  -1.209  0.00  0.00     0.027 A 
ATOM      5  C5  DEN d   1       3.704  -0.978  -2.105  0.00  0.00    -0.003 A 
ATOM      6  C6  DEN d   1       3.737   0.390  -2.151  0.00  0.00     0.001 A 
ATOM      7  C7  DEN d   1       2.999   1.117  -1.254  0.00  0.00     0.017 A 
ATOM      8  C8  DEN d   1       2.195   0.433  -0.352  0.00  0.00    -0.094 A 
ATOM      9  C9  DEN d   1       2.185  -0.951  -0.314  0.00  0.00    -0.072 A 
ENDROOT
TORSDOF 0
ENDMDL
