MODEL 1
REMARK minimizedAffinity -5.35724926
REMARK minimizedRMSD -1
REMARK  3 active torsions:
REMARK  status: ('A' for Active; 'I' for Inactive)
REMARK    1  A    between atoms: C3'_2  and  C2'_3 
REMARK    2  A    between atoms: C2'_3  and  C1'_4 
REMARK    3  A    between atoms: C1'_4  and  C1_5 
ROOT
ATOM      1  C1  N4B d   1       0.148  -0.044   0.235  0.00  0.00    -0.075 A 
ATOM      2  C2  N4B d   1       1.365   0.653   0.398  0.00  0.00     0.002 A 
ATOM      3  C3  N4B d   1       2.105   0.484   1.543  0.00  0.00     0.002 A 
ATOM      4  C4  N4B d   1       1.641  -0.360   2.541  0.00  0.00    -0.004 A 
ATOM      5  C5  N4B d   1       0.477  -1.049   2.365  0.00  0.00     0.002 A 
ATOM      6  C6  N4B d   1      -0.275  -0.891   1.218  0.00  0.00     0.002 A 
ENDROOT
BRANCH   1   7
ATOM      7  C1' N4B d   1      -0.738   0.175  -0.961  0.00  0.00     0.057 C 
BRANCH   7   8
ATOM      8  C2' N4B d   1      -0.113   1.237  -1.860  0.00  0.00     0.009 C 
BRANCH   8   9
ATOM      9  C3' N4B d   1      -1.164   2.052  -2.593  0.00  0.00     0.004 C 
ATOM     10  C4' N4B d   1      -0.633   3.356  -3.109  0.00  0.00     0.003 C 
ENDBRANCH   8   9
ENDBRANCH   7   8
ENDBRANCH   1   7
TORSDOF 3
ENDMDL
