MODEL 1
REMARK minimizedAffinity -4.43494034
REMARK minimizedRMSD -1
REMARK  3 active torsions:
REMARK  status: ('A' for Active; 'I' for Inactive)
REMARK    1  A    between atoms: C3'_2  and  C2'_3 
REMARK    2  A    between atoms: C2'_3  and  C1'_4 
REMARK    3  A    between atoms: C1'_4  and  C1_5 
ROOT
ATOM      1  C1  N4B d   1       0.274  -0.526   0.743  0.00  0.00    -0.075 A 
ATOM      2  C2  N4B d   1       0.195  -0.545   2.153  0.00  0.00     0.002 A 
ATOM      3  C3  N4B d   1       1.190  -1.144   2.887  0.00  0.00     0.002 A 
ATOM      4  C4  N4B d   1       2.258  -1.743   2.236  0.00  0.00    -0.004 A 
ATOM      5  C5  N4B d   1       2.339  -1.697   0.875  0.00  0.00     0.002 A 
ATOM      6  C6  N4B d   1       1.348  -1.096   0.124  0.00  0.00     0.002 A 
ENDROOT
BRANCH   1   7
ATOM      7  C1' N4B d   1      -0.832   0.041  -0.106  0.00  0.00     0.057 C 
BRANCH   7   8
ATOM      8  C2' N4B d   1      -0.333   0.196  -1.540  0.00  0.00     0.009 C 
BRANCH   8   9
ATOM      9  C3' N4B d   1      -1.021   1.342  -2.260  0.00  0.00     0.004 C 
ATOM     10  C4' N4B d   1      -0.056   2.257  -2.952  0.00  0.00     0.003 C 
ENDBRANCH   8   9
ENDBRANCH   7   8
ENDBRANCH   1   7
TORSDOF 3
ENDMDL
