MODEL 1
REMARK minimizedAffinity -3.92416334
REMARK minimizedRMSD -1
REMARK  3 active torsions:
REMARK  status: ('A' for Active; 'I' for Inactive)
REMARK    1  A    between atoms: C3'_2  and  C2'_3 
REMARK    2  A    between atoms: C2'_3  and  C1'_4 
REMARK    3  A    between atoms: C1'_4  and  C1_5 
ROOT
ATOM      1  C1  N4B d   1       0.087   0.058  -0.226  0.00  0.00    -0.075 A 
ATOM      2  C2  N4B d   1       1.309   0.043   0.482  0.00  0.00     0.002 A 
ATOM      3  C3  N4B d   1       1.315  -0.197   1.835  0.00  0.00     0.002 A 
ATOM      4  C4  N4B d   1       0.116  -0.405   2.500  0.00  0.00    -0.004 A 
ATOM      5  C5  N4B d   1      -1.057  -0.414   1.804  0.00  0.00     0.002 A 
ATOM      6  C6  N4B d   1      -1.078  -0.178   0.444  0.00  0.00     0.002 A 
ENDROOT
BRANCH   1   7
ATOM      7  C1' N4B d   1       0.022   0.400  -1.689  0.00  0.00     0.057 C 
BRANCH   7   8
ATOM      8  C2' N4B d   1      -1.151   1.346  -1.931  0.00  0.00     0.009 C 
BRANCH   8   9
ATOM      9  C3' N4B d   1      -0.718   2.619  -2.638  0.00  0.00     0.004 C 
ATOM     10  C4' N4B d   1      -1.530   3.813  -2.234  0.00  0.00     0.003 C 
ENDBRANCH   8   9
ENDBRANCH   7   8
ENDBRANCH   1   7
TORSDOF 3
ENDMDL
