MODEL 1
REMARK minimizedAffinity 2.90729189
REMARK minimizedRMSD -1
REMARK  0 active torsions:
REMARK  status: ('A' for Active; 'I' for Inactive)
ROOT
ATOM      1  C1  BNZ d   1      -0.963  -0.627  -2.483  0.00  0.00     0.000 A 
ATOM      2  C2  BNZ d   1      -0.048   0.384  -2.355  0.00  0.00     0.000 A 
ATOM      3  C3  BNZ d   1      -0.330   1.493  -1.609  0.00  0.00     0.000 A 
ATOM      4  C4  BNZ d   1      -1.540   1.609  -1.024  0.00  0.00     0.000 A 
ATOM      5  C5  BNZ d   1      -2.477   0.603  -1.152  0.00  0.00     0.000 A 
ATOM      6  C6  BNZ d   1      -2.175  -0.530  -1.872  0.00  0.00     0.000 A 
ENDROOT
TORSDOF 0
ENDMDL
