MODEL 1
REMARK minimizedAffinity -3.26635838
REMARK minimizedRMSD -1
REMARK  0 active torsions:
REMARK  status: ('A' for Active; 'I' for Inactive)
ROOT
ATOM      1  C1  BNZ d   1      -2.051   3.995   0.215  0.00  0.00     0.000 A 
ATOM      2  C2  BNZ d   1      -2.045   3.512   1.497  0.00  0.00     0.000 A 
ATOM      3  C3  BNZ d   1      -1.321   2.399   1.821  0.00  0.00     0.000 A 
ATOM      4  C4  BNZ d   1      -0.638   1.747   0.858  0.00  0.00     0.000 A 
ATOM      5  C5  BNZ d   1      -0.642   2.216  -0.440  0.00  0.00     0.000 A 
ATOM      6  C6  BNZ d   1      -1.340   3.359  -0.756  0.00  0.00     0.000 A 
ENDROOT
TORSDOF 0
ENDMDL
