MODEL 1
REMARK minimizedAffinity 3.55326939
REMARK minimizedRMSD -1
REMARK  0 active torsions:
REMARK  status: ('A' for Active; 'I' for Inactive)
ROOT
ATOM      1  C1  BNZ d   1      -2.872  -3.646  -5.598  0.00  0.00     0.000 A 
ATOM      2  C2  BNZ d   1      -2.275  -4.821  -5.226  0.00  0.00     0.000 A 
ATOM      3  C3  BNZ d   1      -2.966  -6.000  -5.262  0.00  0.00     0.000 A 
ATOM      4  C4  BNZ d   1      -4.264  -5.997  -5.631  0.00  0.00     0.000 A 
ATOM      5  C5  BNZ d   1      -4.883  -4.819  -6.000  0.00  0.00     0.000 A 
ATOM      6  C6  BNZ d   1      -4.173  -3.641  -6.000  0.00  0.00     0.000 A 
ENDROOT
TORSDOF 0
ENDMDL
