MODEL 1
REMARK minimizedAffinity 6.16931009
REMARK minimizedRMSD -1
REMARK  0 active torsions:
REMARK  status: ('A' for Active; 'I' for Inactive)
ROOT
ATOM      1  C1  BNZ d   1      -0.572   1.876  -2.317  0.00  0.00     0.000 A 
ATOM      2  C2  BNZ d   1      -1.936   1.945  -2.215  0.00  0.00     0.000 A 
ATOM      3  C3  BNZ d   1      -2.657   0.886  -1.738  0.00  0.00     0.000 A 
ATOM      4  C4  BNZ d   1      -2.018  -0.254  -1.403  0.00  0.00     0.000 A 
ATOM      5  C5  BNZ d   1      -0.645  -0.342  -1.509  0.00  0.00     0.000 A 
ATOM      6  C6  BNZ d   1       0.081   0.740  -1.952  0.00  0.00     0.000 A 
ENDROOT
TORSDOF 0
ENDMDL
