MODEL 1
REMARK minimizedAffinity 3.50034928
REMARK minimizedRMSD -1
REMARK  0 active torsions:
REMARK  status: ('A' for Active; 'I' for Inactive)
ROOT
ATOM      1  C1  BNZ d   1      -1.010   0.779  -3.684  0.00  0.00     0.000 A 
ATOM      2  C2  BNZ d   1      -0.211   1.696  -3.054  0.00  0.00     0.000 A 
ATOM      3  C3  BNZ d   1      -0.094   1.703  -1.692  0.00  0.00     0.000 A 
ATOM      4  C4  BNZ d   1      -0.807   0.823  -0.960  0.00  0.00     0.000 A 
ATOM      5  C5  BNZ d   1      -1.624  -0.101  -1.580  0.00  0.00     0.000 A 
ATOM      6  C6  BNZ d   1      -1.709  -0.132  -2.953  0.00  0.00     0.000 A 
ENDROOT
TORSDOF 0
ENDMDL
