MODEL 1
REMARK minimizedAffinity 1.77019966
REMARK minimizedRMSD -1
REMARK  0 active torsions:
REMARK  status: ('A' for Active; 'I' for Inactive)
ROOT
ATOM      1  C1  BNZ d   1       0.132   0.098   2.091  0.00  0.00     0.000 A 
ATOM      2  C2  BNZ d   1       0.422   0.645   0.870  0.00  0.00     0.000 A 
ATOM      3  C3  BNZ d   1       0.260   1.983   0.646  0.00  0.00     0.000 A 
ATOM      4  C4  BNZ d   1      -0.230   2.765   1.629  0.00  0.00     0.000 A 
ATOM      5  C5  BNZ d   1      -0.536   2.227   2.863  0.00  0.00     0.000 A 
ATOM      6  C6  BNZ d   1      -0.335   0.886   3.097  0.00  0.00     0.000 A 
ENDROOT
TORSDOF 0
ENDMDL
