MODEL 1
REMARK minimizedAffinity -3.00234556
REMARK minimizedRMSD -1
REMARK  0 active torsions:
REMARK  status: ('A' for Active; 'I' for Inactive)
ROOT
ATOM      1  C1  BNZ d   1      -1.167   2.080   2.143  0.00  0.00     0.000 A 
ATOM      2  C2  BNZ d   1      -0.671   2.393   0.906  0.00  0.00     0.000 A 
ATOM      3  C3  BNZ d   1       0.324   1.646   0.341  0.00  0.00     0.000 A 
ATOM      4  C4  BNZ d   1       0.850   0.612   1.029  0.00  0.00     0.000 A 
ATOM      5  C5  BNZ d   1       0.367   0.289   2.282  0.00  0.00     0.000 A 
ATOM      6  C6  BNZ d   1      -0.661   1.020   2.831  0.00  0.00     0.000 A 
ENDROOT
TORSDOF 0
ENDMDL
