MODEL 1
REMARK minimizedAffinity 2.01233912
REMARK minimizedRMSD -1
REMARK  0 active torsions:
REMARK  status: ('A' for Active; 'I' for Inactive)
ROOT
ATOM      1  C1  BNZ d   1      -2.071  -0.256  -1.480  0.00  0.00     0.000 A 
ATOM      2  C2  BNZ d   1      -2.002   0.563  -0.385  0.00  0.00     0.000 A 
ATOM      3  C3  BNZ d   1      -1.006   1.492  -0.268  0.00  0.00     0.000 A 
ATOM      4  C4  BNZ d   1      -0.059   1.574  -1.225  0.00  0.00     0.000 A 
ATOM      5  C5  BNZ d   1      -0.110   0.748  -2.331  0.00  0.00     0.000 A 
ATOM      6  C6  BNZ d   1      -1.136  -0.159  -2.464  0.00  0.00     0.000 A 
ENDROOT
TORSDOF 0
ENDMDL
