MODEL 1
REMARK minimizedAffinity 4.3174181
REMARK minimizedRMSD -1
REMARK  0 active torsions:
REMARK  status: ('A' for Active; 'I' for Inactive)
ROOT
ATOM      1  C1  BNZ d   1      -0.991   1.393   3.220  0.00  0.00     0.000 A 
ATOM      2  C2  BNZ d   1      -1.232   2.482   2.424  0.00  0.00     0.000 A 
ATOM      3  C3  BNZ d   1      -0.303   2.902   1.513  0.00  0.00     0.000 A 
ATOM      4  C4  BNZ d   1       0.879   2.259   1.427  0.00  0.00     0.000 A 
ATOM      5  C5  BNZ d   1       1.141   1.166   2.229  0.00  0.00     0.000 A 
ATOM      6  C6  BNZ d   1       0.188   0.722   3.117  0.00  0.00     0.000 A 
ENDROOT
TORSDOF 0
ENDMDL
