MODEL 1
REMARK minimizedAffinity 2.09243298
REMARK minimizedRMSD -1
REMARK  0 active torsions:
REMARK  status: ('A' for Active; 'I' for Inactive)
ROOT
ATOM      1  C1  BNZ d   1       2.837  -1.198  -0.815  0.00  0.00     0.000 A 
ATOM      2  C2  BNZ d   1       4.037  -0.830  -1.362  0.00  0.00     0.000 A 
ATOM      3  C3  BNZ d   1       4.899  -1.768  -1.856  0.00  0.00     0.000 A 
ATOM      4  C4  BNZ d   1       4.579  -3.075  -1.765  0.00  0.00     0.000 A 
ATOM      5  C5  BNZ d   1       3.377  -3.464  -1.208  0.00  0.00     0.000 A 
ATOM      6  C6  BNZ d   1       2.494  -2.514  -0.747  0.00  0.00     0.000 A 
ENDROOT
TORSDOF 0
ENDMDL
