MODEL 1
REMARK minimizedAffinity 6.69927311
REMARK minimizedRMSD -1
REMARK  0 active torsions:
REMARK  status: ('A' for Active; 'I' for Inactive)
ROOT
ATOM      1  C2' OXE d   1      -1.704   2.887  -1.816  0.00  0.00     0.078 C 
ATOM      2  C1' OXE d   1       0.784   4.179  -1.954  0.00  0.00     0.078 C 
ATOM      3  C1  OXE d   1       0.454   3.421  -0.693  0.00  0.00    -0.078 A 
ATOM      4  C2  OXE d   1      -0.784   2.831  -0.615  0.00  0.00    -0.078 A 
ATOM      5  C3  OXE d   1      -1.118   2.073   0.503  0.00  0.00     0.003 A 
ATOM      6  C4  OXE d   1      -0.266   2.034   1.614  0.00  0.00    -0.002 A 
ATOM      7  C5  OXE d   1       0.984   2.661   1.571  0.00  0.00    -0.002 A 
ATOM      8  C6  OXE d   1       1.376   3.321   0.412  0.00  0.00     0.003 A 
ENDROOT
TORSDOF 0
ENDMDL
