MODEL 1
REMARK minimizedAffinity 11.9843674
REMARK minimizedRMSD -1
REMARK  0 active torsions:
REMARK  status: ('A' for Active; 'I' for Inactive)
ROOT
ATOM      1  C2' OXE d   1       1.190   4.844  -2.952  0.00  0.00     0.078 C 
ATOM      2  C1' OXE d   1       2.540   5.170  -0.512  0.00  0.00     0.078 C 
ATOM      3  C1  OXE d   1       1.420   4.162  -0.567  0.00  0.00    -0.078 A 
ATOM      4  C2  OXE d   1       0.734   4.042  -1.752  0.00  0.00    -0.078 A 
ATOM      5  C3  OXE d   1      -0.272   3.088  -1.873  0.00  0.00     0.003 A 
ATOM      6  C4  OXE d   1      -0.694   2.358  -0.755  0.00  0.00    -0.002 A 
ATOM      7  C5  OXE d   1      -0.036   2.493   0.471  0.00  0.00    -0.002 A 
ATOM      8  C6  OXE d   1       1.049   3.357   0.571  0.00  0.00     0.003 A 
ENDROOT
TORSDOF 0
ENDMDL
