MODEL 1
REMARK minimizedAffinity 17.3332081
REMARK minimizedRMSD -1
REMARK  0 active torsions:
REMARK  status: ('A' for Active; 'I' for Inactive)
ROOT
ATOM      1  C2' OXE d   1       0.859   4.585  -1.980  0.00  0.00     0.078 C 
ATOM      2  C1' OXE d   1      -1.874   4.011  -1.691  0.00  0.00     0.078 C 
ATOM      3  C1  OXE d   1      -0.917   3.397  -0.700  0.00  0.00    -0.078 A 
ATOM      4  C2  OXE d   1       0.423   3.645  -0.877  0.00  0.00    -0.078 A 
ATOM      5  C3  OXE d   1       1.343   3.148   0.042  0.00  0.00     0.003 A 
ATOM      6  C4  OXE d   1       0.932   2.271   1.053  0.00  0.00    -0.002 A 
ATOM      7  C5  OXE d   1      -0.424   1.973   1.226  0.00  0.00    -0.002 A 
ATOM      8  C6  OXE d   1      -1.364   2.560   0.386  0.00  0.00     0.003 A 
ENDROOT
TORSDOF 0
ENDMDL
