MODEL 1
REMARK minimizedAffinity 10.332551
REMARK minimizedRMSD -1
REMARK  0 active torsions:
REMARK  status: ('A' for Active; 'I' for Inactive)
ROOT
ATOM      1  C2' OXE d   1      -0.914   2.684   0.035  0.00  0.00     0.078 C 
ATOM      2  C1' OXE d   1      -2.526   4.136  -1.746  0.00  0.00     0.078 C 
ATOM      3  C1  OXE d   1      -1.081   4.548  -1.609  0.00  0.00    -0.078 A 
ATOM      4  C2  OXE d   1      -0.312   3.861  -0.700  0.00  0.00    -0.078 A 
ATOM      5  C3  OXE d   1       1.041   4.164  -0.574  0.00  0.00     0.003 A 
ATOM      6  C4  OXE d   1       1.587   5.261  -1.251  0.00  0.00    -0.002 A 
ATOM      7  C5  OXE d   1       0.811   5.999  -2.151  0.00  0.00    -0.002 A 
ATOM      8  C6  OXE d   1      -0.511   5.630  -2.373  0.00  0.00     0.003 A 
ENDROOT
TORSDOF 0
ENDMDL
