MODEL 1
REMARK minimizedAffinity 11.0808191
REMARK minimizedRMSD -1
REMARK  0 active torsions:
REMARK  status: ('A' for Active; 'I' for Inactive)
ROOT
ATOM      1  C2' OXE d   1       1.565   3.034  -2.310  0.00  0.00     0.078 C 
ATOM      2  C1' OXE d   1       1.297   1.031  -0.362  0.00  0.00     0.078 C 
ATOM      3  C1  OXE d   1       0.188   2.045  -0.485  0.00  0.00    -0.078 A 
ATOM      4  C2  OXE d   1       0.349   3.049  -1.409  0.00  0.00    -0.078 A 
ATOM      5  C3  OXE d   1      -0.669   3.979  -1.601  0.00  0.00     0.003 A 
ATOM      6  C4  OXE d   1      -1.786   3.992  -0.757  0.00  0.00    -0.002 A 
ATOM      7  C5  OXE d   1      -1.951   3.002   0.218  0.00  0.00    -0.002 A 
ATOM      8  C6  OXE d   1      -0.996   1.999   0.338  0.00  0.00     0.003 A 
ENDROOT
TORSDOF 0
ENDMDL
