MODEL 1
REMARK minimizedAffinity 21.2447834
REMARK minimizedRMSD -1
REMARK  0 active torsions:
REMARK  status: ('A' for Active; 'I' for Inactive)
ROOT
ATOM      1  C2' OXE d   1       1.034   4.829  -2.046  0.00  0.00     0.078 C 
ATOM      2  C1' OXE d   1      -1.046   5.264  -0.212  0.00  0.00     0.078 C 
ATOM      3  C1  OXE d   1      -0.459   3.877  -0.294  0.00  0.00    -0.078 A 
ATOM      4  C2  OXE d   1       0.526   3.662  -1.227  0.00  0.00    -0.078 A 
ATOM      5  C3  OXE d   1       1.140   2.415  -1.306  0.00  0.00     0.003 A 
ATOM      6  C4  OXE d   1       0.658   1.338  -0.552  0.00  0.00    -0.002 A 
ATOM      7  C5  OXE d   1      -0.372   1.526   0.376  0.00  0.00    -0.002 A 
ATOM      8  C6  OXE d   1      -0.912   2.796   0.547  0.00  0.00     0.003 A 
ENDROOT
TORSDOF 0
ENDMDL
