MODEL 1
REMARK minimizedAffinity 12.158864
REMARK minimizedRMSD -1
REMARK  0 active torsions:
REMARK  status: ('A' for Active; 'I' for Inactive)
ROOT
ATOM      1  C2' OXE d   1      -2.187   2.520   2.827  0.00  0.00     0.078 C 
ATOM      2  C1' OXE d   1      -2.589   4.912   1.415  0.00  0.00     0.078 C 
ATOM      3  C1  OXE d   1      -1.661   3.888   0.813  0.00  0.00    -0.078 A 
ATOM      4  C2  OXE d   1      -1.433   2.740   1.533  0.00  0.00    -0.078 A 
ATOM      5  C3  OXE d   1      -0.629   1.738   0.999  0.00  0.00     0.003 A 
ATOM      6  C4  OXE d   1       0.073   1.953  -0.194  0.00  0.00    -0.002 A 
ATOM      7  C5  OXE d   1      -0.113   3.132  -0.924  0.00  0.00    -0.002 A 
ATOM      8  C6  OXE d   1      -1.007   4.089  -0.457  0.00  0.00     0.003 A 
ENDROOT
TORSDOF 0
ENDMDL
