MODEL 1
REMARK minimizedAffinity 4.45744896
REMARK minimizedRMSD -1
REMARK  0 active torsions:
REMARK  status: ('A' for Active; 'I' for Inactive)
ROOT
ATOM      1  C2' OXE d   1       0.985   3.212  -1.476  0.00  0.00     0.078 C 
ATOM      2  C1' OXE d   1      -1.806   2.932  -1.586  0.00  0.00     0.078 C 
ATOM      3  C1  OXE d   1      -0.983   1.688  -1.364  0.00  0.00    -0.078 A 
ATOM      4  C2  OXE d   1       0.384   1.828  -1.358  0.00  0.00    -0.078 A 
ATOM      5  C3  OXE d   1       1.190   0.721  -1.103  0.00  0.00     0.003 A 
ATOM      6  C4  OXE d   1       0.627  -0.557  -1.006  0.00  0.00    -0.002 A 
ATOM      7  C5  OXE d   1      -0.761  -0.727  -1.049  0.00  0.00    -0.002 A 
ATOM      8  C6  OXE d   1      -1.580   0.388  -1.185  0.00  0.00     0.003 A 
ENDROOT
TORSDOF 0
ENDMDL
