MODEL 1
REMARK minimizedAffinity 11.11868
REMARK minimizedRMSD -1
REMARK  0 active torsions:
REMARK  status: ('A' for Active; 'I' for Inactive)
ROOT
ATOM      1  C2' OXE d   1       0.160   1.706   2.842  0.00  0.00     0.078 C 
ATOM      2  C1' OXE d   1       2.706   2.480   1.948  0.00  0.00     0.078 C 
ATOM      3  C1  OXE d   1       1.536   2.710   1.025  0.00  0.00    -0.078 A 
ATOM      4  C2  OXE d   1       0.300   2.286   1.452  0.00  0.00    -0.078 A 
ATOM      5  C3  OXE d   1      -0.821   2.524   0.662  0.00  0.00     0.003 A 
ATOM      6  C4  OXE d   1      -0.681   3.052  -0.627  0.00  0.00    -0.002 A 
ATOM      7  C5  OXE d   1       0.574   3.454  -1.097  0.00  0.00    -0.002 A 
ATOM      8  C6  OXE d   1       1.684   3.330  -0.269  0.00  0.00     0.003 A 
ENDROOT
TORSDOF 0
ENDMDL
