MODEL 1
REMARK minimizedAffinity 10.2156754
REMARK minimizedRMSD -1
REMARK  0 active torsions:
REMARK  status: ('A' for Active; 'I' for Inactive)
ROOT
ATOM      1  C2' OXE d   1       2.042  -3.806  -0.216  0.00  0.00     0.078 C 
ATOM      2  C1' OXE d   1       1.503  -6.000  -1.882  0.00  0.00     0.078 C 
ATOM      3  C1  OXE d   1       0.771  -4.710  -2.158  0.00  0.00    -0.078 A 
ATOM      4  C2  OXE d   1       1.006  -3.656  -1.309  0.00  0.00    -0.078 A 
ATOM      5  C3  OXE d   1       0.399  -2.427  -1.552  0.00  0.00     0.003 A 
ATOM      6  C4  OXE d   1      -0.566  -2.300  -2.559  0.00  0.00    -0.002 A 
ATOM      7  C5  OXE d   1      -0.849  -3.373  -3.410  0.00  0.00    -0.002 A 
ATOM      8  C6  OXE d   1      -0.160  -4.570  -3.250  0.00  0.00     0.003 A 
ENDROOT
TORSDOF 0
ENDMDL
