MODEL 1
REMARK minimizedAffinity -2.55625129
REMARK minimizedRMSD -1
REMARK  1 active torsions:
REMARK  status: ('A' for Active; 'I' for Inactive)
REMARK    1  A    between atoms: C3_4  and  O_7 
ROOT
ATOM      1  C   UNL d   1      -6.000  -4.607  -5.930  0.00  0.00    -0.033 A 
ATOM      2  C1  UNL d   1      -5.089  -3.551  -5.999  0.00  0.00     0.039 A 
ATOM      3  C2  UNL d   1      -3.788  -3.716  -5.520  0.00  0.00    -0.080 A 
ATOM      4  C3  UNL d   1      -3.410  -4.940  -4.976  0.00  0.00     0.150 A 
ATOM      5  C4  UNL d   1      -4.311  -5.998  -4.908  0.00  0.00    -0.007 A 
ATOM      6  C5  UNL d   1      -5.610  -5.831  -5.386  0.00  0.00     0.039 A 
ENDROOT
BRANCH   4   7
ATOM      7  O   UNL d   1      -2.153  -5.147  -4.492  0.00  0.00    -0.526 OA
ATOM      8  H5  UNL d   1      -1.650  -4.321  -4.579  0.00  0.00     0.418 HD
ENDBRANCH   4   7
TORSDOF 1
ENDMDL
