MODEL 1
REMARK minimizedAffinity 4.52100897
REMARK minimizedRMSD -1
REMARK  1 active torsions:
REMARK  status: ('A' for Active; 'I' for Inactive)
REMARK    1  A    between atoms: C3_4  and  O_7 
ROOT
ATOM      1  C   UNL d   1       0.448   3.998  -1.501  0.00  0.00    -0.033 A 
ATOM      2  C1  UNL d   1       0.063   5.310  -1.786  0.00  0.00     0.039 A 
ATOM      3  C2  UNL d   1      -0.775   5.999  -0.909  0.00  0.00    -0.080 A 
ATOM      4  C3  UNL d   1      -1.221   5.368   0.249  0.00  0.00     0.150 A 
ATOM      5  C4  UNL d   1      -0.839   4.062   0.541  0.00  0.00    -0.007 A 
ATOM      6  C5  UNL d   1      -0.002   3.375  -0.337  0.00  0.00     0.039 A 
ENDROOT
BRANCH   4   7
ATOM      7  O   UNL d   1      -2.045   5.999   1.133  0.00  0.00    -0.526 OA
ATOM      8  H5  UNL d   1      -2.248   6.883   0.787  0.00  0.00     0.418 HD
ENDBRANCH   4   7
TORSDOF 1
ENDMDL
