MODEL 1
REMARK minimizedAffinity 7.60442591
REMARK minimizedRMSD -1
REMARK  1 active torsions:
REMARK  status: ('A' for Active; 'I' for Inactive)
REMARK    1  A    between atoms: C3_4  and  O_7 
ROOT
ATOM      1  C   UNL d   1       0.859   3.589  -0.618  0.00  0.00    -0.033 A 
ATOM      2  C1  UNL d   1       1.143   4.598  -1.540  0.00  0.00     0.039 A 
ATOM      3  C2  UNL d   1       0.127   5.114  -2.347  0.00  0.00    -0.080 A 
ATOM      4  C3  UNL d   1      -1.166   4.616  -2.221  0.00  0.00     0.150 A 
ATOM      5  C4  UNL d   1      -1.457   3.613  -1.301  0.00  0.00    -0.007 A 
ATOM      6  C5  UNL d   1      -0.441   3.098  -0.497  0.00  0.00     0.039 A 
ENDROOT
BRANCH   4   7
ATOM      7  O   UNL d   1      -2.189   5.085  -2.990  0.00  0.00    -0.526 OA
ATOM      8  H5  UNL d   1      -1.834   5.754  -3.599  0.00  0.00     0.418 HD
ENDBRANCH   4   7
TORSDOF 1
ENDMDL
