MODEL 1
REMARK minimizedAffinity 0.23241657
REMARK minimizedRMSD -1
REMARK  1 active torsions:
REMARK  status: ('A' for Active; 'I' for Inactive)
REMARK    1  A    between atoms: C3_4  and  O_7 
ROOT
ATOM      1  C   UNL d   1      -3.550  -5.824  -5.927  0.00  0.00    -0.033 A 
ATOM      2  C1  UNL d   1      -4.945  -5.872  -5.892  0.00  0.00     0.039 A 
ATOM      3  C2  UNL d   1      -5.686  -4.689  -5.908  0.00  0.00    -0.080 A 
ATOM      4  C3  UNL d   1      -5.022  -3.467  -5.960  0.00  0.00     0.150 A 
ATOM      5  C4  UNL d   1      -3.632  -3.412  -5.999  0.00  0.00    -0.007 A 
ATOM      6  C5  UNL d   1      -2.894  -4.594  -5.982  0.00  0.00     0.039 A 
ENDROOT
BRANCH   4   7
ATOM      7  O   UNL d   1      -5.702  -2.286  -5.973  0.00  0.00    -0.526 OA
ATOM      8  H5  UNL d   1      -6.653  -2.478  -5.913  0.00  0.00     0.418 HD
ENDBRANCH   4   7
TORSDOF 1
ENDMDL
