MODEL 1
REMARK minimizedAffinity 6.6000309
REMARK minimizedRMSD -1
REMARK  1 active torsions:
REMARK  status: ('A' for Active; 'I' for Inactive)
REMARK    1  A    between atoms: C3_4  and  O_7 
ROOT
ATOM      1  C   UNL d   1      -0.098   3.939  -0.700  0.00  0.00    -0.033 A 
ATOM      2  C1  UNL d   1      -0.730   2.923  -1.418  0.00  0.00     0.039 A 
ATOM      3  C2  UNL d   1      -1.888   3.199  -2.149  0.00  0.00    -0.080 A 
ATOM      4  C3  UNL d   1      -2.401   4.493  -2.154  0.00  0.00     0.150 A 
ATOM      5  C4  UNL d   1      -1.774   5.511  -1.444  0.00  0.00    -0.007 A 
ATOM      6  C5  UNL d   1      -0.619   5.234  -0.713  0.00  0.00     0.039 A 
ENDROOT
BRANCH   4   7
ATOM      7  O   UNL d   1      -3.530   4.808  -2.849  0.00  0.00    -0.526 OA
ATOM      8  H5  UNL d   1      -3.870   4.000  -3.268  0.00  0.00     0.418 HD
ENDBRANCH   4   7
TORSDOF 1
ENDMDL
