MODEL 1
REMARK minimizedAffinity 3.45555329
REMARK minimizedRMSD -1
REMARK  1 active torsions:
REMARK  status: ('A' for Active; 'I' for Inactive)
REMARK    1  A    between atoms: C3_4  and  O_7 
ROOT
ATOM      1  C   UNL d   1       1.189   4.011  -1.184  0.00  0.00    -0.033 A 
ATOM      2  C1  UNL d   1       0.040   3.258  -0.935  0.00  0.00     0.039 A 
ATOM      3  C2  UNL d   1      -1.205   3.714  -1.372  0.00  0.00    -0.080 A 
ATOM      4  C3  UNL d   1      -1.288   4.923  -2.056  0.00  0.00     0.150 A 
ATOM      5  C4  UNL d   1      -0.147   5.678  -2.311  0.00  0.00    -0.007 A 
ATOM      6  C5  UNL d   1       1.095   5.221  -1.874  0.00  0.00     0.039 A 
ENDROOT
BRANCH   4   7
ATOM      7  O   UNL d   1      -2.481   5.412  -2.498  0.00  0.00    -0.526 OA
ATOM      8  H5  UNL d   1      -3.185   4.799  -2.225  0.00  0.00     0.418 HD
ENDBRANCH   4   7
TORSDOF 1
ENDMDL
