MODEL 1
REMARK minimizedAffinity 4.33145571
REMARK minimizedRMSD -1
REMARK  1 active torsions:
REMARK  status: ('A' for Active; 'I' for Inactive)
REMARK    1  A    between atoms: C3_4  and  O_7 
ROOT
ATOM      1  C   UNL d   1      -1.078   3.404   0.854  0.00  0.00    -0.033 A 
ATOM      2  C1  UNL d   1      -0.040   2.493   0.649  0.00  0.00     0.039 A 
ATOM      3  C2  UNL d   1       0.900   2.718  -0.360  0.00  0.00    -0.080 A 
ATOM      4  C3  UNL d   1       0.791   3.856  -1.153  0.00  0.00     0.150 A 
ATOM      5  C4  UNL d   1      -0.239   4.770  -0.952  0.00  0.00    -0.007 A 
ATOM      6  C5  UNL d   1      -1.176   4.543   0.055  0.00  0.00     0.039 A 
ENDROOT
BRANCH   4   7
ATOM      7  O   UNL d   1       1.681   4.116  -2.153  0.00  0.00    -0.526 OA
ATOM      8  H5  UNL d   1       2.319   3.385  -2.194  0.00  0.00     0.418 HD
ENDBRANCH   4   7
TORSDOF 1
ENDMDL
