MODEL 1
REMARK minimizedAffinity 5.00448179
REMARK minimizedRMSD -1
REMARK  1 active torsions:
REMARK  status: ('A' for Active; 'I' for Inactive)
REMARK    1  A    between atoms: C3_4  and  O_7 
ROOT
ATOM      1  C   UNL d   1      -0.315   4.286  -0.839  0.00  0.00    -0.033 A 
ATOM      2  C1  UNL d   1      -1.307   4.753  -1.703  0.00  0.00     0.039 A 
ATOM      3  C2  UNL d   1      -2.299   3.885  -2.163  0.00  0.00    -0.080 A 
ATOM      4  C3  UNL d   1      -2.289   2.555  -1.750  0.00  0.00     0.150 A 
ATOM      5  C4  UNL d   1      -1.306   2.085  -0.886  0.00  0.00    -0.007 A 
ATOM      6  C5  UNL d   1      -0.315   2.953  -0.429  0.00  0.00     0.039 A 
ENDROOT
BRANCH   4   7
ATOM      7  O   UNL d   1      -3.234   1.670  -2.176  0.00  0.00    -0.526 OA
ATOM      8  H5  UNL d   1      -3.831   2.128  -2.790  0.00  0.00     0.418 HD
ENDBRANCH   4   7
TORSDOF 1
ENDMDL
