MODEL 1
REMARK minimizedAffinity 4.54767323
REMARK minimizedRMSD -1
REMARK  1 active torsions:
REMARK  status: ('A' for Active; 'I' for Inactive)
REMARK    1  A    between atoms: C3_4  and  O_7 
ROOT
ATOM      1  C   UNL d   1       4.484  -5.459  -0.750  0.00  0.00    -0.033 A 
ATOM      2  C1  UNL d   1       3.584  -6.000  -1.670  0.00  0.00     0.039 A 
ATOM      3  C2  UNL d   1       3.889  -5.997  -3.033  0.00  0.00    -0.080 A 
ATOM      4  C3  UNL d   1       5.097  -5.452  -3.461  0.00  0.00     0.150 A 
ATOM      5  C4  UNL d   1       6.000  -4.916  -2.550  0.00  0.00    -0.007 A 
ATOM      6  C5  UNL d   1       5.693  -4.919  -1.190  0.00  0.00     0.039 A 
ENDROOT
BRANCH   4   7
ATOM      7  O   UNL d   1       5.436  -5.423  -4.781  0.00  0.00    -0.526 OA
ATOM      8  H5  UNL d   1       4.704  -5.802  -5.296  0.00  0.00     0.418 HD
ENDBRANCH   4   7
TORSDOF 1
ENDMDL
