MODEL 1
REMARK minimizedAffinity -4.36002159
REMARK minimizedRMSD -1
REMARK  1 active torsions:
REMARK  status: ('A' for Active; 'I' for Inactive)
REMARK    1  A    between atoms: N_2  and  C1_3 
ROOT
ATOM      1  C1  UNL d   1      -2.538   1.806   3.422  0.00  0.00     0.143 A 
ATOM      2  C2  UNL d   1      -3.917   1.581   3.343  0.00  0.00    -0.057 A 
ATOM      3  C3  UNL d   1      -4.456   0.703   2.396  0.00  0.00     0.033 A 
ATOM      4  C4  UNL d   1      -3.626   0.053   1.488  0.00  0.00    -0.042 A 
ATOM      5  C5  UNL d   1      -2.255   0.280   1.532  0.00  0.00     0.033 A 
ATOM      6  C6  UNL d   1      -1.721   1.154   2.485  0.00  0.00    -0.057 A 
ENDROOT
BRANCH   1   7
ATOM      7  N   UNL d   1      -1.950   2.742   4.276  0.00  0.00    -0.732 N 
ATOM      8  C   UNL d   1      -2.667   3.239   5.431  0.00  0.00     0.284 C 
ATOM      9  H3  UNL d   1      -0.967   2.545   4.450  0.00  0.00     0.395 HD
ENDBRANCH   1   7
TORSDOF 1
ENDMDL
