MODEL 1
REMARK minimizedAffinity -1.73316634
REMARK minimizedRMSD -1
REMARK  1 active torsions:
REMARK  status: ('A' for Active; 'I' for Inactive)
REMARK    1  A    between atoms: N_2  and  C1_3 
ROOT
ATOM      1  C1  UNL d   1      -0.757  -0.004   0.683  0.00  0.00     0.143 A 
ATOM      2  C2  UNL d   1      -0.785  -1.306   0.173  0.00  0.00    -0.057 A 
ATOM      3  C3  UNL d   1      -0.038  -1.660  -0.957  0.00  0.00     0.033 A 
ATOM      4  C4  UNL d   1       0.731  -0.707  -1.616  0.00  0.00    -0.042 A 
ATOM      5  C5  UNL d   1       0.755   0.600  -1.142  0.00  0.00     0.033 A 
ATOM      6  C6  UNL d   1       0.012   0.945  -0.009  0.00  0.00    -0.057 A 
ENDROOT
BRANCH   1   7
ATOM      7  N   UNL d   1      -1.553   0.434   1.744  0.00  0.00    -0.732 N 
ATOM      8  C   UNL d   1      -2.971   0.655   1.558  0.00  0.00     0.284 C 
ATOM      9  H3  UNL d   1      -1.315  -0.021   2.622  0.00  0.00     0.395 HD
ENDBRANCH   1   7
TORSDOF 1
ENDMDL
