MODEL 1
REMARK minimizedAffinity -3.62238026
REMARK minimizedRMSD -1
REMARK  1 active torsions:
REMARK  status: ('A' for Active; 'I' for Inactive)
REMARK    1  A    between atoms: N_2  and  C1_3 
ROOT
ATOM      1  C1  UNL d   1      -0.238  -0.394   0.613  0.00  0.00     0.143 A 
ATOM      2  C2  UNL d   1      -0.122  -1.351  -0.401  0.00  0.00    -0.057 A 
ATOM      3  C3  UNL d   1       0.526  -1.057  -1.606  0.00  0.00     0.033 A 
ATOM      4  C4  UNL d   1       1.047   0.213  -1.831  0.00  0.00    -0.042 A 
ATOM      5  C5  UNL d   1       0.922   1.188  -0.847  0.00  0.00     0.033 A 
ATOM      6  C6  UNL d   1       0.280   0.886   0.357  0.00  0.00    -0.057 A 
ENDROOT
BRANCH   1   7
ATOM      7  N   UNL d   1      -0.957  -0.594   1.794  0.00  0.00    -0.732 N 
ATOM      8  C   UNL d   1      -2.210   0.092   2.019  0.00  0.00     0.284 C 
ATOM      9  H3  UNL d   1      -0.958  -1.568   2.088  0.00  0.00     0.395 HD
ENDBRANCH   1   7
TORSDOF 1
ENDMDL
