MODEL 1
REMARK minimizedAffinity -3.27729702
REMARK minimizedRMSD -1
REMARK  1 active torsions:
REMARK  status: ('A' for Active; 'I' for Inactive)
REMARK    1  A    between atoms: N_2  and  C1_3 
ROOT
ATOM      1  C1  UNL d   1      -1.108   0.170   1.657  0.00  0.00     0.143 A 
ATOM      2  C2  UNL d   1      -1.586   1.184   2.494  0.00  0.00    -0.057 A 
ATOM      3  C3  UNL d   1      -2.923   1.213   2.909  0.00  0.00     0.033 A 
ATOM      4  C4  UNL d   1      -3.815   0.241   2.470  0.00  0.00    -0.042 A 
ATOM      5  C5  UNL d   1      -3.368  -0.763   1.618  0.00  0.00     0.033 A 
ATOM      6  C6  UNL d   1      -2.031  -0.790   1.212  0.00  0.00    -0.057 A 
ENDROOT
BRANCH   1   7
ATOM      7  N   UNL d   1       0.185   0.141   1.130  0.00  0.00    -0.732 N 
ATOM      8  C   UNL d   1       0.671   1.231   0.310  0.00  0.00     0.284 C 
ATOM      9  H3  UNL d   1       0.868  -0.215   1.795  0.00  0.00     0.395 HD
ENDBRANCH   1   7
TORSDOF 1
ENDMDL
