MODEL 1
REMARK minimizedAffinity -0.30908829
REMARK minimizedRMSD -1
REMARK  1 active torsions:
REMARK  status: ('A' for Active; 'I' for Inactive)
REMARK    1  A    between atoms: N_2  and  C1_3 
ROOT
ATOM      1  C1  UNL d   1       1.103   0.951  -0.771  0.00  0.00     0.143 A 
ATOM      2  C2  UNL d   1       0.311  -0.202  -0.739  0.00  0.00    -0.057 A 
ATOM      3  C3  UNL d   1      -0.597  -0.431   0.302  0.00  0.00     0.033 A 
ATOM      4  C4  UNL d   1      -0.708   0.479   1.348  0.00  0.00    -0.042 A 
ATOM      5  C5  UNL d   1       0.087   1.620   1.350  0.00  0.00     0.033 A 
ATOM      6  C6  UNL d   1       0.987   1.846   0.305  0.00  0.00    -0.057 A 
ENDROOT
BRANCH   1   7
ATOM      7  N   UNL d   1       2.095   1.187  -1.726  0.00  0.00    -0.732 N 
ATOM      8  C   UNL d   1       3.495   1.099  -1.372  0.00  0.00     0.284 C 
ATOM      9  H3  UNL d   1       1.868   0.780  -2.630  0.00  0.00     0.395 HD
ENDBRANCH   1   7
TORSDOF 1
ENDMDL
