MODEL 1
REMARK minimizedAffinity 2.99579787
REMARK minimizedRMSD -1
REMARK  1 active torsions:
REMARK  status: ('A' for Active; 'I' for Inactive)
REMARK    1  A    between atoms: N_2  and  C1_3 
ROOT
ATOM      1  C1  UNL d   1       0.290  -1.168   0.185  0.00  0.00     0.143 A 
ATOM      2  C2  UNL d   1       1.261  -0.528  -0.592  0.00  0.00    -0.057 A 
ATOM      3  C3  UNL d   1       1.372   0.868  -0.611  0.00  0.00     0.033 A 
ATOM      4  C4  UNL d   1       0.492   1.652   0.128  0.00  0.00    -0.042 A 
ATOM      5  C5  UNL d   1      -0.497   1.038   0.889  0.00  0.00     0.033 A 
ATOM      6  C6  UNL d   1      -0.599  -0.356   0.908  0.00  0.00    -0.057 A 
ENDROOT
BRANCH   1   7
ATOM      7  N   UNL d   1       0.065  -2.547   0.169  0.00  0.00    -0.732 N 
ATOM      8  C   UNL d   1       0.850  -3.411  -0.685  0.00  0.00     0.284 C 
ATOM      9  H3  UNL d   1      -0.105  -2.923   1.099  0.00  0.00     0.395 HD
ENDBRANCH   1   7
TORSDOF 1
ENDMDL
