MODEL 1
REMARK minimizedAffinity -4.54961014
REMARK minimizedRMSD -1
REMARK  1 active torsions:
REMARK  status: ('A' for Active; 'I' for Inactive)
REMARK    1  A    between atoms: N_2  and  C1_3 
ROOT
ATOM      1  C1  UNL d   1       0.087  -0.186   0.432  0.00  0.00     0.143 A 
ATOM      2  C2  UNL d   1       0.753   0.822  -0.275  0.00  0.00    -0.057 A 
ATOM      3  C3  UNL d   1       1.184   0.621  -1.592  0.00  0.00     0.033 A 
ATOM      4  C4  UNL d   1       0.982  -0.604  -2.217  0.00  0.00    -0.042 A 
ATOM      5  C5  UNL d   1       0.344  -1.628  -1.525  0.00  0.00     0.033 A 
ATOM      6  C6  UNL d   1      -0.090  -1.420  -0.213  0.00  0.00    -0.057 A 
ENDROOT
BRANCH   1   7
ATOM      7  N   UNL d   1      -0.278  -0.081   1.776  0.00  0.00    -0.732 N 
ATOM      8  C   UNL d   1      -1.671   0.028   2.156  0.00  0.00     0.284 C 
ATOM      9  H3  UNL d   1       0.269  -0.694   2.376  0.00  0.00     0.395 HD
ENDBRANCH   1   7
TORSDOF 1
ENDMDL
