MODEL 1
REMARK minimizedAffinity -3.70529556
REMARK minimizedRMSD -1
REMARK  1 active torsions:
REMARK  status: ('A' for Active; 'I' for Inactive)
REMARK    1  A    between atoms: N_2  and  C1_3 
ROOT
ATOM      1  C1  UNL d   1      -4.292   2.374  -5.618  0.00  0.00     0.143 A 
ATOM      2  C2  UNL d   1      -3.112   3.123  -5.539  0.00  0.00    -0.057 A 
ATOM      3  C3  UNL d   1      -3.143   4.519  -5.442  0.00  0.00     0.033 A 
ATOM      4  C4  UNL d   1      -4.359   5.196  -5.452  0.00  0.00    -0.042 A 
ATOM      5  C5  UNL d   1      -5.543   4.475  -5.555  0.00  0.00     0.033 A 
ATOM      6  C6  UNL d   1      -5.505   3.080  -5.644  0.00  0.00    -0.057 A 
ENDROOT
BRANCH   1   7
ATOM      7  N   UNL d   1      -4.324   0.992  -5.815  0.00  0.00    -0.732 N 
ATOM      8  C   UNL d   1      -5.565   0.258  -5.693  0.00  0.00     0.284 C 
ATOM      9  H3  UNL d   1      -3.742   0.697  -6.596  0.00  0.00     0.395 HD
ENDBRANCH   1   7
TORSDOF 1
ENDMDL
