MODEL 1
REMARK minimizedAffinity -2.63963246
REMARK minimizedRMSD -1
REMARK  1 active torsions:
REMARK  status: ('A' for Active; 'I' for Inactive)
REMARK    1  A    between atoms: N_2  and  C1_3 
ROOT
ATOM      1  C1  UNL d   1       0.573  -0.660  -1.425  0.00  0.00     0.143 A 
ATOM      2  C2  UNL d   1       0.043  -1.493  -0.434  0.00  0.00    -0.057 A 
ATOM      3  C3  UNL d   1      -0.370  -0.980   0.802  0.00  0.00     0.033 A 
ATOM      4  C4  UNL d   1      -0.233   0.376   1.080  0.00  0.00    -0.042 A 
ATOM      5  C5  UNL d   1       0.314   1.219   0.119  0.00  0.00     0.033 A 
ATOM      6  C6  UNL d   1       0.719   0.701  -1.116  0.00  0.00    -0.057 A 
ENDROOT
BRANCH   1   7
ATOM      7  N   UNL d   1       1.092  -1.125  -2.636  0.00  0.00    -0.732 N 
ATOM      8  C   UNL d   1       2.326  -0.584  -3.164  0.00  0.00     0.284 C 
ATOM      9  H3  UNL d   1       1.004  -2.133  -2.734  0.00  0.00     0.395 HD
ENDBRANCH   1   7
TORSDOF 1
ENDMDL
