MODEL 1
REMARK minimizedAffinity 2.23508835
REMARK minimizedRMSD -1
REMARK  1 active torsions:
REMARK  status: ('A' for Active; 'I' for Inactive)
REMARK    1  A    between atoms: N_2  and  C1_3 
ROOT
ATOM      1  C1  UNL d   1       0.974   0.535   0.914  0.00  0.00     0.143 A 
ATOM      2  C2  UNL d   1       0.513  -0.591   0.225  0.00  0.00    -0.057 A 
ATOM      3  C3  UNL d   1       1.105  -1.001  -0.976  0.00  0.00     0.033 A 
ATOM      4  C4  UNL d   1       2.155  -0.271  -1.525  0.00  0.00    -0.042 A 
ATOM      5  C5  UNL d   1       2.613   0.866  -0.870  0.00  0.00     0.033 A 
ATOM      6  C6  UNL d   1       2.022   1.266   0.332  0.00  0.00    -0.057 A 
ENDROOT
BRANCH   1   7
ATOM      7  N   UNL d   1       0.363   1.050   2.060  0.00  0.00    -0.732 N 
ATOM      8  C   UNL d   1      -1.039   1.406   2.051  0.00  0.00     0.284 C 
ATOM      9  H3  UNL d   1       0.667   0.576   2.908  0.00  0.00     0.395 HD
ENDBRANCH   1   7
TORSDOF 1
ENDMDL
