MODEL 1
REMARK minimizedAffinity -4.48187685
REMARK minimizedRMSD -1
REMARK  1 active torsions:
REMARK  status: ('A' for Active; 'I' for Inactive)
REMARK    1  A    between atoms: N_2  and  C1_3 
ROOT
ATOM      1  C1  UNL d   1       0.904   0.260  -1.043  0.00  0.00     0.143 A 
ATOM      2  C2  UNL d   1       0.389  -1.026  -0.856  0.00  0.00    -0.057 A 
ATOM      3  C3  UNL d   1      -0.397  -1.338   0.260  0.00  0.00     0.033 A 
ATOM      4  C4  UNL d   1      -0.659  -0.372   1.226  0.00  0.00    -0.042 A 
ATOM      5  C5  UNL d   1      -0.136   0.907   1.073  0.00  0.00     0.033 A 
ATOM      6  C6  UNL d   1       0.643   1.214  -0.047  0.00  0.00    -0.057 A 
ENDROOT
BRANCH   1   7
ATOM      7  N   UNL d   1       1.774   0.606  -2.081  0.00  0.00    -0.732 N 
ATOM      8  C   UNL d   1       1.830  -0.185  -3.291  0.00  0.00     0.284 C 
ATOM      9  H3  UNL d   1       1.809   1.611  -2.239  0.00  0.00     0.395 HD
ENDBRANCH   1   7
TORSDOF 1
ENDMDL
