MODEL 1
REMARK minimizedAffinity -1.34178376
REMARK minimizedRMSD -1
REMARK  1 active torsions:
REMARK  status: ('A' for Active; 'I' for Inactive)
REMARK    1  A    between atoms: N_2  and  C1_3 
ROOT
ATOM      1  C1  UNL d   1      -0.825   0.336   1.314  0.00  0.00     0.143 A 
ATOM      2  C2  UNL d   1      -0.802  -0.721   0.397  0.00  0.00    -0.057 A 
ATOM      3  C3  UNL d   1       0.104  -0.736  -0.671  0.00  0.00     0.033 A 
ATOM      4  C4  UNL d   1       0.986   0.323  -0.858  0.00  0.00    -0.042 A 
ATOM      5  C5  UNL d   1       0.965   1.395   0.027  0.00  0.00     0.033 A 
ATOM      6  C6  UNL d   1       0.062   1.402   1.095  0.00  0.00    -0.057 A 
ENDROOT
BRANCH   1   7
ATOM      7  N   UNL d   1      -1.767   0.457   2.338  0.00  0.00    -0.732 N 
ATOM      8  C   UNL d   1      -3.182   0.497   2.037  0.00  0.00     0.284 C 
ATOM      9  H3  UNL d   1      -1.531  -0.108   3.151  0.00  0.00     0.395 HD
ENDBRANCH   1   7
TORSDOF 1
ENDMDL
