MODEL 1
REMARK minimizedAffinity -2.59601378
REMARK minimizedRMSD -1
REMARK  1 active torsions:
REMARK  status: ('A' for Active; 'I' for Inactive)
REMARK    1  A    between atoms: N_2  and  C1_3 
ROOT
ATOM      1  C1  UNL d   1      -4.141   2.247  -5.793  0.00  0.00     0.143 A 
ATOM      2  C2  UNL d   1      -2.846   2.740  -5.601  0.00  0.00    -0.057 A 
ATOM      3  C3  UNL d   1      -2.600   4.115  -5.500  0.00  0.00     0.033 A 
ATOM      4  C4  UNL d   1      -3.645   5.025  -5.620  0.00  0.00    -0.042 A 
ATOM      5  C5  UNL d   1      -4.937   4.559  -5.836  0.00  0.00     0.033 A 
ATOM      6  C6  UNL d   1      -5.177   3.185  -5.929  0.00  0.00    -0.057 A 
ENDROOT
BRANCH   1   7
ATOM      7  N   UNL d   1      -4.437   0.897  -6.000  0.00  0.00    -0.732 N 
ATOM      8  C   UNL d   1      -5.807   0.432  -5.985  0.00  0.00     0.284 C 
ATOM      9  H3  UNL d   1      -3.865   0.482  -6.731  0.00  0.00     0.395 HD
ENDBRANCH   1   7
TORSDOF 1
ENDMDL
