MODEL 1
REMARK minimizedAffinity -4.2127986
REMARK minimizedRMSD -1
REMARK  1 active torsions:
REMARK  status: ('A' for Active; 'I' for Inactive)
REMARK    1  A    between atoms: N_2  and  C1_3 
ROOT
ATOM      1  C1  UNL d   1       0.109   0.091   0.174  0.00  0.00     0.143 A 
ATOM      2  C2  UNL d   1       0.818   1.230  -0.219  0.00  0.00    -0.057 A 
ATOM      3  C3  UNL d   1       1.515   1.269  -1.433  0.00  0.00     0.033 A 
ATOM      4  C4  UNL d   1       1.539   0.153  -2.264  0.00  0.00    -0.042 A 
ATOM      5  C5  UNL d   1       0.861  -0.999  -1.881  0.00  0.00     0.033 A 
ATOM      6  C6  UNL d   1       0.161  -1.028  -0.671  0.00  0.00    -0.057 A 
ENDROOT
BRANCH   1   7
ATOM      7  N   UNL d   1      -0.522  -0.043   1.414  0.00  0.00    -0.732 N 
ATOM      8  C   UNL d   1      -1.920   0.298   1.571  0.00  0.00     0.284 C 
ATOM      9  H3  UNL d   1      -0.244  -0.892   1.901  0.00  0.00     0.395 HD
ENDBRANCH   1   7
TORSDOF 1
ENDMDL
