MODEL 1
REMARK minimizedAffinity -5.28377533
REMARK minimizedRMSD -1
REMARK  1 active torsions:
REMARK  status: ('A' for Active; 'I' for Inactive)
REMARK    1  A    between atoms: N_2  and  C1_3 
ROOT
ATOM      1  C1  UNL d   1       0.523  -0.746  -0.391  0.00  0.00     0.143 A 
ATOM      2  C2  UNL d   1       1.109   0.449  -0.823  0.00  0.00    -0.057 A 
ATOM      3  C3  UNL d   1       1.934   0.484  -1.954  0.00  0.00     0.033 A 
ATOM      4  C4  UNL d   1       2.213  -0.683  -2.656  0.00  0.00    -0.042 A 
ATOM      5  C5  UNL d   1       1.662  -1.886  -2.229  0.00  0.00     0.033 A 
ATOM      6  C6  UNL d   1       0.833  -1.914  -1.104  0.00  0.00    -0.057 A 
ENDROOT
BRANCH   1   7
ATOM      7  N   UNL d   1      -0.227  -0.864   0.782  0.00  0.00    -0.732 N 
ATOM      8  C   UNL d   1      -1.008   0.251   1.273  0.00  0.00     0.284 C 
ATOM      9  H3  UNL d   1      -0.697  -1.764   0.854  0.00  0.00     0.395 HD
ENDBRANCH   1   7
TORSDOF 1
ENDMDL
