MODEL 1
REMARK minimizedAffinity -4.54895735
REMARK minimizedRMSD -1
REMARK  1 active torsions:
REMARK  status: ('A' for Active; 'I' for Inactive)
REMARK    1  A    between atoms: N_2  and  C1_3 
ROOT
ATOM      1  C1  UNL d   1       0.549   0.297  -0.243  0.00  0.00     0.143 A 
ATOM      2  C2  UNL d   1       1.587   1.122  -0.689  0.00  0.00    -0.057 A 
ATOM      3  C3  UNL d   1       2.340   0.793  -1.822  0.00  0.00     0.033 A 
ATOM      4  C4  UNL d   1       2.086  -0.386  -2.515  0.00  0.00    -0.042 A 
ATOM      5  C5  UNL d   1       1.076  -1.234  -2.076  0.00  0.00     0.033 A 
ATOM      6  C6  UNL d   1       0.322  -0.896  -0.947  0.00  0.00    -0.057 A 
ENDROOT
BRANCH   1   7
ATOM      7  N   UNL d   1      -0.172   0.520   0.933  0.00  0.00    -0.732 N 
ATOM      8  C   UNL d   1      -1.610   0.367   0.957  0.00  0.00     0.284 C 
ATOM      9  H3  UNL d   1       0.300   0.146   1.754  0.00  0.00     0.395 HD
ENDBRANCH   1   7
TORSDOF 1
ENDMDL
