MODEL 1
REMARK minimizedAffinity 10.4120808
REMARK minimizedRMSD -1
REMARK  0 active torsions:
REMARK  status: ('A' for Active; 'I' for Inactive)
ROOT
ATOM      1  C1  BNZ d   1      -0.184   3.647  -0.680  0.00  0.00     0.000 A 
ATOM      2  C2  BNZ d   1      -0.139   2.511   0.084  0.00  0.00     0.000 A 
ATOM      3  C3  BNZ d   1       0.582   2.478   1.245  0.00  0.00     0.000 A 
ATOM      4  C4  BNZ d   1       1.288   3.564   1.619  0.00  0.00     0.000 A 
ATOM      5  C5  BNZ d   1       1.260   4.713   0.854  0.00  0.00     0.000 A 
ATOM      6  C6  BNZ d   1       0.502   4.756  -0.294  0.00  0.00     0.000 A 
ENDROOT
TORSDOF 0
ENDMDL
