MODEL 1
REMARK minimizedAffinity 5.71452904
REMARK minimizedRMSD -1
REMARK  0 active torsions:
REMARK  status: ('A' for Active; 'I' for Inactive)
ROOT
ATOM      1  C1  BNZ d   1      -0.333   5.985  -0.734  0.00  0.00     0.000 A 
ATOM      2  C2  BNZ d   1       0.363   4.852  -1.063  0.00  0.00     0.000 A 
ATOM      3  C3  BNZ d   1       0.256   3.720  -0.305  0.00  0.00     0.000 A 
ATOM      4  C4  BNZ d   1      -0.515   3.734   0.802  0.00  0.00     0.000 A 
ATOM      5  C5  BNZ d   1      -1.216   4.871   1.151  0.00  0.00     0.000 A 
ATOM      6  C6  BNZ d   1      -1.136   5.996   0.364  0.00  0.00     0.000 A 
ENDROOT
TORSDOF 0
ENDMDL
