MODEL 1
REMARK minimizedAffinity 1.27506912
REMARK minimizedRMSD -1
REMARK  0 active torsions:
REMARK  status: ('A' for Active; 'I' for Inactive)
ROOT
ATOM      1  C1  BNZ d   1      -0.741   5.999   1.083  0.00  0.00     0.000 A 
ATOM      2  C2  BNZ d   1      -0.358   5.999  -0.232  0.00  0.00     0.000 A 
ATOM      3  C3  BNZ d   1       0.146   4.870  -0.814  0.00  0.00     0.000 A 
ATOM      4  C4  BNZ d   1       0.305   3.756  -0.071  0.00  0.00     0.000 A 
ATOM      5  C5  BNZ d   1      -0.067   3.743   1.258  0.00  0.00     0.000 A 
ATOM      6  C6  BNZ d   1      -0.610   4.870   1.831  0.00  0.00     0.000 A 
ENDROOT
TORSDOF 0
ENDMDL
