MODEL 1
REMARK minimizedAffinity 0.739222705
REMARK minimizedRMSD -1
REMARK  0 active torsions:
REMARK  status: ('A' for Active; 'I' for Inactive)
ROOT
ATOM      1  C1  BNZ d   1       5.274  -1.896  -1.154  0.00  0.00     0.000 A 
ATOM      2  C2  BNZ d   1       5.641  -3.215  -1.155  0.00  0.00     0.000 A 
ATOM      3  C3  BNZ d   1       4.795  -4.177  -0.678  0.00  0.00     0.000 A 
ATOM      4  C4  BNZ d   1       3.601  -3.815  -0.165  0.00  0.00     0.000 A 
ATOM      5  C5  BNZ d   1       3.221  -2.488  -0.149  0.00  0.00     0.000 A 
ATOM      6  C6  BNZ d   1       4.059  -1.527  -0.665  0.00  0.00     0.000 A 
ENDROOT
TORSDOF 0
ENDMDL
