MODEL 1
REMARK minimizedAffinity 6.36853456
REMARK minimizedRMSD -1
REMARK  0 active torsions:
REMARK  status: ('A' for Active; 'I' for Inactive)
ROOT
ATOM      1  C1  BNZ d   1      -0.986   2.607   2.973  0.00  0.00     0.000 A 
ATOM      2  C2  BNZ d   1      -1.190   3.405   1.879  0.00  0.00     0.000 A 
ATOM      3  C3  BNZ d   1      -0.145   3.778   1.081  0.00  0.00     0.000 A 
ATOM      4  C4  BNZ d   1       1.106   3.388   1.400  0.00  0.00     0.000 A 
ATOM      5  C5  BNZ d   1       1.329   2.591   2.506  0.00  0.00     0.000 A 
ATOM      6  C6  BNZ d   1       0.269   2.184   3.284  0.00  0.00     0.000 A 
ENDROOT
TORSDOF 0
ENDMDL
