MODEL 1
REMARK minimizedAffinity 4.53546572
REMARK minimizedRMSD -1
REMARK  0 active torsions:
REMARK  status: ('A' for Active; 'I' for Inactive)
ROOT
ATOM      1  C1  BNZ d   1       4.477  -3.013   0.654  0.00  0.00     0.000 A 
ATOM      2  C2  BNZ d   1       5.374  -3.863   0.063  0.00  0.00     0.000 A 
ATOM      3  C3  BNZ d   1       5.996  -3.523  -1.105  0.00  0.00     0.000 A 
ATOM      4  C4  BNZ d   1       5.691  -2.353  -1.702  0.00  0.00     0.000 A 
ATOM      5  C5  BNZ d   1       4.782  -1.489  -1.124  0.00  0.00     0.000 A 
ATOM      6  C6  BNZ d   1       4.187  -1.818   0.072  0.00  0.00     0.000 A 
ENDROOT
TORSDOF 0
ENDMDL
