MODEL 1
REMARK minimizedAffinity -2.07281518
REMARK minimizedRMSD -1
REMARK  0 active torsions:
REMARK  status: ('A' for Active; 'I' for Inactive)
ROOT
ATOM      1  C   UNL d   1       0.021   1.308  -0.136  0.00  0.00     0.172 C 
ATOM      2  N   UNL d   1      -0.715   1.455  -1.370  0.00  0.00    -0.070 N 
ATOM      3  C1  UNL d   1      -1.026   2.642  -1.977  0.00  0.00    -0.004 A 
ATOM      4  C2  UNL d   1      -1.730   2.357  -3.127  0.00  0.00    -0.047 A 
ATOM      5  C3  UNL d   1      -1.846   0.949  -3.214  0.00  0.00    -0.047 A 
ATOM      6  C4  UNL d   1      -1.209   0.416  -2.113  0.00  0.00    -0.004 A 
ENDROOT
TORSDOF 0
ENDMDL
