MODEL 1
REMARK minimizedAffinity -0.217463329
REMARK minimizedRMSD -1
REMARK  0 active torsions:
REMARK  status: ('A' for Active; 'I' for Inactive)
ROOT
ATOM      1  C   UNL d   1      -0.881  -0.969   1.891  0.00  0.00     0.172 C 
ATOM      2  N   UNL d   1       0.367  -1.066   1.171  0.00  0.00    -0.070 N 
ATOM      3  C1  UNL d   1       1.346  -1.997   1.393  0.00  0.00    -0.004 A 
ATOM      4  C2  UNL d   1       2.370  -1.753   0.503  0.00  0.00    -0.047 A 
ATOM      5  C3  UNL d   1       1.993  -0.637  -0.281  0.00  0.00    -0.047 A 
ATOM      6  C4  UNL d   1       0.748  -0.232   0.154  0.00  0.00    -0.004 A 
ENDROOT
TORSDOF 0
ENDMDL
