MODEL 1
REMARK minimizedAffinity 0.527964771
REMARK minimizedRMSD -1
REMARK  0 active torsions:
REMARK  status: ('A' for Active; 'I' for Inactive)
ROOT
ATOM      1  C   UNL d   1      -1.500   1.889  -2.297  0.00  0.00     0.172 C 
ATOM      2  N   UNL d   1      -0.768   1.410  -1.148  0.00  0.00    -0.070 N 
ATOM      3  C1  UNL d   1      -1.322   0.883  -0.012  0.00  0.00    -0.004 A 
ATOM      4  C2  UNL d   1      -0.294   0.547   0.842  0.00  0.00    -0.047 A 
ATOM      5  C3  UNL d   1       0.919   0.885   0.198  0.00  0.00    -0.047 A 
ATOM      6  C4  UNL d   1       0.597   1.417  -1.033  0.00  0.00    -0.004 A 
ENDROOT
TORSDOF 0
ENDMDL
