MODEL 1
REMARK minimizedAffinity -3.85812235
REMARK minimizedRMSD -1
REMARK  0 active torsions:
REMARK  status: ('A' for Active; 'I' for Inactive)
ROOT
ATOM      1  C   UNL d   1      -0.860   1.026  -0.355  0.00  0.00     0.172 C 
ATOM      2  N   UNL d   1      -0.466  -0.223   0.254  0.00  0.00    -0.070 N 
ATOM      3  C1  UNL d   1      -0.676  -0.575   1.560  0.00  0.00    -0.004 A 
ATOM      4  C2  UNL d   1      -0.156  -1.838   1.745  0.00  0.00    -0.047 A 
ATOM      5  C3  UNL d   1       0.386  -2.258   0.507  0.00  0.00    -0.047 A 
ATOM      6  C4  UNL d   1       0.181  -1.239  -0.398  0.00  0.00    -0.004 A 
ENDROOT
TORSDOF 0
ENDMDL
