MODEL 1
REMARK minimizedAffinity 2.67167664
REMARK minimizedRMSD -1
REMARK  0 active torsions:
REMARK  status: ('A' for Active; 'I' for Inactive)
ROOT
ATOM      1  C   UNL d   1      -0.716  -1.886   2.228  0.00  0.00     0.172 C 
ATOM      2  N   UNL d   1      -1.359  -1.597   0.967  0.00  0.00    -0.070 N 
ATOM      3  C1  UNL d   1      -1.673  -0.350   0.498  0.00  0.00    -0.004 A 
ATOM      4  C2  UNL d   1      -2.273  -0.501  -0.733  0.00  0.00    -0.047 A 
ATOM      5  C3  UNL d   1      -2.322  -1.887  -1.014  0.00  0.00    -0.047 A 
ATOM      6  C4  UNL d   1      -1.750  -2.543   0.056  0.00  0.00    -0.004 A 
ENDROOT
TORSDOF 0
ENDMDL
