MODEL 1
REMARK minimizedAffinity -1.87366152
REMARK minimizedRMSD -1
REMARK  0 active torsions:
REMARK  status: ('A' for Active; 'I' for Inactive)
ROOT
ATOM      1  C   UNL d   1      -1.387   0.480   1.538  0.00  0.00     0.172 C 
ATOM      2  N   UNL d   1      -2.019  -0.211   0.438  0.00  0.00    -0.070 N 
ATOM      3  C1  UNL d   1      -2.983   0.309  -0.383  0.00  0.00    -0.004 A 
ATOM      4  C2  UNL d   1      -3.323  -0.660  -1.301  0.00  0.00    -0.047 A 
ATOM      5  C3  UNL d   1      -2.538  -1.804  -1.021  0.00  0.00    -0.047 A 
ATOM      6  C4  UNL d   1      -1.739  -1.498   0.061  0.00  0.00    -0.004 A 
ENDROOT
TORSDOF 0
ENDMDL
