MODEL 1
REMARK minimizedAffinity 2.12777305
REMARK minimizedRMSD -1
REMARK  0 active torsions:
REMARK  status: ('A' for Active; 'I' for Inactive)
ROOT
ATOM      1  C   UNL d   1       3.160   0.385  -1.480  0.00  0.00     0.172 C 
ATOM      2  N   UNL d   1       2.696  -0.669  -0.609  0.00  0.00    -0.070 N 
ATOM      3  C1  UNL d   1       1.995  -0.493   0.554  0.00  0.00    -0.004 A 
ATOM      4  C2  UNL d   1       1.742  -1.738   1.087  0.00  0.00    -0.047 A 
ATOM      5  C3  UNL d   1       2.312  -2.696   0.215  0.00  0.00    -0.047 A 
ATOM      6  C4  UNL d   1       2.896  -2.007  -0.826  0.00  0.00    -0.004 A 
ENDROOT
TORSDOF 0
ENDMDL
