MODEL 1
REMARK minimizedAffinity -0.146252751
REMARK minimizedRMSD -1
REMARK  0 active torsions:
REMARK  status: ('A' for Active; 'I' for Inactive)
ROOT
ATOM      1  C   UNL d   1       3.453  -0.691  -1.579  0.00  0.00     0.172 C 
ATOM      2  N   UNL d   1       2.779  -1.446  -0.549  0.00  0.00    -0.070 N 
ATOM      3  C1  UNL d   1       2.078  -2.607  -0.740  0.00  0.00    -0.004 A 
ATOM      4  C2  UNL d   1       1.590  -3.011   0.484  0.00  0.00    -0.047 A 
ATOM      5  C3  UNL d   1       2.011  -2.060   1.443  0.00  0.00    -0.047 A 
ATOM      6  C4  UNL d   1       2.745  -1.102   0.776  0.00  0.00    -0.004 A 
ENDROOT
TORSDOF 0
ENDMDL
