MODEL 1
REMARK minimizedAffinity 0.0118413735
REMARK minimizedRMSD -1
REMARK  0 active torsions:
REMARK  status: ('A' for Active; 'I' for Inactive)
ROOT
ATOM      1  C   UNL d   1       3.541   0.512  -2.237  0.00  0.00     0.172 C 
ATOM      2  N   UNL d   1       3.004  -0.280  -1.155  0.00  0.00    -0.070 N 
ATOM      3  C1  UNL d   1       2.982  -1.648  -1.101  0.00  0.00    -0.004 A 
ATOM      4  C2  UNL d   1       2.391  -2.013   0.089  0.00  0.00    -0.047 A 
ATOM      5  C3  UNL d   1       2.045  -0.824   0.773  0.00  0.00    -0.047 A 
ATOM      6  C4  UNL d   1       2.436   0.234  -0.019  0.00  0.00    -0.004 A 
ENDROOT
TORSDOF 0
ENDMDL
