MODEL 1
REMARK minimizedAffinity -1.42132401
REMARK minimizedRMSD -1
REMARK  0 active torsions:
REMARK  status: ('A' for Active; 'I' for Inactive)
ROOT
ATOM      1  C   UNL d   1       2.942  -0.404  -1.742  0.00  0.00     0.172 C 
ATOM      2  N   UNL d   1       2.262  -1.099  -0.675  0.00  0.00    -0.070 N 
ATOM      3  C1  UNL d   1       2.037  -2.448  -0.617  0.00  0.00    -0.004 A 
ATOM      4  C2  UNL d   1       1.361  -2.713   0.555  0.00  0.00    -0.047 A 
ATOM      5  C3  UNL d   1       1.173  -1.481   1.224  0.00  0.00    -0.047 A 
ATOM      6  C4  UNL d   1       1.740  -0.498   0.440  0.00  0.00    -0.004 A 
ENDROOT
TORSDOF 0
ENDMDL
