MODEL 1
REMARK minimizedAffinity 4.53886461
REMARK minimizedRMSD -1
REMARK  0 active torsions:
REMARK  status: ('A' for Active; 'I' for Inactive)
ROOT
ATOM      1  C   UNL d   1      -3.701   0.811  -0.610  0.00  0.00     0.172 C 
ATOM      2  N   UNL d   1      -3.400   1.442  -1.874  0.00  0.00    -0.070 N 
ATOM      3  C1  UNL d   1      -2.164   1.873  -2.276  0.00  0.00    -0.004 A 
ATOM      4  C2  UNL d   1      -2.296   2.415  -3.536  0.00  0.00    -0.047 A 
ATOM      5  C3  UNL d   1      -3.658   2.305  -3.904  0.00  0.00    -0.047 A 
ATOM      6  C4  UNL d   1      -4.319   1.699  -2.856  0.00  0.00    -0.004 A 
ENDROOT
TORSDOF 0
ENDMDL
