MODEL 1
REMARK minimizedAffinity -0.396061778
REMARK minimizedRMSD -1
REMARK  0 active torsions:
REMARK  status: ('A' for Active; 'I' for Inactive)
ROOT
ATOM      1  C   UNL d   1       3.328  -0.147  -1.718  0.00  0.00     0.172 C 
ATOM      2  N   UNL d   1       2.410  -0.490  -0.657  0.00  0.00    -0.070 N 
ATOM      3  C1  UNL d   1       1.581   0.383  -0.006  0.00  0.00    -0.004 A 
ATOM      4  C2  UNL d   1       0.869  -0.331   0.933  0.00  0.00    -0.047 A 
ATOM      5  C3  UNL d   1       1.285  -1.681   0.844  0.00  0.00    -0.047 A 
ATOM      6  C4  UNL d   1       2.240  -1.751  -0.149  0.00  0.00    -0.004 A 
ENDROOT
TORSDOF 0
ENDMDL
