MODEL 1
REMARK minimizedAffinity 0.717531145
REMARK minimizedRMSD -1
REMARK  0 active torsions:
REMARK  status: ('A' for Active; 'I' for Inactive)
ROOT
ATOM      1  C   UNL d   1       2.948   0.746  -1.273  0.00  0.00     0.172 C 
ATOM      2  N   UNL d   1       2.338  -0.221  -0.391  0.00  0.00    -0.070 N 
ATOM      3  C1  UNL d   1       1.382   0.049   0.551  0.00  0.00    -0.004 A 
ATOM      4  C2  UNL d   1       1.063  -1.135   1.180  0.00  0.00    -0.047 A 
ATOM      5  C3  UNL d   1       1.855  -2.152   0.596  0.00  0.00    -0.047 A 
ATOM      6  C4  UNL d   1       2.635  -1.558  -0.374  0.00  0.00    -0.004 A 
ENDROOT
TORSDOF 0
ENDMDL
