MODEL 1
REMARK minimizedAffinity 3.62078357
REMARK minimizedRMSD -1
REMARK  0 active torsions:
REMARK  status: ('A' for Active; 'I' for Inactive)
ROOT
ATOM      1  C   UNL d   1       1.990  -1.920   1.497  0.00  0.00     0.172 C 
ATOM      2  N   UNL d   1       0.672  -1.809   2.077  0.00  0.00    -0.070 N 
ATOM      3  C1  UNL d   1       0.379  -1.871   3.413  0.00  0.00    -0.004 A 
ATOM      4  C2  UNL d   1      -0.984  -1.722   3.554  0.00  0.00    -0.047 A 
ATOM      5  C3  UNL d   1      -1.529  -1.567   2.257  0.00  0.00    -0.047 A 
ATOM      6  C4  UNL d   1      -0.482  -1.624   1.362  0.00  0.00    -0.004 A 
ENDROOT
TORSDOF 0
ENDMDL
