MODEL 1
REMARK minimizedAffinity 3.33174992
REMARK minimizedRMSD -1
REMARK  0 active torsions:
REMARK  status: ('A' for Active; 'I' for Inactive)
ROOT
ATOM      1  C   UNL d   1      -3.160   1.080   0.007  0.00  0.00     0.172 C 
ATOM      2  N   UNL d   1      -2.959   1.531  -1.350  0.00  0.00    -0.070 N 
ATOM      3  C1  UNL d   1      -1.825   2.127  -1.834  0.00  0.00    -0.004 A 
ATOM      4  C2  UNL d   1      -2.030   2.404  -3.168  0.00  0.00    -0.047 A 
ATOM      5  C3  UNL d   1      -3.332   1.960  -3.498  0.00  0.00    -0.047 A 
ATOM      6  C4  UNL d   1      -3.885   1.423  -2.354  0.00  0.00    -0.004 A 
ENDROOT
TORSDOF 0
ENDMDL
