MODEL 1
REMARK minimizedAffinity -2.21716833
REMARK minimizedRMSD -1
REMARK  1 active torsions:
REMARK  status: ('A' for Active; 'I' for Inactive)
REMARK    1  A    between atoms: C1_2  and  C2_3 
ROOT
ATOM      1  C2  UNL d   1       0.288  -0.616   0.654  0.00  0.00    -0.073 A 
ATOM      2  C3  UNL d   1       1.450  -0.047   0.121  0.00  0.00    -0.002 A 
ATOM      3  C4  UNL d   1       2.677  -0.699   0.249  0.00  0.00     0.004 A 
ATOM      4  C5  UNL d   1       2.754  -1.928   0.903  0.00  0.00    -0.004 A 
ATOM      5  C6  UNL d   1       1.602  -2.519   1.432  0.00  0.00    -0.075 A 
ATOM      6  C7  UNL d   1       1.668  -3.840   2.141  0.00  0.00     0.076 C 
ATOM      7  C8  UNL d   1       0.374  -1.857   1.302  0.00  0.00     0.001 A 
ENDROOT
BRANCH   1   8
ATOM      8  C1  UNL d   1      -1.040   0.081   0.513  0.00  0.00     0.053 C 
ATOM      9  C   UNL d   1      -1.826   0.079   1.814  0.00  0.00     0.018 C 
ENDBRANCH   1   8
TORSDOF 1
ENDMDL
