MODEL 1
REMARK minimizedAffinity -1.51894212
REMARK minimizedRMSD -1
REMARK  1 active torsions:
REMARK  status: ('A' for Active; 'I' for Inactive)
REMARK    1  A    between atoms: C1_2  and  C2_3 
ROOT
ATOM      1  C2  UNL d   1       2.296  -0.460   0.663  0.00  0.00    -0.073 A 
ATOM      2  C3  UNL d   1       1.882   0.558  -0.203  0.00  0.00    -0.002 A 
ATOM      3  C4  UNL d   1       0.523   0.790  -0.421  0.00  0.00     0.004 A 
ATOM      4  C5  UNL d   1      -0.434   0.012   0.229  0.00  0.00    -0.004 A 
ATOM      5  C6  UNL d   1      -0.041  -1.002   1.109  0.00  0.00    -0.075 A 
ATOM      6  C7  UNL d   1      -1.059  -1.849   1.815  0.00  0.00     0.076 C 
ATOM      7  C8  UNL d   1       1.325  -1.230   1.320  0.00  0.00     0.001 A 
ENDROOT
BRANCH   1   8
ATOM      8  C1  UNL d   1       3.762  -0.709   0.907  0.00  0.00     0.053 C 
ATOM      9  C   UNL d   1       4.180  -0.319   2.316  0.00  0.00     0.018 C 
ENDBRANCH   1   8
TORSDOF 1
ENDMDL
