MODEL 1
REMARK minimizedAffinity -5.58301926
REMARK minimizedRMSD -1
REMARK  1 active torsions:
REMARK  status: ('A' for Active; 'I' for Inactive)
REMARK    1  A    between atoms: C1_2  and  C2_3 
ROOT
ATOM      1  C2  UNL d   1       0.281  -0.503   0.920  0.00  0.00    -0.073 A 
ATOM      2  C3  UNL d   1      -0.770  -0.464   1.843  0.00  0.00    -0.002 A 
ATOM      3  C4  UNL d   1      -1.598   0.657   1.921  0.00  0.00     0.004 A 
ATOM      4  C5  UNL d   1      -1.389   1.745   1.073  0.00  0.00    -0.004 A 
ATOM      5  C6  UNL d   1      -0.351   1.720   0.136  0.00  0.00    -0.075 A 
ATOM      6  C7  UNL d   1      -0.111   2.883  -0.781  0.00  0.00     0.076 C 
ATOM      7  C8  UNL d   1       0.478   0.592   0.066  0.00  0.00     0.001 A 
ENDROOT
BRANCH   1   8
ATOM      8  C1  UNL d   1       1.174  -1.713   0.828  0.00  0.00     0.053 C 
ATOM      9  C   UNL d   1       2.590  -1.414   1.296  0.00  0.00     0.018 C 
ENDBRANCH   1   8
TORSDOF 1
ENDMDL
