MODEL 1
REMARK minimizedAffinity -5.15215015
REMARK minimizedRMSD -1
REMARK  1 active torsions:
REMARK  status: ('A' for Active; 'I' for Inactive)
REMARK    1  A    between atoms: C1_2  and  C2_3 
ROOT
ATOM      1  C2  UNL d   1       0.043  -1.312   0.918  0.00  0.00    -0.073 A 
ATOM      2  C3  UNL d   1      -0.868  -1.301   1.981  0.00  0.00    -0.002 A 
ATOM      3  C4  UNL d   1      -1.742  -0.226   2.149  0.00  0.00     0.004 A 
ATOM      4  C5  UNL d   1      -1.719   0.844   1.255  0.00  0.00    -0.004 A 
ATOM      5  C6  UNL d   1      -0.824   0.846   0.181  0.00  0.00    -0.075 A 
ATOM      6  C7  UNL d   1      -0.785   1.991  -0.789  0.00  0.00     0.076 C 
ATOM      7  C8  UNL d   1       0.052  -0.235   0.019  0.00  0.00     0.001 A 
ENDROOT
BRANCH   1   8
ATOM      8  C1  UNL d   1       0.984  -2.473   0.728  0.00  0.00     0.053 C 
ATOM      9  C   UNL d   1       2.387  -2.156   1.221  0.00  0.00     0.018 C 
ENDBRANCH   1   8
TORSDOF 1
ENDMDL
