MODEL 1
REMARK minimizedAffinity -3.79247308
REMARK minimizedRMSD -1
REMARK  1 active torsions:
REMARK  status: ('A' for Active; 'I' for Inactive)
REMARK    1  A    between atoms: C1_2  and  C2_3 
ROOT
ATOM      1  C2  UNL d   1      -0.142   0.372  -0.222  0.00  0.00    -0.073 A 
ATOM      2  C3  UNL d   1       1.115   0.783  -0.682  0.00  0.00    -0.002 A 
ATOM      3  C4  UNL d   1       2.258   0.054  -0.352  0.00  0.00     0.004 A 
ATOM      4  C5  UNL d   1       2.157  -1.093   0.435  0.00  0.00    -0.004 A 
ATOM      5  C6  UNL d   1       0.909  -1.526   0.894  0.00  0.00    -0.075 A 
ATOM      6  C7  UNL d   1       0.784  -2.757   1.743  0.00  0.00     0.076 C 
ATOM      7  C8  UNL d   1      -0.234  -0.788   0.561  0.00  0.00     0.001 A 
ENDROOT
BRANCH   1   8
ATOM      8  C1  UNL d   1      -1.380   1.152  -0.581  0.00  0.00     0.053 C 
ATOM      9  C   UNL d   1      -1.519   1.341  -2.083  0.00  0.00     0.018 C 
ENDBRANCH   1   8
TORSDOF 1
ENDMDL
