MODEL 1
REMARK minimizedAffinity -5.49574804
REMARK minimizedRMSD -1
REMARK  1 active torsions:
REMARK  status: ('A' for Active; 'I' for Inactive)
REMARK    1  A    between atoms: C1_2  and  C2_3 
ROOT
ATOM      1  C2  UNL d   1       0.250  -0.105  -0.302  0.00  0.00    -0.073 A 
ATOM      2  C3  UNL d   1       1.525   0.468  -0.372  0.00  0.00    -0.002 A 
ATOM      3  C4  UNL d   1       2.621  -0.178   0.203  0.00  0.00     0.004 A 
ATOM      4  C5  UNL d   1       2.454  -1.404   0.847  0.00  0.00    -0.004 A 
ATOM      5  C6  UNL d   1       1.190  -1.998   0.917  0.00  0.00    -0.075 A 
ATOM      6  C7  UNL d   1       0.994  -3.316   1.607  0.00  0.00     0.076 C 
ATOM      7  C8  UNL d   1       0.095  -1.342   0.339  0.00  0.00     0.001 A 
ENDROOT
BRANCH   1   8
ATOM      8  C1  UNL d   1      -0.934   0.585  -0.928  0.00  0.00     0.053 C 
ATOM      9  C   UNL d   1      -1.559   1.607   0.009  0.00  0.00     0.018 C 
ENDBRANCH   1   8
TORSDOF 1
ENDMDL
