MODEL 1
REMARK minimizedAffinity 2.31815648
REMARK minimizedRMSD -1
REMARK  1 active torsions:
REMARK  status: ('A' for Active; 'I' for Inactive)
REMARK    1  A    between atoms: C1_2  and  C2_3 
ROOT
ATOM      1  C2  UNL d   1      -1.724   1.300  -1.680  0.00  0.00    -0.073 A 
ATOM      2  C3  UNL d   1      -0.436   1.828  -1.820  0.00  0.00    -0.002 A 
ATOM      3  C4  UNL d   1       0.570   1.482  -0.917  0.00  0.00     0.004 A 
ATOM      4  C5  UNL d   1       0.301   0.600   0.129  0.00  0.00    -0.004 A 
ATOM      5  C6  UNL d   1      -0.977   0.052   0.279  0.00  0.00    -0.075 A 
ATOM      6  C7  UNL d   1      -1.284  -0.896   1.401  0.00  0.00     0.076 C 
ATOM      7  C8  UNL d   1      -1.983   0.407  -0.630  0.00  0.00     0.001 A 
ENDROOT
BRANCH   1   8
ATOM      8  C1  UNL d   1      -2.812   1.665  -2.657  0.00  0.00     0.053 C 
ATOM      9  C   UNL d   1      -2.248   2.166  -3.977  0.00  0.00     0.018 C 
ENDBRANCH   1   8
TORSDOF 1
ENDMDL
