MODEL 1
REMARK minimizedAffinity -5.24905348
REMARK minimizedRMSD -1
REMARK  1 active torsions:
REMARK  status: ('A' for Active; 'I' for Inactive)
REMARK    1  A    between atoms: C1_2  and  C2_3 
ROOT
ATOM      1  C2  UNL d   1       0.148   0.406   0.011  0.00  0.00    -0.073 A 
ATOM      2  C3  UNL d   1       1.321   0.941  -0.535  0.00  0.00    -0.002 A 
ATOM      3  C4  UNL d   1       2.515   0.220  -0.484  0.00  0.00     0.004 A 
ATOM      4  C5  UNL d   1       2.548  -1.042   0.108  0.00  0.00    -0.004 A 
ATOM      5  C6  UNL d   1       1.384  -1.599   0.649  0.00  0.00    -0.075 A 
ATOM      6  C7  UNL d   1       1.404  -2.955   1.291  0.00  0.00     0.076 C 
ATOM      7  C8  UNL d   1       0.190  -0.868   0.596  0.00  0.00     0.001 A 
ENDROOT
BRANCH   1   8
ATOM      8  C1  UNL d   1      -1.145   1.177  -0.048  0.00  0.00     0.053 C 
ATOM      9  C   UNL d   1      -1.348   1.846  -1.399  0.00  0.00     0.018 C 
ENDBRANCH   1   8
TORSDOF 1
ENDMDL
