MODEL 1
REMARK minimizedAffinity -5.61377811
REMARK minimizedRMSD -1
REMARK  1 active torsions:
REMARK  status: ('A' for Active; 'I' for Inactive)
REMARK    1  A    between atoms: C1_2  and  C2_3 
ROOT
ATOM      1  C2  UNL d   1       0.129   0.303   0.051  0.00  0.00    -0.073 A 
ATOM      2  C3  UNL d   1       1.340   0.747  -0.492  0.00  0.00    -0.002 A 
ATOM      3  C4  UNL d   1       2.525   0.059  -0.228  0.00  0.00     0.004 A 
ATOM      4  C5  UNL d   1       2.510  -1.082   0.575  0.00  0.00    -0.004 A 
ATOM      5  C6  UNL d   1       1.308  -1.548   1.117  0.00  0.00    -0.075 A 
ATOM      6  C7  UNL d   1       1.275  -2.772   1.984  0.00  0.00     0.076 C 
ATOM      7  C8  UNL d   1       0.123  -0.850   0.849  0.00  0.00     0.001 A 
ENDROOT
BRANCH   1   8
ATOM      8  C1  UNL d   1      -1.154   1.040  -0.237  0.00  0.00     0.053 C 
ATOM      9  C   UNL d   1      -0.999   2.028  -1.382  0.00  0.00     0.018 C 
ENDBRANCH   1   8
TORSDOF 1
ENDMDL
