MODEL 1
REMARK minimizedAffinity -2.67361951
REMARK minimizedRMSD -1
REMARK  1 active torsions:
REMARK  status: ('A' for Active; 'I' for Inactive)
REMARK    1  A    between atoms: C1_2  and  C2_3 
ROOT
ATOM      1  C2  UNL d   1      -0.147   0.569   0.084  0.00  0.00    -0.073 A 
ATOM      2  C3  UNL d   1       1.077   1.209  -0.139  0.00  0.00    -0.002 A 
ATOM      3  C4  UNL d   1       2.274   0.501  -0.028  0.00  0.00     0.004 A 
ATOM      4  C5  UNL d   1       2.260  -0.854   0.301  0.00  0.00    -0.004 A 
ATOM      5  C6  UNL d   1       1.046  -1.515   0.516  0.00  0.00    -0.075 A 
ATOM      6  C7  UNL d   1       1.014  -2.972   0.873  0.00  0.00     0.076 C 
ATOM      7  C8  UNL d   1      -0.151  -0.796   0.405  0.00  0.00     0.001 A 
ENDROOT
BRANCH   1   8
ATOM      8  C1  UNL d   1      -1.442   1.328  -0.042  0.00  0.00     0.053 C 
ATOM      9  C   UNL d   1      -1.632   1.905  -1.435  0.00  0.00     0.018 C 
ENDBRANCH   1   8
TORSDOF 1
ENDMDL
