MODEL 1
REMARK minimizedAffinity -5.5688405
REMARK minimizedRMSD -1
REMARK  1 active torsions:
REMARK  status: ('A' for Active; 'I' for Inactive)
REMARK    1  A    between atoms: C1_2  and  C2_3 
ROOT
ATOM      1  C2  UNL d   1       0.193   0.261  -0.067  0.00  0.00    -0.073 A 
ATOM      2  C3  UNL d   1       1.400   0.846  -0.466  0.00  0.00    -0.002 A 
ATOM      3  C4  UNL d   1       2.589   0.118  -0.411  0.00  0.00     0.004 A 
ATOM      4  C5  UNL d   1       2.583  -1.203   0.036  0.00  0.00    -0.004 A 
ATOM      5  C6  UNL d   1       1.385  -1.810   0.429  0.00  0.00    -0.075 A 
ATOM      6  C7  UNL d   1       1.361  -3.229   0.915  0.00  0.00     0.076 C 
ATOM      7  C8  UNL d   1       0.196  -1.070   0.373  0.00  0.00     0.001 A 
ENDROOT
BRANCH   1   8
ATOM      8  C1  UNL d   1      -1.094   1.042  -0.131  0.00  0.00     0.053 C 
ATOM      9  C   UNL d   1      -1.493   1.368  -1.561  0.00  0.00     0.018 C 
ENDBRANCH   1   8
TORSDOF 1
ENDMDL
