MODEL 1
REMARK minimizedAffinity -4.49546909
REMARK minimizedRMSD -1
REMARK  1 active torsions:
REMARK  status: ('A' for Active; 'I' for Inactive)
REMARK    1  A    between atoms: C1_2  and  C2_3 
ROOT
ATOM      1  C2  UNL d   1      -0.256   0.569  -0.199  0.00  0.00    -0.073 A 
ATOM      2  C3  UNL d   1       0.707   1.150  -1.032  0.00  0.00    -0.002 A 
ATOM      3  C4  UNL d   1       1.935   0.520  -1.236  0.00  0.00     0.004 A 
ATOM      4  C5  UNL d   1       2.211  -0.699  -0.616  0.00  0.00    -0.004 A 
ATOM      5  C6  UNL d   1       1.256  -1.301   0.210  0.00  0.00    -0.075 A 
ATOM      6  C7  UNL d   1       1.538  -2.611   0.886  0.00  0.00     0.076 C 
ATOM      7  C8  UNL d   1       0.026  -0.661   0.413  0.00  0.00     0.001 A 
ENDROOT
BRANCH   1   8
ATOM      8  C1  UNL d   1      -1.586   1.243   0.019  0.00  0.00     0.053 C 
ATOM      9  C   UNL d   1      -2.273   1.586  -1.293  0.00  0.00     0.018 C 
ENDBRANCH   1   8
TORSDOF 1
ENDMDL
