MODEL 1
REMARK minimizedAffinity -4.65480471
REMARK minimizedRMSD -1
REMARK  1 active torsions:
REMARK  status: ('A' for Active; 'I' for Inactive)
REMARK    1  A    between atoms: C1_2  and  C2_3 
ROOT
ATOM      1  C2  UNL d   1      -1.224   3.193  -3.738  0.00  0.00    -0.073 A 
ATOM      2  C3  UNL d   1      -2.441   2.791  -4.299  0.00  0.00    -0.002 A 
ATOM      3  C4  UNL d   1      -3.185   1.767  -3.710  0.00  0.00     0.004 A 
ATOM      4  C5  UNL d   1      -2.723   1.140  -2.553  0.00  0.00    -0.004 A 
ATOM      5  C6  UNL d   1      -1.514   1.536  -1.971  0.00  0.00    -0.075 A 
ATOM      6  C7  UNL d   1      -1.003   0.870  -0.727  0.00  0.00     0.076 C 
ATOM      7  C8  UNL d   1      -0.772   2.563  -2.569  0.00  0.00     0.001 A 
ENDROOT
BRANCH   1   8
ATOM      8  C1  UNL d   1      -0.421   4.302  -4.366  0.00  0.00     0.053 C 
ATOM      9  C   UNL d   1      -0.068   5.389  -3.363  0.00  0.00     0.018 C 
ENDBRANCH   1   8
TORSDOF 1
ENDMDL
