MODEL 1
REMARK minimizedAffinity 0.696035624
REMARK minimizedRMSD -1
REMARK  1 active torsions:
REMARK  status: ('A' for Active; 'I' for Inactive)
REMARK    1  A    between atoms: C1_2  and  C2_3 
ROOT
ATOM      1  C2  UNL d   1       5.837  -3.628   2.397  0.00  0.00    -0.081 A 
ATOM      2  C3  UNL d   1       5.576  -3.015   3.628  0.00  0.00     0.006 A 
ATOM      3  C4  UNL d   1       5.487  -3.778   4.794  0.00  0.00     0.002 A 
ATOM      4  C5  UNL d   1       5.666  -5.165   4.751  0.00  0.00    -0.080 A 
ATOM      5  C6  UNL d   1       5.604  -5.992   6.000  0.00  0.00     0.076 C 
ATOM      6  C7  UNL d   1       5.911  -5.780   3.518  0.00  0.00     0.002 A 
ATOM      7  C8  UNL d   1       5.999  -5.017   2.351  0.00  0.00     0.006 A 
ENDROOT
BRANCH   1   8
ATOM      8  C1  UNL d   1       5.998  -2.800   1.147  0.00  0.00     0.054 C 
ATOM      9  C   UNL d   1       5.999  -3.674  -0.099  0.00  0.00     0.018 C 
ENDBRANCH   1   8
TORSDOF 1
ENDMDL
