MODEL 1
REMARK minimizedAffinity -2.04420924
REMARK minimizedRMSD -1
REMARK  1 active torsions:
REMARK  status: ('A' for Active; 'I' for Inactive)
REMARK    1  A    between atoms: C1_2  and  C2_3 
ROOT
ATOM      1  C2  UNL d   1       5.534  -4.397   4.670  0.00  0.00    -0.081 A 
ATOM      2  C3  UNL d   1       5.545  -2.997   4.651  0.00  0.00     0.006 A 
ATOM      3  C4  UNL d   1       5.708  -2.306   3.448  0.00  0.00     0.002 A 
ATOM      4  C5  UNL d   1       5.854  -3.003   2.244  0.00  0.00    -0.080 A 
ATOM      5  C6  UNL d   1       6.000  -2.274   0.941  0.00  0.00     0.076 C 
ATOM      6  C7  UNL d   1       5.860  -4.402   2.265  0.00  0.00     0.002 A 
ATOM      7  C8  UNL d   1       5.698  -5.093   3.468  0.00  0.00     0.006 A 
ENDROOT
BRANCH   1   8
ATOM      8  C1  UNL d   1       5.293  -5.144   5.957  0.00  0.00     0.054 C 
ATOM      9  C   UNL d   1       4.037  -6.000   5.874  0.00  0.00     0.018 C 
ENDBRANCH   1   8
TORSDOF 1
ENDMDL
