MODEL 1
REMARK minimizedAffinity -1.92604148
REMARK minimizedRMSD -1
REMARK  1 active torsions:
REMARK  status: ('A' for Active; 'I' for Inactive)
REMARK    1  A    between atoms: C1_2  and  C2_3 
ROOT
ATOM      1  C2  UNL d   1       5.770  -2.945   3.031  0.00  0.00    -0.081 A 
ATOM      2  C3  UNL d   1       5.864  -4.304   2.710  0.00  0.00     0.006 A 
ATOM      3  C4  UNL d   1       5.592  -5.280   3.671  0.00  0.00     0.002 A 
ATOM      4  C5  UNL d   1       5.213  -4.914   4.967  0.00  0.00    -0.080 A 
ATOM      5  C6  UNL d   1       4.888  -5.952   6.000  0.00  0.00     0.076 C 
ATOM      6  C7  UNL d   1       5.135  -3.556   5.293  0.00  0.00     0.002 A 
ATOM      7  C8  UNL d   1       5.408  -2.579   4.333  0.00  0.00     0.006 A 
ENDROOT
BRANCH   1   8
ATOM      8  C1  UNL d   1       6.000  -1.890   1.979  0.00  0.00     0.054 C 
ATOM      9  C   UNL d   1       5.999  -2.493   0.582  0.00  0.00     0.018 C 
ENDBRANCH   1   8
TORSDOF 1
ENDMDL
