MODEL 1
REMARK minimizedAffinity 1.41191483
REMARK minimizedRMSD -1
REMARK  1 active torsions:
REMARK  status: ('A' for Active; 'I' for Inactive)
REMARK    1  A    between atoms: C1_2  and  C2_3 
ROOT
ATOM      1  C2  UNL d   1       5.873  -4.844   4.072  0.00  0.00    -0.081 A 
ATOM      2  C3  UNL d   1       5.921  -3.460   3.865  0.00  0.00     0.006 A 
ATOM      3  C4  UNL d   1       5.975  -2.939   2.570  0.00  0.00     0.002 A 
ATOM      4  C5  UNL d   1       5.973  -3.792   1.461  0.00  0.00    -0.080 A 
ATOM      5  C6  UNL d   1       6.000  -3.245   0.065  0.00  0.00     0.076 C 
ATOM      6  C7  UNL d   1       5.942  -5.175   1.668  0.00  0.00     0.002 A 
ATOM      7  C8  UNL d   1       5.889  -5.697   2.962  0.00  0.00     0.006 A 
ENDROOT
BRANCH   1   8
ATOM      8  C1  UNL d   1       5.750  -5.407   5.464  0.00  0.00     0.054 C 
ATOM      9  C   UNL d   1       4.309  -5.777   5.787  0.00  0.00     0.018 C 
ENDBRANCH   1   8
TORSDOF 1
ENDMDL
