MODEL 1
REMARK minimizedAffinity 5.24802637
REMARK minimizedRMSD -1
REMARK  1 active torsions:
REMARK  status: ('A' for Active; 'I' for Inactive)
REMARK    1  A    between atoms: C1_2  and  C2_3 
ROOT
ATOM      1  C2  UNL d   1       5.419  -3.422   4.356  0.00  0.00    -0.081 A 
ATOM      2  C3  UNL d   1       5.402  -2.096   3.907  0.00  0.00     0.006 A 
ATOM      3  C4  UNL d   1       5.598  -1.804   2.555  0.00  0.00     0.002 A 
ATOM      4  C5  UNL d   1       5.806  -2.832   1.630  0.00  0.00    -0.080 A 
ATOM      5  C6  UNL d   1       5.987  -2.534   0.171  0.00  0.00     0.076 C 
ATOM      6  C7  UNL d   1       5.840  -4.156   2.081  0.00  0.00     0.002 A 
ATOM      7  C8  UNL d   1       5.645  -4.448   3.433  0.00  0.00     0.006 A 
ENDROOT
BRANCH   1   8
ATOM      8  C1  UNL d   1       5.143  -3.745   5.803  0.00  0.00     0.054 C 
ATOM      9  C   UNL d   1       3.973  -4.709   5.942  0.00  0.00     0.018 C 
ENDBRANCH   1   8
TORSDOF 1
ENDMDL
