MODEL 1
REMARK minimizedAffinity 0.340970606
REMARK minimizedRMSD -1
REMARK  1 active torsions:
REMARK  status: ('A' for Active; 'I' for Inactive)
REMARK    1  A    between atoms: C1_2  and  C2_3 
ROOT
ATOM      1  C2  UNL d   1       5.616  -2.709   3.526  0.00  0.00    -0.081 A 
ATOM      2  C3  UNL d   1       5.702  -4.025   3.054  0.00  0.00     0.006 A 
ATOM      3  C4  UNL d   1       5.294  -5.093   3.856  0.00  0.00     0.002 A 
ATOM      4  C5  UNL d   1       4.785  -4.863   5.139  0.00  0.00    -0.080 A 
ATOM      5  C6  UNL d   1       4.314  -5.999   5.998  0.00  0.00     0.076 C 
ATOM      6  C7  UNL d   1       4.714  -3.550   5.617  0.00  0.00     0.002 A 
ATOM      7  C8  UNL d   1       5.124  -2.482   4.816  0.00  0.00     0.006 A 
ENDROOT
BRANCH   1   8
ATOM      8  C1  UNL d   1       5.995  -1.550   2.640  0.00  0.00     0.054 C 
ATOM      9  C   UNL d   1       6.000  -1.955   1.172  0.00  0.00     0.018 C 
ENDBRANCH   1   8
TORSDOF 1
ENDMDL
