MODEL 1
REMARK minimizedAffinity -1.85546601
REMARK minimizedRMSD -1
REMARK  1 active torsions:
REMARK  status: ('A' for Active; 'I' for Inactive)
REMARK    1  A    between atoms: C1_2  and  C2_3 
ROOT
ATOM      1  C2  UNL d   1       5.517  -3.910   4.326  0.00  0.00    -0.081 A 
ATOM      2  C3  UNL d   1       5.360  -5.300   4.264  0.00  0.00     0.006 A 
ATOM      3  C4  UNL d   1       5.503  -5.975   3.049  0.00  0.00     0.002 A 
ATOM      4  C5  UNL d   1       5.813  -5.273   1.879  0.00  0.00    -0.080 A 
ATOM      5  C6  UNL d   1       5.999  -5.989   0.575  0.00  0.00     0.076 C 
ATOM      6  C7  UNL d   1       5.952  -3.882   1.938  0.00  0.00     0.002 A 
ATOM      7  C8  UNL d   1       5.808  -3.207   3.153  0.00  0.00     0.006 A 
ENDROOT
BRANCH   1   8
ATOM      8  C1  UNL d   1       5.427  -3.187   5.646  0.00  0.00     0.054 C 
ATOM      9  C   UNL d   1       4.019  -2.666   5.897  0.00  0.00     0.018 C 
ENDBRANCH   1   8
TORSDOF 1
ENDMDL
