MODEL 1
REMARK minimizedAffinity 0.84100908
REMARK minimizedRMSD -1
REMARK  1 active torsions:
REMARK  status: ('A' for Active; 'I' for Inactive)
REMARK    1  A    between atoms: C1_2  and  C2_3 
ROOT
ATOM      1  C2  UNL d   1       5.811  -4.539   3.983  0.00  0.00    -0.081 A 
ATOM      2  C3  UNL d   1       5.781  -3.432   3.126  0.00  0.00     0.006 A 
ATOM      3  C4  UNL d   1       5.854  -3.605   1.741  0.00  0.00     0.002 A 
ATOM      4  C5  UNL d   1       5.951  -4.888   1.191  0.00  0.00    -0.080 A 
ATOM      5  C6  UNL d   1       6.000  -5.090  -0.294  0.00  0.00     0.076 C 
ATOM      6  C7  UNL d   1       5.999  -5.993   2.048  0.00  0.00     0.002 A 
ATOM      7  C8  UNL d   1       5.926  -5.820   3.432  0.00  0.00     0.006 A 
ENDROOT
BRANCH   1   8
ATOM      8  C1  UNL d   1       5.667  -4.359   5.472  0.00  0.00     0.054 C 
ATOM      9  C   UNL d   1       5.119  -2.980   5.813  0.00  0.00     0.018 C 
ENDBRANCH   1   8
TORSDOF 1
ENDMDL
