MODEL 1
REMARK minimizedAffinity -0.967804968
REMARK minimizedRMSD -1
REMARK  1 active torsions:
REMARK  status: ('A' for Active; 'I' for Inactive)
REMARK    1  A    between atoms: C1_2  and  C2_3 
ROOT
ATOM      1  C2  UNL d   1       5.941  -4.339   1.680  0.00  0.00    -0.081 A 
ATOM      2  C3  UNL d   1       5.972  -5.559   2.367  0.00  0.00     0.006 A 
ATOM      3  C4  UNL d   1       5.859  -5.591   3.759  0.00  0.00     0.002 A 
ATOM      4  C5  UNL d   1       5.704  -4.406   4.486  0.00  0.00    -0.080 A 
ATOM      5  C6  UNL d   1       5.551  -4.428   5.977  0.00  0.00     0.076 C 
ATOM      6  C7  UNL d   1       5.691  -3.186   3.801  0.00  0.00     0.002 A 
ATOM      7  C8  UNL d   1       5.805  -3.153   2.409  0.00  0.00     0.006 A 
ENDROOT
BRANCH   1   8
ATOM      8  C1  UNL d   1       5.998  -4.306   0.174  0.00  0.00     0.054 C 
ATOM      9  C   UNL d   1       5.986  -5.711  -0.411  0.00  0.00     0.018 C 
ENDBRANCH   1   8
TORSDOF 1
ENDMDL
