MODEL 1
REMARK minimizedAffinity -2.03207636
REMARK minimizedRMSD -1
REMARK  1 active torsions:
REMARK  status: ('A' for Active; 'I' for Inactive)
REMARK    1  A    between atoms: C1_2  and  C2_3 
ROOT
ATOM      1  C2  UNL d   1       5.177  -4.384   4.823  0.00  0.00    -0.081 A 
ATOM      2  C3  UNL d   1       5.022  -4.846   3.510  0.00  0.00     0.006 A 
ATOM      3  C4  UNL d   1       5.274  -4.000   2.427  0.00  0.00     0.002 A 
ATOM      4  C5  UNL d   1       5.693  -2.682   2.639  0.00  0.00    -0.080 A 
ATOM      5  C6  UNL d   1       5.997  -1.773   1.485  0.00  0.00     0.076 C 
ATOM      6  C7  UNL d   1       5.832  -2.215   3.951  0.00  0.00     0.002 A 
ATOM      7  C8  UNL d   1       5.579  -3.061   5.033  0.00  0.00     0.006 A 
ENDROOT
BRANCH   1   8
ATOM      8  C1  UNL d   1       4.969  -5.313   5.992  0.00  0.00     0.054 C 
ATOM      9  C   UNL d   1       3.600  -5.977   5.933  0.00  0.00     0.018 C 
ENDBRANCH   1   8
TORSDOF 1
ENDMDL
