MODEL 1
REMARK minimizedAffinity 7.36368752
REMARK minimizedRMSD -1
REMARK  1 active torsions:
REMARK  status: ('A' for Active; 'I' for Inactive)
REMARK    1  A    between atoms: C1_2  and  C2_3 
ROOT
ATOM      1  C2  UNL d   1       5.633  -4.599   2.769  0.00  0.00    -0.081 A 
ATOM      2  C3  UNL d   1       5.999  -3.264   2.556  0.00  0.00     0.006 A 
ATOM      3  C4  UNL d   1       5.914  -2.333   3.594  0.00  0.00     0.002 A 
ATOM      4  C5  UNL d   1       5.472  -2.721   4.863  0.00  0.00    -0.080 A 
ATOM      5  C6  UNL d   1       5.405  -1.738   5.993  0.00  0.00     0.076 C 
ATOM      6  C7  UNL d   1       5.090  -4.051   5.071  0.00  0.00     0.002 A 
ATOM      7  C8  UNL d   1       5.173  -4.983   4.034  0.00  0.00     0.006 A 
ENDROOT
BRANCH   1   8
ATOM      8  C1  UNL d   1       5.784  -5.619   1.670  0.00  0.00     0.054 C 
ATOM      9  C   UNL d   1       6.000  -4.951   0.320  0.00  0.00     0.018 C 
ENDBRANCH   1   8
TORSDOF 1
ENDMDL
