MODEL 1
REMARK minimizedAffinity 6.93470907
REMARK minimizedRMSD -1
REMARK  3 active torsions:
REMARK  status: ('A' for Active; 'I' for Inactive)
REMARK    1  A    between atoms: C3'_2  and  C2'_3 
REMARK    2  A    between atoms: C2'_3  and  C1'_4 
REMARK    3  A    between atoms: C1'_4  and  C1_5 
ROOT
ATOM      1  C1  N4B d   1      -1.841  -2.366  -1.887  0.00  0.00    -0.075 A 
ATOM      2  C2  N4B d   1      -3.047  -2.639  -1.205  0.00  0.00     0.002 A 
ATOM      3  C3  N4B d   1      -3.018  -3.028   0.111  0.00  0.00     0.002 A 
ATOM      4  C4  N4B d   1      -1.799  -3.170   0.758  0.00  0.00    -0.004 A 
ATOM      5  C5  N4B d   1      -0.640  -2.880   0.100  0.00  0.00     0.002 A 
ATOM      6  C6  N4B d   1      -0.654  -2.484  -1.222  0.00  0.00     0.002 A 
ENDROOT
BRANCH   1   7
ATOM      7  C1' N4B d   1      -1.817  -2.021  -3.351  0.00  0.00     0.057 C 
BRANCH   7   8
ATOM      8  C2' N4B d   1      -1.352  -3.238  -4.146  0.00  0.00     0.009 C 
BRANCH   8   9
ATOM      9  C3' N4B d   1      -1.386  -2.986  -5.643  0.00  0.00     0.004 C 
ATOM     10  C4' N4B d   1      -1.079  -1.562  -6.000  0.00  0.00     0.003 C 
ENDBRANCH   8   9
ENDBRANCH   7   8
ENDBRANCH   1   7
TORSDOF 3
ENDMDL
