MODEL 1
REMARK minimizedAffinity 4.41897297
REMARK minimizedRMSD -1
REMARK  3 active torsions:
REMARK  status: ('A' for Active; 'I' for Inactive)
REMARK    1  A    between atoms: C3'_2  and  C2'_3 
REMARK    2  A    between atoms: C2'_3  and  C1'_4 
REMARK    3  A    between atoms: C1'_4  and  C1_5 
ROOT
ATOM      1  C1  N4B d   1      -1.503  -2.741  -1.155  0.00  0.00    -0.075 A 
ATOM      2  C2  N4B d   1      -2.611  -2.695  -0.281  0.00  0.00     0.002 A 
ATOM      3  C3  N4B d   1      -2.524  -3.261   0.968  0.00  0.00     0.002 A 
ATOM      4  C4  N4B d   1      -1.351  -3.891   1.355  0.00  0.00    -0.004 A 
ATOM      5  C5  N4B d   1      -0.277  -3.909   0.514  0.00  0.00     0.002 A 
ATOM      6  C6  N4B d   1      -0.349  -3.341  -0.742  0.00  0.00     0.002 A 
ENDROOT
BRANCH   1   7
ATOM      7  C1' N4B d   1      -1.579  -2.213  -2.561  0.00  0.00     0.057 C 
BRANCH   7   8
ATOM      8  C2' N4B d   1      -1.275  -3.344  -3.539  0.00  0.00     0.009 C 
BRANCH   8   9
ATOM      9  C3' N4B d   1       0.044  -4.028  -3.224  0.00  0.00     0.004 C 
ATOM     10  C4' N4B d   1       0.043  -5.484  -3.580  0.00  0.00     0.003 C 
ENDBRANCH   8   9
ENDBRANCH   7   8
ENDBRANCH   1   7
TORSDOF 3
ENDMDL
