MODEL 1
REMARK minimizedAffinity 3.26809692
REMARK minimizedRMSD -1
REMARK  3 active torsions:
REMARK  status: ('A' for Active; 'I' for Inactive)
REMARK    1  A    between atoms: C3'_2  and  C2'_3 
REMARK    2  A    between atoms: C2'_3  and  C1'_4 
REMARK    3  A    between atoms: C1'_4  and  C1_5 
ROOT
ATOM      1  C1  N4B d   1      -1.710  -2.989  -2.602  0.00  0.00    -0.075 A 
ATOM      2  C2  N4B d   1      -0.411  -3.372  -2.203  0.00  0.00     0.002 A 
ATOM      3  C3  N4B d   1      -0.073  -3.370  -0.872  0.00  0.00     0.002 A 
ATOM      4  C4  N4B d   1      -1.007  -2.972   0.072  0.00  0.00    -0.004 A 
ATOM      5  C5  N4B d   1      -2.268  -2.627  -0.319  0.00  0.00     0.002 A 
ATOM      6  C6  N4B d   1      -2.623  -2.629  -1.653  0.00  0.00     0.002 A 
ENDROOT
BRANCH   1   7
ATOM      7  C1' N4B d   1      -2.100  -2.893  -4.052  0.00  0.00     0.057 C 
BRANCH   7   8
ATOM      8  C2' N4B d   1      -1.130  -1.961  -4.771  0.00  0.00     0.009 C 
BRANCH   8   9
ATOM      9  C3' N4B d   1      -0.520  -2.613  -6.000  0.00  0.00     0.004 C 
ATOM     10  C4' N4B d   1       0.978  -2.565  -6.000  0.00  0.00     0.003 C 
ENDBRANCH   8   9
ENDBRANCH   7   8
ENDBRANCH   1   7
TORSDOF 3
ENDMDL
