MODEL 1
REMARK minimizedAffinity 9.80770493
REMARK minimizedRMSD -1
REMARK  3 active torsions:
REMARK  status: ('A' for Active; 'I' for Inactive)
REMARK    1  A    between atoms: C3'_2  and  C2'_3 
REMARK    2  A    between atoms: C2'_3  and  C1'_4 
REMARK    3  A    between atoms: C1'_4  and  C1_5 
ROOT
ATOM      1  C1  N4B d   1       4.238   1.509  -3.392  0.00  0.00    -0.075 A 
ATOM      2  C2  N4B d   1       5.610   1.512  -3.726  0.00  0.00     0.002 A 
ATOM      3  C3  N4B d   1       6.000   1.299  -5.026  0.00  0.00     0.002 A 
ATOM      4  C4  N4B d   1       5.042   1.062  -5.999  0.00  0.00    -0.004 A 
ATOM      5  C5  N4B d   1       3.717   1.086  -5.673  0.00  0.00     0.002 A 
ATOM      6  C6  N4B d   1       3.310   1.303  -4.371  0.00  0.00     0.002 A 
ENDROOT
BRANCH   1   7
ATOM      7  C1' N4B d   1       3.767   1.652  -1.970  0.00  0.00     0.057 C 
BRANCH   7   8
ATOM      8  C2' N4B d   1       4.099   0.377  -1.201  0.00  0.00     0.009 C 
BRANCH   8   9
ATOM      9  C3' N4B d   1       3.794   0.510   0.281  0.00  0.00     0.004 C 
ATOM     10  C4' N4B d   1       2.487   1.196   0.545  0.00  0.00     0.003 C 
ENDBRANCH   8   9
ENDBRANCH   7   8
ENDBRANCH   1   7
TORSDOF 3
ENDMDL
