MODEL 1
REMARK minimizedAffinity 5.87564611
REMARK minimizedRMSD -1
REMARK  3 active torsions:
REMARK  status: ('A' for Active; 'I' for Inactive)
REMARK    1  A    between atoms: C3'_2  and  C2'_3 
REMARK    2  A    between atoms: C2'_3  and  C1'_4 
REMARK    3  A    between atoms: C1'_4  and  C1_5 
ROOT
ATOM      1  C1  N4B d   1      -3.824  -3.923  -2.538  0.00  0.00    -0.075 A 
ATOM      2  C2  N4B d   1      -4.978  -3.764  -3.336  0.00  0.00     0.002 A 
ATOM      3  C3  N4B d   1      -5.999  -4.679  -3.257  0.00  0.00     0.002 A 
ATOM      4  C4  N4B d   1      -5.881  -5.766  -2.404  0.00  0.00    -0.004 A 
ATOM      5  C5  N4B d   1      -4.774  -5.899  -1.618  0.00  0.00     0.002 A 
ATOM      6  C6  N4B d   1      -3.742  -4.985  -1.684  0.00  0.00     0.002 A 
ENDROOT
BRANCH   1   7
ATOM      7  C1' N4B d   1      -2.645  -2.996  -2.653  0.00  0.00     0.057 C 
BRANCH   7   8
ATOM      8  C2' N4B d   1      -2.625  -2.059  -1.449  0.00  0.00     0.009 C 
BRANCH   8   9
ATOM      9  C3' N4B d   1      -1.312  -2.136  -0.690  0.00  0.00     0.004 C 
ATOM     10  C4' N4B d   1      -1.490  -2.558   0.738  0.00  0.00     0.003 C 
ENDBRANCH   8   9
ENDBRANCH   7   8
ENDBRANCH   1   7
TORSDOF 3
ENDMDL
