MODEL 1
REMARK minimizedAffinity 2.2692132
REMARK minimizedRMSD -1
REMARK  3 active torsions:
REMARK  status: ('A' for Active; 'I' for Inactive)
REMARK    1  A    between atoms: C3'_2  and  C2'_3 
REMARK    2  A    between atoms: C2'_3  and  C1'_4 
REMARK    3  A    between atoms: C1'_4  and  C1_5 
ROOT
ATOM      1  C1  N4B d   1      -1.128  -2.202  -0.057  0.00  0.00    -0.075 A 
ATOM      2  C2  N4B d   1      -2.460  -2.637   0.114  0.00  0.00     0.002 A 
ATOM      3  C3  N4B d   1      -3.147  -3.179  -0.944  0.00  0.00     0.002 A 
ATOM      4  C4  N4B d   1      -2.532  -3.278  -2.183  0.00  0.00    -0.004 A 
ATOM      5  C5  N4B d   1      -1.236  -2.879  -2.334  0.00  0.00     0.002 A 
ATOM      6  C6  N4B d   1      -0.532  -2.336  -1.278  0.00  0.00     0.002 A 
ENDROOT
BRANCH   1   7
ATOM      7  C1' N4B d   1      -0.365  -1.525   1.048  0.00  0.00     0.057 C 
BRANCH   7   8
ATOM      8  C2' N4B d   1       0.651  -0.563   0.439  0.00  0.00     0.009 C 
BRANCH   8   9
ATOM      9  C3' N4B d   1       1.575   0.028   1.490  0.00  0.00     0.004 C 
ATOM     10  C4' N4B d   1       3.017  -0.301   1.248  0.00  0.00     0.003 C 
ENDBRANCH   8   9
ENDBRANCH   7   8
ENDBRANCH   1   7
TORSDOF 3
ENDMDL
