MODEL 1
REMARK minimizedAffinity -2.02948546
REMARK minimizedRMSD -1
REMARK  3 active torsions:
REMARK  status: ('A' for Active; 'I' for Inactive)
REMARK    1  A    between atoms: C3'_2  and  C2'_3 
REMARK    2  A    between atoms: C2'_3  and  C1'_4 
REMARK    3  A    between atoms: C1'_4  and  C1_5 
ROOT
ATOM      1  C1  N4B d   1       5.199   3.636   2.234  0.00  0.00    -0.075 A 
ATOM      2  C2  N4B d   1       4.443   4.749   1.805  0.00  0.00     0.002 A 
ATOM      3  C3  N4B d   1       4.482   5.922   2.518  0.00  0.00     0.002 A 
ATOM      4  C4  N4B d   1       5.253   5.999   3.669  0.00  0.00    -0.004 A 
ATOM      5  C5  N4B d   1       6.000   4.928   4.062  0.00  0.00     0.002 A 
ATOM      6  C6  N4B d   1       5.973   3.744   3.353  0.00  0.00     0.002 A 
ENDROOT
BRANCH   1   7
ATOM      7  C1' N4B d   1       5.121   2.306   1.535  0.00  0.00     0.057 C 
BRANCH   7   8
ATOM      8  C2' N4B d   1       3.824   2.236   0.736  0.00  0.00     0.009 C 
BRANCH   8   9
ATOM      9  C3' N4B d   1       2.795   1.338   1.400  0.00  0.00     0.004 C 
ATOM     10  C4' N4B d   1       3.369   0.024   1.841  0.00  0.00     0.003 C 
ENDBRANCH   8   9
ENDBRANCH   7   8
ENDBRANCH   1   7
TORSDOF 3
ENDMDL
