MODEL 1
REMARK minimizedAffinity -0.0727835
REMARK minimizedRMSD -1
REMARK  3 active torsions:
REMARK  status: ('A' for Active; 'I' for Inactive)
REMARK    1  A    between atoms: C3'_2  and  C2'_3 
REMARK    2  A    between atoms: C2'_3  and  C1'_4 
REMARK    3  A    between atoms: C1'_4  and  C1_5 
ROOT
ATOM      1  C1  N4B d   1      -1.630  -3.211  -2.356  0.00  0.00    -0.075 A 
ATOM      2  C2  N4B d   1      -0.223  -3.267  -2.253  0.00  0.00     0.002 A 
ATOM      3  C3  N4B d   1       0.372  -3.368  -1.019  0.00  0.00     0.002 A 
ATOM      4  C4  N4B d   1      -0.416  -3.396   0.122  0.00  0.00    -0.004 A 
ATOM      5  C5  N4B d   1      -1.775  -3.367   0.012  0.00  0.00     0.002 A 
ATOM      6  C6  N4B d   1      -2.387  -3.270  -1.221  0.00  0.00     0.002 A 
ENDROOT
BRANCH   1   7
ATOM      7  C1' N4B d   1      -2.323  -3.014  -3.677  0.00  0.00     0.057 C 
BRANCH   7   8
ATOM      8  C2' N4B d   1      -1.865  -1.695  -4.290  0.00  0.00     0.009 C 
BRANCH   8   9
ATOM      9  C3' N4B d   1      -1.493  -1.848  -5.755  0.00  0.00     0.004 C 
ATOM     10  C4' N4B d   1      -0.558  -2.995  -6.000  0.00  0.00     0.003 C 
ENDBRANCH   8   9
ENDBRANCH   7   8
ENDBRANCH   1   7
TORSDOF 3
ENDMDL
