MODEL 1
REMARK minimizedAffinity 6.51139212
REMARK minimizedRMSD -1
REMARK  3 active torsions:
REMARK  status: ('A' for Active; 'I' for Inactive)
REMARK    1  A    between atoms: C3'_2  and  C2'_3 
REMARK    2  A    between atoms: C2'_3  and  C1'_4 
REMARK    3  A    between atoms: C1'_4  and  C1_5 
ROOT
ATOM      1  C1  N4B d   1       3.396   0.146   0.985  0.00  0.00    -0.075 A 
ATOM      2  C2  N4B d   1       4.020  -0.420  -0.148  0.00  0.00     0.002 A 
ATOM      3  C3  N4B d   1       5.310  -0.883  -0.062  0.00  0.00     0.002 A 
ATOM      4  C4  N4B d   1       6.000  -0.774   1.136  0.00  0.00    -0.004 A 
ATOM      5  C5  N4B d   1       5.381  -0.249   2.233  0.00  0.00     0.002 A 
ATOM      6  C6  N4B d   1       4.084   0.217   2.162  0.00  0.00     0.002 A 
ENDROOT
BRANCH   1   7
ATOM      7  C1' N4B d   1       2.018   0.745   0.917  0.00  0.00     0.057 C 
BRANCH   7   8
ATOM      8  C2' N4B d   1       1.900   1.852   1.960  0.00  0.00     0.009 C 
BRANCH   8   9
ATOM      9  C3' N4B d   1       0.759   1.600   2.930  0.00  0.00     0.004 C 
ATOM     10  C4' N4B d   1       1.199   0.880   4.169  0.00  0.00     0.003 C 
ENDBRANCH   8   9
ENDBRANCH   7   8
ENDBRANCH   1   7
TORSDOF 3
ENDMDL
