MODEL 1
REMARK minimizedAffinity 14.5746431
REMARK minimizedRMSD -1
REMARK  1 active torsions:
REMARK  status: ('A' for Active; 'I' for Inactive)
REMARK    1  A    between atoms: N_2  and  C1_3 
ROOT
ATOM      1  C1  UNL d   1       3.765  -0.352  -1.532  0.00  0.00     0.143 A 
ATOM      2  C2  UNL d   1       3.376  -1.222  -2.555  0.00  0.00    -0.057 A 
ATOM      3  C3  UNL d   1       2.827  -2.478  -2.271  0.00  0.00     0.033 A 
ATOM      4  C4  UNL d   1       2.683  -2.899  -0.953  0.00  0.00    -0.042 A 
ATOM      5  C5  UNL d   1       3.086  -2.060   0.080  0.00  0.00     0.033 A 
ATOM      6  C6  UNL d   1       3.628  -0.804  -0.210  0.00  0.00    -0.057 A 
ENDROOT
BRANCH   1   7
ATOM      7  N   UNL d   1       4.409   0.869  -1.751  0.00  0.00    -0.732 N 
ATOM      8  C   UNL d   1       5.555   0.950  -2.631  0.00  0.00     0.284 C 
ATOM      9  H3  UNL d   1       3.754   1.641  -1.849  0.00  0.00     0.395 HD
ENDBRANCH   1   7
TORSDOF 1
ENDMDL
