MODEL 1
REMARK minimizedAffinity 14.2264833
REMARK minimizedRMSD -1
REMARK  1 active torsions:
REMARK  status: ('A' for Active; 'I' for Inactive)
REMARK    1  A    between atoms: N_2  and  C1_3 
ROOT
ATOM      1  C1  UNL d   1       5.609   3.040  -0.261  0.00  0.00     0.143 A 
ATOM      2  C2  UNL d   1       5.617   4.298  -0.874  0.00  0.00    -0.057 A 
ATOM      3  C3  UNL d   1       5.825   5.466  -0.132  0.00  0.00     0.033 A 
ATOM      4  C4  UNL d   1       6.000   5.400   1.247  0.00  0.00    -0.042 A 
ATOM      5  C5  UNL d   1       5.970   4.163   1.881  0.00  0.00     0.033 A 
ATOM      6  C6  UNL d   1       5.769   2.999   1.133  0.00  0.00    -0.057 A 
ENDROOT
BRANCH   1   7
ATOM      7  N   UNL d   1       5.310   1.851  -0.930  0.00  0.00    -0.732 N 
ATOM      8  C   UNL d   1       4.268   0.973  -0.443  0.00  0.00     0.284 C 
ATOM      9  H3  UNL d   1       5.322   1.960  -1.942  0.00  0.00     0.395 HD
ENDBRANCH   1   7
TORSDOF 1
ENDMDL
