MODEL 1
REMARK minimizedAffinity -2.84509444
REMARK minimizedRMSD -1
REMARK  0 active torsions:
REMARK  status: ('A' for Active; 'I' for Inactive)
ROOT
ATOM      1  C   UNL d   1      -1.173   0.624   1.664  0.00  0.00     0.172 C 
ATOM      2  N   UNL d   1      -1.275   1.670   2.654  0.00  0.00    -0.070 N 
ATOM      3  C1  UNL d   1      -0.341   1.954   3.614  0.00  0.00    -0.004 A 
ATOM      4  C2  UNL d   1      -0.810   3.017   4.357  0.00  0.00    -0.047 A 
ATOM      5  C3  UNL d   1      -2.069   3.383   3.825  0.00  0.00    -0.047 A 
ATOM      6  C4  UNL d   1      -2.333   2.533   2.771  0.00  0.00    -0.004 A 
ENDROOT
TORSDOF 0
ENDMDL
