MODEL 1
REMARK minimizedAffinity -2.36345863
REMARK minimizedRMSD -1
REMARK  0 active torsions:
REMARK  status: ('A' for Active; 'I' for Inactive)
ROOT
ATOM      1  C   UNL d   1       0.167   1.187   3.201  0.00  0.00     0.172 C 
ATOM      2  N   UNL d   1      -0.233   0.958   1.832  0.00  0.00    -0.070 N 
ATOM      3  C1  UNL d   1      -1.258   1.593   1.183  0.00  0.00    -0.004 A 
ATOM      4  C2  UNL d   1      -1.316   1.096  -0.101  0.00  0.00    -0.047 A 
ATOM      5  C3  UNL d   1      -0.291   0.129  -0.228  0.00  0.00    -0.047 A 
ATOM      6  C4  UNL d   1       0.364   0.064   0.984  0.00  0.00    -0.004 A 
ENDROOT
TORSDOF 0
ENDMDL
