MODEL 1
REMARK minimizedAffinity -3.45351148
REMARK minimizedRMSD -1
REMARK  0 active torsions:
REMARK  status: ('A' for Active; 'I' for Inactive)
ROOT
ATOM      1  C   UNL d   1       0.729  -0.440  -1.901  0.00  0.00     0.172 C 
ATOM      2  N   UNL d   1       0.201  -0.229  -0.574  0.00  0.00    -0.070 N 
ATOM      3  C1  UNL d   1      -0.885   0.543  -0.260  0.00  0.00    -0.004 A 
ATOM      4  C2  UNL d   1      -1.064   0.486   1.105  0.00  0.00    -0.047 A 
ATOM      5  C3  UNL d   1      -0.050  -0.349   1.630  0.00  0.00    -0.047 A 
ATOM      6  C4  UNL d   1       0.719  -0.778   0.569  0.00  0.00    -0.004 A 
ENDROOT
TORSDOF 0
ENDMDL
