MODEL 1
REMARK minimizedAffinity -2.27292728
REMARK minimizedRMSD -1
REMARK  0 active torsions:
REMARK  status: ('A' for Active; 'I' for Inactive)
ROOT
ATOM      1  C   UNL d   1       0.880  -0.901  -1.757  0.00  0.00     0.172 C 
ATOM      2  N   UNL d   1       0.284  -0.831  -0.444  0.00  0.00    -0.070 N 
ATOM      3  C1  UNL d   1       0.111   0.310   0.294  0.00  0.00    -0.004 A 
ATOM      4  C2  UNL d   1      -0.491  -0.044   1.482  0.00  0.00    -0.047 A 
ATOM      5  C3  UNL d   1      -0.685  -1.446   1.458  0.00  0.00    -0.047 A 
ATOM      6  C4  UNL d   1      -0.197  -1.907   0.254  0.00  0.00    -0.004 A 
ENDROOT
TORSDOF 0
ENDMDL
