MODEL 1
REMARK minimizedAffinity -3.10515857
REMARK minimizedRMSD -1
REMARK  0 active torsions:
REMARK  status: ('A' for Active; 'I' for Inactive)
ROOT
ATOM      1  C   UNL d   1       0.631  -0.550  -0.071  0.00  0.00     0.172 C 
ATOM      2  N   UNL d   1      -0.789  -0.290  -0.073  0.00  0.00    -0.070 N 
ATOM      3  C1  UNL d   1      -1.724  -0.957   0.674  0.00  0.00    -0.004 A 
ATOM      4  C2  UNL d   1      -2.958  -0.413   0.390  0.00  0.00    -0.047 A 
ATOM      5  C3  UNL d   1      -2.758   0.616  -0.561  0.00  0.00    -0.047 A 
ATOM      6  C4  UNL d   1      -1.407   0.670  -0.830  0.00  0.00    -0.004 A 
ENDROOT
TORSDOF 0
ENDMDL
