MODEL 1
REMARK minimizedAffinity -3.65283728
REMARK minimizedRMSD -1
REMARK  0 active torsions:
REMARK  status: ('A' for Active; 'I' for Inactive)
ROOT
ATOM      1  C   UNL d   1      -3.449   0.144   1.342  0.00  0.00     0.172 C 
ATOM      2  N   UNL d   1      -2.130  -0.135   1.859  0.00  0.00    -0.070 N 
ATOM      3  C1  UNL d   1      -1.776  -0.143   3.182  0.00  0.00    -0.004 A 
ATOM      4  C2  UNL d   1      -0.435  -0.453   3.258  0.00  0.00    -0.047 A 
ATOM      5  C3  UNL d   1       0.033  -0.637   1.935  0.00  0.00    -0.047 A 
ATOM      6  C4  UNL d   1      -1.037  -0.434   1.089  0.00  0.00    -0.004 A 
ENDROOT
TORSDOF 0
ENDMDL
