MODEL 1
REMARK minimizedAffinity -3.67829776
REMARK minimizedRMSD -1
REMARK  0 active torsions:
REMARK  status: ('A' for Active; 'I' for Inactive)
ROOT
ATOM      1  C   UNL d   1       0.064   0.096  -0.529  0.00  0.00     0.172 C 
ATOM      2  N   UNL d   1      -0.211   0.076   0.889  0.00  0.00    -0.070 N 
ATOM      3  C1  UNL d   1       0.691   0.355   1.881  0.00  0.00    -0.004 A 
ATOM      4  C2  UNL d   1       0.042   0.227   3.089  0.00  0.00    -0.047 A 
ATOM      5  C3  UNL d   1      -1.296  -0.144   2.815  0.00  0.00    -0.047 A 
ATOM      6  C4  UNL d   1      -1.425  -0.230   1.444  0.00  0.00    -0.004 A 
ENDROOT
TORSDOF 0
ENDMDL
