MODEL 1
REMARK minimizedAffinity -3.74417639
REMARK minimizedRMSD -1
REMARK  0 active torsions:
REMARK  status: ('A' for Active; 'I' for Inactive)
ROOT
ATOM      1  C   UNL d   1      -1.056  -0.954   3.126  0.00  0.00     0.172 C 
ATOM      2  N   UNL d   1      -0.324  -0.305   2.063  0.00  0.00    -0.070 N 
ATOM      3  C1  UNL d   1      -0.682  -0.291   0.742  0.00  0.00    -0.004 A 
ATOM      4  C2  UNL d   1       0.271   0.430   0.054  0.00  0.00    -0.047 A 
ATOM      5  C3  UNL d   1       1.235   0.862   0.996  0.00  0.00    -0.047 A 
ATOM      6  C4  UNL d   1       0.842   0.393   2.231  0.00  0.00    -0.004 A 
ENDROOT
TORSDOF 0
ENDMDL
