MODEL 1
REMARK minimizedAffinity -4.01377678
REMARK minimizedRMSD -1
REMARK  0 active torsions:
REMARK  status: ('A' for Active; 'I' for Inactive)
ROOT
ATOM      1  C   UNL d   1      -0.125   0.259  -1.060  0.00  0.00     0.172 C 
ATOM      2  N   UNL d   1      -0.101   0.151   0.380  0.00  0.00    -0.070 N 
ATOM      3  C1  UNL d   1       0.932   0.534   1.192  0.00  0.00    -0.004 A 
ATOM      4  C2  UNL d   1       0.566   0.268   2.494  0.00  0.00    -0.047 A 
ATOM      5  C3  UNL d   1      -0.732  -0.295   2.463  0.00  0.00    -0.047 A 
ATOM      6  C4  UNL d   1      -1.121  -0.356   1.142  0.00  0.00    -0.004 A 
ENDROOT
TORSDOF 0
ENDMDL
