MODEL 1
REMARK minimizedAffinity -1.57092464
REMARK minimizedRMSD -1
REMARK  0 active torsions:
REMARK  status: ('A' for Active; 'I' for Inactive)
ROOT
ATOM      1  C   UNL d   1      -2.023   0.114   0.180  0.00  0.00     0.172 C 
ATOM      2  N   UNL d   1      -0.771   0.061   0.897  0.00  0.00    -0.070 N 
ATOM      3  C1  UNL d   1       0.467  -0.096   0.333  0.00  0.00    -0.004 A 
ATOM      4  C2  UNL d   1       1.397  -0.095   1.350  0.00  0.00    -0.047 A 
ATOM      5  C3  UNL d   1       0.694   0.067   2.567  0.00  0.00    -0.047 A 
ATOM      6  C4  UNL d   1      -0.646   0.162   2.258  0.00  0.00    -0.004 A 
ENDROOT
TORSDOF 0
ENDMDL
