MODEL 1
REMARK minimizedAffinity -2.06793857
REMARK minimizedRMSD -1
REMARK  0 active torsions:
REMARK  status: ('A' for Active; 'I' for Inactive)
ROOT
ATOM      1  C   UNL d   1       0.519  -1.182  -2.371  0.00  0.00     0.172 C 
ATOM      2  N   UNL d   1       0.575  -0.522  -1.087  0.00  0.00    -0.070 N 
ATOM      3  C1  UNL d   1       1.662  -0.486  -0.255  0.00  0.00    -0.004 A 
ATOM      4  C2  UNL d   1       1.313   0.238   0.864  0.00  0.00    -0.047 A 
ATOM      5  C3  UNL d   1      -0.031   0.650   0.700  0.00  0.00    -0.047 A 
ATOM      6  C4  UNL d   1      -0.463   0.166  -0.517  0.00  0.00    -0.004 A 
ENDROOT
TORSDOF 0
ENDMDL
