MODEL 1
REMARK minimizedAffinity -0.0566361137
REMARK minimizedRMSD -1
REMARK  0 active torsions:
REMARK  status: ('A' for Active; 'I' for Inactive)
ROOT
ATOM      1  C   UNL d   1       1.305  -2.165  -3.832  0.00  0.00     0.172 C 
ATOM      2  N   UNL d   1       2.223  -1.180  -3.311  0.00  0.00    -0.070 N 
ATOM      3  C1  UNL d   1       1.917  -0.207  -2.397  0.00  0.00    -0.004 A 
ATOM      4  C2  UNL d   1       3.060   0.525  -2.161  0.00  0.00    -0.047 A 
ATOM      5  C3  UNL d   1       4.089  -0.025  -2.962  0.00  0.00    -0.047 A 
ATOM      6  C4  UNL d   1       3.544  -1.080  -3.664  0.00  0.00    -0.004 A 
ENDROOT
TORSDOF 0
ENDMDL
