MODEL 1
REMARK minimizedAffinity -2.10003996
REMARK minimizedRMSD -1
REMARK  0 active torsions:
REMARK  status: ('A' for Active; 'I' for Inactive)
ROOT
ATOM      1  C   UNL d   1      -1.635  -0.777   0.656  0.00  0.00     0.172 C 
ATOM      2  N   UNL d   1      -0.570  -0.053   1.309  0.00  0.00    -0.070 N 
ATOM      3  C1  UNL d   1      -0.543   0.307   2.630  0.00  0.00    -0.004 A 
ATOM      4  C2  UNL d   1       0.638   0.979   2.860  0.00  0.00    -0.047 A 
ATOM      5  C3  UNL d   1       1.345   1.025   1.635  0.00  0.00    -0.047 A 
ATOM      6  C4  UNL d   1       0.574   0.378   0.692  0.00  0.00    -0.004 A 
ENDROOT
TORSDOF 0
ENDMDL
