MODEL 1
REMARK minimizedAffinity -3.72289848
REMARK minimizedRMSD -1
REMARK  0 active torsions:
REMARK  status: ('A' for Active; 'I' for Inactive)
ROOT
ATOM      1  C   UNL d   1       0.158   0.742  -0.576  0.00  0.00     0.172 C 
ATOM      2  N   UNL d   1      -0.105   0.225   0.746  0.00  0.00    -0.070 N 
ATOM      3  C1  UNL d   1       0.725   0.343   1.829  0.00  0.00    -0.004 A 
ATOM      4  C2  UNL d   1       0.117  -0.280   2.897  0.00  0.00    -0.047 A 
ATOM      5  C3  UNL d   1      -1.122  -0.790   2.441  0.00  0.00    -0.047 A 
ATOM      6  C4  UNL d   1      -1.233  -0.464   1.106  0.00  0.00    -0.004 A 
ENDROOT
TORSDOF 0
ENDMDL
