MODEL 1
REMARK minimizedAffinity -3.0994997
REMARK minimizedRMSD -1
REMARK  0 active torsions:
REMARK  status: ('A' for Active; 'I' for Inactive)
ROOT
ATOM      1  C   UNL d   1       0.196   0.246  -0.743  0.00  0.00     0.172 C 
ATOM      2  N   UNL d   1       0.207   0.204   0.701  0.00  0.00    -0.070 N 
ATOM      3  C1  UNL d   1       1.096   0.859   1.512  0.00  0.00    -0.004 A 
ATOM      4  C2  UNL d   1       0.771   0.564   2.818  0.00  0.00    -0.047 A 
ATOM      5  C3  UNL d   1      -0.351  -0.298   2.792  0.00  0.00    -0.047 A 
ATOM      6  C4  UNL d   1      -0.679  -0.505   1.468  0.00  0.00    -0.004 A 
ENDROOT
TORSDOF 0
ENDMDL
