MODEL 1
REMARK minimizedAffinity -3.32321358
REMARK minimizedRMSD -1
REMARK  0 active torsions:
REMARK  status: ('A' for Active; 'I' for Inactive)
ROOT
ATOM      1  C   UNL d   1       0.968  -0.304  -0.677  0.00  0.00     0.172 C 
ATOM      2  N   UNL d   1       0.550  -0.060   0.683  0.00  0.00    -0.070 N 
ATOM      3  C1  UNL d   1      -0.743  -0.064   1.134  0.00  0.00    -0.004 A 
ATOM      4  C2  UNL d   1      -0.721   0.210   2.484  0.00  0.00    -0.047 A 
ATOM      5  C3  UNL d   1       0.632   0.387   2.858  0.00  0.00    -0.047 A 
ATOM      6  C4  UNL d   1       1.398   0.214   1.724  0.00  0.00    -0.004 A 
ENDROOT
TORSDOF 0
ENDMDL
