MODEL 1
REMARK minimizedAffinity -1.19663799
REMARK minimizedRMSD -1
REMARK  0 active torsions:
REMARK  status: ('A' for Active; 'I' for Inactive)
ROOT
ATOM      1  C1  BNZ d   1       0.198   2.909   1.291  0.00  0.00     0.000 A 
ATOM      2  C2  BNZ d   1       0.042   3.554   0.093  0.00  0.00     0.000 A 
ATOM      3  C3  BNZ d   1       1.077   4.248  -0.469  0.00  0.00     0.000 A 
ATOM      4  C4  BNZ d   1       2.253   4.330   0.187  0.00  0.00     0.000 A 
ATOM      5  C5  BNZ d   1       2.423   3.693   1.400  0.00  0.00     0.000 A 
ATOM      6  C6  BNZ d   1       1.391   2.963   1.943  0.00  0.00     0.000 A 
ENDROOT
TORSDOF 0
ENDMDL
