MODEL 1
REMARK minimizedAffinity 4.18823481
REMARK minimizedRMSD -1
REMARK  0 active torsions:
REMARK  status: ('A' for Active; 'I' for Inactive)
ROOT
ATOM      1  C1  BNZ d   1      -0.210   3.980  -2.190  0.00  0.00     0.000 A 
ATOM      2  C2  BNZ d   1      -0.714   2.888  -1.535  0.00  0.00     0.000 A 
ATOM      3  C3  BNZ d   1      -0.399   2.649  -0.227  0.00  0.00     0.000 A 
ATOM      4  C4  BNZ d   1       0.451   3.479   0.413  0.00  0.00     0.000 A 
ATOM      5  C5  BNZ d   1       0.974   4.579  -0.237  0.00  0.00     0.000 A 
ATOM      6  C6  BNZ d   1       0.624   4.838  -1.542  0.00  0.00     0.000 A 
ENDROOT
TORSDOF 0
ENDMDL
