MODEL 1
REMARK minimizedAffinity 6.14792967
REMARK minimizedRMSD -1
REMARK  0 active torsions:
REMARK  status: ('A' for Active; 'I' for Inactive)
ROOT
ATOM      1  C1  BNZ d   1      -1.152   6.000  -1.539  0.00  0.00     0.000 A 
ATOM      2  C2  BNZ d   1      -0.270   5.990  -0.491  0.00  0.00     0.000 A 
ATOM      3  C3  BNZ d   1       0.400   4.848  -0.151  0.00  0.00     0.000 A 
ATOM      4  C4  BNZ d   1       0.158   3.710  -0.832  0.00  0.00     0.000 A 
ATOM      5  C5  BNZ d   1      -0.735   3.701  -1.885  0.00  0.00     0.000 A 
ATOM      6  C6  BNZ d   1      -1.378   4.862  -2.249  0.00  0.00     0.000 A 
ENDROOT
TORSDOF 0
ENDMDL
