MODEL 1
REMARK minimizedAffinity -0.405529827
REMARK minimizedRMSD -1
REMARK  0 active torsions:
REMARK  status: ('A' for Active; 'I' for Inactive)
ROOT
ATOM      1  C1  BNZ d   1      -4.674   3.650  -3.931  0.00  0.00     0.000 A 
ATOM      2  C2  BNZ d   1      -5.329   4.305  -4.940  0.00  0.00     0.000 A 
ATOM      3  C3  BNZ d   1      -5.974   5.487  -4.705  0.00  0.00     0.000 A 
ATOM      4  C4  BNZ d   1      -5.998   5.992  -3.455  0.00  0.00     0.000 A 
ATOM      5  C5  BNZ d   1      -5.351   5.340  -2.425  0.00  0.00     0.000 A 
ATOM      6  C6  BNZ d   1      -4.670   4.170  -2.673  0.00  0.00     0.000 A 
ENDROOT
TORSDOF 0
ENDMDL
