MODEL 1
REMARK minimizedAffinity 4.18549681
REMARK minimizedRMSD -1
REMARK  0 active torsions:
REMARK  status: ('A' for Active; 'I' for Inactive)
ROOT
ATOM      1  C1  BNZ d   1      -4.899   0.396   3.333  0.00  0.00     0.000 A 
ATOM      2  C2  BNZ d   1      -5.996  -0.040   4.026  0.00  0.00     0.000 A 
ATOM      3  C3  BNZ d   1      -5.929  -1.154   4.815  0.00  0.00     0.000 A 
ATOM      4  C4  BNZ d   1      -4.776  -1.852   4.880  0.00  0.00     0.000 A 
ATOM      5  C5  BNZ d   1      -3.664  -1.430   4.180  0.00  0.00     0.000 A 
ATOM      6  C6  BNZ d   1      -3.725  -0.287   3.417  0.00  0.00     0.000 A 
ENDROOT
TORSDOF 0
ENDMDL
