MODEL 1
REMARK minimizedAffinity 4.12629938
REMARK minimizedRMSD -1
REMARK  0 active torsions:
REMARK  status: ('A' for Active; 'I' for Inactive)
ROOT
ATOM      1  C1  BNZ d   1       0.577   3.494   1.588  0.00  0.00     0.000 A 
ATOM      2  C2  BNZ d   1       0.696   4.460   0.625  0.00  0.00     0.000 A 
ATOM      3  C3  BNZ d   1       0.228   4.247  -0.642  0.00  0.00     0.000 A 
ATOM      4  C4  BNZ d   1      -0.322   3.056  -0.954  0.00  0.00     0.000 A 
ATOM      5  C5  BNZ d   1      -0.441   2.068   0.004  0.00  0.00     0.000 A 
ATOM      6  C6  BNZ d   1      -0.004   2.300   1.288  0.00  0.00     0.000 A 
ENDROOT
TORSDOF 0
ENDMDL
