MODEL 1
REMARK minimizedAffinity -3.36817455
REMARK minimizedRMSD -1
REMARK  0 active torsions:
REMARK  status: ('A' for Active; 'I' for Inactive)
ROOT
ATOM      1  C   UNL d   1       1.585   0.751  -2.221  0.00  0.00     0.020 A 
ATOM      2  C1  UNL d   1       1.044   1.725  -1.383  0.00  0.00     0.020 A 
ATOM      3  C2  UNL d   1       0.243   1.350  -0.303  0.00  0.00     0.034 A 
ATOM      4  C3  UNL d   1      -0.019  -0.002  -0.057  0.00  0.00     0.017 A 
ATOM      5  C4  UNL d   1       0.524  -0.980  -0.899  0.00  0.00     0.017 A 
ATOM      6  C5  UNL d   1       1.326  -0.598  -1.979  0.00  0.00     0.034 A 
ATOM      7 Cl   UNL d   1       0.245  -2.668  -0.659  0.00  0.00    -0.070 Cl
ATOM      8 Cl1  UNL d   1      -1.018  -0.394   1.297  0.00  0.00    -0.070 Cl
ENDROOT
TORSDOF 0
ENDMDL
