MODEL 1
REMARK minimizedAffinity -3.08981919
REMARK minimizedRMSD -1
REMARK  0 active torsions:
REMARK  status: ('A' for Active; 'I' for Inactive)
ROOT
ATOM      1  C   UNL d   1       2.190   0.191  -2.640  0.00  0.00     0.020 A 
ATOM      2  C1  UNL d   1       1.748   1.186  -1.770  0.00  0.00     0.020 A 
ATOM      3  C2  UNL d   1       0.984   0.847  -0.651  0.00  0.00     0.034 A 
ATOM      4  C3  UNL d   1       0.660  -0.491  -0.400  0.00  0.00     0.017 A 
ATOM      5  C4  UNL d   1       1.105  -1.490  -1.274  0.00  0.00     0.017 A 
ATOM      6  C5  UNL d   1       1.870  -1.144  -2.392  0.00  0.00     0.034 A 
ATOM      7 Cl   UNL d   1       0.746  -3.163  -1.029  0.00  0.00    -0.070 Cl
ATOM      8 Cl1  UNL d   1      -0.288  -0.839   1.003  0.00  0.00    -0.070 Cl
ENDROOT
TORSDOF 0
ENDMDL
