MODEL 1
REMARK minimizedAffinity -3.70532036
REMARK minimizedRMSD -1
REMARK  0 active torsions:
REMARK  status: ('A' for Active; 'I' for Inactive)
ROOT
ATOM      1  C   UNL d   1       1.627  -2.415  -1.986  0.00  0.00     0.020 A 
ATOM      2  C1  UNL d   1       2.198  -1.308  -2.611  0.00  0.00     0.020 A 
ATOM      3  C2  UNL d   1       1.923  -0.022  -2.142  0.00  0.00     0.034 A 
ATOM      4  C3  UNL d   1       1.074   0.161  -1.044  0.00  0.00     0.017 A 
ATOM      5  C4  UNL d   1       0.501  -0.952  -0.417  0.00  0.00     0.017 A 
ATOM      6  C5  UNL d   1       0.780  -2.237  -0.891  0.00  0.00     0.034 A 
ATOM      7 Cl   UNL d   1      -0.557  -0.806   0.942  0.00  0.00    -0.070 Cl
ATOM      8 Cl1  UNL d   1       0.778   1.779  -0.518  0.00  0.00    -0.070 Cl
ENDROOT
TORSDOF 0
ENDMDL
