MODEL 1
REMARK minimizedAffinity -4.61020517
REMARK minimizedRMSD -1
REMARK  0 active torsions:
REMARK  status: ('A' for Active; 'I' for Inactive)
ROOT
ATOM      1  C   UNL d   1      -1.461   0.880   0.080  0.00  0.00     0.020 A 
ATOM      2  C1  UNL d   1      -0.864   1.845  -0.729  0.00  0.00     0.020 A 
ATOM      3  C2  UNL d   1       0.219   1.502  -1.542  0.00  0.00     0.034 A 
ATOM      4  C3  UNL d   1       0.707   0.191  -1.548  0.00  0.00     0.017 A 
ATOM      5  C4  UNL d   1       0.107  -0.778  -0.734  0.00  0.00     0.017 A 
ATOM      6  C5  UNL d   1      -0.976  -0.429   0.078  0.00  0.00     0.034 A 
ATOM      7 Cl   UNL d   1       0.654  -2.416  -0.687  0.00  0.00    -0.070 Cl
ATOM      8 Cl1  UNL d   1       2.049  -0.163  -2.578  0.00  0.00    -0.070 Cl
ENDROOT
TORSDOF 0
ENDMDL
