MODEL 1
REMARK minimizedAffinity 5.7913928
REMARK minimizedRMSD -1
REMARK  0 active torsions:
REMARK  status: ('A' for Active; 'I' for Inactive)
ROOT
ATOM      1  C   UNL d   1       0.273   0.046   4.019  0.00  0.00     0.020 A 
ATOM      2  C1  UNL d   1       0.154   0.065   5.408  0.00  0.00     0.020 A 
ATOM      3  C2  UNL d   1      -1.063   0.412   5.999  0.00  0.00     0.034 A 
ATOM      4  C3  UNL d   1      -2.165   0.740   5.201  0.00  0.00     0.017 A 
ATOM      5  C4  UNL d   1      -2.044   0.721   3.807  0.00  0.00     0.017 A 
ATOM      6  C5  UNL d   1      -0.823   0.373   3.221  0.00  0.00     0.034 A 
ATOM      7 Cl   UNL d   1      -3.359   1.114   2.757  0.00  0.00    -0.070 Cl
ATOM      8 Cl1  UNL d   1      -3.639   1.159   6.000  0.00  0.00    -0.070 Cl
ENDROOT
TORSDOF 0
ENDMDL
