MODEL 1
REMARK minimizedAffinity -3.83716798
REMARK minimizedRMSD -1
REMARK  0 active torsions:
REMARK  status: ('A' for Active; 'I' for Inactive)
ROOT
ATOM      1  C   UNL d   1       1.388  -1.101  -1.743  0.00  0.00     0.020 A 
ATOM      2  C1  UNL d   1       2.002   0.021  -2.299  0.00  0.00     0.020 A 
ATOM      3  C2  UNL d   1       1.841   1.273  -1.701  0.00  0.00     0.034 A 
ATOM      4  C3  UNL d   1       1.064   1.406  -0.545  0.00  0.00     0.017 A 
ATOM      5  C4  UNL d   1       0.448   0.279   0.012  0.00  0.00     0.017 A 
ATOM      6  C5  UNL d   1       0.612  -0.972  -0.591  0.00  0.00     0.034 A 
ATOM      7 Cl   UNL d   1      -0.526   0.365   1.437  0.00  0.00    -0.070 Cl
ATOM      8 Cl1  UNL d   1       0.909   2.984   0.141  0.00  0.00    -0.070 Cl
ENDROOT
TORSDOF 0
ENDMDL
