MODEL 1
REMARK minimizedAffinity -5.51157284
REMARK minimizedRMSD -1
REMARK  0 active torsions:
REMARK  status: ('A' for Active; 'I' for Inactive)
ROOT
ATOM      1  C   UNL d   1       1.913  -0.035  -2.934  0.00  0.00     0.020 A 
ATOM      2  C1  UNL d   1       1.269   1.025  -2.297  0.00  0.00     0.020 A 
ATOM      3  C2  UNL d   1       0.598   0.810  -1.091  0.00  0.00     0.034 A 
ATOM      4  C3  UNL d   1       0.569  -0.467  -0.519  0.00  0.00     0.017 A 
ATOM      5  C4  UNL d   1       1.216  -1.530  -1.160  0.00  0.00     0.017 A 
ATOM      6  C5  UNL d   1       1.887  -1.309  -2.367  0.00  0.00     0.034 A 
ATOM      7 Cl   UNL d   1       1.225  -3.134  -0.515  0.00  0.00    -0.070 Cl
ATOM      8 Cl1  UNL d   1      -0.279  -0.660   0.974  0.00  0.00    -0.070 Cl
ENDROOT
TORSDOF 0
ENDMDL
