MODEL 1
REMARK minimizedAffinity -0.774532974
REMARK minimizedRMSD -1
REMARK  0 active torsions:
REMARK  status: ('A' for Active; 'I' for Inactive)
ROOT
ATOM      1  C   UNL d   1       1.281   0.346  -2.551  0.00  0.00     0.020 A 
ATOM      2  C1  UNL d   1       0.643   1.419  -1.932  0.00  0.00     0.020 A 
ATOM      3  C2  UNL d   1      -0.032   1.229  -0.725  0.00  0.00     0.034 A 
ATOM      4  C3  UNL d   1      -0.070  -0.039  -0.133  0.00  0.00     0.017 A 
ATOM      5  C4  UNL d   1       0.571  -1.116  -0.755  0.00  0.00     0.017 A 
ATOM      6  C5  UNL d   1       1.246  -0.919  -1.964  0.00  0.00     0.034 A 
ATOM      7 Cl   UNL d   1       0.568  -2.709  -0.084  0.00  0.00    -0.070 Cl
ATOM      8 Cl1  UNL d   1      -0.923  -0.202   1.361  0.00  0.00    -0.070 Cl
ENDROOT
TORSDOF 0
ENDMDL
