MODEL 1
REMARK minimizedAffinity -2.79927182
REMARK minimizedRMSD -1
REMARK  0 active torsions:
REMARK  status: ('A' for Active; 'I' for Inactive)
ROOT
ATOM      1  C   UNL d   1       1.242  -2.285  -1.659  0.00  0.00     0.020 A 
ATOM      2  C1  UNL d   1       2.061  -1.434  -2.400  0.00  0.00     0.020 A 
ATOM      3  C2  UNL d   1       2.041  -0.059  -2.158  0.00  0.00     0.034 A 
ATOM      4  C3  UNL d   1       1.200   0.470  -1.172  0.00  0.00     0.017 A 
ATOM      5  C4  UNL d   1       0.378  -0.385  -0.428  0.00  0.00     0.017 A 
ATOM      6  C5  UNL d   1       0.402  -1.761  -0.675  0.00  0.00     0.034 A 
ATOM      7 Cl   UNL d   1      -0.687   0.193   0.804  0.00  0.00    -0.070 Cl
ATOM      8 Cl1  UNL d   1       1.226   2.180  -0.925  0.00  0.00    -0.070 Cl
ENDROOT
TORSDOF 0
ENDMDL
