MODEL 1
REMARK minimizedAffinity -4.38636255
REMARK minimizedRMSD -1
REMARK  0 active torsions:
REMARK  status: ('A' for Active; 'I' for Inactive)
ROOT
ATOM      1  C   UNL d   1      -0.478   0.828  -1.003  0.00  0.00     0.020 A 
ATOM      2  C1  UNL d   1       0.288   0.210  -0.015  0.00  0.00     0.020 A 
ATOM      3  C2  UNL d   1      -0.258  -0.023   1.249  0.00  0.00     0.034 A 
ATOM      4  C3  UNL d   1      -1.575   0.362   1.528  0.00  0.00     0.017 A 
ATOM      5  C4  UNL d   1      -2.343   0.982   0.536  0.00  0.00     0.017 A 
ATOM      6  C5  UNL d   1      -1.791   1.213  -0.727  0.00  0.00     0.034 A 
ATOM      7 Cl   UNL d   1      -3.974   1.486   0.807  0.00  0.00    -0.070 Cl
ATOM      8 Cl1  UNL d   1      -2.186   0.042   3.113  0.00  0.00    -0.070 Cl
ENDROOT
TORSDOF 0
ENDMDL
