MODEL 1
REMARK minimizedAffinity -4.28995657
REMARK minimizedRMSD -1
REMARK  0 active torsions:
REMARK  status: ('A' for Active; 'I' for Inactive)
ROOT
ATOM      1  C   UNL d   1       1.025   0.361  -1.302  0.00  0.00     0.020 A 
ATOM      2  C1  UNL d   1      -0.081   1.179  -1.531  0.00  0.00     0.020 A 
ATOM      3  C2  UNL d   1      -1.156   1.166  -0.640  0.00  0.00     0.034 A 
ATOM      4  C3  UNL d   1      -1.128   0.333   0.484  0.00  0.00     0.017 A 
ATOM      5  C4  UNL d   1      -0.019  -0.489   0.713  0.00  0.00     0.017 A 
ATOM      6  C5  UNL d   1       1.055  -0.471  -0.183  0.00  0.00     0.034 A 
ATOM      7 Cl   UNL d   1       0.088  -1.544   2.078  0.00  0.00    -0.070 Cl
ATOM      8 Cl1  UNL d   1      -2.493   0.367   1.543  0.00  0.00    -0.070 Cl
ENDROOT
TORSDOF 0
ENDMDL
