MODEL 1
REMARK minimizedAffinity -2.7999599
REMARK minimizedRMSD -1
REMARK  0 active torsions:
REMARK  status: ('A' for Active; 'I' for Inactive)
ROOT
ATOM      1  C   UNL d   1       1.790  -0.486  -1.645  0.00  0.00     0.020 A 
ATOM      2  C1  UNL d   1       0.734  -1.379  -1.465  0.00  0.00     0.020 A 
ATOM      3  C2  UNL d   1      -0.305  -1.063  -0.586  0.00  0.00     0.034 A 
ATOM      4  C3  UNL d   1      -0.289   0.148   0.115  0.00  0.00     0.017 A 
ATOM      5  C4  UNL d   1       0.771   1.043  -0.066  0.00  0.00     0.017 A 
ATOM      6  C5  UNL d   1       1.809   0.722  -0.947  0.00  0.00     0.034 A 
ATOM      7 Cl   UNL d   1       0.860   2.557   0.764  0.00  0.00    -0.070 Cl
ATOM      8 Cl1  UNL d   1      -1.607   0.474   1.185  0.00  0.00    -0.070 Cl
ENDROOT
TORSDOF 0
ENDMDL
