MODEL 1
REMARK minimizedAffinity 0.501841307
REMARK minimizedRMSD -1
REMARK  0 active torsions:
REMARK  status: ('A' for Active; 'I' for Inactive)
ROOT
ATOM      1  C   UNL d   1       0.207  -1.801  -0.102  0.00  0.00     0.020 A 
ATOM      2  C1  UNL d   1      -0.353  -0.985   0.881  0.00  0.00     0.020 A 
ATOM      3  C2  UNL d   1       0.023   0.357   0.972  0.00  0.00     0.034 A 
ATOM      4  C3  UNL d   1       0.961   0.887   0.078  0.00  0.00     0.017 A 
ATOM      5  C4  UNL d   1       1.522   0.067  -0.908  0.00  0.00     0.017 A 
ATOM      6  C5  UNL d   1       1.142  -1.276  -0.994  0.00  0.00     0.034 A 
ATOM      7 Cl   UNL d   1       2.685   0.649  -2.046  0.00  0.00    -0.070 Cl
ATOM      8 Cl1  UNL d   1       1.380   2.554   0.248  0.00  0.00    -0.070 Cl
ENDROOT
TORSDOF 0
ENDMDL
