MODEL 1
REMARK minimizedAffinity -3.67096424
REMARK minimizedRMSD -1
REMARK  0 active torsions:
REMARK  status: ('A' for Active; 'I' for Inactive)
ROOT
ATOM      1  C   UNL d   1       0.375  -2.076  -0.231  0.00  0.00     0.020 A 
ATOM      2  C1  UNL d   1      -0.328  -1.377   0.750  0.00  0.00     0.020 A 
ATOM      3  C2  UNL d   1      -0.141  -0.001   0.895  0.00  0.00     0.034 A 
ATOM      4  C3  UNL d   1       0.750   0.681   0.058  0.00  0.00     0.017 A 
ATOM      5  C4  UNL d   1       1.455  -0.022  -0.926  0.00  0.00     0.017 A 
ATOM      6  C5  UNL d   1       1.264  -1.400  -1.067  0.00  0.00     0.034 A 
ATOM      7 Cl   UNL d   1       2.571   0.750  -1.996  0.00  0.00    -0.070 Cl
ATOM      8 Cl1  UNL d   1       0.931   2.383   0.293  0.00  0.00    -0.070 Cl
ENDROOT
TORSDOF 0
ENDMDL
