MODEL 1
REMARK minimizedAffinity -2.06136227
REMARK minimizedRMSD -1
REMARK  0 active torsions:
REMARK  status: ('A' for Active; 'I' for Inactive)
ROOT
ATOM      1  C   UNL d   1      -1.167   0.238   1.009  0.00  0.00     0.020 A 
ATOM      2  C1  UNL d   1      -0.580   1.401   0.511  0.00  0.00     0.020 A 
ATOM      3  C2  UNL d   1       0.501   1.315  -0.368  0.00  0.00     0.034 A 
ATOM      4  C3  UNL d   1       1.000   0.064  -0.751  0.00  0.00     0.017 A 
ATOM      5  C4  UNL d   1       0.410  -1.102  -0.250  0.00  0.00     0.017 A 
ATOM      6  C5  UNL d   1      -0.673  -1.010   0.629  0.00  0.00     0.034 A 
ATOM      7 Cl   UNL d   1       0.969  -2.680  -0.678  0.00  0.00    -0.070 Cl
ATOM      8 Cl1  UNL d   1       2.340   0.033  -1.841  0.00  0.00    -0.070 Cl
ENDROOT
TORSDOF 0
ENDMDL
