MODEL 1
REMARK minimizedAffinity -4.68719482
REMARK minimizedRMSD -1
REMARK  0 active torsions:
REMARK  status: ('A' for Active; 'I' for Inactive)
ROOT
ATOM      1  C   UNL d   1      -3.613   0.739  -0.390  0.00  0.00     0.020 A 
ATOM      2  C1  UNL d   1      -3.696   0.428   0.967  0.00  0.00     0.020 A 
ATOM      3  C2  UNL d   1      -2.543   0.093   1.679  0.00  0.00     0.034 A 
ATOM      4  C3  UNL d   1      -1.300   0.069   1.035  0.00  0.00     0.017 A 
ATOM      5  C4  UNL d   1      -1.217   0.381  -0.327  0.00  0.00     0.017 A 
ATOM      6  C5  UNL d   1      -2.376   0.716  -1.035  0.00  0.00     0.034 A 
ATOM      7 Cl   UNL d   1       0.280   0.372  -1.191  0.00  0.00    -0.070 Cl
ATOM      8 Cl1  UNL d   1       0.085  -0.354   1.977  0.00  0.00    -0.070 Cl
ENDROOT
TORSDOF 0
ENDMDL
