MODEL 1
REMARK minimizedAffinity -4.38933229
REMARK minimizedRMSD -1
REMARK  0 active torsions:
REMARK  status: ('A' for Active; 'I' for Inactive)
ROOT
ATOM      1  C   UNL d   1       1.683   1.599  -1.864  0.00  0.00     0.020 A 
ATOM      2  C1  UNL d   1       2.296   0.525  -2.506  0.00  0.00     0.020 A 
ATOM      3  C2  UNL d   1       1.955  -0.784  -2.157  0.00  0.00     0.034 A 
ATOM      4  C3  UNL d   1       0.998  -1.021  -1.164  0.00  0.00     0.017 A 
ATOM      5  C4  UNL d   1       0.383   0.058  -0.519  0.00  0.00     0.017 A 
ATOM      6  C5  UNL d   1       0.728   1.367  -0.873  0.00  0.00     0.034 A 
ATOM      7 Cl   UNL d   1      -0.806  -0.155   0.716  0.00  0.00    -0.070 Cl
ATOM      8 Cl1  UNL d   1       0.625  -2.665  -0.784  0.00  0.00    -0.070 Cl
ENDROOT
TORSDOF 0
ENDMDL
