MODEL 1
REMARK minimizedAffinity -4.57767391
REMARK minimizedRMSD -1
REMARK  0 active torsions:
REMARK  status: ('A' for Active; 'I' for Inactive)
ROOT
ATOM      1  C   UNL d   1       1.656   0.299  -0.805  0.00  0.00     0.020 A 
ATOM      2  C1  UNL d   1       1.806  -0.328   0.431  0.00  0.00     0.020 A 
ATOM      3  C2  UNL d   1       0.750  -0.331   1.345  0.00  0.00     0.034 A 
ATOM      4  C3  UNL d   1      -0.461   0.293   1.023  0.00  0.00     0.017 A 
ATOM      5  C4  UNL d   1      -0.610   0.922  -0.218  0.00  0.00     0.017 A 
ATOM      6  C5  UNL d   1       0.451   0.922  -1.129  0.00  0.00     0.034 A 
ATOM      7 Cl   UNL d   1      -2.073   1.714  -0.687  0.00  0.00    -0.070 Cl
ATOM      8 Cl1  UNL d   1      -1.725   0.250   2.200  0.00  0.00    -0.070 Cl
ENDROOT
TORSDOF 0
ENDMDL
