MODEL 1
REMARK minimizedAffinity -4.73386145
REMARK minimizedRMSD -1
REMARK  0 active torsions:
REMARK  status: ('A' for Active; 'I' for Inactive)
ROOT
ATOM      1  C   UNL d   1      -1.308   0.008   0.103  0.00  0.00     0.020 A 
ATOM      2  C1  UNL d   1      -0.675  -1.229   0.212  0.00  0.00     0.020 A 
ATOM      3  C2  UNL d   1       0.674  -1.355  -0.129  0.00  0.00     0.034 A 
ATOM      4  C3  UNL d   1       1.393  -0.242  -0.579  0.00  0.00     0.017 A 
ATOM      5  C4  UNL d   1       0.756   0.999  -0.688  0.00  0.00     0.017 A 
ATOM      6  C5  UNL d   1      -0.594   1.120  -0.346  0.00  0.00     0.034 A 
ATOM      7 Cl   UNL d   1       1.578   2.417  -1.236  0.00  0.00    -0.070 Cl
ATOM      8 Cl1  UNL d   1       3.058  -0.471  -0.982  0.00  0.00    -0.070 Cl
ENDROOT
TORSDOF 0
ENDMDL
