MODEL 1
REMARK minimizedAffinity -2.13326454
REMARK minimizedRMSD -1
REMARK  0 active torsions:
REMARK  status: ('A' for Active; 'I' for Inactive)
ROOT
ATOM      1  C   UNL d   1       2.983   0.363  -0.340  0.00  0.00     0.020 A 
ATOM      2  C1  UNL d   1       2.761  -0.996  -0.120  0.00  0.00     0.020 A 
ATOM      3  C2  UNL d   1       1.471  -1.519  -0.233  0.00  0.00     0.034 A 
ATOM      4  C3  UNL d   1       0.399  -0.683  -0.566  0.00  0.00     0.017 A 
ATOM      5  C4  UNL d   1       0.623   0.681  -0.787  0.00  0.00     0.017 A 
ATOM      6  C5  UNL d   1       1.917   1.199  -0.673  0.00  0.00     0.034 A 
ATOM      7 Cl   UNL d   1      -0.649   1.775  -1.202  0.00  0.00    -0.070 Cl
ATOM      8 Cl1  UNL d   1      -1.170  -1.398  -0.688  0.00  0.00    -0.070 Cl
ENDROOT
TORSDOF 0
ENDMDL
