MODEL 1
REMARK minimizedAffinity -2.96694756
REMARK minimizedRMSD -1
REMARK  0 active torsions:
REMARK  status: ('A' for Active; 'I' for Inactive)
ROOT
ATOM      1  C   UNL d   1       2.234   1.022  -2.291  0.00  0.00     0.020 A 
ATOM      2  C1  UNL d   1       2.812  -0.245  -2.215  0.00  0.00     0.020 A 
ATOM      3  C2  UNL d   1       2.186  -1.256  -1.484  0.00  0.00     0.034 A 
ATOM      4  C3  UNL d   1       0.977  -1.002  -0.825  0.00  0.00     0.017 A 
ATOM      5  C4  UNL d   1       0.398   0.269  -0.901  0.00  0.00     0.017 A 
ATOM      6  C5  UNL d   1       1.029   1.278  -1.635  0.00  0.00     0.034 A 
ATOM      7 Cl   UNL d   1      -1.092   0.658  -0.115  0.00  0.00    -0.070 Cl
ATOM      8 Cl1  UNL d   1       0.258  -2.300   0.061  0.00  0.00    -0.070 Cl
ENDROOT
TORSDOF 0
ENDMDL
