MODEL 1
REMARK minimizedAffinity -4.12278414
REMARK minimizedRMSD -1
REMARK  0 active torsions:
REMARK  status: ('A' for Active; 'I' for Inactive)
ROOT
ATOM      1  C   UNL d   1       2.138   1.062  -2.521  0.00  0.00     0.020 A 
ATOM      2  C1  UNL d   1       2.872   0.293  -1.619  0.00  0.00     0.020 A 
ATOM      3  C2  UNL d   1       2.247  -0.252  -0.496  0.00  0.00     0.034 A 
ATOM      4  C3  UNL d   1       0.884  -0.028  -0.270  0.00  0.00     0.017 A 
ATOM      5  C4  UNL d   1       0.148   0.744  -1.176  0.00  0.00     0.017 A 
ATOM      6  C5  UNL d   1       0.778   1.287  -2.300  0.00  0.00     0.034 A 
ATOM      7 Cl   UNL d   1      -1.538   1.063  -0.966  0.00  0.00    -0.070 Cl
ATOM      8 Cl1  UNL d   1       0.177  -0.733   1.140  0.00  0.00    -0.070 Cl
ENDROOT
TORSDOF 0
ENDMDL
