MODEL 1
REMARK minimizedAffinity -5.08592176
REMARK minimizedRMSD -1
REMARK  0 active torsions:
REMARK  status: ('A' for Active; 'I' for Inactive)
ROOT
ATOM      1  C   UNL d   1       2.835  -1.221  -0.850  0.00  0.00     0.020 A 
ATOM      2  C1  UNL d   1       3.236  -0.392  -1.897  0.00  0.00     0.020 A 
ATOM      3  C2  UNL d   1       2.451   0.705  -2.258  0.00  0.00     0.034 A 
ATOM      4  C3  UNL d   1       1.261   0.976  -1.571  0.00  0.00     0.017 A 
ATOM      5  C4  UNL d   1       0.860   0.142  -0.521  0.00  0.00     0.017 A 
ATOM      6  C5  UNL d   1       1.650  -0.955  -0.164  0.00  0.00     0.034 A 
ATOM      7 Cl   UNL d   1      -0.595   0.412   0.372  0.00  0.00    -0.070 Cl
ATOM      8 Cl1  UNL d   1       0.340   2.350  -2.071  0.00  0.00    -0.070 Cl
ENDROOT
TORSDOF 0
ENDMDL
