MODEL 1
REMARK minimizedAffinity -2.95570922
REMARK minimizedRMSD -1
REMARK  0 active torsions:
REMARK  status: ('A' for Active; 'I' for Inactive)
ROOT
ATOM      1  C   UNL d   1       1.579   1.825  -2.632  0.00  0.00     0.020 A 
ATOM      2  C1  UNL d   1       2.412   0.728  -2.849  0.00  0.00     0.020 A 
ATOM      3  C2  UNL d   1       2.186  -0.467  -2.163  0.00  0.00     0.034 A 
ATOM      4  C3  UNL d   1       1.124  -0.568  -1.256  0.00  0.00     0.017 A 
ATOM      5  C4  UNL d   1       0.289   0.534  -1.039  0.00  0.00     0.017 A 
ATOM      6  C5  UNL d   1       0.520   1.728  -1.729  0.00  0.00     0.034 A 
ATOM      7 Cl   UNL d   1      -1.041   0.485   0.064  0.00  0.00    -0.070 Cl
ATOM      8 Cl1  UNL d   1       0.903  -2.076  -0.442  0.00  0.00    -0.070 Cl
ENDROOT
TORSDOF 0
ENDMDL
