MODEL 1
REMARK minimizedAffinity -3.97025371
REMARK minimizedRMSD -1
REMARK  0 active torsions:
REMARK  status: ('A' for Active; 'I' for Inactive)
ROOT
ATOM      1  C   UNL d   1       2.297   0.242  -2.970  0.00  0.00     0.020 A 
ATOM      2  C1  UNL d   1       2.221  -0.797  -2.043  0.00  0.00     0.020 A 
ATOM      3  C2  UNL d   1       1.212  -0.800  -1.078  0.00  0.00     0.034 A 
ATOM      4  C3  UNL d   1       0.275   0.238  -1.036  0.00  0.00     0.017 A 
ATOM      5  C4  UNL d   1       0.351   1.281  -1.967  0.00  0.00     0.017 A 
ATOM      6  C5  UNL d   1       1.363   1.279  -2.932  0.00  0.00     0.034 A 
ATOM      7 Cl   UNL d   1      -0.770   2.596  -1.979  0.00  0.00    -0.070 Cl
ATOM      8 Cl1  UNL d   1      -0.946   0.170   0.184  0.00  0.00    -0.070 Cl
ENDROOT
TORSDOF 0
ENDMDL
