MODEL 1
REMARK minimizedAffinity -4.92414427
REMARK minimizedRMSD -1
REMARK  0 active torsions:
REMARK  status: ('A' for Active; 'I' for Inactive)
ROOT
ATOM      1  C   UNL d   1       2.592   0.584  -1.109  0.00  0.00     0.020 A 
ATOM      2  C1  UNL d   1       2.882  -0.732  -1.465  0.00  0.00     0.020 A 
ATOM      3  C2  UNL d   1       1.943  -1.740  -1.236  0.00  0.00     0.034 A 
ATOM      4  C3  UNL d   1       0.709  -1.433  -0.651  0.00  0.00     0.017 A 
ATOM      5  C4  UNL d   1       0.419  -0.111  -0.295  0.00  0.00     0.017 A 
ATOM      6  C5  UNL d   1       1.363   0.894  -0.525  0.00  0.00     0.034 A 
ATOM      7 Cl   UNL d   1      -1.082   0.345   0.432  0.00  0.00    -0.070 Cl
ATOM      8 Cl1  UNL d   1      -0.405  -2.729  -0.399  0.00  0.00    -0.070 Cl
ENDROOT
TORSDOF 0
ENDMDL
