MODEL 1
REMARK minimizedAffinity -3.18027449
REMARK minimizedRMSD -1
REMARK  0 active torsions:
REMARK  status: ('A' for Active; 'I' for Inactive)
ROOT
ATOM      1  C   UNL d   1       2.803  -0.422  -1.582  0.00  0.00     0.020 A 
ATOM      2  C1  UNL d   1       2.445   0.824  -1.071  0.00  0.00     0.020 A 
ATOM      3  C2  UNL d   1       1.251   0.971  -0.362  0.00  0.00     0.034 A 
ATOM      4  C3  UNL d   1       0.410  -0.130  -0.162  0.00  0.00     0.017 A 
ATOM      5  C4  UNL d   1       0.770  -1.381  -0.676  0.00  0.00     0.017 A 
ATOM      6  C5  UNL d   1       1.967  -1.523  -1.385  0.00  0.00     0.034 A 
ATOM      7 Cl   UNL d   1      -0.215  -2.786  -0.470  0.00  0.00    -0.070 Cl
ATOM      8 Cl1  UNL d   1      -1.051   0.125   0.725  0.00  0.00    -0.070 Cl
ENDROOT
TORSDOF 0
ENDMDL
