MODEL 1
REMARK minimizedAffinity -2.36168003
REMARK minimizedRMSD -1
REMARK  0 active torsions:
REMARK  status: ('A' for Active; 'I' for Inactive)
ROOT
ATOM      1  C   UNL d   1       2.792  -1.294  -0.847  0.00  0.00     0.020 A 
ATOM      2  C1  UNL d   1       1.911  -1.948   0.014  0.00  0.00     0.020 A 
ATOM      3  C2  UNL d   1       0.706  -1.340   0.374  0.00  0.00     0.034 A 
ATOM      4  C3  UNL d   1       0.380  -0.074  -0.126  0.00  0.00     0.017 A 
ATOM      5  C4  UNL d   1       1.265   0.582  -0.989  0.00  0.00     0.017 A 
ATOM      6  C5  UNL d   1       2.469  -0.032  -1.347  0.00  0.00     0.034 A 
ATOM      7 Cl   UNL d   1       0.931   2.145  -1.647  0.00  0.00    -0.070 Cl
ATOM      8 Cl1  UNL d   1      -1.127   0.618   0.361  0.00  0.00    -0.070 Cl
ENDROOT
TORSDOF 0
ENDMDL
