MODEL 1
REMARK minimizedAffinity -4.34973669
REMARK minimizedRMSD -1
REMARK  0 active torsions:
REMARK  status: ('A' for Active; 'I' for Inactive)
ROOT
ATOM      1  C   UNL d   1       3.016  -0.805  -1.101  0.00  0.00     0.020 A 
ATOM      2  C1  UNL d   1       2.703   0.544  -0.939  0.00  0.00     0.020 A 
ATOM      3  C2  UNL d   1       1.457   0.916  -0.430  0.00  0.00     0.034 A 
ATOM      4  C3  UNL d   1       0.519  -0.063  -0.082  0.00  0.00     0.017 A 
ATOM      5  C4  UNL d   1       0.834  -1.417  -0.244  0.00  0.00     0.017 A 
ATOM      6  C5  UNL d   1       2.083  -1.783  -0.754  0.00  0.00     0.034 A 
ATOM      7 Cl   UNL d   1      -0.271  -2.681   0.164  0.00  0.00    -0.070 Cl
ATOM      8 Cl1  UNL d   1      -1.003   0.469   0.542  0.00  0.00    -0.070 Cl
ENDROOT
TORSDOF 0
ENDMDL
