MODEL 1
REMARK minimizedAffinity -4.67334175
REMARK minimizedRMSD -1
REMARK  0 active torsions:
REMARK  status: ('A' for Active; 'I' for Inactive)
ROOT
ATOM      1  C   UNL d   1      -0.145  -1.363   0.142  0.00  0.00     0.020 A 
ATOM      2  C1  UNL d   1      -1.025  -0.322   0.434  0.00  0.00     0.020 A 
ATOM      3  C2  UNL d   1      -0.796   0.953  -0.089  0.00  0.00     0.034 A 
ATOM      4  C3  UNL d   1       0.315   1.189  -0.907  0.00  0.00     0.017 A 
ATOM      5  C4  UNL d   1       1.197   0.143  -1.200  0.00  0.00     0.017 A 
ATOM      6  C5  UNL d   1       0.964  -1.131  -0.673  0.00  0.00     0.034 A 
ATOM      7 Cl   UNL d   1       2.589   0.357  -2.201  0.00  0.00    -0.070 Cl
ATOM      8 Cl1  UNL d   1       0.535   2.789  -1.520  0.00  0.00    -0.070 Cl
ENDROOT
TORSDOF 0
ENDMDL
