MODEL 1
REMARK minimizedAffinity 1.4458729
REMARK minimizedRMSD -1
REMARK  0 active torsions:
REMARK  status: ('A' for Active; 'I' for Inactive)
ROOT
ATOM      1  C   UNL d   1      -1.196  -1.622   0.455  0.00  0.00     0.020 A 
ATOM      2  C1  UNL d   1      -1.861  -0.396   0.451  0.00  0.00     0.020 A 
ATOM      3  C2  UNL d   1      -1.272   0.716  -0.154  0.00  0.00     0.034 A 
ATOM      4  C3  UNL d   1      -0.014   0.605  -0.758  0.00  0.00     0.017 A 
ATOM      5  C4  UNL d   1       0.653  -0.626  -0.753  0.00  0.00     0.017 A 
ATOM      6  C5  UNL d   1       0.059  -1.736  -0.146  0.00  0.00     0.034 A 
ATOM      7 Cl   UNL d   1       2.207  -0.841  -1.478  0.00  0.00    -0.070 Cl
ATOM      8 Cl1  UNL d   1       0.655   2.021  -1.489  0.00  0.00    -0.070 Cl
ENDROOT
TORSDOF 0
ENDMDL
