MODEL 1
REMARK minimizedAffinity -2.31465268
REMARK minimizedRMSD -1
REMARK  0 active torsions:
REMARK  status: ('A' for Active; 'I' for Inactive)
ROOT
ATOM      1  C   UNL d   1      -0.641   1.200  -0.789  0.00  0.00     0.020 A 
ATOM      2  C1  UNL d   1      -0.420   0.013  -0.091  0.00  0.00     0.020 A 
ATOM      3  C2  UNL d   1      -0.906  -0.134   1.209  0.00  0.00     0.034 A 
ATOM      4  C3  UNL d   1      -1.617   0.908   1.817  0.00  0.00     0.017 A 
ATOM      5  C4  UNL d   1      -1.838   2.099   1.116  0.00  0.00     0.017 A 
ATOM      6  C5  UNL d   1      -1.349   2.240  -0.187  0.00  0.00     0.034 A 
ATOM      7 Cl   UNL d   1      -2.706   3.429   1.799  0.00  0.00    -0.070 Cl
ATOM      8 Cl1  UNL d   1      -2.190   0.658   3.427  0.00  0.00    -0.070 Cl
ENDROOT
TORSDOF 0
ENDMDL
