MODEL 1
REMARK minimizedAffinity -5.36667919
REMARK minimizedRMSD -1
REMARK  1 active torsions:
REMARK  status: ('A' for Active; 'I' for Inactive)
REMARK    1  A    between atoms: N_2  and  C1_3 
ROOT
ATOM      1  C1  UNL d   1       0.035   0.164   0.757  0.00  0.00     0.143 A 
ATOM      2  C2  UNL d   1      -0.997   0.838   1.419  0.00  0.00    -0.057 A 
ATOM      3  C3  UNL d   1      -0.920   1.120   2.788  0.00  0.00     0.033 A 
ATOM      4  C4  UNL d   1       0.182   0.705   3.529  0.00  0.00    -0.042 A 
ATOM      5  C5  UNL d   1       1.208   0.011   2.897  0.00  0.00     0.033 A 
ATOM      6  C6  UNL d   1       1.128  -0.261   1.528  0.00  0.00    -0.057 A 
ENDROOT
BRANCH   1   7
ATOM      7  N   UNL d   1      -0.027  -0.232  -0.581  0.00  0.00    -0.732 N 
ATOM      8  C   UNL d   1       0.678  -1.412  -1.034  0.00  0.00     0.284 C 
ATOM      9  H3  UNL d   1      -0.959  -0.129  -0.974  0.00  0.00     0.395 HD
ENDBRANCH   1   7
TORSDOF 1
ENDMDL
