MODEL 1
REMARK minimizedAffinity -5.34968281
REMARK minimizedRMSD -1
REMARK  1 active torsions:
REMARK  status: ('A' for Active; 'I' for Inactive)
REMARK    1  A    between atoms: N_2  and  C1_3 
ROOT
ATOM      1  C1  UNL d   1       0.366   0.181   1.205  0.00  0.00     0.143 A 
ATOM      2  C2  UNL d   1      -0.862   0.731   1.589  0.00  0.00    -0.057 A 
ATOM      3  C3  UNL d   1      -1.061   1.231   2.882  0.00  0.00     0.033 A 
ATOM      4  C4  UNL d   1      -0.040   1.165   3.825  0.00  0.00    -0.042 A 
ATOM      5  C5  UNL d   1       1.180   0.601   3.472  0.00  0.00     0.033 A 
ATOM      6  C6  UNL d   1       1.375   0.108   2.178  0.00  0.00    -0.057 A 
ENDROOT
BRANCH   1   7
ATOM      7  N   UNL d   1       0.594  -0.422  -0.034  0.00  0.00    -0.732 N 
ATOM      8  C   UNL d   1       1.575  -1.477  -0.170  0.00  0.00     0.284 C 
ATOM      9  H3  UNL d   1      -0.267  -0.586  -0.551  0.00  0.00     0.395 HD
ENDBRANCH   1   7
TORSDOF 1
ENDMDL
