MODEL 1
REMARK minimizedAffinity -4.89854765
REMARK minimizedRMSD -1
REMARK  1 active torsions:
REMARK  status: ('A' for Active; 'I' for Inactive)
REMARK    1  A    between atoms: N_2  and  C1_3 
ROOT
ATOM      1  C1  UNL d   1      -0.137  -0.026   0.204  0.00  0.00     0.143 A 
ATOM      2  C2  UNL d   1      -1.482  -0.106   0.584  0.00  0.00    -0.057 A 
ATOM      3  C3  UNL d   1      -2.018   0.761   1.543  0.00  0.00     0.033 A 
ATOM      4  C4  UNL d   1      -1.209   1.708   2.163  0.00  0.00    -0.042 A 
ATOM      5  C5  UNL d   1       0.135   1.789   1.820  0.00  0.00     0.033 A 
ATOM      6  C6  UNL d   1       0.664   0.924   0.856  0.00  0.00    -0.057 A 
ENDROOT
BRANCH   1   7
ATOM      7  N   UNL d   1       0.478  -0.924  -0.672  0.00  0.00    -0.732 N 
ATOM      8  C   UNL d   1       0.871  -0.506  -2.000  0.00  0.00     0.284 C 
ATOM      9  H3  UNL d   1       1.160  -1.517  -0.204  0.00  0.00     0.395 HD
ENDBRANCH   1   7
TORSDOF 1
ENDMDL
