MODEL 1
REMARK minimizedAffinity -4.33705425
REMARK minimizedRMSD -1
REMARK  1 active torsions:
REMARK  status: ('A' for Active; 'I' for Inactive)
REMARK    1  A    between atoms: N_2  and  C1_3 
ROOT
ATOM      1  C1  UNL d   1       0.465   0.103   0.140  0.00  0.00     0.143 A 
ATOM      2  C2  UNL d   1      -0.924   0.023   0.290  0.00  0.00    -0.057 A 
ATOM      3  C3  UNL d   1      -1.569   0.592   1.395  0.00  0.00     0.033 A 
ATOM      4  C4  UNL d   1      -0.831   1.228   2.387  0.00  0.00    -0.042 A 
ATOM      5  C5  UNL d   1       0.552   1.298   2.272  0.00  0.00     0.033 A 
ATOM      6  C6  UNL d   1       1.190   0.734   1.163  0.00  0.00    -0.057 A 
ENDROOT
BRANCH   1   7
ATOM      7  N   UNL d   1       1.174  -0.528  -0.884  0.00  0.00    -0.732 N 
ATOM      8  C   UNL d   1       1.081  -0.051  -2.248  0.00  0.00     0.284 C 
ATOM      9  H3  UNL d   1       2.115  -0.792  -0.600  0.00  0.00     0.395 HD
ENDBRANCH   1   7
TORSDOF 1
ENDMDL
