MODEL 1
REMARK minimizedAffinity 0.460467964
REMARK minimizedRMSD -1
REMARK  0 active torsions:
REMARK  status: ('A' for Active; 'I' for Inactive)
ROOT
ATOM      1  C1  DEN d   1      -5.993  -4.813  -1.112  0.00  0.00     0.130 A 
ATOM      2  C2  DEN d   1      -5.948  -5.399   0.225  0.00  0.00    -0.031 A 
ATOM      3  C3  DEN d   1      -5.928  -4.297   1.207  0.00  0.00     0.027 A 
ATOM      4  C4  DEN d   1      -5.967  -1.752   0.790  0.00  0.00     0.027 A 
ATOM      5  C5  DEN d   1      -5.993  -0.773  -0.179  0.00  0.00    -0.003 A 
ATOM      6  C6  DEN d   1      -5.987  -1.070  -1.517  0.00  0.00     0.001 A 
ATOM      7  C7  DEN d   1      -5.999  -2.378  -1.922  0.00  0.00     0.017 A 
ATOM      8  C8  DEN d   1      -5.965  -3.370  -0.951  0.00  0.00    -0.094 A 
ATOM      9  C9  DEN d   1      -5.984  -3.050   0.396  0.00  0.00    -0.072 A 
ENDROOT
TORSDOF 0
ENDMDL
