MODEL 1
REMARK minimizedAffinity -1.6145891
REMARK minimizedRMSD -1
REMARK  0 active torsions:
REMARK  status: ('A' for Active; 'I' for Inactive)
ROOT
ATOM      1  C1  DEN d   1       4.027  -0.701   2.700  0.00  0.00     0.130 A 
ATOM      2  C2  DEN d   1       4.719   0.227   1.810  0.00  0.00    -0.031 A 
ATOM      3  C3  DEN d   1       3.724   1.181   1.281  0.00  0.00     0.027 A 
ATOM      4  C4  DEN d   1       1.192   1.313   1.755  0.00  0.00     0.027 A 
ATOM      5  C5  DEN d   1       0.146   0.732   2.437  0.00  0.00    -0.003 A 
ATOM      6  C6  DEN d   1       0.312  -0.379   3.221  0.00  0.00     0.001 A 
ATOM      7  C7  DEN d   1       1.562  -0.918   3.378  0.00  0.00     0.017 A 
ATOM      8  C8  DEN d   1       2.620  -0.342   2.688  0.00  0.00    -0.094 A 
ATOM      9  C9  DEN d   1       2.434   0.789   1.911  0.00  0.00    -0.072 A 
ENDROOT
TORSDOF 0
ENDMDL
