MODEL 1
REMARK minimizedAffinity 12.2213202
REMARK minimizedRMSD -1
REMARK  0 active torsions:
REMARK  status: ('A' for Active; 'I' for Inactive)
ROOT
ATOM      1  C1  DEN d   1      -2.483  -2.540  -5.995  0.00  0.00     0.130 A 
ATOM      2  C2  DEN d   1      -1.349  -3.461  -5.991  0.00  0.00    -0.031 A 
ATOM      3  C3  DEN d   1      -1.880  -4.839  -5.979  0.00  0.00     0.027 A 
ATOM      4  C4  DEN d   1      -4.334  -5.632  -5.973  0.00  0.00     0.027 A 
ATOM      5  C5  DEN d   1      -5.648  -5.218  -5.962  0.00  0.00    -0.003 A 
ATOM      6  C6  DEN d   1      -5.996  -3.893  -5.927  0.00  0.00     0.001 A 
ATOM      7  C7  DEN d   1      -5.018  -2.934  -5.948  0.00  0.00     0.017 A 
ATOM      8  C8  DEN d   1      -3.691  -3.344  -5.951  0.00  0.00    -0.094 A 
ATOM      9  C9  DEN d   1      -3.360  -4.688  -5.999  0.00  0.00    -0.072 A 
ENDROOT
TORSDOF 0
ENDMDL
