MODEL 1
REMARK minimizedAffinity 15.6990023
REMARK minimizedRMSD -1
REMARK  0 active torsions:
REMARK  status: ('A' for Active; 'I' for Inactive)
ROOT
ATOM      1  C1  DEN d   1       0.127  -1.214  -2.833  0.00  0.00     0.130 A 
ATOM      2  C2  DEN d   1       1.058  -1.385  -3.946  0.00  0.00    -0.031 A 
ATOM      3  C3  DEN d   1       2.076  -0.320  -3.857  0.00  0.00     0.027 A 
ATOM      4  C4  DEN d   1       2.304   1.566  -2.113  0.00  0.00     0.027 A 
ATOM      5  C5  DEN d   1       1.744   2.127  -0.986  0.00  0.00    -0.003 A 
ATOM      6  C6  DEN d   1       0.596   1.638  -0.421  0.00  0.00     0.001 A 
ATOM      7  C7  DEN d   1      -0.004   0.529  -0.955  0.00  0.00     0.017 A 
ATOM      8  C8  DEN d   1       0.550  -0.038  -2.095  0.00  0.00    -0.094 A 
ATOM      9  C9  DEN d   1       1.718   0.463  -2.644  0.00  0.00    -0.072 A 
ENDROOT
TORSDOF 0
ENDMDL
