MODEL 1
REMARK minimizedAffinity 2.9760859
REMARK minimizedRMSD -1
REMARK  0 active torsions:
REMARK  status: ('A' for Active; 'I' for Inactive)
ROOT
ATOM      1  C1  DEN d   1       4.494   2.390  -6.000  0.00  0.00     0.130 A 
ATOM      2  C2  DEN d   1       5.691   2.991  -5.419  0.00  0.00    -0.031 A 
ATOM      3  C3  DEN d   1       5.286   4.222  -4.709  0.00  0.00     0.027 A 
ATOM      4  C4  DEN d   1       2.933   5.246  -4.451  0.00  0.00     0.027 A 
ATOM      5  C5  DEN d   1       1.603   5.100  -4.779  0.00  0.00    -0.003 A 
ATOM      6  C6  DEN d   1       1.152   4.069  -5.559  0.00  0.00     0.001 A 
ATOM      7  C7  DEN d   1       2.033   3.116  -6.000  0.00  0.00     0.017 A 
ATOM      8  C8  DEN d   1       3.376   3.260  -5.679  0.00  0.00    -0.094 A 
ATOM      9  C9  DEN d   1       3.811   4.303  -4.879  0.00  0.00    -0.072 A 
ENDROOT
TORSDOF 0
ENDMDL
