MODEL 1
REMARK minimizedAffinity 14.1294851
REMARK minimizedRMSD -1
REMARK  0 active torsions:
REMARK  status: ('A' for Active; 'I' for Inactive)
ROOT
ATOM      1  C1  DEN d   1      -4.818  -2.214   1.510  0.00  0.00     0.130 A 
ATOM      2  C2  DEN d   1      -5.262  -1.575   0.274  0.00  0.00    -0.031 A 
ATOM      3  C3  DEN d   1      -5.152  -2.564  -0.816  0.00  0.00     0.027 A 
ATOM      4  C4  DEN d   1      -4.348  -5.012  -0.712  0.00  0.00     0.027 A 
ATOM      5  C5  DEN d   1      -3.859  -5.999   0.116  0.00  0.00    -0.003 A 
ATOM      6  C6  DEN d   1      -3.625  -5.785   1.448  0.00  0.00     0.001 A 
ATOM      7  C7  DEN d   1      -3.923  -4.568   2.003  0.00  0.00     0.017 A 
ATOM      8  C8  DEN d   1      -4.409  -3.566   1.173  0.00  0.00    -0.094 A 
ATOM      9  C9  DEN d   1      -4.650  -3.806  -0.169  0.00  0.00    -0.072 A 
ENDROOT
TORSDOF 0
ENDMDL
