MODEL 1
REMARK minimizedAffinity 6.44875526
REMARK minimizedRMSD -1
REMARK  0 active torsions:
REMARK  status: ('A' for Active; 'I' for Inactive)
ROOT
ATOM      1  C1  DEN d   1      -5.949  -4.281  -1.099  0.00  0.00     0.130 A 
ATOM      2  C2  DEN d   1      -5.976  -5.461  -1.960  0.00  0.00    -0.031 A 
ATOM      3  C3  DEN d   1      -6.000  -5.001  -3.363  0.00  0.00     0.027 A 
ATOM      4  C4  DEN d   1      -5.993  -2.591  -4.282  0.00  0.00     0.027 A 
ATOM      5  C5  DEN d   1      -5.986  -1.258  -3.936  0.00  0.00    -0.003 A 
ATOM      6  C6  DEN d   1      -6.000  -0.842  -2.631  0.00  0.00     0.001 A 
ATOM      7  C7  DEN d   1      -5.976  -1.769  -1.623  0.00  0.00     0.017 A 
ATOM      8  C8  DEN d   1      -5.991  -3.116  -1.964  0.00  0.00    -0.094 A 
ATOM      9  C9  DEN d   1      -5.964  -3.516  -3.289  0.00  0.00    -0.072 A 
ENDROOT
TORSDOF 0
ENDMDL
