MODEL 1
REMARK minimizedAffinity 12.9932489
REMARK minimizedRMSD -1
REMARK  0 active torsions:
REMARK  status: ('A' for Active; 'I' for Inactive)
ROOT
ATOM      1  C1  DEN d   1       2.995   1.903  -2.061  0.00  0.00     0.130 A 
ATOM      2  C2  DEN d   1       2.270   2.540  -0.965  0.00  0.00    -0.031 A 
ATOM      3  C3  DEN d   1       2.286   3.999  -1.193  0.00  0.00     0.027 A 
ATOM      4  C4  DEN d   1       3.353   5.326  -3.131  0.00  0.00     0.027 A 
ATOM      5  C5  DEN d   1       4.085   5.222  -4.293  0.00  0.00    -0.003 A 
ATOM      6  C6  DEN d   1       4.531   4.018  -4.770  0.00  0.00     0.001 A 
ATOM      7  C7  DEN d   1       4.210   2.864  -4.106  0.00  0.00     0.017 A 
ATOM      8  C8  DEN d   1       3.478   2.961  -2.930  0.00  0.00    -0.094 A 
ATOM      9  C9  DEN d   1       3.026   4.186  -2.470  0.00  0.00    -0.072 A 
ENDROOT
TORSDOF 0
ENDMDL
