MODEL 1
REMARK minimizedAffinity 17.6693764
REMARK minimizedRMSD -1
REMARK  0 active torsions:
REMARK  status: ('A' for Active; 'I' for Inactive)
ROOT
ATOM      1  C1  DEN d   1      -4.133  -3.700  -0.178  0.00  0.00     0.130 A 
ATOM      2  C2  DEN d   1      -3.743  -5.039   0.255  0.00  0.00    -0.031 A 
ATOM      3  C3  DEN d   1      -4.190  -5.999  -0.774  0.00  0.00     0.027 A 
ATOM      4  C4  DEN d   1      -5.437  -5.545  -2.985  0.00  0.00     0.027 A 
ATOM      5  C5  DEN d   1      -5.994  -4.567  -3.779  0.00  0.00    -0.003 A 
ATOM      6  C6  DEN d   1      -6.000  -3.247  -3.416  0.00  0.00     0.001 A 
ATOM      7  C7  DEN d   1      -5.397  -2.862  -2.247  0.00  0.00     0.017 A 
ATOM      8  C8  DEN d   1      -4.840  -3.843  -1.438  0.00  0.00    -0.094 A 
ATOM      9  C9  DEN d   1      -4.834  -5.171  -1.829  0.00  0.00    -0.072 A 
ENDROOT
TORSDOF 0
ENDMDL
