MODEL 1
REMARK minimizedAffinity 7.44278002
REMARK minimizedRMSD -1
REMARK  0 active torsions:
REMARK  status: ('A' for Active; 'I' for Inactive)
ROOT
ATOM      1  C1  DEN d   1       0.580  -0.849  -2.431  0.00  0.00     0.130 A 
ATOM      2  C2  DEN d   1       1.055  -0.717  -3.805  0.00  0.00    -0.031 A 
ATOM      3  C3  DEN d   1       1.733   0.589  -3.931  0.00  0.00     0.027 A 
ATOM      4  C4  DEN d   1       2.096   2.407  -2.138  0.00  0.00     0.027 A 
ATOM      5  C5  DEN d   1       1.861   2.752  -0.826  0.00  0.00    -0.003 A 
ATOM      6  C6  DEN d   1       1.159   1.943   0.028  0.00  0.00     0.001 A 
ATOM      7  C7  DEN d   1       0.706   0.726  -0.409  0.00  0.00     0.017 A 
ATOM      8  C8  DEN d   1       0.932   0.375  -1.734  0.00  0.00    -0.094 A 
ATOM      9  C9  DEN d   1       1.655   1.202  -2.577  0.00  0.00    -0.072 A 
ENDROOT
TORSDOF 0
ENDMDL
