MODEL 1
REMARK minimizedAffinity 19.5080013
REMARK minimizedRMSD -1
REMARK  0 active torsions:
REMARK  status: ('A' for Active; 'I' for Inactive)
ROOT
ATOM      1  C1  DEN d   1       1.155  -1.894  -4.477  0.00  0.00     0.130 A 
ATOM      2  C2  DEN d   1       1.660  -0.558  -4.174  0.00  0.00    -0.031 A 
ATOM      3  C3  DEN d   1       0.618   0.420  -4.547  0.00  0.00     0.027 A 
ATOM      4  C4  DEN d   1      -1.718  -0.005  -5.555  0.00  0.00     0.027 A 
ATOM      5  C5  DEN d   1      -2.590  -0.974  -6.000  0.00  0.00    -0.003 A 
ATOM      6  C6  DEN d   1      -2.264  -2.305  -6.000  0.00  0.00     0.001 A 
ATOM      7  C7  DEN d   1      -1.052  -2.706  -5.504  0.00  0.00     0.017 A 
ATOM      8  C8  DEN d   1      -0.165  -1.734  -5.060  0.00  0.00    -0.094 A 
ATOM      9  C9  DEN d   1      -0.518  -0.395  -5.057  0.00  0.00    -0.072 A 
ENDROOT
TORSDOF 0
ENDMDL
