MODEL 1
REMARK minimizedAffinity -5.46119785
REMARK minimizedRMSD -1
REMARK  0 active torsions:
REMARK  status: ('A' for Active; 'I' for Inactive)
ROOT
ATOM      1  C1  DEN d   1       1.764   0.743  -0.530  0.00  0.00     0.130 A 
ATOM      2  C2  DEN d   1       3.001   0.182   0.008  0.00  0.00    -0.031 A 
ATOM      3  C3  DEN d   1       2.643  -0.934   0.907  0.00  0.00     0.027 A 
ATOM      4  C4  DEN d   1       0.307  -1.845   1.512  0.00  0.00     0.027 A 
ATOM      5  C5  DEN d   1      -1.046  -1.685   1.313  0.00  0.00    -0.003 A 
ATOM      6  C6  DEN d   1      -1.555  -0.692   0.519  0.00  0.00     0.001 A 
ATOM      7  C7  DEN d   1      -0.703   0.153  -0.142  0.00  0.00     0.017 A 
ATOM      8  C8  DEN d   1       0.663   0.003   0.060  0.00  0.00    -0.094 A 
ATOM      9  C9  DEN d   1       1.158  -1.015   0.857  0.00  0.00    -0.072 A 
ENDROOT
TORSDOF 0
ENDMDL
