MODEL 1
REMARK minimizedAffinity -0.113430656
REMARK minimizedRMSD -1
REMARK  0 active torsions:
REMARK  status: ('A' for Active; 'I' for Inactive)
ROOT
ATOM      1  C1  DEN d   1       0.085   1.697   0.460  0.00  0.00     0.130 A 
ATOM      2  C2  DEN d   1      -1.031   0.986  -0.157  0.00  0.00    -0.031 A 
ATOM      3  C3  DEN d   1      -0.586  -0.389  -0.458  0.00  0.00     0.027 A 
ATOM      4  C4  DEN d   1       1.710  -1.482  -0.026  0.00  0.00     0.027 A 
ATOM      5  C5  DEN d   1       2.979  -1.271   0.467  0.00  0.00    -0.003 A 
ATOM      6  C6  DEN d   1       3.380  -0.056   0.956  0.00  0.00     0.001 A 
ATOM      7  C7  DEN d   1       2.488   0.983   1.006  0.00  0.00     0.017 A 
ATOM      8  C8  DEN d   1       1.209   0.780   0.504  0.00  0.00    -0.094 A 
ATOM      9  C9  DEN d   1       0.820  -0.459   0.025  0.00  0.00    -0.072 A 
ENDROOT
TORSDOF 0
ENDMDL
