MODEL 1
REMARK minimizedAffinity -0.714003146
REMARK minimizedRMSD -1
REMARK  0 active torsions:
REMARK  status: ('A' for Active; 'I' for Inactive)
ROOT
ATOM      1  C1  DEN d   1       0.316  -0.320  -0.096  0.00  0.00     0.130 A 
ATOM      2  C2  DEN d   1      -0.692   0.735  -0.029  0.00  0.00    -0.031 A 
ATOM      3  C3  DEN d   1      -0.184   1.796   0.864  0.00  0.00     0.027 A 
ATOM      4  C4  DEN d   1       2.055   1.909   2.140  0.00  0.00     0.027 A 
ATOM      5  C5  DEN d   1       3.231   1.242   2.405  0.00  0.00    -0.003 A 
ATOM      6  C6  DEN d   1       3.501   0.003   1.886  0.00  0.00     0.001 A 
ATOM      7  C7  DEN d   1       2.602  -0.588   1.038  0.00  0.00     0.017 A 
ATOM      8  C8  DEN d   1       1.411   0.074   0.773  0.00  0.00    -0.094 A 
ATOM      9  C9  DEN d   1       1.162   1.331   1.297  0.00  0.00    -0.072 A 
ENDROOT
TORSDOF 0
ENDMDL
