MODEL 1
REMARK minimizedAffinity -5.57616234
REMARK minimizedRMSD -1
REMARK  0 active torsions:
REMARK  status: ('A' for Active; 'I' for Inactive)
ROOT
ATOM      1  C1  DEN d   1      -0.146   3.871   1.148  0.00  0.00     0.130 A 
ATOM      2  C2  DEN d   1      -1.603   3.930   1.234  0.00  0.00    -0.031 A 
ATOM      3  C3  DEN d   1      -2.128   2.566   1.021  0.00  0.00     0.027 A 
ATOM      4  C4  DEN d   1      -0.835   0.380   0.575  0.00  0.00     0.027 A 
ATOM      5  C5  DEN d   1       0.417  -0.168   0.403  0.00  0.00    -0.003 A 
ATOM      6  C6  DEN d   1       1.557   0.590   0.433  0.00  0.00     0.001 A 
ATOM      7  C7  DEN d   1       1.472   1.934   0.685  0.00  0.00     0.017 A 
ATOM      8  C8  DEN d   1       0.213   2.495   0.852  0.00  0.00    -0.094 A 
ATOM      9  C9  DEN d   1      -0.927   1.710   0.830  0.00  0.00    -0.072 A 
ENDROOT
TORSDOF 0
ENDMDL
