MODEL 1
REMARK minimizedAffinity -3.20941973
REMARK minimizedRMSD -1
REMARK  0 active torsions:
REMARK  status: ('A' for Active; 'I' for Inactive)
ROOT
ATOM      1  C1  DEN d   1      -0.809   0.892   0.352  0.00  0.00     0.130 A 
ATOM      2  C2  DEN d   1       0.175   1.918   0.021  0.00  0.00    -0.031 A 
ATOM      3  C3  DEN d   1       1.508   1.283   0.001  0.00  0.00     0.027 A 
ATOM      4  C4  DEN d   1       2.139  -1.178   0.445  0.00  0.00     0.027 A 
ATOM      5  C5  DEN d   1       1.647  -2.421   0.777  0.00  0.00    -0.003 A 
ATOM      6  C6  DEN d   1       0.317  -2.638   1.022  0.00  0.00     0.001 A 
ATOM      7  C7  DEN d   1      -0.574  -1.605   0.894  0.00  0.00     0.017 A 
ATOM      8  C8  DEN d   1      -0.084  -0.348   0.567  0.00  0.00    -0.094 A 
ATOM      9  C9  DEN d   1       1.262  -0.151   0.312  0.00  0.00    -0.072 A 
ENDROOT
TORSDOF 0
ENDMDL
