MODEL 1
REMARK minimizedAffinity -1.30181456
REMARK minimizedRMSD -1
REMARK  0 active torsions:
REMARK  status: ('A' for Active; 'I' for Inactive)
ROOT
ATOM      1  C1  DEN d   1      -1.930   0.371  -2.210  0.00  0.00     0.130 A 
ATOM      2  C2  DEN d   1      -3.037  -0.579  -2.283  0.00  0.00    -0.031 A 
ATOM      3  C3  DEN d   1      -2.797  -1.636  -1.280  0.00  0.00     0.027 A 
ATOM      4  C4  DEN d   1      -0.833  -1.891   0.372  0.00  0.00     0.027 A 
ATOM      5  C5  DEN d   1       0.355  -1.338   0.798  0.00  0.00    -0.003 A 
ATOM      6  C6  DEN d   1       0.877  -0.205   0.232  0.00  0.00     0.001 A 
ATOM      7  C7  DEN d   1       0.186   0.438  -0.761  0.00  0.00     0.017 A 
ATOM      8  C8  DEN d   1      -1.008  -0.118  -1.201  0.00  0.00    -0.094 A 
ATOM      9  C9  DEN d   1      -1.525  -1.257  -0.608  0.00  0.00    -0.072 A 
ENDROOT
TORSDOF 0
ENDMDL
