MODEL 1
REMARK minimizedAffinity -3.73653269
REMARK minimizedRMSD -1
REMARK  1 active torsions:
REMARK  status: ('A' for Active; 'I' for Inactive)
REMARK    1  A    between atoms: C1_2  and  C2_3 
ROOT
ATOM      1  C2  UNL d   1      -2.185   1.652   2.522  0.00  0.00    -0.073 A 
ATOM      2  C3  UNL d   1      -2.216   0.254   2.570  0.00  0.00    -0.002 A 
ATOM      3  C4  UNL d   1      -1.150  -0.492   2.065  0.00  0.00     0.004 A 
ATOM      4  C5  UNL d   1      -0.041   0.151   1.515  0.00  0.00    -0.004 A 
ATOM      5  C6  UNL d   1       0.013   1.548   1.468  0.00  0.00    -0.075 A 
ATOM      6  C7  UNL d   1       1.197   2.254   0.877  0.00  0.00     0.076 C 
ATOM      7  C8  UNL d   1      -1.063   2.290   1.975  0.00  0.00     0.001 A 
ENDROOT
BRANCH   1   8
ATOM      8  C1  UNL d   1      -3.331   2.462   3.072  0.00  0.00     0.053 C 
ATOM      9  C   UNL d   1      -4.313   1.603   3.853  0.00  0.00     0.018 C 
ENDBRANCH   1   8
TORSDOF 1
ENDMDL
