MODEL 1
REMARK minimizedAffinity 0.804206789
REMARK minimizedRMSD -1
REMARK  1 active torsions:
REMARK  status: ('A' for Active; 'I' for Inactive)
REMARK    1  A    between atoms: C1_2  and  C2_3 
ROOT
ATOM      1  C2  UNL d   1      -3.347   1.496   3.289  0.00  0.00    -0.073 A 
ATOM      2  C3  UNL d   1      -2.766   2.723   2.951  0.00  0.00    -0.002 A 
ATOM      3  C4  UNL d   1      -1.646   2.767   2.119  0.00  0.00     0.004 A 
ATOM      4  C5  UNL d   1      -1.101   1.587   1.611  0.00  0.00    -0.004 A 
ATOM      5  C6  UNL d   1      -1.675   0.352   1.928  0.00  0.00    -0.075 A 
ATOM      6  C7  UNL d   1      -1.100  -0.926   1.393  0.00  0.00     0.076 C 
ATOM      7  C8  UNL d   1      -2.798   0.316   2.767  0.00  0.00     0.001 A 
ENDROOT
BRANCH   1   8
ATOM      8  C1  UNL d   1      -4.560   1.443   4.182  0.00  0.00     0.053 C 
ATOM      9  C   UNL d   1      -4.385   2.292   5.431  0.00  0.00     0.018 C 
ENDBRANCH   1   8
TORSDOF 1
ENDMDL
