MODEL 1
REMARK minimizedAffinity -3.74955082
REMARK minimizedRMSD -1
REMARK  1 active torsions:
REMARK  status: ('A' for Active; 'I' for Inactive)
REMARK    1  A    between atoms: C1_2  and  C2_3 
ROOT
ATOM      1  C2  UNL d   1      -1.973   1.440   2.561  0.00  0.00    -0.073 A 
ATOM      2  C3  UNL d   1      -2.423   0.116   2.621  0.00  0.00    -0.002 A 
ATOM      3  C4  UNL d   1      -1.723  -0.897   1.965  0.00  0.00     0.004 A 
ATOM      4  C5  UNL d   1      -0.563  -0.599   1.250  0.00  0.00    -0.004 A 
ATOM      5  C6  UNL d   1      -0.090   0.716   1.188  0.00  0.00    -0.075 A 
ATOM      6  C7  UNL d   1       1.154   1.053   0.420  0.00  0.00     0.076 C 
ATOM      7  C8  UNL d   1      -0.801   1.728   1.846  0.00  0.00     0.001 A 
ENDROOT
BRANCH   1   8
ATOM      8  C1  UNL d   1      -2.722   2.536   3.272  0.00  0.00     0.053 C 
ATOM      9  C   UNL d   1      -3.983   2.020   3.947  0.00  0.00     0.018 C 
ENDBRANCH   1   8
TORSDOF 1
ENDMDL
