MODEL 1
REMARK minimizedAffinity -1.76909554
REMARK minimizedRMSD -1
REMARK  1 active torsions:
REMARK  status: ('A' for Active; 'I' for Inactive)
REMARK    1  A    between atoms: C1_2  and  C2_3 
ROOT
ATOM      1  C2  UNL d   1      -2.097  -0.380   2.272  0.00  0.00    -0.073 A 
ATOM      2  C3  UNL d   1      -2.509   0.906   2.640  0.00  0.00    -0.002 A 
ATOM      3  C4  UNL d   1      -1.740   2.018   2.293  0.00  0.00     0.004 A 
ATOM      4  C5  UNL d   1      -0.558   1.857   1.570  0.00  0.00    -0.004 A 
ATOM      5  C6  UNL d   1      -0.136   0.581   1.183  0.00  0.00    -0.075 A 
ATOM      6  C7  UNL d   1       1.134   0.391   0.408  0.00  0.00     0.076 C 
ATOM      7  C8  UNL d   1      -0.912  -0.531   1.538  0.00  0.00     0.001 A 
ENDROOT
BRANCH   1   8
ATOM      8  C1  UNL d   1      -2.927  -1.583   2.639  0.00  0.00     0.053 C 
ATOM      9  C   UNL d   1      -2.409  -2.272   3.892  0.00  0.00     0.018 C 
ENDBRANCH   1   8
TORSDOF 1
ENDMDL
