MODEL 1
REMARK minimizedAffinity -2.37390494
REMARK minimizedRMSD -1
REMARK  1 active torsions:
REMARK  status: ('A' for Active; 'I' for Inactive)
REMARK    1  A    between atoms: C1_2  and  C2_3 
ROOT
ATOM      1  C2  UNL d   1      -0.436   0.931   1.169  0.00  0.00    -0.073 A 
ATOM      2  C3  UNL d   1       0.208   2.081   0.698  0.00  0.00    -0.002 A 
ATOM      3  C4  UNL d   1      -0.243   3.347   1.075  0.00  0.00     0.004 A 
ATOM      4  C5  UNL d   1      -1.336   3.475   1.931  0.00  0.00    -0.004 A 
ATOM      5  C6  UNL d   1      -1.986   2.338   2.422  0.00  0.00    -0.075 A 
ATOM      6  C7  UNL d   1      -3.165   2.460   3.342  0.00  0.00     0.076 C 
ATOM      7  C8  UNL d   1      -1.528   1.071   2.037  0.00  0.00     0.001 A 
ENDROOT
BRANCH   1   8
ATOM      8  C1  UNL d   1       0.052  -0.437   0.770  0.00  0.00     0.053 C 
ATOM      9  C   UNL d   1       1.563  -0.478   0.604  0.00  0.00     0.018 C 
ENDBRANCH   1   8
TORSDOF 1
ENDMDL
