MODEL 1
REMARK minimizedAffinity -2.73978591
REMARK minimizedRMSD -1
REMARK  1 active torsions:
REMARK  status: ('A' for Active; 'I' for Inactive)
REMARK    1  A    between atoms: C1_2  and  C2_3 
ROOT
ATOM      1  C2  UNL d   1      -2.221   1.003   2.323  0.00  0.00    -0.073 A 
ATOM      2  C3  UNL d   1      -1.782   2.324   2.467  0.00  0.00    -0.002 A 
ATOM      3  C4  UNL d   1      -0.511   2.696   2.025  0.00  0.00     0.004 A 
ATOM      4  C5  UNL d   1       0.329   1.755   1.430  0.00  0.00    -0.004 A 
ATOM      5  C6  UNL d   1      -0.097   0.433   1.267  0.00  0.00    -0.075 A 
ATOM      6  C7  UNL d   1       0.796  -0.592   0.630  0.00  0.00     0.076 C 
ATOM      7  C8  UNL d   1      -1.372   0.066   1.715  0.00  0.00     0.001 A 
ENDROOT
BRANCH   1   8
ATOM      8  C1  UNL d   1      -3.594   0.597   2.793  0.00  0.00     0.053 C 
ATOM      9  C   UNL d   1      -4.108   1.503   3.901  0.00  0.00     0.018 C 
ENDBRANCH   1   8
TORSDOF 1
ENDMDL
