MODEL 1
REMARK minimizedAffinity 5.51268435
REMARK minimizedRMSD -1
REMARK  1 active torsions:
REMARK  status: ('A' for Active; 'I' for Inactive)
REMARK    1  A    between atoms: C1_2  and  C2_3 
ROOT
ATOM      1  C2  UNL d   1       0.106   2.496   0.891  0.00  0.00    -0.073 A 
ATOM      2  C3  UNL d   1      -0.719   3.527   1.354  0.00  0.00    -0.002 A 
ATOM      3  C4  UNL d   1      -1.830   3.238   2.148  0.00  0.00     0.004 A 
ATOM      4  C5  UNL d   1      -2.123   1.918   2.492  0.00  0.00    -0.004 A 
ATOM      5  C6  UNL d   1      -1.303   0.875   2.049  0.00  0.00    -0.075 A 
ATOM      6  C7  UNL d   1      -1.605  -0.550   2.409  0.00  0.00     0.076 C 
ATOM      7  C8  UNL d   1      -0.191   1.174   1.250  0.00  0.00     0.001 A 
ENDROOT
BRANCH   1   8
ATOM      8  C1  UNL d   1       1.310   2.804   0.039  0.00  0.00     0.053 C 
ATOM      9  C   UNL d   1       2.025   4.065   0.497  0.00  0.00     0.018 C 
ENDBRANCH   1   8
TORSDOF 1
ENDMDL
