MODEL 1
REMARK minimizedAffinity 1.46639431
REMARK minimizedRMSD -1
REMARK  1 active torsions:
REMARK  status: ('A' for Active; 'I' for Inactive)
REMARK    1  A    between atoms: C1_2  and  C2_3 
ROOT
ATOM      1  C2  UNL d   1      -0.845   1.435   2.355  0.00  0.00    -0.073 A 
ATOM      2  C3  UNL d   1      -1.332   0.783   1.216  0.00  0.00    -0.002 A 
ATOM      3  C4  UNL d   1      -0.636  -0.297   0.670  0.00  0.00     0.004 A 
ATOM      4  C5  UNL d   1       0.548  -0.739   1.259  0.00  0.00    -0.004 A 
ATOM      5  C6  UNL d   1       1.045  -0.108   2.404  0.00  0.00    -0.075 A 
ATOM      6  C7  UNL d   1       2.319  -0.570   3.049  0.00  0.00     0.076 C 
ATOM      7  C8  UNL d   1       0.342   0.977   2.945  0.00  0.00     0.001 A 
ENDROOT
BRANCH   1   8
ATOM      8  C1  UNL d   1      -1.596   2.596   2.952  0.00  0.00     0.053 C 
ATOM      9  C   UNL d   1      -2.756   2.138   3.822  0.00  0.00     0.018 C 
ENDBRANCH   1   8
TORSDOF 1
ENDMDL
