MODEL 1
REMARK minimizedAffinity 2.08847618
REMARK minimizedRMSD -1
REMARK  1 active torsions:
REMARK  status: ('A' for Active; 'I' for Inactive)
REMARK    1  A    between atoms: C1_2  and  C2_3 
ROOT
ATOM      1  C2  UNL d   1       0.993   1.278   0.829  0.00  0.00    -0.073 A 
ATOM      2  C3  UNL d   1       1.319   0.132   1.563  0.00  0.00    -0.002 A 
ATOM      3  C4  UNL d   1       2.291  -0.753   1.095  0.00  0.00     0.004 A 
ATOM      4  C5  UNL d   1       2.951  -0.498  -0.108  0.00  0.00    -0.004 A 
ATOM      5  C6  UNL d   1       2.647   0.647  -0.850  0.00  0.00    -0.075 A 
ATOM      6  C7  UNL d   1       3.346   0.934  -2.147  0.00  0.00     0.076 C 
ATOM      7  C8  UNL d   1       1.668   1.530  -0.374  0.00  0.00     0.001 A 
ENDROOT
BRANCH   1   8
ATOM      8  C1  UNL d   1      -0.051   2.240   1.334  0.00  0.00     0.053 C 
ATOM      9  C   UNL d   1      -0.790   1.694   2.546  0.00  0.00     0.018 C 
ENDBRANCH   1   8
TORSDOF 1
ENDMDL
