MODEL 1
REMARK minimizedAffinity -2.37531233
REMARK minimizedRMSD -1
REMARK  1 active torsions:
REMARK  status: ('A' for Active; 'I' for Inactive)
REMARK    1  A    between atoms: C1_2  and  C2_3 
ROOT
ATOM      1  C2  UNL d   1      -2.638   1.495   2.797  0.00  0.00    -0.073 A 
ATOM      2  C3  UNL d   1      -2.148   2.802   2.705  0.00  0.00    -0.002 A 
ATOM      3  C4  UNL d   1      -0.924   3.054   2.084  0.00  0.00     0.004 A 
ATOM      4  C5  UNL d   1      -0.182   2.004   1.543  0.00  0.00    -0.004 A 
ATOM      5  C6  UNL d   1      -0.661   0.692   1.615  0.00  0.00    -0.075 A 
ATOM      6  C7  UNL d   1       0.126  -0.449   1.040  0.00  0.00     0.076 C 
ATOM      7  C8  UNL d   1      -1.889   0.447   2.243  0.00  0.00     0.001 A 
ENDROOT
BRANCH   1   8
ATOM      8  C1  UNL d   1      -3.962   1.219   3.462  0.00  0.00     0.053 C 
ATOM      9  C   UNL d   1      -4.284   2.242   4.539  0.00  0.00     0.018 C 
ENDBRANCH   1   8
TORSDOF 1
ENDMDL
