MODEL 1
REMARK minimizedAffinity -0.28907162
REMARK minimizedRMSD -1
REMARK  1 active torsions:
REMARK  status: ('A' for Active; 'I' for Inactive)
REMARK    1  A    between atoms: C1_2  and  C2_3 
ROOT
ATOM      1  C2  UNL d   1       1.268   0.514   2.378  0.00  0.00    -0.073 A 
ATOM      2  C3  UNL d   1       2.115   0.872   1.324  0.00  0.00    -0.002 A 
ATOM      3  C4  UNL d   1       1.702   1.808   0.375  0.00  0.00     0.004 A 
ATOM      4  C5  UNL d   1       0.442   2.399   0.474  0.00  0.00    -0.004 A 
ATOM      5  C6  UNL d   1      -0.414   2.063   1.527  0.00  0.00    -0.075 A 
ATOM      6  C7  UNL d   1      -1.773   2.688   1.647  0.00  0.00     0.076 C 
ATOM      7  C8  UNL d   1       0.007   1.120   2.475  0.00  0.00     0.001 A 
ENDROOT
BRANCH   1   8
ATOM      8  C1  UNL d   1       1.712  -0.492   3.409  0.00  0.00     0.053 C 
ATOM      9  C   UNL d   1       1.409  -0.029   4.825  0.00  0.00     0.018 C 
ENDBRANCH   1   8
TORSDOF 1
ENDMDL
