MODEL 1
REMARK minimizedAffinity 5.377069
REMARK minimizedRMSD -1
REMARK  0 active torsions:
REMARK  status: ('A' for Active; 'I' for Inactive)
ROOT
ATOM      1  O1  BZF d   1       0.008   1.990   0.264  0.00  0.00    -0.204 OA
ATOM      2  C2  BZF d   1      -0.885   0.989   0.596  0.00  0.00     0.174 A 
ATOM      3  C3  BZF d   1      -1.141   0.997   1.920  0.00  0.00    -0.012 A 
ATOM      4  C3A BZF d   1      -0.432   2.128   2.434  0.00  0.00    -0.107 A 
ATOM      5  C4  BZF d   1      -0.307   2.671   3.681  0.00  0.00     0.055 A 
ATOM      6  C5  BZF d   1       0.520   3.734   3.859  0.00  0.00    -0.016 A 
ATOM      7  C6  BZF d   1       1.240   4.276   2.815  0.00  0.00     0.022 A 
ATOM      8  C7  BZF d   1       1.146   3.775   1.559  0.00  0.00     0.029 A 
ATOM      9  C7A BZF d   1       0.286   2.721   1.370  0.00  0.00     0.058 A 
ENDROOT
TORSDOF 0
ENDMDL
