MODEL 1
REMARK minimizedAffinity 6.638515
REMARK minimizedRMSD -1
REMARK  0 active torsions:
REMARK  status: ('A' for Active; 'I' for Inactive)
ROOT
ATOM      1  O1  BZF d   1       3.200  -5.372  -4.385  0.00  0.00    -0.204 OA
ATOM      2  C2  BZF d   1       4.341  -5.504  -5.151  0.00  0.00     0.174 A 
ATOM      3  C3  BZF d   1       5.028  -4.344  -5.190  0.00  0.00    -0.012 A 
ATOM      4  C3A BZF d   1       4.316  -3.456  -4.323  0.00  0.00    -0.107 A 
ATOM      5  C4  BZF d   1       4.514  -2.161  -3.936  0.00  0.00     0.055 A 
ATOM      6  C5  BZF d   1       3.594  -1.562  -3.136  0.00  0.00    -0.016 A 
ATOM      7  C6  BZF d   1       2.462  -2.226  -2.708  0.00  0.00     0.022 A 
ATOM      8  C7  BZF d   1       2.224  -3.512  -3.061  0.00  0.00     0.029 A 
ATOM      9  C7A BZF d   1       3.169  -4.131  -3.843  0.00  0.00     0.058 A 
ENDROOT
TORSDOF 0
ENDMDL
