MODEL 1
REMARK minimizedAffinity -0.213690758
REMARK minimizedRMSD -1
REMARK  0 active torsions:
REMARK  status: ('A' for Active; 'I' for Inactive)
ROOT
ATOM      1  O1  BZF d   1       4.752  -5.604  -2.498  0.00  0.00    -0.204 OA
ATOM      2  C2  BZF d   1       5.999  -5.753  -3.073  0.00  0.00     0.174 A 
ATOM      3  C3  BZF d   1       5.891  -5.982  -4.398  0.00  0.00    -0.012 A 
ATOM      4  C3A BZF d   1       4.492  -5.885  -4.684  0.00  0.00    -0.107 A 
ATOM      5  C4  BZF d   1       3.758  -5.999  -5.829  0.00  0.00     0.055 A 
ATOM      6  C5  BZF d   1       2.403  -5.922  -5.756  0.00  0.00    -0.016 A 
ATOM      7  C6  BZF d   1       1.750  -5.737  -4.555  0.00  0.00     0.022 A 
ATOM      8  C7  BZF d   1       2.436  -5.612  -3.393  0.00  0.00     0.029 A 
ATOM      9  C7A BZF d   1       3.807  -5.657  -3.468  0.00  0.00     0.058 A 
ENDROOT
TORSDOF 0
ENDMDL
