MODEL 1
REMARK minimizedAffinity 18.3061485
REMARK minimizedRMSD -1
REMARK  0 active torsions:
REMARK  status: ('A' for Active; 'I' for Inactive)
ROOT
ATOM      1  O1  BZF d   1       5.067  -4.379  -4.443  0.00  0.00    -0.204 OA
ATOM      2  C2  BZF d   1       5.695  -5.201  -5.359  0.00  0.00     0.174 A 
ATOM      3  C3  BZF d   1       4.801  -5.999  -5.978  0.00  0.00    -0.012 A 
ATOM      4  C3A BZF d   1       3.524  -5.589  -5.480  0.00  0.00    -0.107 A 
ATOM      5  C4  BZF d   1       2.245  -5.996  -5.730  0.00  0.00     0.055 A 
ATOM      6  C5  BZF d   1       1.225  -5.442  -5.023  0.00  0.00    -0.016 A 
ATOM      7  C6  BZF d   1       1.449  -4.483  -4.057  0.00  0.00     0.022 A 
ATOM      8  C7  BZF d   1       2.700  -4.044  -3.777  0.00  0.00     0.029 A 
ATOM      9  C7A BZF d   1       3.729  -4.578  -4.513  0.00  0.00     0.058 A 
ENDROOT
TORSDOF 0
ENDMDL
