MODEL 1
REMARK minimizedAffinity 14.8012743
REMARK minimizedRMSD -1
REMARK  0 active torsions:
REMARK  status: ('A' for Active; 'I' for Inactive)
ROOT
ATOM      1  O1  BZF d   1      -1.486   3.004   4.511  0.00  0.00    -0.204 OA
ATOM      2  C2  BZF d   1      -0.377   3.810   4.676  0.00  0.00     0.174 A 
ATOM      3  C3  BZF d   1       0.526   3.588   3.699  0.00  0.00    -0.012 A 
ATOM      4  C3A BZF d   1      -0.096   2.646   2.819  0.00  0.00    -0.107 A 
ATOM      5  C4  BZF d   1       0.295   2.048   1.656  0.00  0.00     0.055 A 
ATOM      6  C5  BZF d   1      -0.516   1.120   1.085  0.00  0.00    -0.016 A 
ATOM      7  C6  BZF d   1      -1.722   0.762   1.652  0.00  0.00     0.022 A 
ATOM      8  C7  BZF d   1      -2.155   1.332   2.803  0.00  0.00     0.029 A 
ATOM      9  C7A BZF d   1      -1.352   2.294   3.365  0.00  0.00     0.058 A 
ENDROOT
TORSDOF 0
ENDMDL
