MODEL 1
REMARK minimizedAffinity 3.52999353
REMARK minimizedRMSD -1
REMARK  0 active torsions:
REMARK  status: ('A' for Active; 'I' for Inactive)
ROOT
ATOM      1  O1  BZF d   1      -2.637   1.410   2.699  0.00  0.00    -0.204 OA
ATOM      2  C2  BZF d   1      -2.792   0.680   1.536  0.00  0.00     0.174 A 
ATOM      3  C3  BZF d   1      -1.783   0.929   0.677  0.00  0.00    -0.012 A 
ATOM      4  C3A BZF d   1      -0.896   1.804   1.381  0.00  0.00    -0.107 A 
ATOM      5  C4  BZF d   1       0.294   2.391   1.060  0.00  0.00     0.055 A 
ATOM      6  C5  BZF d   1       0.867   3.249   1.944  0.00  0.00    -0.016 A 
ATOM      7  C6  BZF d   1       0.275   3.547   3.154  0.00  0.00     0.022 A 
ATOM      8  C7  BZF d   1      -0.903   2.986   3.518  0.00  0.00     0.029 A 
ATOM      9  C7A BZF d   1      -1.468   2.093   2.641  0.00  0.00     0.058 A 
ENDROOT
TORSDOF 0
ENDMDL
