MODEL 1
REMARK minimizedAffinity -2.69234633
REMARK minimizedRMSD -1
REMARK  0 active torsions:
REMARK  status: ('A' for Active; 'I' for Inactive)
ROOT
ATOM      1  O1  BZF d   1      -1.429   3.185   2.413  0.00  0.00    -0.204 OA
ATOM      2  C2  BZF d   1      -1.185   3.903   3.568  0.00  0.00     0.174 A 
ATOM      3  C3  BZF d   1       0.140   4.051   3.769  0.00  0.00    -0.012 A 
ATOM      4  C3A BZF d   1       0.762   3.462   2.622  0.00  0.00    -0.107 A 
ATOM      5  C4  BZF d   1       2.063   3.312   2.233  0.00  0.00     0.055 A 
ATOM      6  C5  BZF d   1       2.336   2.625   1.093  0.00  0.00    -0.016 A 
ATOM      7  C6  BZF d   1       1.335   2.072   0.321  0.00  0.00     0.022 A 
ATOM      8  C7  BZF d   1       0.030   2.199   0.664  0.00  0.00     0.029 A 
ATOM      9  C7A BZF d   1      -0.251   2.920   1.799  0.00  0.00     0.058 A 
ENDROOT
TORSDOF 0
ENDMDL
