MODEL 1
REMARK minimizedAffinity 9.45910645
REMARK minimizedRMSD -1
REMARK  0 active torsions:
REMARK  status: ('A' for Active; 'I' for Inactive)
ROOT
ATOM      1  O1  BZF d   1      -2.301  -2.801  -1.775  0.00  0.00    -0.204 OA
ATOM      2  C2  BZF d   1      -3.055  -3.894  -1.394  0.00  0.00     0.174 A 
ATOM      3  C3  BZF d   1      -2.904  -4.144  -0.077  0.00  0.00    -0.012 A 
ATOM      4  C3A BZF d   1      -2.071  -3.089   0.413  0.00  0.00    -0.107 A 
ATOM      5  C4  BZF d   1      -1.579  -2.778   1.648  0.00  0.00     0.055 A 
ATOM      6  C5  BZF d   1      -0.734  -1.721   1.776  0.00  0.00    -0.016 A 
ATOM      7  C6  BZF d   1      -0.358  -0.957   0.691  0.00  0.00     0.022 A 
ATOM      8  C7  BZF d   1      -0.825  -1.224  -0.554  0.00  0.00     0.029 A 
ATOM      9  C7A BZF d   1      -1.704  -2.271  -0.681  0.00  0.00     0.058 A 
ENDROOT
TORSDOF 0
ENDMDL
