MODEL 1
REMARK minimizedAffinity 6.80618238
REMARK minimizedRMSD -1
REMARK  0 active torsions:
REMARK  status: ('A' for Active; 'I' for Inactive)
ROOT
ATOM      1  O1  BZF d   1      -0.674   0.643   1.595  0.00  0.00    -0.204 OA
ATOM      2  C2  BZF d   1       0.066   0.602   0.429  0.00  0.00     0.174 A 
ATOM      3  C3  BZF d   1       0.601   1.810   0.159  0.00  0.00    -0.012 A 
ATOM      4  C3A BZF d   1       0.244   2.637   1.271  0.00  0.00    -0.107 A 
ATOM      5  C4  BZF d   1       0.497   3.940   1.592  0.00  0.00     0.055 A 
ATOM      6  C5  BZF d   1      -0.059   4.463   2.716  0.00  0.00    -0.016 A 
ATOM      7  C6  BZF d   1      -0.875   3.715   3.539  0.00  0.00     0.022 A 
ATOM      8  C7  BZF d   1      -1.150   2.416   3.265  0.00  0.00     0.029 A 
ATOM      9  C7A BZF d   1      -0.564   1.875   2.147  0.00  0.00     0.058 A 
ENDROOT
TORSDOF 0
ENDMDL
