MODEL 1
REMARK minimizedAffinity -3.18329549
REMARK minimizedRMSD -1
REMARK  0 active torsions:
REMARK  status: ('A' for Active; 'I' for Inactive)
ROOT
ATOM      1  O1  BZF d   1      -1.257  -0.764   0.904  0.00  0.00    -0.204 OA
ATOM      2  C2  BZF d   1      -0.688  -1.925   1.391  0.00  0.00     0.174 A 
ATOM      3  C3  BZF d   1      -1.376  -2.385   2.456  0.00  0.00    -0.012 A 
ATOM      4  C3A BZF d   1      -2.496  -1.505   2.590  0.00  0.00    -0.107 A 
ATOM      5  C4  BZF d   1      -3.551  -1.453   3.454  0.00  0.00     0.055 A 
ATOM      6  C5  BZF d   1      -4.432  -0.422   3.360  0.00  0.00    -0.016 A 
ATOM      7  C6  BZF d   1      -4.285   0.575   2.418  0.00  0.00     0.022 A 
ATOM      8  C7  BZF d   1      -3.257   0.563   1.535  0.00  0.00     0.029 A 
ATOM      9  C7A BZF d   1      -2.384  -0.494   1.607  0.00  0.00     0.058 A 
ENDROOT
TORSDOF 0
ENDMDL
