MODEL 1
REMARK minimizedAffinity 5.01473999
REMARK minimizedRMSD -1
REMARK  0 active torsions:
REMARK  status: ('A' for Active; 'I' for Inactive)
ROOT
ATOM      1  O1  BZF d   1       1.599   4.157   4.378  0.00  0.00    -0.204 OA
ATOM      2  C2  BZF d   1       2.570   3.900   3.429  0.00  0.00     0.174 A 
ATOM      3  C3  BZF d   1       2.010   3.531   2.259  0.00  0.00    -0.012 A 
ATOM      4  C3A BZF d   1       0.598   3.649   2.464  0.00  0.00    -0.107 A 
ATOM      5  C4  BZF d   1      -0.488   3.437   1.664  0.00  0.00     0.055 A 
ATOM      6  C5  BZF d   1      -1.733   3.572   2.190  0.00  0.00    -0.016 A 
ATOM      7  C6  BZF d   1      -1.929   3.912   3.513  0.00  0.00     0.022 A 
ATOM      8  C7  BZF d   1      -0.882   4.138   4.344  0.00  0.00     0.029 A 
ATOM      9  C7A BZF d   1       0.377   4.034   3.807  0.00  0.00     0.058 A 
ENDROOT
TORSDOF 0
ENDMDL
