MODEL 1
REMARK minimizedAffinity 7.1297555
REMARK minimizedRMSD -1
REMARK  0 active torsions:
REMARK  status: ('A' for Active; 'I' for Inactive)
ROOT
ATOM      1  O1  BZF d   1       2.077   2.314  -4.096  0.00  0.00    -0.204 OA
ATOM      2  C2  BZF d   1       2.091   2.165  -2.722  0.00  0.00     0.174 A 
ATOM      3  C3  BZF d   1       3.339   1.905  -2.282  0.00  0.00    -0.012 A 
ATOM      4  C3A BZF d   1       4.172   1.981  -3.443  0.00  0.00    -0.107 A 
ATOM      5  C4  BZF d   1       5.514   1.833  -3.647  0.00  0.00     0.055 A 
ATOM      6  C5  BZF d   1       6.000   1.897  -4.914  0.00  0.00    -0.016 A 
ATOM      7  C6  BZF d   1       5.173   2.103  -6.000  0.00  0.00     0.022 A 
ATOM      8  C7  BZF d   1       3.836   2.261  -5.846  0.00  0.00     0.029 A 
ATOM      9  C7A BZF d   1       3.346   2.229  -4.564  0.00  0.00     0.058 A 
ENDROOT
TORSDOF 0
ENDMDL
