MODEL 1
REMARK minimizedAffinity 0.79813385
REMARK minimizedRMSD -1
REMARK  0 active torsions:
REMARK  status: ('A' for Active; 'I' for Inactive)
ROOT
ATOM      1  O1  BZF d   1      -3.483  -0.290   2.721  0.00  0.00    -0.204 OA
ATOM      2  C2  BZF d   1      -3.052  -1.427   3.377  0.00  0.00     0.174 A 
ATOM      3  C3  BZF d   1      -1.829  -1.794   2.944  0.00  0.00    -0.012 A 
ATOM      4  C3A BZF d   1      -1.434  -0.774   2.022  0.00  0.00    -0.107 A 
ATOM      5  C4  BZF d   1      -0.311  -0.569   1.273  0.00  0.00     0.055 A 
ATOM      6  C5  BZF d   1      -0.270   0.487   0.419  0.00  0.00    -0.016 A 
ATOM      7  C6  BZF d   1      -1.335   1.354   0.285  0.00  0.00     0.022 A 
ATOM      8  C7  BZF d   1      -2.468   1.195   1.011  0.00  0.00     0.029 A 
ATOM      9  C7A BZF d   1      -2.500   0.147   1.899  0.00  0.00     0.058 A 
ENDROOT
TORSDOF 0
ENDMDL
