MODEL 1
REMARK minimizedAffinity -3.33923554
REMARK minimizedRMSD -1
REMARK  0 active torsions:
REMARK  status: ('A' for Active; 'I' for Inactive)
ROOT
ATOM      1  O1  BZF d   1       2.025   3.434  -4.179  0.00  0.00    -0.204 OA
ATOM      2  C2  BZF d   1       1.485   4.206  -5.189  0.00  0.00     0.174 A 
ATOM      3  C3  BZF d   1       2.456   4.710  -5.978  0.00  0.00    -0.012 A 
ATOM      4  C3A BZF d   1       3.674   4.147  -5.481  0.00  0.00    -0.107 A 
ATOM      5  C4  BZF d   1       4.982   4.257  -5.859  0.00  0.00     0.055 A 
ATOM      6  C5  BZF d   1       5.938   3.637  -5.119  0.00  0.00    -0.016 A 
ATOM      7  C6  BZF d   1       5.622   2.904  -3.993  0.00  0.00     0.022 A 
ATOM      8  C7  BZF d   1       4.339   2.762  -3.582  0.00  0.00     0.029 A 
ATOM      9  C7A BZF d   1       3.368   3.361  -4.347  0.00  0.00     0.058 A 
ENDROOT
TORSDOF 0
ENDMDL
