MODEL 1
REMARK minimizedAffinity 1.29353893
REMARK minimizedRMSD -1
REMARK  0 active torsions:
REMARK  status: ('A' for Active; 'I' for Inactive)
ROOT
ATOM      1  O1  BZF d   1      -2.683   1.122   1.641  0.00  0.00    -0.204 OA
ATOM      2  C2  BZF d   1      -1.690   0.895   0.708  0.00  0.00     0.174 A 
ATOM      3  C3  BZF d   1      -0.961  -0.191   1.039  0.00  0.00    -0.012 A 
ATOM      4  C3A BZF d   1      -1.594  -0.726   2.206  0.00  0.00    -0.107 A 
ATOM      5  C4  BZF d   1      -1.342  -1.812   2.995  0.00  0.00     0.055 A 
ATOM      6  C5  BZF d   1      -2.104  -2.014   4.102  0.00  0.00    -0.016 A 
ATOM      7  C6  BZF d   1      -3.120  -1.149   4.452  0.00  0.00     0.022 A 
ATOM      8  C7  BZF d   1      -3.410  -0.061   3.698  0.00  0.00     0.029 A 
ATOM      9  C7A BZF d   1      -2.664   0.128   2.561  0.00  0.00     0.058 A 
ENDROOT
TORSDOF 0
ENDMDL
