MODEL 1
REMARK minimizedAffinity 2.18307781
REMARK minimizedRMSD -1
REMARK  0 active torsions:
REMARK  status: ('A' for Active; 'I' for Inactive)
ROOT
ATOM      1  O1  BZF d   1       5.825   2.667  -3.746  0.00  0.00    -0.204 OA
ATOM      2  C2  BZF d   1       5.621   2.350  -2.417  0.00  0.00     0.174 A 
ATOM      3  C3  BZF d   1       4.303   2.271  -2.140  0.00  0.00    -0.012 A 
ATOM      4  C3A BZF d   1       3.644   2.465  -3.395  0.00  0.00    -0.107 A 
ATOM      5  C4  BZF d   1       2.332   2.480  -3.773  0.00  0.00     0.055 A 
ATOM      6  C5  BZF d   1       2.020   2.770  -5.064  0.00  0.00    -0.016 A 
ATOM      7  C6  BZF d   1       2.993   3.054  -6.000  0.00  0.00     0.022 A 
ATOM      8  C7  BZF d   1       4.308   3.045  -5.673  0.00  0.00     0.029 A 
ATOM      9  C7A BZF d   1       4.628   2.721  -4.378  0.00  0.00     0.058 A 
ENDROOT
TORSDOF 0
ENDMDL
