MODEL 1
REMARK minimizedAffinity -1.68222439
REMARK minimizedRMSD -1
REMARK  0 active torsions:
REMARK  status: ('A' for Active; 'I' for Inactive)
ROOT
ATOM      1  O1  BZF d   1       2.130   3.329  -4.023  0.00  0.00    -0.204 OA
ATOM      2  C2  BZF d   1       2.145   3.009  -2.679  0.00  0.00     0.174 A 
ATOM      3  C3  BZF d   1       3.372   2.600  -2.298  0.00  0.00    -0.012 A 
ATOM      4  C3A BZF d   1       4.197   2.757  -3.457  0.00  0.00    -0.107 A 
ATOM      5  C4  BZF d   1       5.521   2.532  -3.704  0.00  0.00     0.055 A 
ATOM      6  C5  BZF d   1       5.999   2.717  -4.963  0.00  0.00    -0.016 A 
ATOM      7  C6  BZF d   1       5.181   3.119  -5.998  0.00  0.00     0.022 A 
ATOM      8  C7  BZF d   1       3.862   3.359  -5.801  0.00  0.00     0.029 A 
ATOM      9  C7A BZF d   1       3.383   3.206  -4.522  0.00  0.00     0.058 A 
ENDROOT
TORSDOF 0
ENDMDL
