MODEL 1
REMARK minimizedAffinity -0.0788609907
REMARK minimizedRMSD -1
REMARK  0 active torsions:
REMARK  status: ('A' for Active; 'I' for Inactive)
ROOT
ATOM      1  O1  BZF d   1       2.294   3.300  -6.000  0.00  0.00    -0.204 OA
ATOM      2  C2  BZF d   1       1.333   3.349  -5.009  0.00  0.00     0.174 A 
ATOM      3  C3  BZF d   1       1.873   3.076  -3.804  0.00  0.00    -0.012 A 
ATOM      4  C3A BZF d   1       3.276   2.934  -4.045  0.00  0.00    -0.107 A 
ATOM      5  C4  BZF d   1       4.346   2.674  -3.236  0.00  0.00     0.055 A 
ATOM      6  C5  BZF d   1       5.576   2.526  -3.795  0.00  0.00    -0.016 A 
ATOM      7  C6  BZF d   1       5.771   2.626  -5.157  0.00  0.00     0.022 A 
ATOM      8  C7  BZF d   1       4.742   2.888  -5.998  0.00  0.00     0.029 A 
ATOM      9  C7A BZF d   1       3.503   3.070  -5.434  0.00  0.00     0.058 A 
ENDROOT
TORSDOF 0
ENDMDL
