MODEL 1
REMARK minimizedAffinity 1.4097873
REMARK minimizedRMSD -1
REMARK  0 active torsions:
REMARK  status: ('A' for Active; 'I' for Inactive)
ROOT
ATOM      1  O1  BZF d   1       1.611   2.796   2.647  0.00  0.00    -0.204 OA
ATOM      2  C2  BZF d   1       0.861   3.654   3.427  0.00  0.00     0.174 A 
ATOM      3  C3  BZF d   1      -0.429   3.653   3.034  0.00  0.00    -0.012 A 
ATOM      4  C3A BZF d   1      -0.507   2.668   1.999  0.00  0.00    -0.107 A 
ATOM      5  C4  BZF d   1      -1.529   2.197   1.226  0.00  0.00     0.055 A 
ATOM      6  C5  BZF d   1      -1.257   1.286   0.255  0.00  0.00    -0.016 A 
ATOM      7  C6  BZF d   1       0.024   0.828   0.027  0.00  0.00     0.022 A 
ATOM      8  C7  BZF d   1       1.070   1.262   0.772  0.00  0.00     0.029 A 
ATOM      9  C7A BZF d   1       0.793   2.159   1.775  0.00  0.00     0.058 A 
ENDROOT
TORSDOF 0
ENDMDL
