MODEL 1
REMARK minimizedAffinity 7.58436537
REMARK minimizedRMSD -1
REMARK  0 active torsions:
REMARK  status: ('A' for Active; 'I' for Inactive)
ROOT
ATOM      1  O1  BZF d   1       1.637  -2.591  -0.886  0.00  0.00    -0.204 OA
ATOM      2  C2  BZF d   1       1.122  -1.897   0.193  0.00  0.00     0.174 A 
ATOM      3  C3  BZF d   1      -0.223  -1.987   0.221  0.00  0.00    -0.012 A 
ATOM      4  C3A BZF d   1      -0.564  -2.863  -0.858  0.00  0.00    -0.107 A 
ATOM      5  C4  BZF d   1      -1.748  -3.352  -1.331  0.00  0.00     0.055 A 
ATOM      6  C5  BZF d   1      -1.743  -4.127  -2.447  0.00  0.00    -0.016 A 
ATOM      7  C6  BZF d   1      -0.576  -4.429  -3.117  0.00  0.00     0.022 A 
ATOM      8  C7  BZF d   1       0.624  -3.971  -2.683  0.00  0.00     0.029 A 
ATOM      9  C7A BZF d   1       0.626  -3.214  -1.536  0.00  0.00     0.058 A 
ENDROOT
TORSDOF 0
ENDMDL
