MODEL 1
REMARK minimizedAffinity 11.8878126
REMARK minimizedRMSD -1
REMARK  0 active torsions:
REMARK  status: ('A' for Active; 'I' for Inactive)
ROOT
ATOM      1  C1  DEN d   1      -3.376   1.513  -5.138  0.00  0.00     0.130 A 
ATOM      2  C2  DEN d   1      -2.743   0.443  -4.373  0.00  0.00    -0.031 A 
ATOM      3  C3  DEN d   1      -3.334   0.438  -3.020  0.00  0.00     0.027 A 
ATOM      4  C4  DEN d   1      -5.164   1.971  -2.043  0.00  0.00     0.027 A 
ATOM      5  C5  DEN d   1      -5.997   3.035  -2.309  0.00  0.00    -0.003 A 
ATOM      6  C6  DEN d   1      -5.991   3.683  -3.516  0.00  0.00     0.001 A 
ATOM      7  C7  DEN d   1      -5.166   3.243  -4.518  0.00  0.00     0.017 A 
ATOM      8  C8  DEN d   1      -4.318   2.176  -4.254  0.00  0.00    -0.094 A 
ATOM      9  C9  DEN d   1      -4.348   1.526  -3.032  0.00  0.00    -0.072 A 
ENDROOT
TORSDOF 0
ENDMDL
