MODEL 1
REMARK minimizedAffinity 3.60128999
REMARK minimizedRMSD -1
REMARK  0 active torsions:
REMARK  status: ('A' for Active; 'I' for Inactive)
ROOT
ATOM      1  C1  DEN d   1       2.256   2.181   6.000  0.00  0.00     0.130 A 
ATOM      2  C2  DEN d   1       2.816   0.834   5.937  0.00  0.00    -0.031 A 
ATOM      3  C3  DEN d   1       4.261   0.954   5.656  0.00  0.00     0.027 A 
ATOM      4  C4  DEN d   1       5.678   3.082   5.318  0.00  0.00     0.027 A 
ATOM      5  C5  DEN d   1       5.642   4.458   5.269  0.00  0.00    -0.003 A 
ATOM      6  C6  DEN d   1       4.479   5.165   5.424  0.00  0.00     0.001 A 
ATOM      7  C7  DEN d   1       3.310   4.499   5.682  0.00  0.00     0.017 A 
ATOM      8  C8  DEN d   1       3.337   3.111   5.726  0.00  0.00    -0.094 A 
ATOM      9  C9  DEN d   1       4.525   2.416   5.579  0.00  0.00    -0.072 A 
ENDROOT
TORSDOF 0
ENDMDL
