MODEL 1
REMARK minimizedAffinity 1.56730604
REMARK minimizedRMSD -1
REMARK  0 active torsions:
REMARK  status: ('A' for Active; 'I' for Inactive)
ROOT
ATOM      1  C1  DEN d   1       1.404   4.233   6.000  0.00  0.00     0.130 A 
ATOM      2  C2  DEN d   1       1.497   5.642   5.629  0.00  0.00    -0.031 A 
ATOM      3  C3  DEN d   1       2.874   5.901   5.163  0.00  0.00     0.027 A 
ATOM      4  C4  DEN d   1       4.859   4.265   4.978  0.00  0.00     0.027 A 
ATOM      5  C5  DEN d   1       5.266   2.966   5.188  0.00  0.00    -0.003 A 
ATOM      6  C6  DEN d   1       4.431   2.014   5.711  0.00  0.00     0.001 A 
ATOM      7  C7  DEN d   1       3.132   2.336   6.000  0.00  0.00     0.017 A 
ATOM      8  C8  DEN d   1       2.716   3.646   5.798  0.00  0.00    -0.094 A 
ATOM      9  C9  DEN d   1       3.572   4.590   5.257  0.00  0.00    -0.072 A 
ENDROOT
TORSDOF 0
ENDMDL
