MODEL 1
REMARK minimizedAffinity 6.24341393
REMARK minimizedRMSD -1
REMARK  0 active torsions:
REMARK  status: ('A' for Active; 'I' for Inactive)
ROOT
ATOM      1  C1  DEN d   1      -3.773   5.207   0.170  0.00  0.00     0.130 A 
ATOM      2  C2  DEN d   1      -2.705   5.281   1.163  0.00  0.00    -0.031 A 
ATOM      3  C3  DEN d   1      -2.722   4.028   1.945  0.00  0.00     0.027 A 
ATOM      4  C4  DEN d   1      -4.286   1.991   1.712  0.00  0.00     0.027 A 
ATOM      5  C5  DEN d   1      -5.355   1.470   1.018  0.00  0.00    -0.003 A 
ATOM      6  C6  DEN d   1      -5.989   2.167   0.023  0.00  0.00     0.001 A 
ATOM      7  C7  DEN d   1      -5.529   3.406  -0.336  0.00  0.00     0.017 A 
ATOM      8  C8  DEN d   1      -4.456   3.941   0.364  0.00  0.00    -0.094 A 
ATOM      9  C9  DEN d   1      -3.821   3.216   1.359  0.00  0.00    -0.072 A 
ENDROOT
TORSDOF 0
ENDMDL
