MODEL 1
REMARK minimizedAffinity 5.75121832
REMARK minimizedRMSD -1
REMARK  0 active torsions:
REMARK  status: ('A' for Active; 'I' for Inactive)
ROOT
ATOM      1  C1  DEN d   1      -1.122  -4.708   4.511  0.00  0.00     0.130 A 
ATOM      2  C2  DEN d   1      -0.406  -5.694   5.317  0.00  0.00    -0.031 A 
ATOM      3  C3  DEN d   1       0.707  -5.004   6.000  0.00  0.00     0.027 A 
ATOM      4  C4  DEN d   1       1.385  -2.518   5.892  0.00  0.00     0.027 A 
ATOM      5  C5  DEN d   1       1.084  -1.296   5.332  0.00  0.00    -0.003 A 
ATOM      6  C6  DEN d   1       0.057  -1.134   4.440  0.00  0.00     0.001 A 
ATOM      7  C7  DEN d   1      -0.736  -2.203   4.116  0.00  0.00     0.017 A 
ATOM      8  C8  DEN d   1      -0.434  -3.440   4.671  0.00  0.00    -0.094 A 
ATOM      9  C9  DEN d   1       0.600  -3.581   5.580  0.00  0.00    -0.072 A 
ENDROOT
TORSDOF 0
ENDMDL
