MODEL 1
REMARK minimizedAffinity -1.17864311
REMARK minimizedRMSD -1
REMARK  0 active torsions:
REMARK  status: ('A' for Active; 'I' for Inactive)
ROOT
ATOM      1  C1  DEN d   1       4.482   1.461   4.485  0.00  0.00     0.130 A 
ATOM      2  C2  DEN d   1       3.287   1.141   5.262  0.00  0.00    -0.031 A 
ATOM      3  C3  DEN d   1       2.881   2.357   5.995  0.00  0.00     0.027 A 
ATOM      4  C4  DEN d   1       3.977   4.692   5.999  0.00  0.00     0.027 A 
ATOM      5  C5  DEN d   1       5.019   5.444   5.503  0.00  0.00    -0.003 A 
ATOM      6  C6  DEN d   1       5.966   4.916   4.666  0.00  0.00     0.001 A 
ATOM      7  C7  DEN d   1       5.865   3.611   4.264  0.00  0.00     0.017 A 
ATOM      8  C8  DEN d   1       4.822   2.844   4.766  0.00  0.00    -0.094 A 
ATOM      9  C9  DEN d   1       3.867   3.399   5.601  0.00  0.00    -0.072 A 
ENDROOT
TORSDOF 0
ENDMDL
