MODEL 1
REMARK minimizedAffinity 2.67510509
REMARK minimizedRMSD -1
REMARK  0 active torsions:
REMARK  status: ('A' for Active; 'I' for Inactive)
ROOT
ATOM      1  C1  DEN d   1       3.357   5.315   5.999  0.00  0.00     0.130 A 
ATOM      2  C2  DEN d   1       4.592   5.929   5.518  0.00  0.00    -0.031 A 
ATOM      3  C3  DEN d   1       5.425   4.868   4.917  0.00  0.00     0.027 A 
ATOM      4  C4  DEN d   1       4.924   2.349   4.681  0.00  0.00     0.027 A 
ATOM      5  C5  DEN d   1       4.007   1.357   4.950  0.00  0.00    -0.003 A 
ATOM      6  C6  DEN d   1       2.834   1.607   5.613  0.00  0.00     0.001 A 
ATOM      7  C7  DEN d   1       2.526   2.888   5.989  0.00  0.00     0.017 A 
ATOM      8  C8  DEN d   1       3.449   3.892   5.727  0.00  0.00    -0.094 A 
ATOM      9  C9  DEN d   1       4.623   3.621   5.046  0.00  0.00    -0.072 A 
ENDROOT
TORSDOF 0
ENDMDL
