MODEL 1
REMARK minimizedAffinity 16.3760357
REMARK minimizedRMSD -1
REMARK  0 active torsions:
REMARK  status: ('A' for Active; 'I' for Inactive)
ROOT
ATOM      1  C1  DEN d   1      -3.300  -0.594  -2.285  0.00  0.00     0.130 A 
ATOM      2  C2  DEN d   1      -2.057  -0.002  -1.798  0.00  0.00    -0.031 A 
ATOM      3  C3  DEN d   1      -1.845   1.269  -2.519  0.00  0.00     0.027 A 
ATOM      4  C4  DEN d   1      -3.314   2.375  -4.327  0.00  0.00     0.027 A 
ATOM      5  C5  DEN d   1      -4.462   2.242  -5.077  0.00  0.00    -0.003 A 
ATOM      6  C6  DEN d   1      -5.279   1.147  -4.973  0.00  0.00     0.001 A 
ATOM      7  C7  DEN d   1      -4.983   0.162  -4.068  0.00  0.00     0.017 A 
ATOM      8  C8  DEN d   1      -3.823   0.286  -3.314  0.00  0.00    -0.094 A 
ATOM      9  C9  DEN d   1      -3.017   1.406  -3.425  0.00  0.00    -0.072 A 
ENDROOT
TORSDOF 0
ENDMDL
