MODEL 1
REMARK minimizedAffinity 6.58862782
REMARK minimizedRMSD -1
REMARK  0 active torsions:
REMARK  status: ('A' for Active; 'I' for Inactive)
ROOT
ATOM      1  C1  DEN d   1       5.112   4.499   3.409  0.00  0.00     0.130 A 
ATOM      2  C2  DEN d   1       5.896   3.493   2.699  0.00  0.00    -0.031 A 
ATOM      3  C3  DEN d   1       5.476   2.162   3.182  0.00  0.00     0.027 A 
ATOM      4  C4  DEN d   1       3.693   1.565   4.947  0.00  0.00     0.027 A 
ATOM      5  C5  DEN d   1       2.773   2.082   5.832  0.00  0.00    -0.003 A 
ATOM      6  C6  DEN d   1       2.593   3.430   5.995  0.00  0.00     0.001 A 
ATOM      7  C7  DEN d   1       3.313   4.308   5.229  0.00  0.00     0.017 A 
ATOM      8  C8  DEN d   1       4.248   3.795   4.340  0.00  0.00    -0.094 A 
ATOM      9  C9  DEN d   1       4.406   2.428   4.181  0.00  0.00    -0.072 A 
ENDROOT
TORSDOF 0
ENDMDL
