MODEL 1
REMARK minimizedAffinity 5.20191145
REMARK minimizedRMSD -1
REMARK  0 active torsions:
REMARK  status: ('A' for Active; 'I' for Inactive)
ROOT
ATOM      1  C1  DEN d   1       1.772   4.518   6.000  0.00  0.00     0.130 A 
ATOM      2  C2  DEN d   1       1.930   5.834   5.387  0.00  0.00    -0.031 A 
ATOM      3  C3  DEN d   1       3.203   5.840   4.640  0.00  0.00     0.027 A 
ATOM      4  C4  DEN d   1       4.935   3.947   4.369  0.00  0.00     0.027 A 
ATOM      5  C5  DEN d   1       5.243   2.650   4.715  0.00  0.00    -0.003 A 
ATOM      6  C6  DEN d   1       4.440   1.902   5.535  0.00  0.00     0.001 A 
ATOM      7  C7  DEN d   1       3.264   2.431   5.999  0.00  0.00     0.017 A 
ATOM      8  C8  DEN d   1       2.950   3.741   5.661  0.00  0.00    -0.094 A 
ATOM      9  C9  DEN d   1       3.770   4.476   4.821  0.00  0.00    -0.072 A 
ENDROOT
TORSDOF 0
ENDMDL
