MODEL 1
REMARK minimizedAffinity -1.66937649
REMARK minimizedRMSD -1
REMARK  1 active torsions:
REMARK  status: ('A' for Active; 'I' for Inactive)
REMARK    1  A    between atoms: C3_4  and  O_7 
ROOT
ATOM      1  C   UNL d   1       0.556   1.898  -1.954  0.00  0.00    -0.033 A 
ATOM      2  C1  UNL d   1       1.204   1.205  -0.930  0.00  0.00     0.039 A 
ATOM      3  C2  UNL d   1       0.460   0.498   0.017  0.00  0.00    -0.080 A 
ATOM      4  C3  UNL d   1      -0.929   0.490  -0.073  0.00  0.00     0.150 A 
ATOM      5  C4  UNL d   1      -1.581   1.175  -1.093  0.00  0.00    -0.007 A 
ATOM      6  C5  UNL d   1      -0.837   1.882  -2.036  0.00  0.00     0.039 A 
ENDROOT
BRANCH   4   7
ATOM      7  O   UNL d   1      -1.698  -0.182   0.831  0.00  0.00    -0.526 OA
ATOM      8  H5  UNL d   1      -1.112  -0.584   1.494  0.00  0.00     0.418 HD
ENDBRANCH   4   7
TORSDOF 1
ENDMDL
