MODEL 1
REMARK minimizedAffinity -1.78945482
REMARK minimizedRMSD -1
REMARK  1 active torsions:
REMARK  status: ('A' for Active; 'I' for Inactive)
REMARK    1  A    between atoms: C3_4  and  O_7 
ROOT
ATOM      1  C   UNL d   1      -1.056   3.179  -2.980  0.00  0.00    -0.033 A 
ATOM      2  C1  UNL d   1       0.319   2.944  -2.911  0.00  0.00     0.039 A 
ATOM      3  C2  UNL d   1       0.798   1.754  -2.358  0.00  0.00    -0.080 A 
ATOM      4  C3  UNL d   1      -0.106   0.810  -1.879  0.00  0.00     0.150 A 
ATOM      5  C4  UNL d   1      -1.477   1.037  -1.948  0.00  0.00    -0.007 A 
ATOM      6  C5  UNL d   1      -1.954   2.225  -2.500  0.00  0.00     0.039 A 
ENDROOT
BRANCH   4   7
ATOM      7  O   UNL d   1       0.314  -0.363  -1.327  0.00  0.00    -0.526 OA
ATOM      8  H5  UNL d   1       1.286  -0.369  -1.320  0.00  0.00     0.418 HD
ENDBRANCH   4   7
TORSDOF 1
ENDMDL
