MODEL 1
REMARK minimizedAffinity -1.5462836
REMARK minimizedRMSD -1
REMARK  1 active torsions:
REMARK  status: ('A' for Active; 'I' for Inactive)
REMARK    1  A    between atoms: C3_4  and  O_7 
ROOT
ATOM      1  C   UNL d   1      -0.996   2.810  -2.932  0.00  0.00    -0.033 A 
ATOM      2  C1  UNL d   1      -1.732   1.804  -2.302  0.00  0.00     0.039 A 
ATOM      3  C2  UNL d   1      -1.074   0.768  -1.636  0.00  0.00    -0.080 A 
ATOM      4  C3  UNL d   1       0.318   0.749  -1.607  0.00  0.00     0.150 A 
ATOM      5  C4  UNL d   1       1.057   1.750  -2.230  0.00  0.00    -0.007 A 
ATOM      6  C5  UNL d   1       0.398   2.783  -2.895  0.00  0.00     0.039 A 
ENDROOT
BRANCH   4   7
ATOM      7  O   UNL d   1       1.004  -0.244  -0.974  0.00  0.00    -0.526 OA
ATOM      8  H5  UNL d   1       0.363  -0.880  -0.615  0.00  0.00     0.418 HD
ENDBRANCH   4   7
TORSDOF 1
ENDMDL
