MODEL 1
REMARK minimizedAffinity -3.58021426
REMARK minimizedRMSD -1
REMARK  1 active torsions:
REMARK  status: ('A' for Active; 'I' for Inactive)
REMARK    1  A    between atoms: C3_4  and  O_7 
ROOT
ATOM      1  C   UNL d   1      -0.229   0.151  -0.477  0.00  0.00    -0.033 A 
ATOM      2  C1  UNL d   1       1.099  -0.270  -0.389  0.00  0.00     0.039 A 
ATOM      3  C2  UNL d   1       1.624  -0.678   0.840  0.00  0.00    -0.080 A 
ATOM      4  C3  UNL d   1       0.810  -0.660   1.969  0.00  0.00     0.150 A 
ATOM      5  C4  UNL d   1      -0.515  -0.246   1.887  0.00  0.00    -0.007 A 
ATOM      6  C5  UNL d   1      -1.036   0.162   0.660  0.00  0.00     0.039 A 
ENDROOT
BRANCH   4   7
ATOM      7  O   UNL d   1       1.279  -1.045   3.191  0.00  0.00    -0.526 OA
ATOM      8  H5  UNL d   1       2.218  -1.278   3.100  0.00  0.00     0.418 HD
ENDBRANCH   4   7
TORSDOF 1
ENDMDL
