MODEL 1
REMARK minimizedAffinity -3.57483506
REMARK minimizedRMSD -1
REMARK  1 active torsions:
REMARK  status: ('A' for Active; 'I' for Inactive)
REMARK    1  A    between atoms: C3_4  and  O_7 
ROOT
ATOM      1  C   UNL d   1       0.232  -0.113  -0.434  0.00  0.00    -0.033 A 
ATOM      2  C1  UNL d   1      -0.888   0.118   0.367  0.00  0.00     0.039 A 
ATOM      3  C2  UNL d   1      -0.915  -0.346   1.683  0.00  0.00    -0.080 A 
ATOM      4  C3  UNL d   1       0.183  -1.039   2.186  0.00  0.00     0.150 A 
ATOM      5  C4  UNL d   1       1.304  -1.269   1.395  0.00  0.00    -0.007 A 
ATOM      6  C5  UNL d   1       1.329  -0.806   0.081  0.00  0.00     0.039 A 
ENDROOT
BRANCH   4   7
ATOM      7  O   UNL d   1       0.201  -1.515   3.463  0.00  0.00    -0.526 OA
ATOM      8  H5  UNL d   1      -0.651  -1.307   3.882  0.00  0.00     0.418 HD
ENDBRANCH   4   7
TORSDOF 1
ENDMDL
