MODEL 1
REMARK minimizedAffinity 1.80281126
REMARK minimizedRMSD -1
REMARK  0 active torsions:
REMARK  status: ('A' for Active; 'I' for Inactive)
ROOT
ATOM      1  C   UNL d   1       3.560  -2.664  -1.769  0.00  0.00    -0.002 A 
ATOM      2  C1  UNL d   1       4.439  -1.658  -2.147  0.00  0.00     0.010 A 
ATOM      3  C2  UNL d   1       4.353  -0.388  -1.574  0.00  0.00     0.041 A 
ATOM      4  C3  UNL d   1       3.361  -0.143  -0.604  0.00  0.00    -0.075 A 
ATOM      5  S   UNL d   1       3.069   1.335   0.233  0.00  0.00     0.015 SA
ATOM      6  C4  UNL d   1       1.771   0.667   1.113  0.00  0.00     0.022 A 
ATOM      7  C5  UNL d   1       1.552  -0.651   0.788  0.00  0.00     0.026 A 
ATOM      8  C6  UNL d   1       2.465  -1.140  -0.207  0.00  0.00    -0.082 A 
ATOM      9  C7  UNL d   1       2.577  -2.417  -0.807  0.00  0.00     0.045 A 
ENDROOT
TORSDOF 0
ENDMDL
