MODEL 1
REMARK minimizedAffinity 11.2137623
REMARK minimizedRMSD -1
REMARK  0 active torsions:
REMARK  status: ('A' for Active; 'I' for Inactive)
ROOT
ATOM      1  C   UNL d   1      -1.332   2.649  -0.213  0.00  0.00    -0.002 A 
ATOM      2  C1  UNL d   1      -0.754   1.945  -1.259  0.00  0.00     0.010 A 
ATOM      3  C2  UNL d   1      -1.504   1.029  -1.999  0.00  0.00     0.041 A 
ATOM      4  C3  UNL d   1      -2.859   0.831  -1.667  0.00  0.00    -0.075 A 
ATOM      5  S   UNL d   1      -3.971  -0.239  -2.435  0.00  0.00     0.015 SA
ATOM      6  C4  UNL d   1      -5.241   0.214  -1.392  0.00  0.00     0.022 A 
ATOM      7  C5  UNL d   1      -4.843   1.157  -0.474  0.00  0.00     0.026 A 
ATOM      8  C6  UNL d   1      -3.464   1.529  -0.618  0.00  0.00    -0.082 A 
ATOM      9  C7  UNL d   1      -2.677   2.451   0.114  0.00  0.00     0.045 A 
ENDROOT
TORSDOF 0
ENDMDL
