MODEL 1
REMARK minimizedAffinity 16.7111855
REMARK minimizedRMSD -1
REMARK  0 active torsions:
REMARK  status: ('A' for Active; 'I' for Inactive)
ROOT
ATOM      1  C   UNL d   1      -2.684   4.739   1.008  0.00  0.00    -0.002 A 
ATOM      2  C1  UNL d   1      -1.822   4.539   2.077  0.00  0.00     0.010 A 
ATOM      3  C2  UNL d   1      -0.898   3.493   2.058  0.00  0.00     0.041 A 
ATOM      4  C3  UNL d   1      -0.854   2.643   0.935  0.00  0.00    -0.075 A 
ATOM      5  S   UNL d   1       0.196   1.297   0.691  0.00  0.00     0.015 SA
ATOM      6  C4  UNL d   1      -0.475   0.956  -0.838  0.00  0.00     0.022 A 
ATOM      7  C5  UNL d   1      -1.476   1.838  -1.170  0.00  0.00     0.026 A 
ATOM      8  C6  UNL d   1      -1.711   2.825  -0.153  0.00  0.00    -0.082 A 
ATOM      9  C7  UNL d   1      -2.637   3.894  -0.104  0.00  0.00     0.045 A 
ENDROOT
TORSDOF 0
ENDMDL
