MODEL 1
REMARK minimizedAffinity 9.55827618
REMARK minimizedRMSD -1
REMARK  0 active torsions:
REMARK  status: ('A' for Active; 'I' for Inactive)
ROOT
ATOM      1  C   UNL d   1      -5.739   4.193  -3.119  0.00  0.00    -0.002 A 
ATOM      2  C1  UNL d   1      -6.000   3.366  -2.036  0.00  0.00     0.010 A 
ATOM      3  C2  UNL d   1      -5.431   2.093  -1.961  0.00  0.00     0.041 A 
ATOM      4  C3  UNL d   1      -4.586   1.661  -3.003  0.00  0.00    -0.075 A 
ATOM      5  S   UNL d   1      -3.779   0.143  -3.125  0.00  0.00     0.015 SA
ATOM      6  C4  UNL d   1      -3.067   0.557  -4.617  0.00  0.00     0.022 A 
ATOM      7  C5  UNL d   1      -3.427   1.819  -5.027  0.00  0.00     0.026 A 
ATOM      8  C6  UNL d   1      -4.308   2.477  -4.104  0.00  0.00    -0.082 A 
ATOM      9  C7  UNL d   1      -4.900   3.762  -4.151  0.00  0.00     0.045 A 
ENDROOT
TORSDOF 0
ENDMDL
