MODEL 1
REMARK minimizedAffinity 10.1074152
REMARK minimizedRMSD -1
REMARK  0 active torsions:
REMARK  status: ('A' for Active; 'I' for Inactive)
ROOT
ATOM      1  C   UNL d   1      -1.332   1.812  -0.005  0.00  0.00    -0.002 A 
ATOM      2  C1  UNL d   1      -0.022   1.590  -0.407  0.00  0.00     0.010 A 
ATOM      3  C2  UNL d   1       0.936   1.146   0.507  0.00  0.00     0.041 A 
ATOM      4  C3  UNL d   1       0.551   0.927   1.844  0.00  0.00    -0.075 A 
ATOM      5  S   UNL d   1       1.553   0.384   3.138  0.00  0.00     0.015 SA
ATOM      6  C4  UNL d   1       0.266   0.433   4.255  0.00  0.00     0.022 A 
ATOM      7  C5  UNL d   1      -0.906   0.852   3.672  0.00  0.00     0.026 A 
ATOM      8  C6  UNL d   1      -0.762   1.143   2.273  0.00  0.00    -0.082 A 
ATOM      9  C7  UNL d   1      -1.709   1.593   1.322  0.00  0.00     0.045 A 
ENDROOT
TORSDOF 0
ENDMDL
