MODEL 1
REMARK minimizedAffinity -2.11276722
REMARK minimizedRMSD -1
REMARK  1 active torsions:
REMARK  status: ('A' for Active; 'I' for Inactive)
REMARK    1  A    between atoms: C3_4  and  O_7 
ROOT
ATOM      1  C   UNL d   1      -2.206   5.927  -5.710  0.00  0.00    -0.033 A 
ATOM      2  C1  UNL d   1      -1.765   6.000  -4.387  0.00  0.00     0.039 A 
ATOM      3  C2  UNL d   1      -2.689   5.999  -3.340  0.00  0.00    -0.080 A 
ATOM      4  C3  UNL d   1      -4.048   5.924  -3.629  0.00  0.00     0.150 A 
ATOM      5  C4  UNL d   1      -4.495   5.847  -4.944  0.00  0.00    -0.007 A 
ATOM      6  C5  UNL d   1      -3.571   5.849  -5.988  0.00  0.00     0.039 A 
ENDROOT
BRANCH   4   7
ATOM      7  O   UNL d   1      -4.988   5.924  -2.641  0.00  0.00    -0.526 OA
ATOM      8  H5  UNL d   1      -4.535   6.011  -1.785  0.00  0.00     0.418 HD
ENDBRANCH   4   7
TORSDOF 1
ENDMDL
