MODEL 1
REMARK minimizedAffinity 9.73265743
REMARK minimizedRMSD -1
REMARK  1 active torsions:
REMARK  status: ('A' for Active; 'I' for Inactive)
REMARK    1  A    between atoms: C3_4  and  O_7 
ROOT
ATOM      1  C   UNL d   1       4.943  -5.995  -0.328  0.00  0.00    -0.033 A 
ATOM      2  C1  UNL d   1       3.637  -5.575  -0.591  0.00  0.00     0.039 A 
ATOM      3  C2  UNL d   1       3.385  -4.244  -0.928  0.00  0.00    -0.080 A 
ATOM      4  C3  UNL d   1       4.445  -3.344  -0.999  0.00  0.00     0.150 A 
ATOM      5  C4  UNL d   1       5.748  -3.756  -0.743  0.00  0.00    -0.007 A 
ATOM      6  C5  UNL d   1       5.998  -5.086  -0.406  0.00  0.00     0.039 A 
ENDROOT
BRANCH   4   7
ATOM      7  O   UNL d   1       4.247  -2.034  -1.319  0.00  0.00    -0.526 OA
ATOM      8  H5  UNL d   1       3.294  -1.887  -1.442  0.00  0.00     0.418 HD
ENDBRANCH   4   7
TORSDOF 1
ENDMDL
