MODEL 1
REMARK minimizedAffinity 10.9794598
REMARK minimizedRMSD -1
REMARK  1 active torsions:
REMARK  status: ('A' for Active; 'I' for Inactive)
REMARK    1  A    between atoms: C3_4  and  O_7 
ROOT
ATOM      1  C   UNL d   1       1.133   2.500  -1.956  0.00  0.00    -0.033 A 
ATOM      2  C1  UNL d   1       2.390   1.923  -1.764  0.00  0.00     0.039 A 
ATOM      3  C2  UNL d   1       3.428   2.196  -2.656  0.00  0.00    -0.080 A 
ATOM      4  C3  UNL d   1       3.198   3.047  -3.733  0.00  0.00     0.150 A 
ATOM      5  C4  UNL d   1       1.949   3.629  -3.928  0.00  0.00    -0.007 A 
ATOM      6  C5  UNL d   1       0.913   3.354  -3.037  0.00  0.00     0.039 A 
ENDROOT
BRANCH   4   7
ATOM      7  O   UNL d   1       4.179   3.340  -4.633  0.00  0.00    -0.526 OA
ATOM      8  H5  UNL d   1       4.979   2.845  -4.388  0.00  0.00     0.418 HD
ENDBRANCH   4   7
TORSDOF 1
ENDMDL
