MODEL 1
REMARK minimizedAffinity 7.73323011
REMARK minimizedRMSD -1
REMARK  1 active torsions:
REMARK  status: ('A' for Active; 'I' for Inactive)
REMARK    1  A    between atoms: C3_4  and  O_7 
ROOT
ATOM      1  C   UNL d   1      -1.084  -1.950   0.960  0.00  0.00    -0.033 A 
ATOM      2  C1  UNL d   1      -2.363  -1.431   1.171  0.00  0.00     0.039 A 
ATOM      3  C2  UNL d   1      -2.566  -0.439   2.133  0.00  0.00    -0.080 A 
ATOM      4  C3  UNL d   1      -1.483   0.024   2.876  0.00  0.00     0.150 A 
ATOM      5  C4  UNL d   1      -0.206  -0.487   2.668  0.00  0.00    -0.007 A 
ATOM      6  C5  UNL d   1      -0.006  -1.478   1.708  0.00  0.00     0.039 A 
ENDROOT
BRANCH   4   7
ATOM      7  O   UNL d   1      -1.632   0.987   3.829  0.00  0.00    -0.526 OA
ATOM      8  H5  UNL d   1      -2.573   1.224   3.882  0.00  0.00     0.418 HD
ENDBRANCH   4   7
TORSDOF 1
ENDMDL
