MODEL 1
REMARK minimizedAffinity 12.0808182
REMARK minimizedRMSD -1
REMARK  1 active torsions:
REMARK  status: ('A' for Active; 'I' for Inactive)
REMARK    1  A    between atoms: C3_4  and  O_7 
ROOT
ATOM      1  C   UNL d   1       4.815   1.866   2.176  0.00  0.00    -0.033 A 
ATOM      2  C1  UNL d   1       4.411   1.510   0.888  0.00  0.00     0.039 A 
ATOM      3  C2  UNL d   1       4.799   2.284  -0.207  0.00  0.00    -0.080 A 
ATOM      4  C3  UNL d   1       5.591   3.411  -0.000  0.00  0.00     0.150 A 
ATOM      5  C4  UNL d   1       6.000   3.770   1.280  0.00  0.00    -0.007 A 
ATOM      6  C5  UNL d   1       5.610   2.995   2.372  0.00  0.00     0.039 A 
ENDROOT
BRANCH   4   7
ATOM      7  O   UNL d   1       5.991   4.200  -1.037  0.00  0.00    -0.526 OA
ATOM      8  H5  UNL d   1       5.610   3.847  -1.858  0.00  0.00     0.418 HD
ENDBRANCH   4   7
TORSDOF 1
ENDMDL
