MODEL 1
REMARK minimizedAffinity -0.996955156
REMARK minimizedRMSD -1
REMARK  1 active torsions:
REMARK  status: ('A' for Active; 'I' for Inactive)
REMARK    1  A    between atoms: C3_4  and  O_7 
ROOT
ATOM      1  C   UNL d   1      -5.676  -4.838   5.999  0.00  0.00    -0.033 A 
ATOM      2  C1  UNL d   1      -5.228  -6.000   5.368  0.00  0.00     0.039 A 
ATOM      3  C2  UNL d   1      -4.975  -5.998   3.995  0.00  0.00    -0.080 A 
ATOM      4  C3  UNL d   1      -5.172  -4.828   3.266  0.00  0.00     0.150 A 
ATOM      5  C4  UNL d   1      -5.614  -3.666   3.889  0.00  0.00    -0.007 A 
ATOM      6  C5  UNL d   1      -5.867  -3.670   5.260  0.00  0.00     0.039 A 
ENDROOT
BRANCH   4   7
ATOM      7  O   UNL d   1      -4.944  -4.779   1.923  0.00  0.00    -0.526 OA
ATOM      8  H5  UNL d   1      -4.670  -5.662   1.624  0.00  0.00     0.418 HD
ENDBRANCH   4   7
TORSDOF 1
ENDMDL
