MODEL 1
REMARK minimizedAffinity 8.92191792
REMARK minimizedRMSD -1
REMARK  1 active torsions:
REMARK  status: ('A' for Active; 'I' for Inactive)
REMARK    1  A    between atoms: C3_4  and  O_7 
ROOT
ATOM      1  C   UNL d   1      -2.668   0.306   2.171  0.00  0.00    -0.033 A 
ATOM      2  C1  UNL d   1      -3.073   1.182   3.180  0.00  0.00     0.039 A 
ATOM      3  C2  UNL d   1      -2.472   1.127   4.439  0.00  0.00    -0.080 A 
ATOM      4  C3  UNL d   1      -1.467   0.193   4.675  0.00  0.00     0.150 A 
ATOM      5  C4  UNL d   1      -1.055  -0.680   3.674  0.00  0.00    -0.007 A 
ATOM      6  C5  UNL d   1      -1.658  -0.624   2.418  0.00  0.00     0.039 A 
ENDROOT
BRANCH   4   7
ATOM      7  O   UNL d   1      -0.853   0.098   5.889  0.00  0.00    -0.526 OA
ATOM      8  H5  UNL d   1      -1.260   0.744   6.491  0.00  0.00     0.418 HD
ENDBRANCH   4   7
TORSDOF 1
ENDMDL
