MODEL 1
REMARK minimizedAffinity 1.43433177
REMARK minimizedRMSD -1
REMARK  1 active torsions:
REMARK  status: ('A' for Active; 'I' for Inactive)
REMARK    1  A    between atoms: C3_4  and  O_7 
ROOT
ATOM      1  C   UNL d   1      -0.995  -1.008   3.157  0.00  0.00    -0.033 A 
ATOM      2  C1  UNL d   1       0.075  -1.835   3.507  0.00  0.00     0.039 A 
ATOM      3  C2  UNL d   1       0.409  -2.925   2.702  0.00  0.00    -0.080 A 
ATOM      4  C3  UNL d   1      -0.332  -3.177   1.551  0.00  0.00     0.150 A 
ATOM      5  C4  UNL d   1      -1.397  -2.356   1.194  0.00  0.00    -0.007 A 
ATOM      6  C5  UNL d   1      -1.730  -1.268   2.000  0.00  0.00     0.039 A 
ENDROOT
BRANCH   4   7
ATOM      7  O   UNL d   1      -0.047  -4.233   0.736  0.00  0.00    -0.526 OA
ATOM      8  H5  UNL d   1       0.694  -4.728   1.123  0.00  0.00     0.418 HD
ENDBRANCH   4   7
TORSDOF 1
ENDMDL
