MODEL 1
REMARK minimizedAffinity 5.73667192
REMARK minimizedRMSD -1
REMARK  1 active torsions:
REMARK  status: ('A' for Active; 'I' for Inactive)
REMARK    1  A    between atoms: C3_4  and  O_7 
ROOT
ATOM      1  C   UNL d   1      -2.521  -0.177   1.747  0.00  0.00    -0.033 A 
ATOM      2  C1  UNL d   1      -3.752   0.380   1.396  0.00  0.00     0.039 A 
ATOM      3  C2  UNL d   1      -4.200   0.312   0.076  0.00  0.00    -0.080 A 
ATOM      4  C3  UNL d   1      -3.410  -0.317  -0.882  0.00  0.00     0.150 A 
ATOM      5  C4  UNL d   1      -2.184  -0.878  -0.539  0.00  0.00    -0.007 A 
ATOM      6  C5  UNL d   1      -1.738  -0.807   0.780  0.00  0.00     0.039 A 
ENDROOT
BRANCH   4   7
ATOM      7  O   UNL d   1      -3.803  -0.405  -2.185  0.00  0.00    -0.526 OA
ATOM      8  H5  UNL d   1      -4.656   0.051  -2.280  0.00  0.00     0.418 HD
ENDBRANCH   4   7
TORSDOF 1
ENDMDL
