MODEL 1
REMARK minimizedAffinity 9.39767551
REMARK minimizedRMSD -1
REMARK  1 active torsions:
REMARK  status: ('A' for Active; 'I' for Inactive)
REMARK    1  A    between atoms: C3_4  and  O_7 
ROOT
ATOM      1  C   UNL d   1      -1.425  -1.651   0.840  0.00  0.00    -0.033 A 
ATOM      2  C1  UNL d   1      -2.782  -1.492   1.124  0.00  0.00     0.039 A 
ATOM      3  C2  UNL d   1      -3.216  -0.402   1.881  0.00  0.00    -0.080 A 
ATOM      4  C3  UNL d   1      -2.283   0.521   2.347  0.00  0.00     0.150 A 
ATOM      5  C4  UNL d   1      -0.929   0.370   2.064  0.00  0.00    -0.007 A 
ATOM      6  C5  UNL d   1      -0.498  -0.719   1.309  0.00  0.00     0.039 A 
ENDROOT
BRANCH   4   7
ATOM      7  O   UNL d   1      -2.657   1.598   3.093  0.00  0.00    -0.526 OA
ATOM      8  H5  UNL d   1      -3.618   1.557   3.233  0.00  0.00     0.418 HD
ENDBRANCH   4   7
TORSDOF 1
ENDMDL
