MODEL 1
REMARK minimizedAffinity 8.75139999
REMARK minimizedRMSD -1
REMARK  1 active torsions:
REMARK  status: ('A' for Active; 'I' for Inactive)
REMARK    1  A    between atoms: C3_4  and  O_7 
ROOT
ATOM      1  C   UNL d   1      -3.786  -5.564  -4.873  0.00  0.00    -0.033 A 
ATOM      2  C1  UNL d   1      -3.083  -5.999  -5.998  0.00  0.00     0.039 A 
ATOM      3  C2  UNL d   1      -1.687  -5.998  -5.994  0.00  0.00    -0.080 A 
ATOM      4  C3  UNL d   1      -1.007  -5.561  -4.861  0.00  0.00     0.150 A 
ATOM      5  C4  UNL d   1      -1.701  -5.129  -3.736  0.00  0.00    -0.007 A 
ATOM      6  C5  UNL d   1      -3.095  -5.130  -3.741  0.00  0.00     0.039 A 
ENDROOT
BRANCH   4   7
ATOM      7  O   UNL d   1       0.355  -5.537  -4.812  0.00  0.00    -0.526 OA
ATOM      8  H5  UNL d   1       0.699  -5.835  -5.671  0.00  0.00     0.418 HD
ENDBRANCH   4   7
TORSDOF 1
ENDMDL
