MODEL 1
REMARK minimizedAffinity 8.76229095
REMARK minimizedRMSD -1
REMARK  1 active torsions:
REMARK  status: ('A' for Active; 'I' for Inactive)
REMARK    1  A    between atoms: C3_4  and  O_7 
ROOT
ATOM      1  C   UNL d   1      -5.973   1.614  -0.162  0.00  0.00    -0.033 A 
ATOM      2  C1  UNL d   1      -5.982   2.172  -1.442  0.00  0.00     0.039 A 
ATOM      3  C2  UNL d   1      -5.990   1.345  -2.567  0.00  0.00    -0.080 A 
ATOM      4  C3  UNL d   1      -5.991  -0.037  -2.399  0.00  0.00     0.150 A 
ATOM      5  C4  UNL d   1      -5.986  -0.600  -1.127  0.00  0.00    -0.007 A 
ATOM      6  C5  UNL d   1      -5.977   0.227  -0.005  0.00  0.00     0.039 A 
ENDROOT
BRANCH   4   7
ATOM      7  O   UNL d   1      -5.994  -0.885  -3.466  0.00  0.00    -0.526 OA
ATOM      8  H5  UNL d   1      -5.968  -0.355  -4.280  0.00  0.00     0.418 HD
ENDBRANCH   4   7
TORSDOF 1
ENDMDL
