MODEL 1
REMARK minimizedAffinity 9.16384983
REMARK minimizedRMSD -1
REMARK  1 active torsions:
REMARK  status: ('A' for Active; 'I' for Inactive)
REMARK    1  A    between atoms: C3_4  and  O_7 
ROOT
ATOM      1  C   UNL d   1       3.392   3.373  -3.592  0.00  0.00    -0.033 A 
ATOM      2  C1  UNL d   1       3.875   4.427  -2.814  0.00  0.00     0.039 A 
ATOM      3  C2  UNL d   1       2.984   5.321  -2.218  0.00  0.00    -0.080 A 
ATOM      4  C3  UNL d   1       1.615   5.150  -2.405  0.00  0.00     0.150 A 
ATOM      5  C4  UNL d   1       1.127   4.100  -3.176  0.00  0.00    -0.007 A 
ATOM      6  C5  UNL d   1       2.019   3.208  -3.772  0.00  0.00     0.039 A 
ENDROOT
BRANCH   4   7
ATOM      7  O   UNL d   1       0.707   6.000  -1.847  0.00  0.00    -0.526 OA
ATOM      8  H5  UNL d   1       1.190   6.693  -1.366  0.00  0.00     0.418 HD
ENDBRANCH   4   7
TORSDOF 1
ENDMDL
