MODEL 1
REMARK minimizedAffinity 6.56084299
REMARK minimizedRMSD -1
REMARK  1 active torsions:
REMARK  status: ('A' for Active; 'I' for Inactive)
REMARK    1  A    between atoms: C3_4  and  O_7 
ROOT
ATOM      1  C   UNL d   1      -2.077  -1.692   0.290  0.00  0.00    -0.033 A 
ATOM      2  C1  UNL d   1      -3.396  -1.238   0.230  0.00  0.00     0.039 A 
ATOM      3  C2  UNL d   1      -4.442  -2.072   0.632  0.00  0.00    -0.080 A 
ATOM      4  C3  UNL d   1      -4.155  -3.354   1.092  0.00  0.00     0.150 A 
ATOM      5  C4  UNL d   1      -2.843  -3.810   1.159  0.00  0.00    -0.007 A 
ATOM      6  C5  UNL d   1      -1.800  -2.977   0.756  0.00  0.00     0.039 A 
ENDROOT
BRANCH   4   7
ATOM      7  O   UNL d   1      -5.143  -4.205   1.491  0.00  0.00    -0.526 OA
ATOM      8  H5  UNL d   1      -5.999  -3.764   1.363  0.00  0.00     0.418 HD
ENDBRANCH   4   7
TORSDOF 1
ENDMDL
