MODEL 1
REMARK minimizedAffinity 7.22891712
REMARK minimizedRMSD -1
REMARK  1 active torsions:
REMARK  status: ('A' for Active; 'I' for Inactive)
REMARK    1  A    between atoms: C3_4  and  O_7 
ROOT
ATOM      1  C   UNL d   1       2.402   3.380  -2.997  0.00  0.00    -0.033 A 
ATOM      2  C1  UNL d   1       3.317   4.149  -2.276  0.00  0.00     0.039 A 
ATOM      3  C2  UNL d   1       4.534   4.514  -2.855  0.00  0.00    -0.080 A 
ATOM      4  C3  UNL d   1       4.823   4.105  -4.154  0.00  0.00     0.150 A 
ATOM      5  C4  UNL d   1       3.914   3.342  -4.879  0.00  0.00    -0.007 A 
ATOM      6  C5  UNL d   1       2.700   2.977  -4.299  0.00  0.00     0.039 A 
ENDROOT
BRANCH   4   7
ATOM      7  O   UNL d   1       6.000   4.432  -4.759  0.00  0.00    -0.526 OA
ATOM      8  H5  UNL d   1       6.540   4.936  -4.129  0.00  0.00     0.418 HD
ENDBRANCH   4   7
TORSDOF 1
ENDMDL
