MODEL 1
REMARK minimizedAffinity 5.13825464
REMARK minimizedRMSD -1
REMARK  1 active torsions:
REMARK  status: ('A' for Active; 'I' for Inactive)
REMARK    1  A    between atoms: C1_2  and  C2_3 
ROOT
ATOM      1  C2  UNL d   1       0.932  -0.710  -1.184  0.00  0.00    -0.076 A 
ATOM      2  C3  UNL d   1       0.787   0.686  -1.114  0.00  0.00     0.004 A 
ATOM      3  C4  UNL d   1       0.936   1.480  -2.250  0.00  0.00    -0.003 A 
ATOM      4  C5  UNL d   1       1.232   0.890  -3.474  0.00  0.00     0.000 A 
ATOM      5  C6  UNL d   1       1.361  -0.495  -3.565  0.00  0.00     0.000 A 
ATOM      6  C7  UNL d   1       1.198  -1.311  -2.432  0.00  0.00    -0.073 A 
ATOM      7  C8  UNL d   1       1.355  -2.799  -2.586  0.00  0.00     0.078 C 
ENDROOT
BRANCH   1   8
ATOM      8  C1  UNL d   1       0.786  -1.517   0.087  0.00  0.00     0.053 C 
ATOM      9  C   UNL d   1      -0.663  -1.865   0.393  0.00  0.00     0.018 C 
ENDBRANCH   1   8
TORSDOF 1
ENDMDL
