MODEL 1
REMARK minimizedAffinity 0.576513112
REMARK minimizedRMSD -1
REMARK  1 active torsions:
REMARK  status: ('A' for Active; 'I' for Inactive)
REMARK    1  A    between atoms: C1_2  and  C2_3 
ROOT
ATOM      1  C2  UNL d   1      -3.758   3.599   4.447  0.00  0.00    -0.076 A 
ATOM      2  C3  UNL d   1      -4.140   3.956   5.752  0.00  0.00     0.004 A 
ATOM      3  C4  UNL d   1      -4.821   5.147   5.999  0.00  0.00    -0.003 A 
ATOM      4  C5  UNL d   1      -5.132   5.999   4.946  0.00  0.00     0.000 A 
ATOM      5  C6  UNL d   1      -4.777   5.653   3.643  0.00  0.00     0.000 A 
ATOM      6  C7  UNL d   1      -4.104   4.448   3.374  0.00  0.00    -0.073 A 
ATOM      7  C8  UNL d   1      -3.740   4.127   1.950  0.00  0.00     0.078 C 
ENDROOT
BRANCH   1   8
ATOM      8  C1  UNL d   1      -2.998   2.308   4.242  0.00  0.00     0.053 C 
ATOM      9  C   UNL d   1      -3.383   1.239   5.253  0.00  0.00     0.018 C 
ENDBRANCH   1   8
TORSDOF 1
ENDMDL
