MODEL 1
REMARK minimizedAffinity -3.26020932
REMARK minimizedRMSD -1
REMARK  1 active torsions:
REMARK  status: ('A' for Active; 'I' for Inactive)
REMARK    1  A    between atoms: C1_2  and  C2_3 
ROOT
ATOM      1  C2  UNL d   1      -3.646   0.754   3.983  0.00  0.00    -0.076 A 
ATOM      2  C3  UNL d   1      -2.380   0.265   4.348  0.00  0.00     0.004 A 
ATOM      3  C4  UNL d   1      -1.997  -1.039   4.039  0.00  0.00    -0.003 A 
ATOM      4  C5  UNL d   1      -2.875  -1.876   3.359  0.00  0.00     0.000 A 
ATOM      5  C6  UNL d   1      -4.129  -1.402   2.973  0.00  0.00     0.000 A 
ATOM      6  C7  UNL d   1      -4.523  -0.085   3.263  0.00  0.00    -0.073 A 
ATOM      7  C8  UNL d   1      -5.889   0.371   2.828  0.00  0.00     0.078 C 
ENDROOT
BRANCH   1   8
ATOM      8  C1  UNL d   1      -4.016   2.168   4.369  0.00  0.00     0.053 C 
ATOM      9  C   UNL d   1      -3.988   2.388   5.874  0.00  0.00     0.018 C 
ENDBRANCH   1   8
TORSDOF 1
ENDMDL
