MODEL 1
REMARK minimizedAffinity 0.402997404
REMARK minimizedRMSD -1
REMARK  1 active torsions:
REMARK  status: ('A' for Active; 'I' for Inactive)
REMARK    1  A    between atoms: C1_2  and  C2_3 
ROOT
ATOM      1  C2  UNL d   1       0.705  -1.565  -0.387  0.00  0.00    -0.076 A 
ATOM      2  C3  UNL d   1       1.994  -2.013  -0.049  0.00  0.00     0.004 A 
ATOM      3  C4  UNL d   1       2.179  -3.204   0.650  0.00  0.00    -0.003 A 
ATOM      4  C5  UNL d   1       1.079  -3.968   1.022  0.00  0.00     0.000 A 
ATOM      5  C6  UNL d   1      -0.206  -3.548   0.681  0.00  0.00     0.000 A 
ATOM      6  C7  UNL d   1      -0.410  -2.357  -0.038  0.00  0.00    -0.073 A 
ATOM      7  C8  UNL d   1      -1.818  -1.949  -0.375  0.00  0.00     0.078 C 
ENDROOT
BRANCH   1   8
ATOM      8  C1  UNL d   1       0.563  -0.251  -1.121  0.00  0.00     0.053 C 
ATOM      9  C   UNL d   1       0.267  -0.440  -2.601  0.00  0.00     0.018 C 
ENDBRANCH   1   8
TORSDOF 1
ENDMDL
