MODEL 1
REMARK minimizedAffinity 2.48140788
REMARK minimizedRMSD -1
REMARK  1 active torsions:
REMARK  status: ('A' for Active; 'I' for Inactive)
REMARK    1  A    between atoms: C1_2  and  C2_3 
ROOT
ATOM      1  C2  UNL d   1       0.842  -0.738  -1.295  0.00  0.00    -0.076 A 
ATOM      2  C3  UNL d   1       1.339  -1.906  -1.900  0.00  0.00     0.004 A 
ATOM      3  C4  UNL d   1       1.630  -1.941  -3.262  0.00  0.00    -0.003 A 
ATOM      4  C5  UNL d   1       1.431  -0.807  -4.042  0.00  0.00     0.000 A 
ATOM      5  C6  UNL d   1       0.956   0.366  -3.456  0.00  0.00     0.000 A 
ATOM      6  C7  UNL d   1       0.673   0.422  -2.080  0.00  0.00    -0.073 A 
ATOM      7  C8  UNL d   1       0.157   1.711  -1.502  0.00  0.00     0.078 C 
ENDROOT
BRANCH   1   8
ATOM      8  C1  UNL d   1       0.518  -0.768   0.182  0.00  0.00     0.053 C 
ATOM      9  C   UNL d   1      -0.657  -1.679   0.502  0.00  0.00     0.018 C 
ENDBRANCH   1   8
TORSDOF 1
ENDMDL
