MODEL 1
REMARK minimizedAffinity 11.2368708
REMARK minimizedRMSD -1
REMARK  1 active torsions:
REMARK  status: ('A' for Active; 'I' for Inactive)
REMARK    1  A    between atoms: C1_2  and  C2_3 
ROOT
ATOM      1  C2  UNL d   1       1.683   0.392  -3.116  0.00  0.00    -0.076 A 
ATOM      2  C3  UNL d   1       1.841  -0.810  -2.404  0.00  0.00     0.004 A 
ATOM      3  C4  UNL d   1       1.211  -1.005  -1.176  0.00  0.00    -0.003 A 
ATOM      4  C5  UNL d   1       0.410  -0.002  -0.641  0.00  0.00     0.000 A 
ATOM      5  C6  UNL d   1       0.227   1.190  -1.342  0.00  0.00     0.000 A 
ATOM      6  C7  UNL d   1       0.843   1.396  -2.588  0.00  0.00    -0.073 A 
ATOM      7  C8  UNL d   1       0.616   2.703  -3.298  0.00  0.00     0.078 C 
ENDROOT
BRANCH   1   8
ATOM      8  C1  UNL d   1       2.413   0.558  -4.429  0.00  0.00     0.053 C 
ATOM      9  C   UNL d   1       3.820   1.107  -4.248  0.00  0.00     0.018 C 
ENDBRANCH   1   8
TORSDOF 1
ENDMDL
