MODEL 1
REMARK minimizedAffinity 12.7031403
REMARK minimizedRMSD -1
REMARK  1 active torsions:
REMARK  status: ('A' for Active; 'I' for Inactive)
REMARK    1  A    between atoms: C1_2  and  C2_3 
ROOT
ATOM      1  C2  UNL d   1       0.868   0.706  -1.354  0.00  0.00    -0.076 A 
ATOM      2  C3  UNL d   1       0.544  -0.430  -0.591  0.00  0.00     0.004 A 
ATOM      3  C4  UNL d   1       0.457  -1.690  -1.181  0.00  0.00    -0.003 A 
ATOM      4  C5  UNL d   1       0.694  -1.835  -2.543  0.00  0.00     0.000 A 
ATOM      5  C6  UNL d   1       1.034  -0.722  -3.312  0.00  0.00     0.000 A 
ATOM      6  C7  UNL d   1       1.142   0.552  -2.730  0.00  0.00    -0.073 A 
ATOM      7  C8  UNL d   1       1.506   1.719  -3.608  0.00  0.00     0.078 C 
ENDROOT
BRANCH   1   8
ATOM      8  C1  UNL d   1       0.921   2.050  -0.665  0.00  0.00     0.053 C 
ATOM      9  C   UNL d   1       2.112   2.178   0.273  0.00  0.00     0.018 C 
ENDBRANCH   1   8
TORSDOF 1
ENDMDL
