MODEL 1
REMARK minimizedAffinity 1.20026278
REMARK minimizedRMSD -1
REMARK  1 active torsions:
REMARK  status: ('A' for Active; 'I' for Inactive)
REMARK    1  A    between atoms: C1_2  and  C2_3 
ROOT
ATOM      1  C2  UNL d   1       1.196   1.081  -3.438  0.00  0.00    -0.076 A 
ATOM      2  C3  UNL d   1       0.926   2.274  -2.744  0.00  0.00     0.004 A 
ATOM      3  C4  UNL d   1       0.587   2.257  -1.393  0.00  0.00    -0.003 A 
ATOM      4  C5  UNL d   1       0.513   1.047  -0.711  0.00  0.00     0.000 A 
ATOM      5  C6  UNL d   1       0.795  -0.144  -1.379  0.00  0.00     0.000 A 
ATOM      6  C7  UNL d   1       1.154  -0.144  -2.738  0.00  0.00    -0.073 A 
ATOM      7  C8  UNL d   1       1.442  -1.459  -3.409  0.00  0.00     0.078 C 
ENDROOT
BRANCH   1   8
ATOM      8  C1  UNL d   1       1.531   1.159  -4.910  0.00  0.00     0.053 C 
ATOM      9  C   UNL d   1       3.002   1.458  -5.157  0.00  0.00     0.018 C 
ENDBRANCH   1   8
TORSDOF 1
ENDMDL
