MODEL 1
REMARK minimizedAffinity 12.9900398
REMARK minimizedRMSD -1
REMARK  1 active torsions:
REMARK  status: ('A' for Active; 'I' for Inactive)
REMARK    1  A    between atoms: C1_2  and  C2_3 
ROOT
ATOM      1  C2  UNL d   1       1.823   0.386   0.067  0.00  0.00    -0.076 A 
ATOM      2  C3  UNL d   1       2.691   0.561   1.159  0.00  0.00     0.004 A 
ATOM      3  C4  UNL d   1       3.025   1.835   1.613  0.00  0.00    -0.003 A 
ATOM      4  C5  UNL d   1       2.496   2.956   0.984  0.00  0.00     0.000 A 
ATOM      5  C6  UNL d   1       1.619   2.801  -0.089  0.00  0.00     0.000 A 
ATOM      6  C7  UNL d   1       1.259   1.523  -0.550  0.00  0.00    -0.073 A 
ATOM      7  C8  UNL d   1       0.314   1.415  -1.715  0.00  0.00     0.078 C 
ENDROOT
BRANCH   1   8
ATOM      8  C1  UNL d   1       1.518  -1.020  -0.398  0.00  0.00     0.053 C 
ATOM      9  C   UNL d   1       0.798  -1.841   0.660  0.00  0.00     0.018 C 
ENDBRANCH   1   8
TORSDOF 1
ENDMDL
