MODEL 1
REMARK minimizedAffinity 14.8376398
REMARK minimizedRMSD -1
REMARK  1 active torsions:
REMARK  status: ('A' for Active; 'I' for Inactive)
REMARK    1  A    between atoms: C1_2  and  C2_3 
ROOT
ATOM      1  C2  UNL d   1       2.461  -5.920   3.463  0.00  0.00    -0.076 A 
ATOM      2  C3  UNL d   1       3.361  -5.973   2.384  0.00  0.00     0.004 A 
ATOM      3  C4  UNL d   1       4.738  -5.981   2.598  0.00  0.00    -0.003 A 
ATOM      4  C5  UNL d   1       5.238  -5.936   3.894  0.00  0.00     0.000 A 
ATOM      5  C6  UNL d   1       4.361  -5.901   4.977  0.00  0.00     0.000 A 
ATOM      6  C7  UNL d   1       2.969  -5.909   4.780  0.00  0.00    -0.073 A 
ATOM      7  C8  UNL d   1       2.069  -5.864   5.984  0.00  0.00     0.078 C 
ENDROOT
BRANCH   1   8
ATOM      8  C1  UNL d   1       0.979  -5.887   3.169  0.00  0.00     0.053 C 
ATOM      9  C   UNL d   1       0.679  -5.914   1.678  0.00  0.00     0.018 C 
ENDBRANCH   1   8
TORSDOF 1
ENDMDL
