MODEL 1
REMARK minimizedAffinity 0.280613989
REMARK minimizedRMSD -1
REMARK  1 active torsions:
REMARK  status: ('A' for Active; 'I' for Inactive)
REMARK    1  A    between atoms: C1_2  and  C2_3 
ROOT
ATOM      1  C2  UNL d   1       0.670  -0.890  -1.213  0.00  0.00    -0.076 A 
ATOM      2  C3  UNL d   1       0.572   0.473  -0.883  0.00  0.00     0.004 A 
ATOM      3  C4  UNL d   1       0.896   1.461  -1.812  0.00  0.00    -0.003 A 
ATOM      4  C5  UNL d   1       1.321   1.102  -3.086  0.00  0.00     0.000 A 
ATOM      5  C6  UNL d   1       1.406  -0.245  -3.437  0.00  0.00     0.000 A 
ATOM      6  C7  UNL d   1       1.068  -1.254  -2.518  0.00  0.00    -0.073 A 
ATOM      7  C8  UNL d   1       1.184  -2.690  -2.947  0.00  0.00     0.078 C 
ENDROOT
BRANCH   1   8
ATOM      8  C1  UNL d   1       0.332  -1.917  -0.156  0.00  0.00     0.053 C 
ATOM      9  C   UNL d   1      -0.677  -1.400   0.857  0.00  0.00     0.018 C 
ENDBRANCH   1   8
TORSDOF 1
ENDMDL
