MODEL 1
REMARK minimizedAffinity 3.39684439
REMARK minimizedRMSD -1
REMARK  1 active torsions:
REMARK  status: ('A' for Active; 'I' for Inactive)
REMARK    1  A    between atoms: C1_2  and  C2_3 
ROOT
ATOM      1  C2  UNL d   1       1.159  -0.286  -2.008  0.00  0.00    -0.076 A 
ATOM      2  C3  UNL d   1       1.157  -1.680  -1.823  0.00  0.00     0.004 A 
ATOM      3  C4  UNL d   1       1.202  -2.548  -2.912  0.00  0.00    -0.003 A 
ATOM      4  C5  UNL d   1       1.250  -2.037  -4.205  0.00  0.00     0.000 A 
ATOM      5  C6  UNL d   1       1.271  -0.657  -4.406  0.00  0.00     0.000 A 
ATOM      6  C7  UNL d   1       1.243   0.232  -3.318  0.00  0.00    -0.073 A 
ATOM      7  C8  UNL d   1       1.261   1.711  -3.594  0.00  0.00     0.078 C 
ENDROOT
BRANCH   1   8
ATOM      8  C1  UNL d   1       1.082   0.606  -0.790  0.00  0.00     0.053 C 
ATOM      9  C   UNL d   1       0.119   1.768  -0.979  0.00  0.00     0.018 C 
ENDBRANCH   1   8
TORSDOF 1
ENDMDL
