MODEL 1
REMARK minimizedAffinity 6.36599445
REMARK minimizedRMSD -1
REMARK  1 active torsions:
REMARK  status: ('A' for Active; 'I' for Inactive)
REMARK    1  A    between atoms: C1_2  and  C2_3 
ROOT
ATOM      1  C2  UNL d   1       1.217  -0.628  -2.772  0.00  0.00    -0.076 A 
ATOM      2  C3  UNL d   1       0.832  -1.723  -1.980  0.00  0.00     0.004 A 
ATOM      3  C4  UNL d   1       0.862  -3.021  -2.487  0.00  0.00    -0.003 A 
ATOM      4  C5  UNL d   1       1.279  -3.245  -3.795  0.00  0.00     0.000 A 
ATOM      5  C6  UNL d   1       1.680  -2.171  -4.589  0.00  0.00     0.000 A 
ATOM      6  C7  UNL d   1       1.671  -0.858  -4.088  0.00  0.00    -0.073 A 
ATOM      7  C8  UNL d   1       2.109   0.262  -4.991  0.00  0.00     0.078 C 
ENDROOT
BRANCH   1   8
ATOM      8  C1  UNL d   1       1.137   0.760  -2.176  0.00  0.00     0.053 C 
ATOM      9  C   UNL d   1       0.170   0.837  -1.005  0.00  0.00     0.018 C 
ENDBRANCH   1   8
TORSDOF 1
ENDMDL
