MODEL 1
REMARK minimizedAffinity 15.0437098
REMARK minimizedRMSD -1
REMARK  1 active torsions:
REMARK  status: ('A' for Active; 'I' for Inactive)
REMARK    1  A    between atoms: C1_2  and  C2_3 
ROOT
ATOM      1  C2  UNL d   1      -2.392  -2.102   1.525  0.00  0.00    -0.076 A 
ATOM      2  C3  UNL d   1      -1.805  -2.741   0.419  0.00  0.00     0.004 A 
ATOM      3  C4  UNL d   1      -0.700  -3.576   0.577  0.00  0.00    -0.003 A 
ATOM      4  C5  UNL d   1      -0.165  -3.786   1.843  0.00  0.00     0.000 A 
ATOM      5  C6  UNL d   1      -0.746  -3.174   2.953  0.00  0.00     0.000 A 
ATOM      6  C7  UNL d   1      -1.870  -2.342   2.814  0.00  0.00    -0.073 A 
ATOM      7  C8  UNL d   1      -2.451  -1.703   4.045  0.00  0.00     0.078 C 
ENDROOT
BRANCH   1   8
ATOM      8  C1  UNL d   1      -3.572  -1.185   1.290  0.00  0.00     0.053 C 
ATOM      9  C   UNL d   1      -4.901  -1.922   1.344  0.00  0.00     0.018 C 
ENDBRANCH   1   8
TORSDOF 1
ENDMDL
