MODEL 1
REMARK minimizedAffinity 10.2422199
REMARK minimizedRMSD -1
REMARK  1 active torsions:
REMARK  status: ('A' for Active; 'I' for Inactive)
REMARK    1  A    between atoms: C1_2  and  C2_3 
ROOT
ATOM      1  C2  UNL d   1      -1.569  -1.923   1.904  0.00  0.00    -0.076 A 
ATOM      2  C3  UNL d   1      -0.557  -2.813   2.302  0.00  0.00     0.004 A 
ATOM      3  C4  UNL d   1      -0.300  -3.976   1.578  0.00  0.00    -0.003 A 
ATOM      4  C5  UNL d   1      -1.051  -4.268   0.445  0.00  0.00     0.000 A 
ATOM      5  C6  UNL d   1      -2.048  -3.388   0.027  0.00  0.00     0.000 A 
ATOM      6  C7  UNL d   1      -2.309  -2.202   0.735  0.00  0.00    -0.073 A 
ATOM      7  C8  UNL d   1      -3.400  -1.292   0.242  0.00  0.00     0.078 C 
ENDROOT
BRANCH   1   8
ATOM      8  C1  UNL d   1      -1.821  -0.690   2.743  0.00  0.00     0.053 C 
ATOM      9  C   UNL d   1      -1.296  -0.835   4.164  0.00  0.00     0.018 C 
ENDBRANCH   1   8
TORSDOF 1
ENDMDL
