MODEL 1
REMARK minimizedAffinity 11.0057249
REMARK minimizedRMSD -1
REMARK  1 active torsions:
REMARK  status: ('A' for Active; 'I' for Inactive)
REMARK    1  A    between atoms: C1_2  and  C2_3 
ROOT
ATOM      1  C2  UNL d   1       4.805   2.123   3.630  0.00  0.00    -0.076 A 
ATOM      2  C3  UNL d   1       5.203   3.471   3.650  0.00  0.00     0.004 A 
ATOM      3  C4  UNL d   1       5.140   4.221   4.823  0.00  0.00    -0.003 A 
ATOM      4  C5  UNL d   1       4.678   3.635   5.996  0.00  0.00     0.000 A 
ATOM      5  C6  UNL d   1       4.296   2.294   5.999  0.00  0.00     0.000 A 
ATOM      6  C7  UNL d   1       4.368   1.519   4.829  0.00  0.00    -0.073 A 
ATOM      7  C8  UNL d   1       3.937   0.079   4.889  0.00  0.00     0.078 C 
ENDROOT
BRANCH   1   8
ATOM      8  C1  UNL d   1       4.870   1.367   2.322  0.00  0.00     0.053 C 
ATOM      9  C   UNL d   1       4.199   2.117   1.182  0.00  0.00     0.018 C 
ENDBRANCH   1   8
TORSDOF 1
ENDMDL
