MODEL 1
REMARK minimizedAffinity 4.43586922
REMARK minimizedRMSD -1
REMARK  1 active torsions:
REMARK  status: ('A' for Active; 'I' for Inactive)
REMARK    1  A    between atoms: C1_2  and  C2_3 
ROOT
ATOM      1  C2  UNL d   1      -1.342  -3.262  -0.284  0.00  0.00    -0.076 A 
ATOM      2  C3  UNL d   1      -1.128  -3.628  -1.624  0.00  0.00     0.004 A 
ATOM      3  C4  UNL d   1      -1.596  -2.832  -2.669  0.00  0.00    -0.003 A 
ATOM      4  C5  UNL d   1      -2.286  -1.657  -2.389  0.00  0.00     0.000 A 
ATOM      5  C6  UNL d   1      -2.492  -1.270  -1.065  0.00  0.00     0.000 A 
ATOM      6  C7  UNL d   1      -2.012  -2.053  -0.001  0.00  0.00    -0.073 A 
ATOM      7  C8  UNL d   1      -2.268  -1.591   1.407  0.00  0.00     0.078 C 
ENDROOT
BRANCH   1   8
ATOM      8  C1  UNL d   1      -0.835  -4.179   0.806  0.00  0.00     0.053 C 
ATOM      9  C   UNL d   1      -0.229  -3.416   1.974  0.00  0.00     0.018 C 
ENDBRANCH   1   8
TORSDOF 1
ENDMDL
