MODEL 1
REMARK minimizedAffinity 15.4076071
REMARK minimizedRMSD -1
REMARK  1 active torsions:
REMARK  status: ('A' for Active; 'I' for Inactive)
REMARK    1  A    between atoms: C1_2  and  C2_3 
ROOT
ATOM      1  C2  UNL d   1      -4.072   3.767  -4.629  0.00  0.00    -0.076 A 
ATOM      2  C3  UNL d   1      -5.046   3.424  -5.583  0.00  0.00     0.004 A 
ATOM      3  C4  UNL d   1      -6.000   4.351  -6.000  0.00  0.00    -0.003 A 
ATOM      4  C5  UNL d   1      -5.994   5.637  -5.470  0.00  0.00     0.000 A 
ATOM      5  C6  UNL d   1      -5.025   6.000  -4.536  0.00  0.00     0.000 A 
ATOM      6  C7  UNL d   1      -4.046   5.082  -4.117  0.00  0.00    -0.073 A 
ATOM      7  C8  UNL d   1      -3.028   5.526  -3.103  0.00  0.00     0.078 C 
ENDROOT
BRANCH   1   8
ATOM      8  C1  UNL d   1      -3.079   2.712  -4.195  0.00  0.00     0.053 C 
ATOM      9  C   UNL d   1      -3.747   1.537  -3.497  0.00  0.00     0.018 C 
ENDBRANCH   1   8
TORSDOF 1
ENDMDL
