MODEL 1
REMARK minimizedAffinity 5.6042819
REMARK minimizedRMSD -1
REMARK  1 active torsions:
REMARK  status: ('A' for Active; 'I' for Inactive)
REMARK    1  A    between atoms: C1_2  and  C2_3 
ROOT
ATOM      1  C2  UNL d   1      -1.512  -2.386   2.072  0.00  0.00    -0.076 A 
ATOM      2  C3  UNL d   1      -1.968  -1.121   1.661  0.00  0.00     0.004 A 
ATOM      3  C4  UNL d   1      -1.812  -0.695   0.343  0.00  0.00    -0.003 A 
ATOM      4  C5  UNL d   1      -1.199  -1.528  -0.586  0.00  0.00     0.000 A 
ATOM      5  C6  UNL d   1      -0.757  -2.793  -0.201  0.00  0.00     0.000 A 
ATOM      6  C7  UNL d   1      -0.920  -3.244   1.120  0.00  0.00    -0.073 A 
ATOM      7  C8  UNL d   1      -0.419  -4.615   1.482  0.00  0.00     0.078 C 
ENDROOT
BRANCH   1   8
ATOM      8  C1  UNL d   1      -1.683  -2.782   3.521  0.00  0.00     0.053 C 
ATOM      9  C   UNL d   1      -1.595  -1.593   4.465  0.00  0.00     0.018 C 
ENDBRANCH   1   8
TORSDOF 1
ENDMDL
