MODEL 1
REMARK minimizedAffinity 11.4378519
REMARK minimizedRMSD -1
REMARK  1 active torsions:
REMARK  status: ('A' for Active; 'I' for Inactive)
REMARK    1  A    between atoms: C1_2  and  C2_3 
ROOT
ATOM      1  C2  UNL d   1      -1.435  -0.269   1.897  0.00  0.00    -0.076 A 
ATOM      2  C3  UNL d   1      -1.299  -0.799   0.602  0.00  0.00     0.004 A 
ATOM      3  C4  UNL d   1      -1.021  -2.151   0.406  0.00  0.00    -0.003 A 
ATOM      4  C5  UNL d   1      -0.876  -2.995   1.501  0.00  0.00     0.000 A 
ATOM      5  C6  UNL d   1      -1.026  -2.490   2.792  0.00  0.00     0.000 A 
ATOM      6  C7  UNL d   1      -1.321  -1.133   3.007  0.00  0.00    -0.073 A 
ATOM      7  C8  UNL d   1      -1.466  -0.641   4.422  0.00  0.00     0.078 C 
ENDROOT
BRANCH   1   8
ATOM      8  C1  UNL d   1      -1.709   1.210   2.049  0.00  0.00     0.053 C 
ATOM      9  C   UNL d   1      -2.752   1.714   1.064  0.00  0.00     0.018 C 
ENDBRANCH   1   8
TORSDOF 1
ENDMDL
