MODEL 1
REMARK minimizedAffinity 3.98615098
REMARK minimizedRMSD -1
REMARK  1 active torsions:
REMARK  status: ('A' for Active; 'I' for Inactive)
REMARK    1  A    between atoms: C1_2  and  C2_3 
ROOT
ATOM      1  C2  UNL d   1      -2.002  -2.223  -0.301  0.00  0.00    -0.076 A 
ATOM      2  C3  UNL d   1      -0.942  -3.115  -0.063  0.00  0.00     0.004 A 
ATOM      3  C4  UNL d   1      -0.572  -3.459   1.236  0.00  0.00    -0.003 A 
ATOM      4  C5  UNL d   1      -1.257  -2.918   2.319  0.00  0.00     0.000 A 
ATOM      5  C6  UNL d   1      -2.322  -2.045   2.101  0.00  0.00     0.000 A 
ATOM      6  C7  UNL d   1      -2.719  -1.700   0.797  0.00  0.00    -0.073 A 
ATOM      7  C8  UNL d   1      -3.871  -0.750   0.620  0.00  0.00     0.078 C 
ENDROOT
BRANCH   1   8
ATOM      8  C1  UNL d   1      -2.340  -1.865  -1.730  0.00  0.00     0.053 C 
ATOM      9  C   UNL d   1      -1.753  -2.848  -2.731  0.00  0.00     0.018 C 
ENDBRANCH   1   8
TORSDOF 1
ENDMDL
