MODEL 1
REMARK minimizedAffinity 11.8988667
REMARK minimizedRMSD -1
REMARK  1 active torsions:
REMARK  status: ('A' for Active; 'I' for Inactive)
REMARK    1  A    between atoms: C1_2  and  C2_3 
ROOT
ATOM      1  C2  UNL d   1      -1.195  -1.440   2.921  0.00  0.00    -0.076 A 
ATOM      2  C3  UNL d   1      -1.146  -0.855   1.644  0.00  0.00     0.004 A 
ATOM      3  C4  UNL d   1      -0.933  -1.633   0.507  0.00  0.00    -0.003 A 
ATOM      4  C5  UNL d   1      -0.767  -3.008   0.629  0.00  0.00     0.000 A 
ATOM      5  C6  UNL d   1      -0.830  -3.607   1.886  0.00  0.00     0.000 A 
ATOM      6  C7  UNL d   1      -1.060  -2.840   3.041  0.00  0.00    -0.073 A 
ATOM      7  C8  UNL d   1      -1.113  -3.537   4.373  0.00  0.00     0.078 C 
ENDROOT
BRANCH   1   8
ATOM      8  C1  UNL d   1      -1.402  -0.543   4.121  0.00  0.00     0.053 C 
ATOM      9  C   UNL d   1      -1.520   0.924   3.738  0.00  0.00     0.018 C 
ENDBRANCH   1   8
TORSDOF 1
ENDMDL
