MODEL 1
REMARK minimizedAffinity 5.09876823
REMARK minimizedRMSD -1
REMARK  1 active torsions:
REMARK  status: ('A' for Active; 'I' for Inactive)
REMARK    1  A    between atoms: C1_2  and  C2_3 
ROOT
ATOM      1  C2  UNL d   1      -0.706  -3.513   1.663  0.00  0.00    -0.076 A 
ATOM      2  C3  UNL d   1      -1.002  -3.863   0.334  0.00  0.00     0.004 A 
ATOM      3  C4  UNL d   1      -1.747  -3.014  -0.483  0.00  0.00    -0.003 A 
ATOM      4  C5  UNL d   1      -2.208  -1.800   0.016  0.00  0.00     0.000 A 
ATOM      5  C6  UNL d   1      -1.908  -1.429   1.326  0.00  0.00     0.000 A 
ATOM      6  C7  UNL d   1      -1.145  -2.266   2.158  0.00  0.00    -0.073 A 
ATOM      7  C8  UNL d   1      -0.857  -1.818   3.565  0.00  0.00     0.078 C 
ENDROOT
BRANCH   1   8
ATOM      8  C1  UNL d   1       0.082  -4.486   2.510  0.00  0.00     0.053 C 
ATOM      9  C   UNL d   1      -0.674  -5.780   2.768  0.00  0.00     0.018 C 
ENDBRANCH   1   8
TORSDOF 1
ENDMDL
