MODEL 1
REMARK minimizedAffinity 3.13892412
REMARK minimizedRMSD -1
REMARK  1 active torsions:
REMARK  status: ('A' for Active; 'I' for Inactive)
REMARK    1  A    between atoms: C1_2  and  C2_3 
ROOT
ATOM      1  C2  UNL d   1      -3.740  -0.137   5.961  0.00  0.00    -0.076 A 
ATOM      2  C3  UNL d   1      -3.072   1.100   5.975  0.00  0.00     0.004 A 
ATOM      3  C4  UNL d   1      -3.783   2.299   5.993  0.00  0.00    -0.003 A 
ATOM      4  C5  UNL d   1      -5.173   2.280   5.997  0.00  0.00     0.000 A 
ATOM      5  C6  UNL d   1      -5.852   1.062   6.000  0.00  0.00     0.000 A 
ATOM      6  C7  UNL d   1      -5.151  -0.155   5.999  0.00  0.00    -0.073 A 
ATOM      7  C8  UNL d   1      -5.934  -1.440   5.996  0.00  0.00     0.078 C 
ENDROOT
BRANCH   1   8
ATOM      8  C1  UNL d   1      -2.916  -1.404   5.914  0.00  0.00     0.053 C 
ATOM      9  C   UNL d   1      -2.210  -1.592   4.580  0.00  0.00     0.018 C 
ENDBRANCH   1   8
TORSDOF 1
ENDMDL
