MODEL 1
REMARK minimizedAffinity 4.63703489
REMARK minimizedRMSD -1
REMARK  0 active torsions:
REMARK  status: ('A' for Active; 'I' for Inactive)
ROOT
ATOM      1  C4' PXY d   1      -3.679   4.077   4.024  0.00  0.00     0.077 C 
ATOM      2  C1' PXY d   1       1.567   5.998   5.509  0.00  0.00     0.077 C 
ATOM      3  C1  PXY d   1       0.188   5.493   5.132  0.00  0.00    -0.082 A 
ATOM      4  C2  PXY d   1       0.002   4.914   3.957  0.00  0.00     0.003 A 
ATOM      5  C3  PXY d   1      -1.245   4.481   3.587  0.00  0.00     0.003 A 
ATOM      6  C4  PXY d   1      -2.302   4.593   4.451  0.00  0.00    -0.082 A 
ATOM      7  C5  PXY d   1      -2.118   5.173   5.656  0.00  0.00     0.003 A 
ATOM      8  C6  PXY d   1      -0.853   5.644   5.995  0.00  0.00     0.003 A 
ENDROOT
TORSDOF 0
ENDMDL
