MODEL 1
REMARK minimizedAffinity -3.25528741
REMARK minimizedRMSD -1
REMARK  0 active torsions:
REMARK  status: ('A' for Active; 'I' for Inactive)
ROOT
ATOM      1  C4' PXY d   1       0.110   5.994   4.509  0.00  0.00     0.077 C 
ATOM      2  C1' PXY d   1       5.324   3.823   5.739  0.00  0.00     0.077 C 
ATOM      3  C1  PXY d   1       3.957   4.386   5.405  0.00  0.00    -0.082 A 
ATOM      4  C2  PXY d   1       3.542   5.493   6.000  0.00  0.00     0.003 A 
ATOM      5  C3  PXY d   1       2.296   5.999   5.733  0.00  0.00     0.003 A 
ATOM      6  C4  PXY d   1       1.486   5.395   4.809  0.00  0.00    -0.082 A 
ATOM      7  C5  PXY d   1       1.906   4.271   4.190  0.00  0.00     0.003 A 
ATOM      8  C6  PXY d   1       3.158   3.751   4.505  0.00  0.00     0.003 A 
ENDROOT
TORSDOF 0
ENDMDL
