MODEL 1
REMARK minimizedAffinity -2.00092292
REMARK minimizedRMSD -1
REMARK  0 active torsions:
REMARK  status: ('A' for Active; 'I' for Inactive)
ROOT
ATOM      1  C4' PXY d   1      -1.521   5.684   3.955  0.00  0.00     0.077 C 
ATOM      2  C1' PXY d   1       4.028   5.615   5.576  0.00  0.00     0.077 C 
ATOM      3  C1  PXY d   1       2.576   5.634   5.139  0.00  0.00    -0.082 A 
ATOM      4  C2  PXY d   1       1.639   6.000   5.998  0.00  0.00     0.003 A 
ATOM      5  C3  PXY d   1       0.318   5.993   5.628  0.00  0.00     0.003 A 
ATOM      6  C4  PXY d   1      -0.041   5.659   4.350  0.00  0.00    -0.082 A 
ATOM      7  C5  PXY d   1       0.910   5.295   3.465  0.00  0.00     0.003 A 
ATOM      8  C6  PXY d   1       2.241   5.269   3.872  0.00  0.00     0.003 A 
ENDROOT
TORSDOF 0
ENDMDL
