MODEL 1
REMARK minimizedAffinity -1.57126439
REMARK minimizedRMSD -1
REMARK  0 active torsions:
REMARK  status: ('A' for Active; 'I' for Inactive)
ROOT
ATOM      1  C4' PXY d   1      -2.941   5.562   4.882  0.00  0.00     0.077 C 
ATOM      2  C1' PXY d   1       2.830   5.905   4.867  0.00  0.00     0.077 C 
ATOM      3  C1  PXY d   1       1.316   5.818   4.858  0.00  0.00    -0.082 A 
ATOM      4  C2  PXY d   1       0.644   5.998   5.984  0.00  0.00     0.003 A 
ATOM      5  C3  PXY d   1      -0.723   5.891   6.000  0.00  0.00     0.003 A 
ATOM      6  C4  PXY d   1      -1.413   5.650   4.842  0.00  0.00    -0.082 A 
ATOM      7  C5  PXY d   1      -0.735   5.476   3.688  0.00  0.00     0.003 A 
ATOM      8  C6  PXY d   1       0.655   5.548   3.700  0.00  0.00     0.003 A 
ENDROOT
TORSDOF 0
ENDMDL
