MODEL 1
REMARK minimizedAffinity 4.24533558
REMARK minimizedRMSD -1
REMARK  0 active torsions:
REMARK  status: ('A' for Active; 'I' for Inactive)
ROOT
ATOM      1  C4' PXY d   1      -1.807   5.706   4.889  0.00  0.00     0.077 C 
ATOM      2  C1' PXY d   1       3.974   5.724   4.865  0.00  0.00     0.077 C 
ATOM      3  C1  PXY d   1       2.458   5.721   4.859  0.00  0.00    -0.082 A 
ATOM      4  C2  PXY d   1       1.798   5.992   5.973  0.00  0.00     0.003 A 
ATOM      5  C3  PXY d   1       0.427   5.963   5.993  0.00  0.00     0.003 A 
ATOM      6  C4  PXY d   1      -0.276   5.706   4.847  0.00  0.00    -0.082 A 
ATOM      7  C5  PXY d   1       0.389   5.440   3.703  0.00  0.00     0.003 A 
ATOM      8  C6  PXY d   1       1.781   5.434   3.714  0.00  0.00     0.003 A 
ENDROOT
TORSDOF 0
ENDMDL
