MODEL 1
REMARK minimizedAffinity 9.44547558
REMARK minimizedRMSD -1
REMARK  0 active torsions:
REMARK  status: ('A' for Active; 'I' for Inactive)
ROOT
ATOM      1  C4' PXY d   1       4.408  -6.000  -1.888  0.00  0.00     0.077 C 
ATOM      2  C1' PXY d   1       5.710  -3.483   3.151  0.00  0.00     0.077 C 
ATOM      3  C1  PXY d   1       5.369  -4.155   1.835  0.00  0.00    -0.082 A 
ATOM      4  C2  PXY d   1       5.648  -3.542   0.696  0.00  0.00     0.003 A 
ATOM      5  C3  PXY d   1       5.317  -4.121  -0.502  0.00  0.00     0.003 A 
ATOM      6  C4  PXY d   1       4.743  -5.363  -0.536  0.00  0.00    -0.082 A 
ATOM      7  C5  PXY d   1       4.465  -6.000   0.622  0.00  0.00     0.003 A 
ATOM      8  C6  PXY d   1       4.771  -5.377   1.828  0.00  0.00     0.003 A 
ENDROOT
TORSDOF 0
ENDMDL
