MODEL 1
REMARK minimizedAffinity -2.08175659
REMARK minimizedRMSD -1
REMARK  0 active torsions:
REMARK  status: ('A' for Active; 'I' for Inactive)
ROOT
ATOM      1  C4' PXY d   1       3.086   5.972   4.842  0.00  0.00     0.077 C 
ATOM      2  C1' PXY d   1      -2.687   5.687   4.886  0.00  0.00     0.077 C 
ATOM      3  C1  PXY d   1      -1.173   5.756   4.863  0.00  0.00    -0.082 A 
ATOM      4  C2  PXY d   1      -0.506   5.867   6.000  0.00  0.00     0.003 A 
ATOM      5  C3  PXY d   1       0.862   5.962   5.995  0.00  0.00     0.003 A 
ATOM      6  C4  PXY d   1       1.557   5.890   4.818  0.00  0.00    -0.082 A 
ATOM      7  C5  PXY d   1       0.884   5.766   3.654  0.00  0.00     0.003 A 
ATOM      8  C6  PXY d   1      -0.506   5.712   3.678  0.00  0.00     0.003 A 
ENDROOT
TORSDOF 0
ENDMDL
