MODEL 1
REMARK minimizedAffinity 5.77728748
REMARK minimizedRMSD -1
REMARK  0 active torsions:
REMARK  status: ('A' for Active; 'I' for Inactive)
ROOT
ATOM      1  C2' OXE d   1      -6.000  -0.829   2.380  0.00  0.00     0.078 C 
ATOM      2  C1' OXE d   1      -5.845   1.948   1.999  0.00  0.00     0.078 C 
ATOM      3  C1  OXE d   1      -5.877   1.432   3.417  0.00  0.00    -0.078 A 
ATOM      4  C2  OXE d   1      -6.000   0.075   3.593  0.00  0.00    -0.078 A 
ATOM      5  C3  OXE d   1      -5.979  -0.457   4.879  0.00  0.00     0.003 A 
ATOM      6  C4  OXE d   1      -5.989   0.387   5.996  0.00  0.00    -0.002 A 
ATOM      7  C5  OXE d   1      -5.904   1.775   5.838  0.00  0.00    -0.002 A 
ATOM      8  C6  OXE d   1      -5.804   2.310   4.559  0.00  0.00     0.003 A 
ENDROOT
TORSDOF 0
ENDMDL
