MODEL 1
REMARK minimizedAffinity 6.88875008
REMARK minimizedRMSD -1
REMARK  0 active torsions:
REMARK  status: ('A' for Active; 'I' for Inactive)
ROOT
ATOM      1  C2' OXE d   1      -1.452   0.449   0.155  0.00  0.00     0.078 C 
ATOM      2  C1' OXE d   1      -3.133  -1.453  -1.045  0.00  0.00     0.078 C 
ATOM      3  C1  OXE d   1      -2.721  -0.258  -1.869  0.00  0.00    -0.078 A 
ATOM      4  C2  OXE d   1      -1.937   0.691  -1.258  0.00  0.00    -0.078 A 
ATOM      5  C3  OXE d   1      -1.484   1.785  -1.990  0.00  0.00     0.003 A 
ATOM      6  C4  OXE d   1      -1.945   2.007  -3.293  0.00  0.00    -0.002 A 
ATOM      7  C5  OXE d   1      -2.776   1.073  -3.920  0.00  0.00    -0.002 A 
ATOM      8  C6  OXE d   1      -3.138  -0.084  -3.238  0.00  0.00     0.003 A 
ENDROOT
TORSDOF 0
ENDMDL
