MODEL 1
REMARK minimizedAffinity 5.89577484
REMARK minimizedRMSD -1
REMARK  0 active torsions:
REMARK  status: ('A' for Active; 'I' for Inactive)
ROOT
ATOM      1  C2' OXE d   1      -4.026  -1.697  -0.606  0.00  0.00     0.078 C 
ATOM      2  C1' OXE d   1      -5.772  -0.144   0.950  0.00  0.00     0.078 C 
ATOM      3  C1  OXE d   1      -4.362   0.358   0.761  0.00  0.00    -0.078 A 
ATOM      4  C2  OXE d   1      -3.502  -0.432   0.037  0.00  0.00    -0.078 A 
ATOM      5  C3  OXE d   1      -2.206   0.011  -0.214  0.00  0.00     0.003 A 
ATOM      6  C4  OXE d   1      -1.726   1.178   0.393  0.00  0.00    -0.002 A 
ATOM      7  C5  OXE d   1      -2.575   1.977   1.166  0.00  0.00    -0.002 A 
ATOM      8  C6  OXE d   1      -3.905   1.604   1.325  0.00  0.00     0.003 A 
ENDROOT
TORSDOF 0
ENDMDL
