MODEL 1
REMARK minimizedAffinity 6.64639425
REMARK minimizedRMSD -1
REMARK  0 active torsions:
REMARK  status: ('A' for Active; 'I' for Inactive)
ROOT
ATOM      1  C2' OXE d   1       1.735   1.948  -1.757  0.00  0.00     0.078 C 
ATOM      2  C1' OXE d   1       2.555  -0.507  -2.844  0.00  0.00     0.078 C 
ATOM      3  C1  OXE d   1       1.101  -0.128  -2.980  0.00  0.00    -0.078 A 
ATOM      4  C2  OXE d   1       0.699   1.053  -2.404  0.00  0.00    -0.078 A 
ATOM      5  C3  OXE d   1      -0.619   1.476  -2.546  0.00  0.00     0.003 A 
ATOM      6  C4  OXE d   1      -1.573   0.638  -3.137  0.00  0.00    -0.002 A 
ATOM      7  C5  OXE d   1      -1.192  -0.587  -3.695  0.00  0.00    -0.002 A 
ATOM      8  C6  OXE d   1       0.146  -0.965  -3.662  0.00  0.00     0.003 A 
ENDROOT
TORSDOF 0
ENDMDL
