MODEL 1
REMARK minimizedAffinity -0.0403095372
REMARK minimizedRMSD -1
REMARK  0 active torsions:
REMARK  status: ('A' for Active; 'I' for Inactive)
ROOT
ATOM      1  C2' OXE d   1       2.718  -2.171  -2.057  0.00  0.00     0.078 C 
ATOM      2  C1' OXE d   1       4.174  -1.042  -4.175  0.00  0.00     0.078 C 
ATOM      3  C1  OXE d   1       3.157  -0.173  -3.478  0.00  0.00    -0.078 A 
ATOM      4  C2  OXE d   1       2.416  -0.748  -2.473  0.00  0.00    -0.078 A 
ATOM      5  C3  OXE d   1       1.504   0.025  -1.761  0.00  0.00     0.003 A 
ATOM      6  C4  OXE d   1       1.223   1.337  -2.159  0.00  0.00    -0.002 A 
ATOM      7  C5  OXE d   1       1.938   1.930  -3.206  0.00  0.00    -0.002 A 
ATOM      8  C6  OXE d   1       2.936   1.204  -3.846  0.00  0.00     0.003 A 
ENDROOT
TORSDOF 0
ENDMDL
