MODEL 1
REMARK minimizedAffinity 13.9318542
REMARK minimizedRMSD -1
REMARK  0 active torsions:
REMARK  status: ('A' for Active; 'I' for Inactive)
ROOT
ATOM      1  C2' OXE d   1       1.925  -5.977  -0.439  0.00  0.00     0.078 C 
ATOM      2  C1' OXE d   1       2.381  -5.902   2.330  0.00  0.00     0.078 C 
ATOM      3  C1  OXE d   1       0.951  -5.921   1.853  0.00  0.00    -0.078 A 
ATOM      4  C2  OXE d   1       0.737  -5.910   0.496  0.00  0.00    -0.078 A 
ATOM      5  C3  OXE d   1      -0.563  -5.982   0.002  0.00  0.00     0.003 A 
ATOM      6  C4  OXE d   1      -1.657  -5.909   0.873  0.00  0.00    -0.002 A 
ATOM      7  C5  OXE d   1      -1.461  -5.880   2.258  0.00  0.00    -0.002 A 
ATOM      8  C6  OXE d   1      -0.167  -5.928   2.764  0.00  0.00     0.003 A 
ENDROOT
TORSDOF 0
ENDMDL
