MODEL 1
REMARK minimizedAffinity 4.58465958
REMARK minimizedRMSD -1
REMARK  0 active torsions:
REMARK  status: ('A' for Active; 'I' for Inactive)
ROOT
ATOM      1  C2' OXE d   1       0.261   2.282  -2.328  0.00  0.00     0.078 C 
ATOM      2  C1' OXE d   1      -1.776   0.794  -1.097  0.00  0.00     0.078 C 
ATOM      3  C1  OXE d   1      -1.810   0.924  -2.599  0.00  0.00    -0.078 A 
ATOM      4  C2  OXE d   1      -0.835   1.693  -3.189  0.00  0.00    -0.078 A 
ATOM      5  C3  OXE d   1      -0.788   1.801  -4.576  0.00  0.00     0.003 A 
ATOM      6  C4  OXE d   1      -1.811   1.261  -5.364  0.00  0.00    -0.002 A 
ATOM      7  C5  OXE d   1      -2.835   0.508  -4.780  0.00  0.00    -0.002 A 
ATOM      8  C6  OXE d   1      -2.826   0.295  -3.406  0.00  0.00     0.003 A 
ENDROOT
TORSDOF 0
ENDMDL
