MODEL 1
REMARK minimizedAffinity 16.9488678
REMARK minimizedRMSD -1
REMARK  0 active torsions:
REMARK  status: ('A' for Active; 'I' for Inactive)
ROOT
ATOM      1  C2' OXE d   1      -2.991  -1.185  -1.816  0.00  0.00     0.078 C 
ATOM      2  C1' OXE d   1      -1.531   1.013  -0.860  0.00  0.00     0.078 C 
ATOM      3  C1  OXE d   1      -2.094   1.097  -2.256  0.00  0.00    -0.078 A 
ATOM      4  C2  OXE d   1      -2.767  -0.002  -2.733  0.00  0.00    -0.078 A 
ATOM      5  C3  OXE d   1      -3.354   0.042  -3.995  0.00  0.00     0.003 A 
ATOM      6  C4  OXE d   1      -3.133   1.136  -4.841  0.00  0.00    -0.002 A 
ATOM      7  C5  OXE d   1      -2.417   2.250  -4.389  0.00  0.00    -0.002 A 
ATOM      8  C6  OXE d   1      -1.928   2.263  -3.087  0.00  0.00     0.003 A 
ENDROOT
TORSDOF 0
ENDMDL
