MODEL 1
REMARK minimizedAffinity 10.8270607
REMARK minimizedRMSD -1
REMARK  0 active torsions:
REMARK  status: ('A' for Active; 'I' for Inactive)
ROOT
ATOM      1  C2' OXE d   1       1.130  -6.000   2.942  0.00  0.00     0.078 C 
ATOM      2  C1' OXE d   1       1.495  -3.292   2.295  0.00  0.00     0.078 C 
ATOM      3  C1  OXE d   1       0.272  -3.987   1.751  0.00  0.00    -0.078 A 
ATOM      4  C2  OXE d   1       0.125  -5.324   2.033  0.00  0.00    -0.078 A 
ATOM      5  C3  OXE d   1      -1.013  -5.999   1.601  0.00  0.00     0.003 A 
ATOM      6  C4  OXE d   1      -1.931  -5.369   0.753  0.00  0.00    -0.002 A 
ATOM      7  C5  OXE d   1      -1.780  -4.019   0.420  0.00  0.00    -0.002 A 
ATOM      8  C6  OXE d   1      -0.709  -3.304   0.944  0.00  0.00     0.003 A 
ENDROOT
TORSDOF 0
ENDMDL
