MODEL 1
REMARK minimizedAffinity 5.22071362
REMARK minimizedRMSD -1
REMARK  0 active torsions:
REMARK  status: ('A' for Active; 'I' for Inactive)
ROOT
ATOM      1  C2' OXE d   1      -3.486   0.867  -4.853  0.00  0.00     0.078 C 
ATOM      2  C1' OXE d   1      -1.555  -1.140  -4.502  0.00  0.00     0.078 C 
ATOM      3  C1  OXE d   1      -1.311   0.194  -3.841  0.00  0.00    -0.078 A 
ATOM      4  C2  OXE d   1      -2.238   1.185  -4.057  0.00  0.00    -0.078 A 
ATOM      5  C3  OXE d   1      -2.090   2.417  -3.426  0.00  0.00     0.003 A 
ATOM      6  C4  OXE d   1      -0.928   2.706  -2.700  0.00  0.00    -0.002 A 
ATOM      7  C5  OXE d   1       0.048   1.724  -2.501  0.00  0.00    -0.002 A 
ATOM      8  C6  OXE d   1      -0.148   0.452  -3.028  0.00  0.00     0.003 A 
ENDROOT
TORSDOF 0
ENDMDL
