MODEL 1
REMARK minimizedAffinity -3.16705585
REMARK minimizedRMSD -1
REMARK  0 active torsions:
REMARK  status: ('A' for Active; 'I' for Inactive)
ROOT
ATOM      1  C2' OXE d   1       3.651   0.790  -3.906  0.00  0.00     0.078 C 
ATOM      2  C1' OXE d   1       1.925  -1.415  -3.720  0.00  0.00     0.078 C 
ATOM      3  C1  OXE d   1       1.340  -0.044  -3.495  0.00  0.00    -0.078 A 
ATOM      4  C2  OXE d   1       2.201   1.026  -3.542  0.00  0.00    -0.078 A 
ATOM      5  C3  OXE d   1       1.704   2.318  -3.395  0.00  0.00     0.003 A 
ATOM      6  C4  OXE d   1       0.364   2.527  -3.049  0.00  0.00    -0.002 A 
ATOM      7  C5  OXE d   1      -0.522   1.448  -2.956  0.00  0.00    -0.002 A 
ATOM      8  C6  OXE d   1      -0.060   0.163  -3.218  0.00  0.00     0.003 A 
ENDROOT
TORSDOF 0
ENDMDL
