MODEL 1
REMARK minimizedAffinity -2.42895341
REMARK minimizedRMSD -1
REMARK  0 active torsions:
REMARK  status: ('A' for Active; 'I' for Inactive)
ROOT
ATOM      1  C2' OXE d   1      -1.344  -0.369  -4.557  0.00  0.00     0.078 C 
ATOM      2  C1' OXE d   1      -1.014   2.221  -3.526  0.00  0.00     0.078 C 
ATOM      3  C1  OXE d   1       0.103   1.231  -3.312  0.00  0.00    -0.078 A 
ATOM      4  C2  OXE d   1      -0.087  -0.048  -3.779  0.00  0.00    -0.078 A 
ATOM      5  C3  OXE d   1       0.935  -0.985  -3.656  0.00  0.00     0.003 A 
ATOM      6  C4  OXE d   1       2.091  -0.682  -2.926  0.00  0.00    -0.002 A 
ATOM      7  C5  OXE d   1       2.287   0.602  -2.407  0.00  0.00    -0.002 A 
ATOM      8  C6  OXE d   1       1.323   1.580  -2.627  0.00  0.00     0.003 A 
ENDROOT
TORSDOF 0
ENDMDL
