MODEL 1
REMARK minimizedAffinity -0.382725179
REMARK minimizedRMSD -1
REMARK  0 active torsions:
REMARK  status: ('A' for Active; 'I' for Inactive)
ROOT
ATOM      1  C2' OXE d   1       1.865  -0.178  -3.365  0.00  0.00     0.078 C 
ATOM      2  C1' OXE d   1       1.322   2.444  -2.522  0.00  0.00     0.078 C 
ATOM      3  C1  OXE d   1       0.173   1.623  -3.052  0.00  0.00    -0.078 A 
ATOM      4  C2  OXE d   1       0.456   0.357  -3.505  0.00  0.00    -0.078 A 
ATOM      5  C3  OXE d   1      -0.576  -0.462  -3.953  0.00  0.00     0.003 A 
ATOM      6  C4  OXE d   1      -1.874   0.044  -4.090  0.00  0.00    -0.002 A 
ATOM      7  C5  OXE d   1      -2.177   1.344  -3.671  0.00  0.00    -0.002 A 
ATOM      8  C6  OXE d   1      -1.176   2.130  -3.112  0.00  0.00     0.003 A 
ENDROOT
TORSDOF 0
ENDMDL
