MODEL 1
REMARK minimizedAffinity 10.9504709
REMARK minimizedRMSD -1
REMARK  0 active torsions:
REMARK  status: ('A' for Active; 'I' for Inactive)
ROOT
ATOM      1  C2' OXE d   1      -1.549  -1.100  -3.450  0.00  0.00     0.078 C 
ATOM      2  C1' OXE d   1      -3.033   0.522  -5.196  0.00  0.00     0.078 C 
ATOM      3  C1  OXE d   1      -1.999   1.189  -4.323  0.00  0.00    -0.078 A 
ATOM      4  C2  OXE d   1      -1.310   0.394  -3.439  0.00  0.00    -0.078 A 
ATOM      5  C3  OXE d   1      -0.307   0.950  -2.650  0.00  0.00     0.003 A 
ATOM      6  C4  OXE d   1      -0.100   2.334  -2.638  0.00  0.00    -0.002 A 
ATOM      7  C5  OXE d   1      -0.818   3.167  -3.502  0.00  0.00    -0.002 A 
ATOM      8  C6  OXE d   1      -1.740   2.606  -4.380  0.00  0.00     0.003 A 
ENDROOT
TORSDOF 0
ENDMDL
