MODEL 1
REMARK minimizedAffinity 8.05429745
REMARK minimizedRMSD -1
REMARK  0 active torsions:
REMARK  status: ('A' for Active; 'I' for Inactive)
ROOT
ATOM      1  C2' OXE d   1       4.601   1.256  -3.980  0.00  0.00     0.078 C 
ATOM      2  C1' OXE d   1       3.081   1.202  -1.620  0.00  0.00     0.078 C 
ATOM      3  C1  OXE d   1       2.710   2.217  -2.673  0.00  0.00    -0.078 A 
ATOM      4  C2  OXE d   1       3.488   2.267  -3.804  0.00  0.00    -0.078 A 
ATOM      5  C3  OXE d   1       3.157   3.147  -4.830  0.00  0.00     0.003 A 
ATOM      6  C4  OXE d   1       2.133   4.086  -4.656  0.00  0.00    -0.002 A 
ATOM      7  C5  OXE d   1       1.353   4.078  -3.494  0.00  0.00    -0.002 A 
ATOM      8  C6  OXE d   1       1.601   3.124  -2.513  0.00  0.00     0.003 A 
ENDROOT
TORSDOF 0
ENDMDL
