MODEL 1
REMARK minimizedAffinity 3.72646403
REMARK minimizedRMSD -1
REMARK  0 active torsions:
REMARK  status: ('A' for Active; 'I' for Inactive)
ROOT
ATOM      1  C2' OXE d   1      -3.734  -0.562   5.993  0.00  0.00     0.078 C 
ATOM      2  C1' OXE d   1      -5.909   0.799   4.853  0.00  0.00     0.078 C 
ATOM      3  C1  OXE d   1      -4.730   0.489   3.965  0.00  0.00    -0.078 A 
ATOM      4  C2  OXE d   1      -3.651  -0.136   4.543  0.00  0.00    -0.078 A 
ATOM      5  C3  OXE d   1      -2.559  -0.494   3.756  0.00  0.00     0.003 A 
ATOM      6  C4  OXE d   1      -2.486  -0.087   2.419  0.00  0.00    -0.002 A 
ATOM      7  C5  OXE d   1      -3.557   0.585   1.821  0.00  0.00    -0.002 A 
ATOM      8  C6  OXE d   1      -4.702   0.843   2.568  0.00  0.00     0.003 A 
ENDROOT
TORSDOF 0
ENDMDL
