MODEL 1
REMARK minimizedAffinity -0.953666985
REMARK minimizedRMSD -1
REMARK  0 active torsions:
REMARK  status: ('A' for Active; 'I' for Inactive)
ROOT
ATOM      1  C2' OXE d   1      -1.561  -0.415  -4.252  0.00  0.00     0.078 C 
ATOM      2  C1' OXE d   1      -1.405   2.326  -3.669  0.00  0.00     0.078 C 
ATOM      3  C1  OXE d   1      -0.229   1.459  -3.293  0.00  0.00    -0.078 A 
ATOM      4  C2  OXE d   1      -0.333   0.112  -3.540  0.00  0.00    -0.078 A 
ATOM      5  C3  OXE d   1       0.744  -0.725  -3.263  0.00  0.00     0.003 A 
ATOM      6  C4  OXE d   1       1.872  -0.231  -2.596  0.00  0.00    -0.002 A 
ATOM      7  C5  OXE d   1       1.981   1.131  -2.300  0.00  0.00    -0.002 A 
ATOM      8  C6  OXE d   1       0.960   1.996  -2.679  0.00  0.00     0.003 A 
ENDROOT
TORSDOF 0
ENDMDL
