MODEL 1
REMARK minimizedAffinity -4.5189929
REMARK minimizedRMSD -1
REMARK  0 active torsions:
REMARK  status: ('A' for Active; 'I' for Inactive)
ROOT
ATOM      1  C1  BNZ d   1       0.173   1.055   1.806  0.00  0.00     0.000 A 
ATOM      2  C2  BNZ d   1       1.172   0.387   1.150  0.00  0.00     0.000 A 
ATOM      3  C3  BNZ d   1       0.902  -0.361   0.038  0.00  0.00     0.000 A 
ATOM      4  C4  BNZ d   1      -0.372  -0.472  -0.392  0.00  0.00     0.000 A 
ATOM      5  C5  BNZ d   1      -1.392   0.187   0.264  0.00  0.00     0.000 A 
ATOM      6  C6  BNZ d   1      -1.110   0.971   1.360  0.00  0.00     0.000 A 
ENDROOT
TORSDOF 0
ENDMDL
