MODEL 1
REMARK minimizedAffinity -4.2192049
REMARK minimizedRMSD -1
REMARK  0 active torsions:
REMARK  status: ('A' for Active; 'I' for Inactive)
ROOT
ATOM      1  C1  BNZ d   1      -0.311   0.809   1.913  0.00  0.00     0.000 A 
ATOM      2  C2  BNZ d   1       0.723   0.250   1.210  0.00  0.00     0.000 A 
ATOM      3  C3  BNZ d   1       0.518  -0.279  -0.034  0.00  0.00     0.000 A 
ATOM      4  C4  BNZ d   1      -0.726  -0.284  -0.556  0.00  0.00     0.000 A 
ATOM      5  C5  BNZ d   1      -1.780   0.268   0.145  0.00  0.00     0.000 A 
ATOM      6  C6  BNZ d   1      -1.563   0.834   1.380  0.00  0.00     0.000 A 
ENDROOT
TORSDOF 0
ENDMDL
