MODEL 1
REMARK minimizedAffinity -5.31395006
REMARK minimizedRMSD -1
REMARK  0 active torsions:
REMARK  status: ('A' for Active; 'I' for Inactive)
ROOT
ATOM      1  C1  BNZ d   1      -1.767   0.066   0.290  0.00  0.00     0.000 A 
ATOM      2  C2  BNZ d   1      -1.810   0.772   1.463  0.00  0.00     0.000 A 
ATOM      3  C3  BNZ d   1      -0.659   1.179   2.077  0.00  0.00     0.000 A 
ATOM      4  C4  BNZ d   1       0.533   0.846   1.541  0.00  0.00     0.000 A 
ATOM      5  C5  BNZ d   1       0.593   0.127   0.364  0.00  0.00     0.000 A 
ATOM      6  C6  BNZ d   1      -0.568  -0.248  -0.273  0.00  0.00     0.000 A 
ENDROOT
TORSDOF 0
ENDMDL
