MODEL 1
REMARK minimizedAffinity -3.82941151
REMARK minimizedRMSD -1
REMARK  0 active torsions:
REMARK  status: ('A' for Active; 'I' for Inactive)
ROOT
ATOM      1  C1  BNZ d   1       0.822   0.852   0.629  0.00  0.00     0.000 A 
ATOM      2  C2  BNZ d   1       0.313   1.493   1.727  0.00  0.00     0.000 A 
ATOM      3  C3  BNZ d   1      -0.982   1.293   2.115  0.00  0.00     0.000 A 
ATOM      4  C4  BNZ d   1      -1.777   0.486   1.383  0.00  0.00     0.000 A 
ATOM      5  C5  BNZ d   1      -1.281  -0.159   0.268  0.00  0.00     0.000 A 
ATOM      6  C6  BNZ d   1       0.034   0.013  -0.097  0.00  0.00     0.000 A 
ENDROOT
TORSDOF 0
ENDMDL
