MODEL 1
REMARK minimizedAffinity -2.51440358
REMARK minimizedRMSD -1
REMARK  0 active torsions:
REMARK  status: ('A' for Active; 'I' for Inactive)
ROOT
ATOM      1  C1  BNZ d   1       1.488  -0.015   0.463  0.00  0.00     0.000 A 
ATOM      2  C2  BNZ d   1       0.559   0.683   1.189  0.00  0.00     0.000 A 
ATOM      3  C3  BNZ d   1      -0.769   0.620   0.871  0.00  0.00     0.000 A 
ATOM      4  C4  BNZ d   1      -1.162  -0.106  -0.196  0.00  0.00     0.000 A 
ATOM      5  C5  BNZ d   1      -0.236  -0.807  -0.944  0.00  0.00     0.000 A 
ATOM      6  C6  BNZ d   1       1.095  -0.773  -0.597  0.00  0.00     0.000 A 
ENDROOT
TORSDOF 0
ENDMDL
