MODEL 1
REMARK minimizedAffinity -5.085742
REMARK minimizedRMSD -1
REMARK  0 active torsions:
REMARK  status: ('A' for Active; 'I' for Inactive)
ROOT
ATOM      1  C1  BNZ d   1       0.568   0.846   1.158  0.00  0.00     0.000 A 
ATOM      2  C2  BNZ d   1       0.028   1.542   2.206  0.00  0.00     0.000 A 
ATOM      3  C3  BNZ d   1      -1.311   1.478   2.472  0.00  0.00     0.000 A 
ATOM      4  C4  BNZ d   1      -2.113   0.751   1.668  0.00  0.00     0.000 A 
ATOM      5  C5  BNZ d   1      -1.585   0.051   0.602  0.00  0.00     0.000 A 
ATOM      6  C6  BNZ d   1      -0.231   0.086   0.360  0.00  0.00     0.000 A 
ENDROOT
TORSDOF 0
ENDMDL
