MODEL 1
REMARK minimizedAffinity -4.41020298
REMARK minimizedRMSD -1
REMARK  0 active torsions:
REMARK  status: ('A' for Active; 'I' for Inactive)
ROOT
ATOM      1  C1  BNZ d   1       1.495  -0.444   1.117  0.00  0.00     0.000 A 
ATOM      2  C2  BNZ d   1       0.979   0.698   1.670  0.00  0.00     0.000 A 
ATOM      3  C3  BNZ d   1       0.034   1.430   1.008  0.00  0.00     0.000 A 
ATOM      4  C4  BNZ d   1      -0.365   1.042  -0.221  0.00  0.00     0.000 A 
ATOM      5  C5  BNZ d   1       0.152  -0.102  -0.795  0.00  0.00     0.000 A 
ATOM      6  C6  BNZ d   1       1.075  -0.857  -0.109  0.00  0.00     0.000 A 
ENDROOT
TORSDOF 0
ENDMDL
