MODEL 1
REMARK minimizedAffinity 22.0356026
REMARK minimizedRMSD -1
REMARK  0 active torsions:
REMARK  status: ('A' for Active; 'I' for Inactive)
ROOT
ATOM      1  C   UNL d   1      -0.346   1.235   1.487  0.00  0.00     0.124 A 
ATOM      2  C1  UNL d   1       0.512   1.760   0.530  0.00  0.00     0.062 A 
ATOM      3  C2  UNL d   1       1.719   2.337   0.914  0.00  0.00     0.162 A 
ATOM      4  C3  UNL d   1       2.076   2.392   2.262  0.00  0.00    -0.034 A 
ATOM      5  C4  UNL d   1       1.207   1.863   3.218  0.00  0.00     0.162 A 
ATOM      6  C5  UNL d   1       0.002   1.287   2.829  0.00  0.00     0.062 A 
ATOM      7  F   UNL d   1      -0.826   0.780   3.755  0.00  0.00    -0.097 F 
ATOM      8  F1  UNL d   1       1.519   1.898   4.522  0.00  0.00    -0.096 F 
ATOM      9  I   UNL d   1       3.880   3.254   2.839  0.00  0.00    -0.060 I 
ATOM     10  F2  UNL d   1       2.529   2.836  -0.031  0.00  0.00    -0.096 F 
ATOM     11  F3  UNL d   1       0.177   1.712  -0.767  0.00  0.00    -0.097 F 
ATOM     12  F4  UNL d   1      -1.508   0.681   1.115  0.00  0.00    -0.092 F 
ENDROOT
TORSDOF 0
ENDMDL
