MODEL 1
REMARK minimizedAffinity 12.7181597
REMARK minimizedRMSD -1
REMARK  0 active torsions:
REMARK  status: ('A' for Active; 'I' for Inactive)
ROOT
ATOM      1  C   UNL d   1       1.795  -0.476  -0.232  0.00  0.00     0.124 A 
ATOM      2  C1  UNL d   1       2.327  -1.741  -0.020  0.00  0.00     0.062 A 
ATOM      3  C2  UNL d   1       1.580  -2.875  -0.329  0.00  0.00     0.162 A 
ATOM      4  C3  UNL d   1       0.293  -2.749  -0.853  0.00  0.00    -0.034 A 
ATOM      5  C4  UNL d   1      -0.235  -1.473  -1.062  0.00  0.00     0.162 A 
ATOM      6  C5  UNL d   1       0.516  -0.344  -0.752  0.00  0.00     0.062 A 
ATOM      7  F   UNL d   1       0.000   0.877  -0.956  0.00  0.00    -0.097 F 
ATOM      8  F1  UNL d   1      -1.468  -1.316  -1.564  0.00  0.00    -0.096 F 
ATOM      9  I   UNL d   1      -0.826  -4.441  -1.315  0.00  0.00    -0.060 I 
ATOM     10  F2  UNL d   1       2.119  -4.084  -0.114  0.00  0.00    -0.096 F 
ATOM     11  F3  UNL d   1       3.562  -1.872   0.483  0.00  0.00    -0.097 F 
ATOM     12  F4  UNL d   1       2.515   0.612   0.067  0.00  0.00    -0.092 F 
ENDROOT
TORSDOF 0
ENDMDL
