MODEL 1
REMARK minimizedAffinity 10.5762405
REMARK minimizedRMSD -1
REMARK  0 active torsions:
REMARK  status: ('A' for Active; 'I' for Inactive)
ROOT
ATOM      1  C   UNL d   1       4.221   1.802   2.168  0.00  0.00     0.124 A 
ATOM      2  C1  UNL d   1       3.074   1.856   1.388  0.00  0.00     0.062 A 
ATOM      3  C2  UNL d   1       2.595   0.706   0.768  0.00  0.00     0.162 A 
ATOM      4  C3  UNL d   1       3.263  -0.509   0.925  0.00  0.00    -0.034 A 
ATOM      5  C4  UNL d   1       4.416  -0.555   1.709  0.00  0.00     0.162 A 
ATOM      6  C5  UNL d   1       4.891   0.597   2.328  0.00  0.00     0.062 A 
ATOM      7  F   UNL d   1       5.999   0.544   3.081  0.00  0.00    -0.097 F 
ATOM      8  F1  UNL d   1       5.083  -1.706   1.882  0.00  0.00    -0.096 F 
ATOM      9  I   UNL d   1       2.550  -2.231  -0.002  0.00  0.00    -0.060 I 
ATOM     10  F2  UNL d   1       1.484   0.787   0.020  0.00  0.00    -0.096 F 
ATOM     11  F3  UNL d   1       2.425   3.019   1.232  0.00  0.00    -0.097 F 
ATOM     12  F4  UNL d   1       4.680   2.910   2.764  0.00  0.00    -0.092 F 
ENDROOT
TORSDOF 0
ENDMDL
