MODEL 1
REMARK minimizedAffinity 0.0246260725
REMARK minimizedRMSD -1
REMARK  0 active torsions:
REMARK  status: ('A' for Active; 'I' for Inactive)
ROOT
ATOM      1  C   UNL d   1       1.467  -2.023  -0.254  0.00  0.00     0.124 A 
ATOM      2  C1  UNL d   1       0.166  -1.543  -0.326  0.00  0.00     0.062 A 
ATOM      3  C2  UNL d   1      -0.105  -0.210  -0.031  0.00  0.00     0.162 A 
ATOM      4  C3  UNL d   1       0.927   0.653   0.338  0.00  0.00    -0.034 A 
ATOM      5  C4  UNL d   1       2.232   0.162   0.410  0.00  0.00     0.162 A 
ATOM      6  C5  UNL d   1       2.498  -1.171   0.114  0.00  0.00     0.062 A 
ATOM      7  F   UNL d   1       3.755  -1.633   0.184  0.00  0.00    -0.097 F 
ATOM      8  F1  UNL d   1       3.248   0.965   0.761  0.00  0.00    -0.096 F 
ATOM      9  I   UNL d   1       0.526   2.647   0.780  0.00  0.00    -0.060 I 
ATOM     10  F2  UNL d   1      -1.370   0.227  -0.109  0.00  0.00    -0.096 F 
ATOM     11  F3  UNL d   1      -0.832  -2.365  -0.679  0.00  0.00    -0.097 F 
ATOM     12  F4  UNL d   1       1.724  -3.307  -0.537  0.00  0.00    -0.092 F 
ENDROOT
TORSDOF 0
ENDMDL
