MODEL 1
REMARK minimizedAffinity -0.4577232
REMARK minimizedRMSD -1
REMARK  0 active torsions:
REMARK  status: ('A' for Active; 'I' for Inactive)
ROOT
ATOM      1  C   UNL d   1       2.206  -0.757   0.635  0.00  0.00     0.124 A 
ATOM      2  C1  UNL d   1       1.639  -1.758  -0.141  0.00  0.00     0.062 A 
ATOM      3  C2  UNL d   1       0.505  -1.494  -0.904  0.00  0.00     0.162 A 
ATOM      4  C3  UNL d   1      -0.068  -0.223  -0.897  0.00  0.00    -0.034 A 
ATOM      5  C4  UNL d   1       0.508   0.779  -0.114  0.00  0.00     0.162 A 
ATOM      6  C5  UNL d   1       1.641   0.510   0.648  0.00  0.00     0.062 A 
ATOM      7  F   UNL d   1       2.188   1.479   1.397  0.00  0.00    -0.097 F 
ATOM      8  F1  UNL d   1      -0.018   2.013  -0.083  0.00  0.00    -0.096 F 
ATOM      9  I   UNL d   1      -1.763   0.175  -2.037  0.00  0.00    -0.060 I 
ATOM     10  F2  UNL d   1      -0.022  -2.481  -1.644  0.00  0.00    -0.096 F 
ATOM     11  F3  UNL d   1       2.183  -2.983  -0.154  0.00  0.00    -0.097 F 
ATOM     12  F4  UNL d   1       3.297  -1.014   1.369  0.00  0.00    -0.092 F 
ENDROOT
TORSDOF 0
ENDMDL
