MODEL 1
REMARK minimizedAffinity 8.65190411
REMARK minimizedRMSD -1
REMARK  0 active torsions:
REMARK  status: ('A' for Active; 'I' for Inactive)
ROOT
ATOM      1  C   UNL d   1      -4.177   0.329  -0.706  0.00  0.00     0.124 A 
ATOM      2  C1  UNL d   1      -3.306   0.393  -1.785  0.00  0.00     0.062 A 
ATOM      3  C2  UNL d   1      -1.998   0.831  -1.604  0.00  0.00     0.162 A 
ATOM      4  C3  UNL d   1      -1.551   1.208  -0.337  0.00  0.00    -0.034 A 
ATOM      5  C4  UNL d   1      -2.434   1.143   0.743  0.00  0.00     0.162 A 
ATOM      6  C5  UNL d   1      -3.740   0.704   0.556  0.00  0.00     0.062 A 
ATOM      7  F   UNL d   1      -4.580   0.644   1.600  0.00  0.00    -0.097 F 
ATOM      8  F1  UNL d   1      -2.037   1.498   1.974  0.00  0.00    -0.096 F 
ATOM      9  I   UNL d   1       0.405   1.864  -0.061  0.00  0.00    -0.060 I 
ATOM     10  F2  UNL d   1      -1.178   0.882  -2.664  0.00  0.00    -0.096 F 
ATOM     11  F3  UNL d   1      -3.726   0.032  -3.006  0.00  0.00    -0.097 F 
ATOM     12  F4  UNL d   1      -5.436  -0.092  -0.884  0.00  0.00    -0.092 F 
ENDROOT
TORSDOF 0
ENDMDL
