MODEL 1
REMARK minimizedAffinity 14.2117319
REMARK minimizedRMSD -1
REMARK  0 active torsions:
REMARK  status: ('A' for Active; 'I' for Inactive)
ROOT
ATOM      1  C   UNL d   1       2.509  -1.587   0.044  0.00  0.00     0.124 A 
ATOM      2  C1  UNL d   1       1.851  -0.909  -0.973  0.00  0.00     0.062 A 
ATOM      3  C2  UNL d   1       1.485   0.423  -0.805  0.00  0.00     0.162 A 
ATOM      4  C3  UNL d   1       1.778   1.088   0.386  0.00  0.00    -0.034 A 
ATOM      5  C4  UNL d   1       2.439   0.400   1.405  0.00  0.00     0.162 A 
ATOM      6  C5  UNL d   1       2.803  -0.932   1.232  0.00  0.00     0.062 A 
ATOM      7  F   UNL d   1       3.438  -1.584   2.216  0.00  0.00    -0.097 F 
ATOM      8  F1  UNL d   1       2.736   1.009   2.563  0.00  0.00    -0.096 F 
ATOM      9  I   UNL d   1       1.232   3.080   0.642  0.00  0.00    -0.060 I 
ATOM     10  F2  UNL d   1       0.850   1.052  -1.804  0.00  0.00    -0.096 F 
ATOM     11  F3  UNL d   1       1.566  -1.540  -2.121  0.00  0.00    -0.097 F 
ATOM     12  F4  UNL d   1       2.859  -2.869  -0.120  0.00  0.00    -0.092 F 
ENDROOT
TORSDOF 0
ENDMDL
