MODEL 1
REMARK minimizedAffinity 6.33641148
REMARK minimizedRMSD -1
REMARK  0 active torsions:
REMARK  status: ('A' for Active; 'I' for Inactive)
ROOT
ATOM      1  C   UNL d   1      -0.905  -3.812  -1.613  0.00  0.00     0.124 A 
ATOM      2  C1  UNL d   1      -1.135  -2.499  -1.997  0.00  0.00     0.062 A 
ATOM      3  C2  UNL d   1      -0.217  -1.504  -1.675  0.00  0.00     0.162 A 
ATOM      4  C3  UNL d   1       0.942  -1.819  -0.965  0.00  0.00    -0.034 A 
ATOM      5  C4  UNL d   1       1.166  -3.142  -0.582  0.00  0.00     0.162 A 
ATOM      6  C5  UNL d   1       0.246  -4.133  -0.906  0.00  0.00     0.062 A 
ATOM      7  F   UNL d   1       0.470  -5.402  -0.535  0.00  0.00    -0.097 F 
ATOM      8  F1  UNL d   1       2.270  -3.480   0.101  0.00  0.00    -0.096 F 
ATOM      9  I   UNL d   1       2.318  -0.334  -0.481  0.00  0.00    -0.060 I 
ATOM     10  F2  UNL d   1      -0.466  -0.243  -2.058  0.00  0.00    -0.096 F 
ATOM     11  F3  UNL d   1      -2.246  -2.186  -2.679  0.00  0.00    -0.097 F 
ATOM     12  F4  UNL d   1      -1.791  -4.767  -1.924  0.00  0.00    -0.092 F 
ENDROOT
TORSDOF 0
ENDMDL
