MODEL 1
REMARK minimizedAffinity 12.848156
REMARK minimizedRMSD -1
REMARK  0 active torsions:
REMARK  status: ('A' for Active; 'I' for Inactive)
ROOT
ATOM      1  C   UNL d   1       1.013  -0.312   0.004  0.00  0.00     0.124 A 
ATOM      2  C1  UNL d   1       1.384  -1.631  -0.220  0.00  0.00     0.062 A 
ATOM      3  C2  UNL d   1       0.809  -2.353  -1.261  0.00  0.00     0.162 A 
ATOM      4  C3  UNL d   1      -0.145  -1.758  -2.087  0.00  0.00    -0.034 A 
ATOM      5  C4  UNL d   1      -0.515  -0.432  -1.855  0.00  0.00     0.162 A 
ATOM      6  C5  UNL d   1       0.064   0.286  -0.813  0.00  0.00     0.062 A 
ATOM      7  F   UNL d   1      -0.297   1.559  -0.598  0.00  0.00    -0.097 F 
ATOM      8  F1  UNL d   1      -1.429   0.170  -2.630  0.00  0.00    -0.096 F 
ATOM      9  I   UNL d   1      -1.009  -2.835  -3.645  0.00  0.00    -0.060 I 
ATOM     10  F2  UNL d   1       1.187  -3.625  -1.455  0.00  0.00    -0.096 F 
ATOM     11  F3  UNL d   1       2.300  -2.211   0.569  0.00  0.00    -0.097 F 
ATOM     12  F4  UNL d   1       1.568   0.380   1.007  0.00  0.00    -0.092 F 
ENDROOT
TORSDOF 0
ENDMDL
