MODEL 1
REMARK minimizedAffinity 8.77987385
REMARK minimizedRMSD -1
REMARK  0 active torsions:
REMARK  status: ('A' for Active; 'I' for Inactive)
ROOT
ATOM      1  C   UNL d   1       3.736  -1.136  -2.250  0.00  0.00     0.124 A 
ATOM      2  C1  UNL d   1       2.547  -1.578  -1.687  0.00  0.00     0.062 A 
ATOM      3  C2  UNL d   1       1.855  -0.771  -0.789  0.00  0.00     0.162 A 
ATOM      4  C3  UNL d   1       2.350   0.488  -0.449  0.00  0.00    -0.034 A 
ATOM      5  C4  UNL d   1       3.547   0.925  -1.019  0.00  0.00     0.162 A 
ATOM      6  C5  UNL d   1       4.235   0.115  -1.916  0.00  0.00     0.062 A 
ATOM      7  F   UNL d   1       5.383   0.544  -2.458  0.00  0.00    -0.097 F 
ATOM      8  F1  UNL d   1       4.051   2.130  -0.713  0.00  0.00    -0.096 F 
ATOM      9  I   UNL d   1       1.318   1.698   0.893  0.00  0.00    -0.060 I 
ATOM     10  F2  UNL d   1       0.708  -1.224  -0.261  0.00  0.00    -0.096 F 
ATOM     11  F3  UNL d   1       2.063  -2.787  -2.008  0.00  0.00    -0.097 F 
ATOM     12  F4  UNL d   1       4.400  -1.916  -3.113  0.00  0.00    -0.092 F 
ENDROOT
TORSDOF 0
ENDMDL
