MODEL 1
REMARK minimizedAffinity -3.7110064
REMARK minimizedRMSD -1
REMARK  1 active torsions:
REMARK  status: ('A' for Active; 'I' for Inactive)
REMARK    1  A    between atoms: N_2  and  C1_3 
ROOT
ATOM      1  C1  UNL d   1      -1.478  -2.212   0.102  0.00  0.00     0.143 A 
ATOM      2  C2  UNL d   1      -1.288  -1.110  -0.738  0.00  0.00    -0.057 A 
ATOM      3  C3  UNL d   1      -0.045  -0.473  -0.830  0.00  0.00     0.033 A 
ATOM      4  C4  UNL d   1       1.026  -0.910  -0.058  0.00  0.00    -0.042 A 
ATOM      5  C5  UNL d   1       0.854  -1.988   0.803  0.00  0.00     0.033 A 
ATOM      6  C6  UNL d   1      -0.389  -2.625   0.885  0.00  0.00    -0.057 A 
ENDROOT
BRANCH   1   7
ATOM      7  N   UNL d   1      -2.715  -2.827   0.311  0.00  0.00    -0.732 N 
ATOM      8  C   UNL d   1      -3.944  -2.149  -0.042  0.00  0.00     0.284 C 
ATOM      9  H3  UNL d   1      -2.703  -3.816   0.074  0.00  0.00     0.395 HD
ENDBRANCH   1   7
TORSDOF 1
ENDMDL
