MODEL 1
REMARK minimizedAffinity 5.10343409
REMARK minimizedRMSD -1
REMARK  1 active torsions:
REMARK  status: ('A' for Active; 'I' for Inactive)
REMARK    1  A    between atoms: N_2  and  C1_3 
ROOT
ATOM      1  C1  UNL d   1      -0.558   2.378  -0.863  0.00  0.00     0.143 A 
ATOM      2  C2  UNL d   1      -1.908   2.038  -0.998  0.00  0.00    -0.057 A 
ATOM      3  C3  UNL d   1      -2.851   2.973  -1.444  0.00  0.00     0.033 A 
ATOM      4  C4  UNL d   1      -2.463   4.276  -1.736  0.00  0.00    -0.042 A 
ATOM      5  C5  UNL d   1      -1.130   4.643  -1.585  0.00  0.00     0.033 A 
ATOM      6  C6  UNL d   1      -0.193   3.704  -1.145  0.00  0.00    -0.057 A 
ENDROOT
BRANCH   1   7
ATOM      7  N   UNL d   1       0.410   1.523  -0.330  0.00  0.00    -0.732 N 
ATOM      8  C   UNL d   1       0.759   1.587   1.073  0.00  0.00     0.284 C 
ATOM      9  H3  UNL d   1       0.336   0.577  -0.697  0.00  0.00     0.395 HD
ENDBRANCH   1   7
TORSDOF 1
ENDMDL
