MODEL 1
REMARK minimizedAffinity 5.0745883
REMARK minimizedRMSD -1
REMARK  1 active torsions:
REMARK  status: ('A' for Active; 'I' for Inactive)
REMARK    1  A    between atoms: N_2  and  C1_3 
ROOT
ATOM      1  C1  UNL d   1       0.258   1.361   0.502  0.00  0.00     0.143 A 
ATOM      2  C2  UNL d   1       0.673   0.056   0.786  0.00  0.00    -0.057 A 
ATOM      3  C3  UNL d   1       1.035  -0.325   2.084  0.00  0.00     0.033 A 
ATOM      4  C4  UNL d   1       1.016   0.604   3.119  0.00  0.00    -0.042 A 
ATOM      5  C5  UNL d   1       0.631   1.914   2.855  0.00  0.00     0.033 A 
ATOM      6  C6  UNL d   1       0.264   2.286   1.558  0.00  0.00    -0.057 A 
ENDROOT
BRANCH   1   7
ATOM      7  N   UNL d   1      -0.020   1.826  -0.785  0.00  0.00    -0.732 N 
ATOM      8  C   UNL d   1       0.015   3.243  -1.081  0.00  0.00     0.284 C 
ATOM      9  H3  UNL d   1       0.393   1.241  -1.507  0.00  0.00     0.395 HD
ENDBRANCH   1   7
TORSDOF 1
ENDMDL
