MODEL 1
REMARK minimizedAffinity 0.792143703
REMARK minimizedRMSD -1
REMARK  0 active torsions:
REMARK  status: ('A' for Active; 'I' for Inactive)
ROOT
ATOM      1  C   UNL d   1       5.999   5.052  -1.328  0.00  0.00     0.077 C 
ATOM      2  C1  UNL d   1       5.452   5.071  -2.724  0.00  0.00    -0.074 A 
ATOM      3  C2  UNL d   1       4.464   5.988  -3.097  0.00  0.00    -0.005 A 
ATOM      4  C3  UNL d   1       3.972   5.999  -4.402  0.00  0.00     0.006 A 
ATOM      5  C4  UNL d   1       4.462   5.096  -5.346  0.00  0.00    -0.005 A 
ATOM      6  C5  UNL d   1       5.451   4.173  -4.992  0.00  0.00    -0.074 A 
ATOM      7  C6  UNL d   1       5.996   3.202  -5.997  0.00  0.00     0.077 C 
ATOM      8  C7  UNL d   1       5.945   4.172  -3.680  0.00  0.00    -0.001 A 
ENDROOT
TORSDOF 0
ENDMDL
