MODEL 1
REMARK minimizedAffinity 4.88309908
REMARK minimizedRMSD -1
REMARK  0 active torsions:
REMARK  status: ('A' for Active; 'I' for Inactive)
ROOT
ATOM      1  C   UNL d   1       3.450  -1.913   1.758  0.00  0.00     0.077 C 
ATOM      2  C1  UNL d   1       3.510  -2.146   3.238  0.00  0.00    -0.074 A 
ATOM      3  C2  UNL d   1       3.318  -1.095   4.140  0.00  0.00    -0.005 A 
ATOM      4  C3  UNL d   1       3.366  -1.329   5.514  0.00  0.00     0.006 A 
ATOM      5  C4  UNL d   1       3.607  -2.615   5.999  0.00  0.00    -0.005 A 
ATOM      6  C5  UNL d   1       3.801  -3.679   5.113  0.00  0.00    -0.074 A 
ATOM      7  C6  UNL d   1       4.051  -5.069   5.618  0.00  0.00     0.077 C 
ATOM      8  C7  UNL d   1       3.743  -3.437   3.733  0.00  0.00    -0.001 A 
ENDROOT
TORSDOF 0
ENDMDL
