MODEL 1
REMARK minimizedAffinity 2.96336222
REMARK minimizedRMSD -1
REMARK  0 active torsions:
REMARK  status: ('A' for Active; 'I' for Inactive)
ROOT
ATOM      1  C   UNL d   1       3.178  -1.406  -3.008  0.00  0.00     0.077 C 
ATOM      2  C1  UNL d   1       1.793  -1.900  -2.714  0.00  0.00    -0.074 A 
ATOM      3  C2  UNL d   1       1.079  -1.423  -1.611  0.00  0.00    -0.005 A 
ATOM      4  C3  UNL d   1      -0.212  -1.886  -1.355  0.00  0.00     0.006 A 
ATOM      5  C4  UNL d   1      -0.801  -2.828  -2.199  0.00  0.00    -0.005 A 
ATOM      6  C5  UNL d   1      -0.102  -3.316  -3.308  0.00  0.00    -0.074 A 
ATOM      7  C6  UNL d   1      -0.723  -4.322  -4.230  0.00  0.00     0.077 C 
ATOM      8  C7  UNL d   1       1.192  -2.842  -3.562  0.00  0.00    -0.001 A 
ENDROOT
TORSDOF 0
ENDMDL
