MODEL 1
REMARK minimizedAffinity 2.22101426
REMARK minimizedRMSD -1
REMARK  0 active torsions:
REMARK  status: ('A' for Active; 'I' for Inactive)
ROOT
ATOM      1  C   UNL d   1       5.945  -4.493   6.000  0.00  0.00     0.077 C 
ATOM      2  C1  UNL d   1       5.445  -3.273   5.286  0.00  0.00    -0.074 A 
ATOM      3  C2  UNL d   1       4.990  -2.159   5.999  0.00  0.00    -0.005 A 
ATOM      4  C3  UNL d   1       4.536  -1.027   5.321  0.00  0.00     0.006 A 
ATOM      5  C4  UNL d   1       4.534  -0.998   3.926  0.00  0.00    -0.005 A 
ATOM      6  C5  UNL d   1       4.986  -2.101   3.196  0.00  0.00    -0.074 A 
ATOM      7  C6  UNL d   1       5.000  -2.082   1.697  0.00  0.00     0.077 C 
ATOM      8  C7  UNL d   1       5.447  -3.232   3.885  0.00  0.00    -0.001 A 
ENDROOT
TORSDOF 0
ENDMDL
