MODEL 1
REMARK minimizedAffinity 2.86707234
REMARK minimizedRMSD -1
REMARK  0 active torsions:
REMARK  status: ('A' for Active; 'I' for Inactive)
ROOT
ATOM      1  C   UNL d   1       3.017  -2.817   2.040  0.00  0.00     0.077 C 
ATOM      2  C1  UNL d   1       3.518  -2.504   3.418  0.00  0.00    -0.074 A 
ATOM      3  C2  UNL d   1       3.022  -1.408   4.131  0.00  0.00    -0.005 A 
ATOM      4  C3  UNL d   1       3.491  -1.134   5.416  0.00  0.00     0.006 A 
ATOM      5  C4  UNL d   1       4.459  -1.953   6.000  0.00  0.00    -0.005 A 
ATOM      6  C5  UNL d   1       4.966  -3.053   5.302  0.00  0.00    -0.074 A 
ATOM      7  C6  UNL d   1       6.000  -3.949   5.919  0.00  0.00     0.077 C 
ATOM      8  C7  UNL d   1       4.485  -3.326   4.014  0.00  0.00    -0.001 A 
ENDROOT
TORSDOF 0
ENDMDL
