MODEL 1
REMARK minimizedAffinity 0.96216476
REMARK minimizedRMSD -1
REMARK  0 active torsions:
REMARK  status: ('A' for Active; 'I' for Inactive)
ROOT
ATOM      1  C   UNL d   1       0.446  -1.869  -3.743  0.00  0.00     0.077 C 
ATOM      2  C1  UNL d   1       0.114  -3.311  -3.495  0.00  0.00    -0.074 A 
ATOM      3  C2  UNL d   1       0.695  -4.009  -2.431  0.00  0.00    -0.005 A 
ATOM      4  C3  UNL d   1       0.369  -5.347  -2.207  0.00  0.00     0.006 A 
ATOM      5  C4  UNL d   1      -0.538  -5.999  -3.043  0.00  0.00    -0.005 A 
ATOM      6  C5  UNL d   1      -1.129  -5.317  -4.112  0.00  0.00    -0.074 A 
ATOM      7  C6  UNL d   1      -2.113  -5.999  -5.014  0.00  0.00     0.077 C 
ATOM      8  C7  UNL d   1      -0.802  -3.970  -4.326  0.00  0.00    -0.001 A 
ENDROOT
TORSDOF 0
ENDMDL
