MODEL 1
REMARK minimizedAffinity 2.37001824
REMARK minimizedRMSD -1
REMARK  0 active torsions:
REMARK  status: ('A' for Active; 'I' for Inactive)
ROOT
ATOM      1  C   UNL d   1       5.999   5.342  -6.000  0.00  0.00     0.077 C 
ATOM      2  C1  UNL d   1       5.285   5.429  -4.683  0.00  0.00    -0.074 A 
ATOM      3  C2  UNL d   1       3.969   5.896  -4.609  0.00  0.00    -0.005 A 
ATOM      4  C3  UNL d   1       3.315   5.962  -3.379  0.00  0.00     0.006 A 
ATOM      5  C4  UNL d   1       3.968   5.563  -2.213  0.00  0.00    -0.005 A 
ATOM      6  C5  UNL d   1       5.284   5.092  -2.268  0.00  0.00    -0.074 A 
ATOM      7  C6  UNL d   1       5.998   4.650  -1.025  0.00  0.00     0.077 C 
ATOM      8  C7  UNL d   1       5.933   5.022  -3.508  0.00  0.00    -0.001 A 
ENDROOT
TORSDOF 0
ENDMDL
