MODEL 1
REMARK minimizedAffinity -1.46676719
REMARK minimizedRMSD -1
REMARK  0 active torsions:
REMARK  status: ('A' for Active; 'I' for Inactive)
ROOT
ATOM      1  C   UNL d   1       3.092   5.966  -5.903  0.00  0.00     0.077 C 
ATOM      2  C1  UNL d   1       4.100   5.236  -5.066  0.00  0.00    -0.074 A 
ATOM      3  C2  UNL d   1       4.726   4.079  -5.541  0.00  0.00    -0.005 A 
ATOM      4  C3  UNL d   1       5.668   3.417  -4.755  0.00  0.00     0.006 A 
ATOM      5  C4  UNL d   1       5.994   3.903  -3.489  0.00  0.00    -0.005 A 
ATOM      6  C5  UNL d   1       5.379   5.059  -2.997  0.00  0.00    -0.074 A 
ATOM      7  C6  UNL d   1       5.724   5.601  -1.642  0.00  0.00     0.077 C 
ATOM      8  C7  UNL d   1       4.438   5.723  -3.796  0.00  0.00    -0.001 A 
ENDROOT
TORSDOF 0
ENDMDL
