MODEL 1
REMARK minimizedAffinity 3.82372236
REMARK minimizedRMSD -1
REMARK  0 active torsions:
REMARK  status: ('A' for Active; 'I' for Inactive)
ROOT
ATOM      1  C   UNL d   1       6.000   4.464  -1.732  0.00  0.00     0.077 C 
ATOM      2  C1  UNL d   1       5.327   4.766  -3.039  0.00  0.00    -0.074 A 
ATOM      3  C2  UNL d   1       5.998   4.582  -4.252  0.00  0.00    -0.005 A 
ATOM      4  C3  UNL d   1       5.357   4.858  -5.459  0.00  0.00     0.006 A 
ATOM      5  C4  UNL d   1       4.040   5.320  -5.466  0.00  0.00    -0.005 A 
ATOM      6  C5  UNL d   1       3.353   5.509  -4.263  0.00  0.00    -0.074 A 
ATOM      7  C6  UNL d   1       1.934   5.995  -4.252  0.00  0.00     0.077 C 
ATOM      8  C7  UNL d   1       4.002   5.223  -3.054  0.00  0.00    -0.001 A 
ENDROOT
TORSDOF 0
ENDMDL
