MODEL 1
REMARK minimizedAffinity 2.18103552
REMARK minimizedRMSD -1
REMARK  0 active torsions:
REMARK  status: ('A' for Active; 'I' for Inactive)
ROOT
ATOM      1  C   UNL d   1       2.690  -1.427  -2.925  0.00  0.00     0.077 C 
ATOM      2  C1  UNL d   1       1.426  -2.123  -2.519  0.00  0.00    -0.074 A 
ATOM      3  C2  UNL d   1       0.617  -2.757  -3.468  0.00  0.00    -0.005 A 
ATOM      4  C3  UNL d   1      -0.552  -3.408  -3.074  0.00  0.00     0.006 A 
ATOM      5  C4  UNL d   1      -0.922  -3.433  -1.729  0.00  0.00    -0.005 A 
ATOM      6  C5  UNL d   1      -0.126  -2.807  -0.766  0.00  0.00    -0.074 A 
ATOM      7  C6  UNL d   1      -0.505  -2.833   0.685  0.00  0.00     0.077 C 
ATOM      8  C7  UNL d   1       1.050  -2.160  -1.169  0.00  0.00    -0.001 A 
ENDROOT
TORSDOF 0
ENDMDL
