MODEL 1
REMARK minimizedAffinity 2.26040936
REMARK minimizedRMSD -1
REMARK  0 active torsions:
REMARK  status: ('A' for Active; 'I' for Inactive)
ROOT
ATOM      1  C   UNL d   1       3.557   5.999  -5.329  0.00  0.00     0.077 C 
ATOM      2  C1  UNL d   1       4.403   5.218  -4.368  0.00  0.00    -0.074 A 
ATOM      3  C2  UNL d   1       4.828   3.921  -4.675  0.00  0.00    -0.005 A 
ATOM      4  C3  UNL d   1       5.623   3.211  -3.776  0.00  0.00     0.006 A 
ATOM      5  C4  UNL d   1       5.999   3.788  -2.563  0.00  0.00    -0.005 A 
ATOM      6  C5  UNL d   1       5.584   5.084  -2.239  0.00  0.00    -0.074 A 
ATOM      7  C6  UNL d   1       5.988   5.723  -0.944  0.00  0.00     0.077 C 
ATOM      8  C7  UNL d   1       4.792   5.794  -3.151  0.00  0.00    -0.001 A 
ENDROOT
TORSDOF 0
ENDMDL
