MODEL 1
REMARK minimizedAffinity 1.45006895
REMARK minimizedRMSD -1
REMARK  0 active torsions:
REMARK  status: ('A' for Active; 'I' for Inactive)
ROOT
ATOM      1  C   UNL d   1       5.854   2.989  -4.885  0.00  0.00     0.077 C 
ATOM      2  C1  UNL d   1       5.284   3.923  -3.859  0.00  0.00    -0.074 A 
ATOM      3  C2  UNL d   1       5.997   4.237  -2.698  0.00  0.00    -0.005 A 
ATOM      4  C3  UNL d   1       5.458   5.115  -1.757  0.00  0.00     0.006 A 
ATOM      5  C4  UNL d   1       4.202   5.686  -1.968  0.00  0.00    -0.005 A 
ATOM      6  C5  UNL d   1       3.475   5.385  -3.124  0.00  0.00    -0.074 A 
ATOM      7  C6  UNL d   1       2.129   5.998  -3.371  0.00  0.00     0.077 C 
ATOM      8  C7  UNL d   1       4.027   4.507  -4.068  0.00  0.00    -0.001 A 
ENDROOT
TORSDOF 0
ENDMDL
