MODEL 1
REMARK minimizedAffinity 6.18656874
REMARK minimizedRMSD -1
REMARK  0 active torsions:
REMARK  status: ('A' for Active; 'I' for Inactive)
ROOT
ATOM      1  C   UNL d   1       2.301  -1.355  -3.066  0.00  0.00     0.077 C 
ATOM      2  C1  UNL d   1       0.992  -1.998  -2.716  0.00  0.00    -0.074 A 
ATOM      3  C2  UNL d   1       0.296  -2.768  -3.653  0.00  0.00    -0.005 A 
ATOM      4  C3  UNL d   1      -0.916  -3.367  -3.310  0.00  0.00     0.006 A 
ATOM      5  C4  UNL d   1      -1.443  -3.203  -2.029  0.00  0.00    -0.005 A 
ATOM      6  C5  UNL d   1      -0.761  -2.438  -1.078  0.00  0.00    -0.074 A 
ATOM      7  C6  UNL d   1      -1.309  -2.259   0.307  0.00  0.00     0.077 C 
ATOM      8  C7  UNL d   1       0.459  -1.844  -1.428  0.00  0.00    -0.001 A 
ENDROOT
TORSDOF 0
ENDMDL
