MODEL 1
REMARK minimizedAffinity 0.546569347
REMARK minimizedRMSD -1
REMARK  0 active torsions:
REMARK  status: ('A' for Active; 'I' for Inactive)
ROOT
ATOM      1  C   UNL d   1      -1.988  -2.603  -0.541  0.00  0.00     0.077 C 
ATOM      2  C1  UNL d   1      -0.851  -2.680  -1.516  0.00  0.00    -0.074 A 
ATOM      3  C2  UNL d   1       0.130  -1.683  -1.557  0.00  0.00    -0.005 A 
ATOM      4  C3  UNL d   1       1.186  -1.773  -2.463  0.00  0.00     0.006 A 
ATOM      5  C4  UNL d   1       1.274  -2.859  -3.335  0.00  0.00    -0.005 A 
ATOM      6  C5  UNL d   1       0.303  -3.865  -3.308  0.00  0.00    -0.074 A 
ATOM      7  C6  UNL d   1       0.387  -5.044  -4.232  0.00  0.00     0.077 C 
ATOM      8  C7  UNL d   1      -0.752  -3.771  -2.390  0.00  0.00    -0.001 A 
ENDROOT
TORSDOF 0
ENDMDL
