MODEL 1
REMARK minimizedAffinity -0.509847462
REMARK minimizedRMSD -1
REMARK  0 active torsions:
REMARK  status: ('A' for Active; 'I' for Inactive)
ROOT
ATOM      1  C   UNL d   1       1.929   5.671  -2.544  0.00  0.00     0.077 C 
ATOM      2  C1  UNL d   1       3.351   5.532  -3.001  0.00  0.00    -0.074 A 
ATOM      3  C2  UNL d   1       4.409   5.985  -2.206  0.00  0.00    -0.005 A 
ATOM      4  C3  UNL d   1       5.727   5.840  -2.640  0.00  0.00     0.006 A 
ATOM      5  C4  UNL d   1       5.999   5.242  -3.871  0.00  0.00    -0.005 A 
ATOM      6  C5  UNL d   1       4.954   4.782  -4.679  0.00  0.00    -0.074 A 
ATOM      7  C6  UNL d   1       5.230   4.127  -6.000  0.00  0.00     0.077 C 
ATOM      8  C7  UNL d   1       3.633   4.925  -4.232  0.00  0.00    -0.001 A 
ENDROOT
TORSDOF 0
ENDMDL
