MODEL 1
REMARK minimizedAffinity 3.17885351
REMARK minimizedRMSD -1
REMARK  0 active torsions:
REMARK  status: ('A' for Active; 'I' for Inactive)
ROOT
ATOM      1  C   UNL d   1       2.491   5.794  -5.692  0.00  0.00     0.172 C 
ATOM      2  N   UNL d   1       1.140   5.875  -5.187  0.00  0.00    -0.070 N 
ATOM      3  C1  UNL d   1       0.004   5.912  -5.950  0.00  0.00    -0.004 A 
ATOM      4  C2  UNL d   1      -1.075   5.988  -5.096  0.00  0.00    -0.047 A 
ATOM      5  C3  UNL d   1      -0.570   5.998  -3.774  0.00  0.00    -0.047 A 
ATOM      6  C4  UNL d   1       0.805   5.927  -3.860  0.00  0.00    -0.004 A 
ENDROOT
TORSDOF 0
ENDMDL
