MODEL 1
REMARK minimizedAffinity -0.301714867
REMARK minimizedRMSD -1
REMARK  0 active torsions:
REMARK  status: ('A' for Active; 'I' for Inactive)
ROOT
ATOM      1  C   UNL d   1       0.821   5.999  -5.514  0.00  0.00     0.172 C 
ATOM      2  N   UNL d   1      -0.402   5.999  -4.746  0.00  0.00    -0.070 N 
ATOM      3  C1  UNL d   1      -0.487   5.999  -3.379  0.00  0.00    -0.004 A 
ATOM      4  C2  UNL d   1      -1.822   6.000  -3.039  0.00  0.00    -0.047 A 
ATOM      5  C3  UNL d   1      -2.566   5.999  -4.243  0.00  0.00    -0.047 A 
ATOM      6  C4  UNL d   1      -1.662   5.998  -5.284  0.00  0.00    -0.004 A 
ENDROOT
TORSDOF 0
ENDMDL
