MODEL 1
REMARK minimizedAffinity -2.34404922
REMARK minimizedRMSD -1
REMARK  0 active torsions:
REMARK  status: ('A' for Active; 'I' for Inactive)
ROOT
ATOM      1  C   UNL d   1       1.744   5.981  -5.548  0.00  0.00     0.172 C 
ATOM      2  N   UNL d   1       3.121   5.984  -5.114  0.00  0.00    -0.070 N 
ATOM      3  C1  UNL d   1       4.217   5.997  -5.934  0.00  0.00    -0.004 A 
ATOM      4  C2  UNL d   1       5.341   5.996  -5.137  0.00  0.00    -0.047 A 
ATOM      5  C3  UNL d   1       4.906   5.981  -3.791  0.00  0.00    -0.047 A 
ATOM      6  C4  UNL d   1       3.527   5.974  -3.805  0.00  0.00    -0.004 A 
ENDROOT
TORSDOF 0
ENDMDL
