MODEL 1
REMARK minimizedAffinity 0.443802804
REMARK minimizedRMSD -1
REMARK  0 active torsions:
REMARK  status: ('A' for Active; 'I' for Inactive)
ROOT
ATOM      1  C   UNL d   1       0.203   5.956  -4.911  0.00  0.00     0.172 C 
ATOM      2  N   UNL d   1      -0.809   5.974  -3.881  0.00  0.00    -0.070 N 
ATOM      3  C1  UNL d   1      -0.576   5.983  -2.532  0.00  0.00    -0.004 A 
ATOM      4  C2  UNL d   1      -1.797   6.000  -1.893  0.00  0.00    -0.047 A 
ATOM      5  C3  UNL d   1      -2.798   6.000  -2.893  0.00  0.00    -0.047 A 
ATOM      6  C4  UNL d   1      -2.159   5.983  -4.114  0.00  0.00    -0.004 A 
ENDROOT
TORSDOF 0
ENDMDL
