MODEL 1
REMARK minimizedAffinity 3.57859659
REMARK minimizedRMSD -1
REMARK  0 active torsions:
REMARK  status: ('A' for Active; 'I' for Inactive)
ROOT
ATOM      1  C   UNL d   1       2.118  -0.015  -3.741  0.00  0.00     0.172 C 
ATOM      2  N   UNL d   1       0.945  -0.391  -4.495  0.00  0.00    -0.070 N 
ATOM      3  C1  UNL d   1       0.414   0.308  -5.546  0.00  0.00    -0.004 A 
ATOM      4  C2  UNL d   1      -0.696  -0.377  -5.991  0.00  0.00    -0.047 A 
ATOM      5  C3  UNL d   1      -0.838  -1.527  -5.178  0.00  0.00    -0.047 A 
ATOM      6  C4  UNL d   1       0.191  -1.511  -4.260  0.00  0.00    -0.004 A 
ENDROOT
TORSDOF 0
ENDMDL
