MODEL 1
REMARK minimizedAffinity -2.4035728
REMARK minimizedRMSD -1
REMARK  0 active torsions:
REMARK  status: ('A' for Active; 'I' for Inactive)
ROOT
ATOM      1  C   UNL d   1       1.650   4.501  -5.620  0.00  0.00     0.172 C 
ATOM      2  N   UNL d   1       2.969   4.878  -5.171  0.00  0.00    -0.070 N 
ATOM      3  C1  UNL d   1       3.653   6.000  -5.556  0.00  0.00    -0.004 A 
ATOM      4  C2  UNL d   1       4.869   5.996  -4.908  0.00  0.00    -0.047 A 
ATOM      5  C3  UNL d   1       4.918   4.831  -4.106  0.00  0.00    -0.047 A 
ATOM      6  C4  UNL d   1       3.729   4.157  -4.288  0.00  0.00    -0.004 A 
ENDROOT
TORSDOF 0
ENDMDL
