MODEL 1
REMARK minimizedAffinity -2.47789335
REMARK minimizedRMSD -1
REMARK  0 active torsions:
REMARK  status: ('A' for Active; 'I' for Inactive)
ROOT
ATOM      1  C   UNL d   1       1.653   0.948  -1.906  0.00  0.00     0.172 C 
ATOM      2  N   UNL d   1       1.388   0.870  -0.489  0.00  0.00    -0.070 N 
ATOM      3  C1  UNL d   1       1.986   1.633   0.478  0.00  0.00    -0.004 A 
ATOM      4  C2  UNL d   1       1.462   1.258   1.696  0.00  0.00    -0.047 A 
ATOM      5  C3  UNL d   1       0.518   0.232   1.453  0.00  0.00    -0.047 A 
ATOM      6  C4  UNL d   1       0.492   0.012   0.092  0.00  0.00    -0.004 A 
ENDROOT
TORSDOF 0
ENDMDL
