MODEL 1
REMARK minimizedAffinity -0.696984172
REMARK minimizedRMSD -1
REMARK  0 active torsions:
REMARK  status: ('A' for Active; 'I' for Inactive)
ROOT
ATOM      1  C   UNL d   1       1.135   5.998  -4.930  0.00  0.00     0.172 C 
ATOM      2  N   UNL d   1      -0.033   5.998  -4.080  0.00  0.00    -0.070 N 
ATOM      3  C1  UNL d   1      -0.024   5.998  -2.711  0.00  0.00    -0.004 A 
ATOM      4  C2  UNL d   1      -1.333   5.999  -2.280  0.00  0.00    -0.047 A 
ATOM      5  C3  UNL d   1      -2.157   5.999  -3.430  0.00  0.00    -0.047 A 
ATOM      6  C4  UNL d   1      -1.326   5.999  -4.531  0.00  0.00    -0.004 A 
ENDROOT
TORSDOF 0
ENDMDL
