MODEL 1
REMARK minimizedAffinity -1.62977302
REMARK minimizedRMSD -1
REMARK  0 active torsions:
REMARK  status: ('A' for Active; 'I' for Inactive)
ROOT
ATOM      1  C   UNL d   1       0.294   5.999  -5.278  0.00  0.00     0.172 C 
ATOM      2  N   UNL d   1      -0.945   5.999  -4.536  0.00  0.00    -0.070 N 
ATOM      3  C1  UNL d   1      -1.059   5.999  -3.172  0.00  0.00    -0.004 A 
ATOM      4  C2  UNL d   1      -2.401   6.000  -2.860  0.00  0.00    -0.047 A 
ATOM      5  C3  UNL d   1      -3.119   6.000  -4.079  0.00  0.00    -0.047 A 
ATOM      6  C4  UNL d   1      -2.193   5.999  -5.101  0.00  0.00    -0.004 A 
ENDROOT
TORSDOF 0
ENDMDL
