MODEL 1
REMARK minimizedAffinity -1.20873427
REMARK minimizedRMSD -1
REMARK  0 active torsions:
REMARK  status: ('A' for Active; 'I' for Inactive)
ROOT
ATOM      1  C   UNL d   1      -3.759   5.999  -3.114  0.00  0.00     0.172 C 
ATOM      2  N   UNL d   1      -2.395   5.637  -3.421  0.00  0.00    -0.070 N 
ATOM      3  C1  UNL d   1      -1.707   5.999  -4.548  0.00  0.00    -0.004 A 
ATOM      4  C2  UNL d   1      -0.442   5.457  -4.463  0.00  0.00    -0.047 A 
ATOM      5  C3  UNL d   1      -0.369   4.743  -3.243  0.00  0.00    -0.047 A 
ATOM      6  C4  UNL d   1      -1.591   4.871  -2.618  0.00  0.00    -0.004 A 
ENDROOT
TORSDOF 0
ENDMDL
