MODEL 1
REMARK minimizedAffinity -1.58564818
REMARK minimizedRMSD -1
REMARK  0 active torsions:
REMARK  status: ('A' for Active; 'I' for Inactive)
ROOT
ATOM      1  C   UNL d   1       0.405   5.985  -4.911  0.00  0.00     0.172 C 
ATOM      2  N   UNL d   1      -0.833   5.989  -4.168  0.00  0.00    -0.070 N 
ATOM      3  C1  UNL d   1      -0.945   5.982  -2.803  0.00  0.00    -0.004 A 
ATOM      4  C2  UNL d   1      -2.287   5.989  -2.490  0.00  0.00    -0.047 A 
ATOM      5  C3  UNL d   1      -3.006   5.999  -3.708  0.00  0.00    -0.047 A 
ATOM      6  C4  UNL d   1      -2.082   5.999  -4.731  0.00  0.00    -0.004 A 
ENDROOT
TORSDOF 0
ENDMDL
