MODEL 1
REMARK minimizedAffinity -2.21989036
REMARK minimizedRMSD -1
REMARK  0 active torsions:
REMARK  status: ('A' for Active; 'I' for Inactive)
ROOT
ATOM      1  C   UNL d   1       1.308   5.999  -5.281  0.00  0.00     0.172 C 
ATOM      2  N   UNL d   1      -0.079   5.997  -4.879  0.00  0.00    -0.070 N 
ATOM      3  C1  UNL d   1      -1.156   5.997  -5.725  0.00  0.00    -0.004 A 
ATOM      4  C2  UNL d   1      -2.298   5.994  -4.954  0.00  0.00    -0.047 A 
ATOM      5  C3  UNL d   1      -1.894   5.993  -3.598  0.00  0.00    -0.047 A 
ATOM      6  C4  UNL d   1      -0.516   5.995  -3.580  0.00  0.00    -0.004 A 
ENDROOT
TORSDOF 0
ENDMDL
