MODEL 1
REMARK minimizedAffinity 6.23850727
REMARK minimizedRMSD -1
REMARK  0 active torsions:
REMARK  status: ('A' for Active; 'I' for Inactive)
ROOT
ATOM      1  C   UNL d   1      -1.327   5.979  -2.793  0.00  0.00     0.172 C 
ATOM      2  N   UNL d   1      -0.416   5.986  -3.914  0.00  0.00    -0.070 N 
ATOM      3  C1  UNL d   1       0.951   5.987  -3.831  0.00  0.00    -0.004 A 
ATOM      4  C2  UNL d   1       1.452   5.995  -5.115  0.00  0.00    -0.047 A 
ATOM      5  C3  UNL d   1       0.347   6.000  -6.000  0.00  0.00    -0.047 A 
ATOM      6  C4  UNL d   1      -0.796   5.995  -5.230  0.00  0.00    -0.004 A 
ENDROOT
TORSDOF 0
ENDMDL
