MODEL 1
REMARK minimizedAffinity 3.56224394
REMARK minimizedRMSD -1
REMARK  0 active torsions:
REMARK  status: ('A' for Active; 'I' for Inactive)
ROOT
ATOM      1  C   UNL d   1      -2.208   5.992  -4.787  0.00  0.00     0.172 C 
ATOM      2  N   UNL d   1      -2.530   5.993  -3.380  0.00  0.00    -0.070 N 
ATOM      3  C1  UNL d   1      -1.624   5.992  -2.353  0.00  0.00    -0.004 A 
ATOM      4  C2  UNL d   1      -2.328   5.994  -1.169  0.00  0.00    -0.047 A 
ATOM      5  C3  UNL d   1      -3.705   5.994  -1.495  0.00  0.00    -0.047 A 
ATOM      6  C4  UNL d   1      -3.802   5.994  -2.870  0.00  0.00    -0.004 A 
ENDROOT
TORSDOF 0
ENDMDL
