MODEL 1
REMARK minimizedAffinity 0.100536421
REMARK minimizedRMSD -1
REMARK  0 active torsions:
REMARK  status: ('A' for Active; 'I' for Inactive)
ROOT
ATOM      1  C   UNL d   1       5.997   4.654  -2.798  0.00  0.00     0.172 C 
ATOM      2  N   UNL d   1       4.823   4.166  -3.484  0.00  0.00    -0.070 N 
ATOM      3  C1  UNL d   1       4.657   4.114  -4.842  0.00  0.00    -0.004 A 
ATOM      4  C2  UNL d   1       3.408   3.588  -5.094  0.00  0.00    -0.047 A 
ATOM      5  C3  UNL d   1       2.803   3.317  -3.845  0.00  0.00    -0.047 A 
ATOM      6  C4  UNL d   1       3.701   3.684  -2.865  0.00  0.00    -0.004 A 
ENDROOT
TORSDOF 0
ENDMDL
