MODEL 1
REMARK minimizedAffinity -0.971451461
REMARK minimizedRMSD -1
REMARK  0 active torsions:
REMARK  status: ('A' for Active; 'I' for Inactive)
ROOT
ATOM      1  C   UNL d   1      -4.217   5.385  -2.251  0.00  0.00     0.172 C 
ATOM      2  N   UNL d   1      -2.815   5.541  -2.558  0.00  0.00    -0.070 N 
ATOM      3  C1  UNL d   1      -1.855   6.000  -1.697  0.00  0.00    -0.004 A 
ATOM      4  C2  UNL d   1      -0.651   6.000  -2.368  0.00  0.00    -0.047 A 
ATOM      5  C3  UNL d   1      -0.896   5.525  -3.678  0.00  0.00    -0.047 A 
ATOM      6  C4  UNL d   1      -2.244   5.249  -3.769  0.00  0.00    -0.004 A 
ENDROOT
TORSDOF 0
ENDMDL
