MODEL 1
REMARK minimizedAffinity -4.16375875
REMARK minimizedRMSD -1
REMARK  1 active torsions:
REMARK  status: ('A' for Active; 'I' for Inactive)
REMARK    1  A    between atoms: C3_4  and  O_7 
ROOT
ATOM      1  C   UNL d   1       1.075  -0.703  -0.028  0.00  0.00    -0.033 A 
ATOM      2  C1  UNL d   1      -0.182  -0.602  -0.627  0.00  0.00     0.039 A 
ATOM      3  C2  UNL d   1      -1.262  -0.093   0.095  0.00  0.00    -0.080 A 
ATOM      4  C3  UNL d   1      -1.073   0.312   1.414  0.00  0.00     0.150 A 
ATOM      5  C4  UNL d   1       0.178   0.218   2.016  0.00  0.00    -0.007 A 
ATOM      6  C5  UNL d   1       1.255  -0.292   1.293  0.00  0.00     0.039 A 
ENDROOT
BRANCH   4   7
ATOM      7  O   UNL d   1      -2.099   0.811   2.160  0.00  0.00    -0.526 OA
ATOM      8  H5  UNL d   1      -2.908   0.790   1.624  0.00  0.00     0.418 HD
ENDBRANCH   4   7
TORSDOF 1
ENDMDL
