MODEL 1
REMARK minimizedAffinity 2.39396858
REMARK minimizedRMSD -1
REMARK  1 active torsions:
REMARK  status: ('A' for Active; 'I' for Inactive)
REMARK    1  A    between atoms: C3_4  and  O_7 
ROOT
ATOM      1  C   UNL d   1      -2.200   0.109   2.038  0.00  0.00    -0.033 A 
ATOM      2  C1  UNL d   1      -1.036   0.375   1.314  0.00  0.00     0.039 A 
ATOM      3  C2  UNL d   1       0.191  -0.125   1.754  0.00  0.00    -0.080 A 
ATOM      4  C3  UNL d   1       0.241  -0.888   2.917  0.00  0.00     0.150 A 
ATOM      5  C4  UNL d   1      -0.915  -1.160   3.641  0.00  0.00    -0.007 A 
ATOM      6  C5  UNL d   1      -2.140  -0.660   3.201  0.00  0.00     0.039 A 
ENDROOT
BRANCH   4   7
ATOM      7  O   UNL d   1       1.416  -1.394   3.388  0.00  0.00    -0.526 OA
ATOM      8  H5  UNL d   1       2.134  -1.101   2.802  0.00  0.00     0.418 HD
ENDBRANCH   4   7
TORSDOF 1
ENDMDL
