MODEL 1
REMARK minimizedAffinity -4.48971796
REMARK minimizedRMSD -1
REMARK  1 active torsions:
REMARK  status: ('A' for Active; 'I' for Inactive)
REMARK    1  A    between atoms: C3_4  and  O_7 
ROOT
ATOM      1  C   UNL d   1      -1.288   0.405   3.179  0.00  0.00    -0.033 A 
ATOM      2  C1  UNL d   1      -0.222  -0.230   3.819  0.00  0.00     0.039 A 
ATOM      3  C2  UNL d   1       0.901  -0.620   3.087  0.00  0.00    -0.080 A 
ATOM      4  C3  UNL d   1       0.946  -0.368   1.718  0.00  0.00     0.150 A 
ATOM      5  C4  UNL d   1      -0.111   0.267   1.075  0.00  0.00    -0.007 A 
ATOM      6  C5  UNL d   1      -1.232   0.655   1.807  0.00  0.00     0.039 A 
ENDROOT
BRANCH   4   7
ATOM      7  O   UNL d   1       2.020  -0.734   0.961  0.00  0.00    -0.526 OA
ATOM      8  H5  UNL d   1       2.660  -1.188   1.534  0.00  0.00     0.418 HD
ENDBRANCH   4   7
TORSDOF 1
ENDMDL
