MODEL 1
REMARK minimizedAffinity -1.65742314
REMARK minimizedRMSD -1
REMARK  1 active torsions:
REMARK  status: ('A' for Active; 'I' for Inactive)
REMARK    1  A    between atoms: C3_4  and  O_7 
ROOT
ATOM      1  C   UNL d   1       0.371  -1.116  -0.587  0.00  0.00    -0.033 A 
ATOM      2  C1  UNL d   1      -0.965  -1.013  -0.979  0.00  0.00     0.039 A 
ATOM      3  C2  UNL d   1      -1.898  -0.408  -0.134  0.00  0.00    -0.080 A 
ATOM      4  C3  UNL d   1      -1.483   0.089   1.098  0.00  0.00     0.150 A 
ATOM      5  C4  UNL d   1      -0.153  -0.008   1.494  0.00  0.00    -0.007 A 
ATOM      6  C5  UNL d   1       0.777  -0.612   0.649  0.00  0.00     0.039 A 
ENDROOT
BRANCH   4   7
ATOM      7  O   UNL d   1      -2.358   0.682   1.958  0.00  0.00    -0.526 OA
ATOM      8  H5  UNL d   1      -3.245   0.652   1.564  0.00  0.00     0.418 HD
ENDBRANCH   4   7
TORSDOF 1
ENDMDL
