MODEL 1
REMARK minimizedAffinity 4.1794076
REMARK minimizedRMSD -1
REMARK  1 active torsions:
REMARK  status: ('A' for Active; 'I' for Inactive)
REMARK    1  A    between atoms: C3_4  and  O_7 
ROOT
ATOM      1  C   UNL d   1      -3.651   0.737   1.236  0.00  0.00    -0.033 A 
ATOM      2  C1  UNL d   1      -3.090   0.621  -0.037  0.00  0.00     0.039 A 
ATOM      3  C2  UNL d   1      -1.813   0.079  -0.193  0.00  0.00    -0.080 A 
ATOM      4  C3  UNL d   1      -1.109  -0.345   0.931  0.00  0.00     0.150 A 
ATOM      5  C4  UNL d   1      -1.664  -0.237   2.202  0.00  0.00    -0.007 A 
ATOM      6  C5  UNL d   1      -2.938   0.306   2.356  0.00  0.00     0.039 A 
ENDROOT
BRANCH   4   7
ATOM      7  O   UNL d   1       0.142  -0.877   0.830  0.00  0.00    -0.526 OA
ATOM      8  H5  UNL d   1       0.408  -0.863  -0.105  0.00  0.00     0.418 HD
ENDBRANCH   4   7
TORSDOF 1
ENDMDL
