MODEL 1
REMARK minimizedAffinity -1.24265182
REMARK minimizedRMSD -1
REMARK  1 active torsions:
REMARK  status: ('A' for Active; 'I' for Inactive)
REMARK    1  A    between atoms: C3_4  and  O_7 
ROOT
ATOM      1  C   UNL d   1      -0.704  -0.801  -1.098  0.00  0.00    -0.033 A 
ATOM      2  C1  UNL d   1      -2.094  -0.881  -1.005  0.00  0.00     0.039 A 
ATOM      3  C2  UNL d   1      -2.740  -0.491   0.171  0.00  0.00    -0.080 A 
ATOM      4  C3  UNL d   1      -1.985  -0.024   1.243  0.00  0.00     0.150 A 
ATOM      5  C4  UNL d   1      -0.599   0.062   1.155  0.00  0.00    -0.007 A 
ATOM      6  C5  UNL d   1       0.044  -0.329  -0.019  0.00  0.00     0.039 A 
ENDROOT
BRANCH   4   7
ATOM      7  O   UNL d   1      -2.570   0.363   2.412  0.00  0.00    -0.526 OA
ATOM      8  H5  UNL d   1      -3.528   0.222   2.337  0.00  0.00     0.418 HD
ENDBRANCH   4   7
TORSDOF 1
ENDMDL
