MODEL 1
REMARK minimizedAffinity -1.8188647
REMARK minimizedRMSD -1
REMARK  1 active torsions:
REMARK  status: ('A' for Active; 'I' for Inactive)
REMARK    1  A    between atoms: C3_4  and  O_7 
ROOT
ATOM      1  C   UNL d   1      -0.653   0.579   1.504  0.00  0.00    -0.033 A 
ATOM      2  C1  UNL d   1      -1.771   0.082   2.176  0.00  0.00     0.039 A 
ATOM      3  C2  UNL d   1      -2.849  -0.436   1.456  0.00  0.00    -0.080 A 
ATOM      4  C3  UNL d   1      -2.796  -0.451   0.065  0.00  0.00     0.150 A 
ATOM      5  C4  UNL d   1      -1.684   0.039  -0.612  0.00  0.00    -0.007 A 
ATOM      6  C5  UNL d   1      -0.609   0.556   0.109  0.00  0.00     0.039 A 
ENDROOT
BRANCH   4   7
ATOM      7  O   UNL d   1      -3.826  -0.942  -0.682  0.00  0.00    -0.526 OA
ATOM      8  H5  UNL d   1      -4.538  -1.219  -0.081  0.00  0.00     0.418 HD
ENDBRANCH   4   7
TORSDOF 1
ENDMDL
