MODEL 1
REMARK minimizedAffinity -3.16684484
REMARK minimizedRMSD -1
REMARK  1 active torsions:
REMARK  status: ('A' for Active; 'I' for Inactive)
REMARK    1  A    between atoms: C3_4  and  O_7 
ROOT
ATOM      1  C   UNL d   1      -1.916  -0.471   1.854  0.00  0.00    -0.033 A 
ATOM      2  C1  UNL d   1      -1.682  -0.562   0.480  0.00  0.00     0.039 A 
ATOM      3  C2  UNL d   1      -0.395  -0.368  -0.025  0.00  0.00    -0.080 A 
ATOM      4  C3  UNL d   1       0.648  -0.086   0.853  0.00  0.00     0.150 A 
ATOM      5  C4  UNL d   1       0.423   0.002   2.222  0.00  0.00    -0.007 A 
ATOM      6  C5  UNL d   1      -0.863  -0.190   2.725  0.00  0.00     0.039 A 
ENDROOT
BRANCH   4   7
ATOM      7  O   UNL d   1       1.920   0.116   0.406  0.00  0.00    -0.526 OA
ATOM      8  H5  UNL d   1       1.920   0.052  -0.564  0.00  0.00     0.418 HD
ENDBRANCH   4   7
TORSDOF 1
ENDMDL
