MODEL 1
REMARK minimizedAffinity 7.77018452
REMARK minimizedRMSD -1
REMARK  0 active torsions:
REMARK  status: ('A' for Active; 'I' for Inactive)
ROOT
ATOM      1  C4' PXY d   1       0.371   2.310   5.927  0.00  0.00     0.077 C 
ATOM      2  C1' PXY d   1       0.525  -1.300   1.414  0.00  0.00     0.077 C 
ATOM      3  C1  PXY d   1       0.479  -0.344   2.590  0.00  0.00    -0.082 A 
ATOM      4  C2  PXY d   1       1.354  -0.474   3.574  0.00  0.00     0.003 A 
ATOM      5  C3  PXY d   1       1.306   0.361   4.660  0.00  0.00     0.003 A 
ATOM      6  C4  PXY d   1       0.387   1.374   4.715  0.00  0.00    -0.082 A 
ATOM      7  C5  PXY d   1      -0.503   1.520   3.710  0.00  0.00     0.003 A 
ATOM      8  C6  PXY d   1      -0.464   0.636   2.636  0.00  0.00     0.003 A 
ENDROOT
TORSDOF 0
ENDMDL
