MODEL 1
REMARK minimizedAffinity 8.85131264
REMARK minimizedRMSD -1
REMARK  0 active torsions:
REMARK  status: ('A' for Active; 'I' for Inactive)
ROOT
ATOM      1  C4' PXY d   1       3.489   0.573   3.423  0.00  0.00     0.077 C 
ATOM      2  C1' PXY d   1      -1.868  -1.263   2.265  0.00  0.00     0.077 C 
ATOM      3  C1  PXY d   1      -0.462  -0.790   2.579  0.00  0.00    -0.082 A 
ATOM      4  C2  PXY d   1      -0.100   0.442   2.260  0.00  0.00     0.003 A 
ATOM      5  C3  PXY d   1       1.177   0.875   2.507  0.00  0.00     0.003 A 
ATOM      6  C4  PXY d   1       2.077   0.057   3.135  0.00  0.00    -0.082 A 
ATOM      7  C5  PXY d   1       1.712  -1.199   3.472  0.00  0.00     0.003 A 
ATOM      8  C6  PXY d   1       0.424  -1.633   3.176  0.00  0.00     0.003 A 
ENDROOT
TORSDOF 0
ENDMDL
