MODEL 1
REMARK minimizedAffinity 7.89428902
REMARK minimizedRMSD -1
REMARK  0 active torsions:
REMARK  status: ('A' for Active; 'I' for Inactive)
ROOT
ATOM      1  C4' PXY d   1       0.839   1.569   5.599  0.00  0.00     0.077 C 
ATOM      2  C1' PXY d   1       0.441  -1.531   0.737  0.00  0.00     0.077 C 
ATOM      3  C1  PXY d   1       0.552  -0.728   2.018  0.00  0.00    -0.082 A 
ATOM      4  C2  PXY d   1      -0.299   0.259   2.246  0.00  0.00     0.003 A 
ATOM      5  C3  PXY d   1      -0.194   1.016   3.384  0.00  0.00     0.003 A 
ATOM      6  C4  PXY d   1       0.759   0.726   4.324  0.00  0.00    -0.082 A 
ATOM      7  C5  PXY d   1       1.624  -0.287   4.103  0.00  0.00     0.003 A 
ATOM      8  C6  PXY d   1       1.526  -1.017   2.922  0.00  0.00     0.003 A 
ENDROOT
TORSDOF 0
ENDMDL
