MODEL 1
REMARK minimizedAffinity 14.9346447
REMARK minimizedRMSD -1
REMARK  0 active torsions:
REMARK  status: ('A' for Active; 'I' for Inactive)
ROOT
ATOM      1  C4' PXY d   1       0.409  -5.465  -5.998  0.00  0.00     0.077 C 
ATOM      2  C1' PXY d   1       1.064   0.025  -4.311  0.00  0.00     0.077 C 
ATOM      3  C1  PXY d   1       0.905  -1.415  -4.758  0.00  0.00    -0.082 A 
ATOM      4  C2  PXY d   1      -0.301  -1.885  -5.032  0.00  0.00     0.003 A 
ATOM      5  C3  PXY d   1      -0.467  -3.194  -5.407  0.00  0.00     0.003 A 
ATOM      6  C4  PXY d   1       0.618  -4.015  -5.553  0.00  0.00    -0.082 A 
ATOM      7  C5  PXY d   1       1.853  -3.541  -5.285  0.00  0.00     0.003 A 
ATOM      8  C6  PXY d   1       1.996  -2.221  -4.867  0.00  0.00     0.003 A 
ENDROOT
TORSDOF 0
ENDMDL
