MODEL 1
REMARK minimizedAffinity 10.9217196
REMARK minimizedRMSD -1
REMARK  0 active torsions:
REMARK  status: ('A' for Active; 'I' for Inactive)
ROOT
ATOM      1  C4' PXY d   1       4.637   0.629  -5.534  0.00  0.00     0.077 C 
ATOM      2  C1' PXY d   1      -0.354  -1.379  -3.421  0.00  0.00     0.077 C 
ATOM      3  C1  PXY d   1       0.960  -0.864  -3.972  0.00  0.00    -0.082 A 
ATOM      4  C2  PXY d   1       1.175   0.440  -4.041  0.00  0.00     0.003 A 
ATOM      5  C3  PXY d   1       2.345   0.924  -4.566  0.00  0.00     0.003 A 
ATOM      6  C4  PXY d   1       3.328   0.064  -4.976  0.00  0.00    -0.082 A 
ATOM      7  C5  PXY d   1       3.122  -1.268  -4.899  0.00  0.00     0.003 A 
ATOM      8  C6  PXY d   1       1.910  -1.739  -4.401  0.00  0.00     0.003 A 
ENDROOT
TORSDOF 0
ENDMDL
