MODEL 1
REMARK minimizedAffinity 7.26331043
REMARK minimizedRMSD -1
REMARK  0 active torsions:
REMARK  status: ('A' for Active; 'I' for Inactive)
ROOT
ATOM      1  C4' PXY d   1      -2.350  -1.050   1.767  0.00  0.00     0.077 C 
ATOM      2  C1' PXY d   1       2.979   0.480   3.402  0.00  0.00     0.077 C 
ATOM      3  C1  PXY d   1       1.586   0.068   2.967  0.00  0.00    -0.082 A 
ATOM      4  C2  PXY d   1       0.644   0.987   2.832  0.00  0.00     0.003 A 
ATOM      5  C3  PXY d   1      -0.629   0.628   2.471  0.00  0.00     0.003 A 
ATOM      6  C4  PXY d   1      -0.928  -0.679   2.194  0.00  0.00    -0.082 A 
ATOM      7  C5  PXY d   1       0.031  -1.621   2.319  0.00  0.00     0.003 A 
ATOM      8  C6  PXY d   1       1.306  -1.241   2.726  0.00  0.00     0.003 A 
ENDROOT
TORSDOF 0
ENDMDL
