MODEL 1
REMARK minimizedAffinity 17.1412296
REMARK minimizedRMSD -1
REMARK  0 active torsions:
REMARK  status: ('A' for Active; 'I' for Inactive)
ROOT
ATOM      1  C4' PXY d   1       1.090  -2.217   3.598  0.00  0.00     0.077 C 
ATOM      2  C1' PXY d   1      -1.739   2.775   2.894  0.00  0.00     0.077 C 
ATOM      3  C1  PXY d   1      -1.008   1.459   3.077  0.00  0.00    -0.082 A 
ATOM      4  C2  PXY d   1       0.141   1.435   3.734  0.00  0.00     0.003 A 
ATOM      5  C3  PXY d   1       0.830   0.259   3.881  0.00  0.00     0.003 A 
ATOM      6  C4  PXY d   1       0.313  -0.913   3.398  0.00  0.00    -0.082 A 
ATOM      7  C5  PXY d   1      -0.864  -0.898   2.736  0.00  0.00     0.003 A 
ATOM      8  C6  PXY d   1      -1.528   0.313   2.561  0.00  0.00     0.003 A 
ENDROOT
TORSDOF 0
ENDMDL
