MODEL 1
REMARK minimizedAffinity 10.8107576
REMARK minimizedRMSD -1
REMARK  0 active torsions:
REMARK  status: ('A' for Active; 'I' for Inactive)
ROOT
ATOM      1  C4' PXY d   1      -3.593  -1.512   3.150  0.00  0.00     0.077 C 
ATOM      2  C1' PXY d   1       1.891   0.281   2.787  0.00  0.00     0.077 C 
ATOM      3  C1  PXY d   1       0.457  -0.202   2.880  0.00  0.00    -0.082 A 
ATOM      4  C2  PXY d   1      -0.534   0.640   2.631  0.00  0.00     0.003 A 
ATOM      5  C3  PXY d   1      -1.837   0.229   2.742  0.00  0.00     0.003 A 
ATOM      6  C4  PXY d   1      -2.129  -1.071   3.059  0.00  0.00    -0.082 A 
ATOM      7  C5  PXY d   1      -1.124  -1.938   3.305  0.00  0.00     0.003 A 
ATOM      8  C6  PXY d   1       0.192  -1.490   3.227  0.00  0.00     0.003 A 
ENDROOT
TORSDOF 0
ENDMDL
