MODEL 1
REMARK minimizedAffinity 8.78509617
REMARK minimizedRMSD -1
REMARK  0 active torsions:
REMARK  status: ('A' for Active; 'I' for Inactive)
ROOT
ATOM      1  C4' PXY d   1       2.512   0.454   3.530  0.00  0.00     0.077 C 
ATOM      2  C1' PXY d   1      -2.843  -1.000   1.910  0.00  0.00     0.077 C 
ATOM      3  C1  PXY d   1      -1.436  -0.631   2.337  0.00  0.00    -0.082 A 
ATOM      4  C2  PXY d   1      -1.195   0.574   2.826  0.00  0.00     0.003 A 
ATOM      5  C3  PXY d   1       0.078   0.935   3.187  0.00  0.00     0.003 A 
ATOM      6  C4  PXY d   1       1.105   0.035   3.096  0.00  0.00    -0.082 A 
ATOM      7  C5  PXY d   1       0.866  -1.201   2.607  0.00  0.00     0.003 A 
ATOM      8  C6  PXY d   1      -0.425  -1.534   2.208  0.00  0.00     0.003 A 
ENDROOT
TORSDOF 0
ENDMDL
