MODEL 1
REMARK minimizedAffinity 12.1233406
REMARK minimizedRMSD -1
REMARK  0 active torsions:
REMARK  status: ('A' for Active; 'I' for Inactive)
ROOT
ATOM      1  C4' PXY d   1       2.780   0.437   3.145  0.00  0.00     0.077 C 
ATOM      2  C1' PXY d   1      -2.624  -1.300   2.050  0.00  0.00     0.077 C 
ATOM      3  C1  PXY d   1      -1.202  -0.856   2.334  0.00  0.00    -0.082 A 
ATOM      4  C2  PXY d   1      -0.986   0.167   3.144  0.00  0.00     0.003 A 
ATOM      5  C3  PXY d   1       0.292   0.602   3.387  0.00  0.00     0.003 A 
ATOM      6  C4  PXY d   1       1.362  -0.052   2.837  0.00  0.00    -0.082 A 
ATOM      7  C5  PXY d   1       1.150  -1.104   2.017  0.00  0.00     0.003 A 
ATOM      8  C6  PXY d   1      -0.156  -1.503   1.751  0.00  0.00     0.003 A 
ENDROOT
TORSDOF 0
ENDMDL
