MODEL 1
REMARK minimizedAffinity -0.122906044
REMARK minimizedRMSD -1
REMARK  0 active torsions:
REMARK  status: ('A' for Active; 'I' for Inactive)
ROOT
ATOM      1  C   UNL d   1       3.231   0.352   0.730  0.00  0.00    -0.002 A 
ATOM      2  C1  UNL d   1       2.599   1.557   0.455  0.00  0.00     0.010 A 
ATOM      3  C2  UNL d   1       1.226   1.599   0.207  0.00  0.00     0.041 A 
ATOM      4  C3  UNL d   1       0.490   0.398   0.242  0.00  0.00    -0.075 A 
ATOM      5  S   UNL d   1      -1.202   0.207  -0.029  0.00  0.00     0.015 SA
ATOM      6  C4  UNL d   1      -1.127  -1.478   0.215  0.00  0.00     0.022 A 
ATOM      7  C5  UNL d   1       0.150  -1.902   0.497  0.00  0.00     0.026 A 
ATOM      8  C6  UNL d   1       1.103  -0.828   0.518  0.00  0.00    -0.082 A 
ATOM      9  C7  UNL d   1       2.497  -0.837   0.765  0.00  0.00     0.045 A 
ENDROOT
TORSDOF 0
ENDMDL
