MODEL 1
REMARK minimizedAffinity -2.02567744
REMARK minimizedRMSD -1
REMARK  0 active torsions:
REMARK  status: ('A' for Active; 'I' for Inactive)
ROOT
ATOM      1  C   UNL d   1       2.147   1.466   0.841  0.00  0.00    -0.002 A 
ATOM      2  C1  UNL d   1       2.222   0.468   1.802  0.00  0.00     0.010 A 
ATOM      3  C2  UNL d   1       1.191  -0.462   1.942  0.00  0.00     0.041 A 
ATOM      4  C3  UNL d   1       0.072  -0.373   1.090  0.00  0.00    -0.075 A 
ATOM      5  S   UNL d   1      -1.310  -1.403   1.079  0.00  0.00     0.015 SA
ATOM      6  C4  UNL d   1      -2.033  -0.543  -0.203  0.00  0.00     0.022 A 
ATOM      7  C5  UNL d   1      -1.253   0.508  -0.624  0.00  0.00     0.026 A 
ATOM      8  C6  UNL d   1      -0.026   0.623   0.115  0.00  0.00    -0.082 A 
ATOM      9  C7  UNL d   1       1.036   1.552  -0.002  0.00  0.00     0.045 A 
ENDROOT
TORSDOF 0
ENDMDL
