MODEL 1
REMARK minimizedAffinity -3.92012286
REMARK minimizedRMSD -1
REMARK  0 active torsions:
REMARK  status: ('A' for Active; 'I' for Inactive)
ROOT
ATOM      1  C   UNL d   1       2.744  -0.069   1.444  0.00  0.00    -0.002 A 
ATOM      2  C1  UNL d   1       2.270  -1.211   2.073  0.00  0.00     0.010 A 
ATOM      3  C2  UNL d   1       0.971  -1.667   1.834  0.00  0.00     0.041 A 
ATOM      4  C3  UNL d   1       0.151  -0.949   0.942  0.00  0.00    -0.075 A 
ATOM      5  S   UNL d   1      -1.473  -1.320   0.496  0.00  0.00     0.015 SA
ATOM      6  C4  UNL d   1      -1.575   0.029  -0.541  0.00  0.00     0.022 A 
ATOM      7  C5  UNL d   1      -0.408   0.756  -0.559  0.00  0.00     0.026 A 
ATOM      8  C6  UNL d   1       0.606   0.204   0.296  0.00  0.00    -0.082 A 
ATOM      9  C7  UNL d   1       1.927   0.640   0.559  0.00  0.00     0.045 A 
ENDROOT
TORSDOF 0
ENDMDL
