MODEL 1
REMARK minimizedAffinity -2.25829959
REMARK minimizedRMSD -1
REMARK  0 active torsions:
REMARK  status: ('A' for Active; 'I' for Inactive)
ROOT
ATOM      1  C   UNL d   1       2.358  -0.947   4.460  0.00  0.00    -0.002 A 
ATOM      2  C1  UNL d   1       2.226   0.387   4.817  0.00  0.00     0.010 A 
ATOM      3  C2  UNL d   1       2.169   1.382   3.839  0.00  0.00     0.041 A 
ATOM      4  C3  UNL d   1       2.246   1.010   2.483  0.00  0.00    -0.075 A 
ATOM      5  S   UNL d   1       2.197   2.056   1.113  0.00  0.00     0.015 SA
ATOM      6  C4  UNL d   1       2.349   0.756   0.021  0.00  0.00     0.022 A 
ATOM      7  C5  UNL d   1       2.437  -0.454   0.669  0.00  0.00     0.026 A 
ATOM      8  C6  UNL d   1       2.379  -0.327   2.098  0.00  0.00    -0.082 A 
ATOM      9  C7  UNL d   1       2.435  -1.313   3.113  0.00  0.00     0.045 A 
ENDROOT
TORSDOF 0
ENDMDL
