MODEL 1
REMARK minimizedAffinity -0.451613337
REMARK minimizedRMSD -1
REMARK  0 active torsions:
REMARK  status: ('A' for Active; 'I' for Inactive)
ROOT
ATOM      1  C   UNL d   1       1.902  -0.643   0.715  0.00  0.00    -0.002 A 
ATOM      2  C1  UNL d   1       1.339  -1.820   1.188  0.00  0.00     0.010 A 
ATOM      3  C2  UNL d   1      -0.036  -2.039   1.086  0.00  0.00     0.041 A 
ATOM      4  C3  UNL d   1      -0.843  -1.047   0.495  0.00  0.00    -0.075 A 
ATOM      5  S   UNL d   1      -2.551  -1.098   0.263  0.00  0.00     0.015 SA
ATOM      6  C4  UNL d   1      -2.572   0.441  -0.469  0.00  0.00     0.022 A 
ATOM      7  C5  UNL d   1      -1.316   0.995  -0.542  0.00  0.00     0.026 A 
ATOM      8  C6  UNL d   1      -0.299   0.146   0.011  0.00  0.00    -0.082 A 
ATOM      9  C7  UNL d   1       1.099   0.339   0.130  0.00  0.00     0.045 A 
ENDROOT
TORSDOF 0
ENDMDL
