MODEL 1
REMARK minimizedAffinity 5.06894255
REMARK minimizedRMSD -1
REMARK  0 active torsions:
REMARK  status: ('A' for Active; 'I' for Inactive)
ROOT
ATOM      1  C   UNL d   1       2.733   1.570   3.170  0.00  0.00    -0.002 A 
ATOM      2  C1  UNL d   1       1.819   2.439   2.591  0.00  0.00     0.010 A 
ATOM      3  C2  UNL d   1       0.894   1.975   1.653  0.00  0.00     0.041 A 
ATOM      4  C3  UNL d   1       0.902   0.610   1.306  0.00  0.00    -0.075 A 
ATOM      5  S   UNL d   1      -0.138  -0.183   0.183  0.00  0.00     0.015 SA
ATOM      6  C4  UNL d   1       0.605  -1.693   0.446  0.00  0.00     0.022 A 
ATOM      7  C5  UNL d   1       1.625  -1.613   1.365  0.00  0.00     0.026 A 
ATOM      8  C6  UNL d   1       1.812  -0.284   1.877  0.00  0.00    -0.082 A 
ATOM      9  C7  UNL d   1       2.738   0.217   2.823  0.00  0.00     0.045 A 
ENDROOT
TORSDOF 0
ENDMDL
