MODEL 1
REMARK minimizedAffinity -0.129673317
REMARK minimizedRMSD -1
REMARK  0 active torsions:
REMARK  status: ('A' for Active; 'I' for Inactive)
ROOT
ATOM      1  C   UNL d   1       0.024  -0.631  -1.178  0.00  0.00     0.020 A 
ATOM      2  C1  UNL d   1       0.868  -0.536  -0.072  0.00  0.00     0.020 A 
ATOM      3  C2  UNL d   1       0.841   0.608   0.730  0.00  0.00     0.034 A 
ATOM      4  C3  UNL d   1      -0.030   1.660   0.426  0.00  0.00     0.017 A 
ATOM      5  C4  UNL d   1      -0.877   1.563  -0.684  0.00  0.00     0.017 A 
ATOM      6  C5  UNL d   1      -0.847   0.416  -1.483  0.00  0.00     0.034 A 
ATOM      7 Cl   UNL d   1      -1.979   2.820  -1.121  0.00  0.00    -0.070 Cl
ATOM      8 Cl1  UNL d   1      -0.009   3.044   1.461  0.00  0.00    -0.070 Cl
ENDROOT
TORSDOF 0
ENDMDL
