MODEL 1
REMARK minimizedAffinity -3.01227665
REMARK minimizedRMSD -1
REMARK  0 active torsions:
REMARK  status: ('A' for Active; 'I' for Inactive)
ROOT
ATOM      1  C   UNL d   1       1.175  -1.510   0.447  0.00  0.00     0.020 A 
ATOM      2  C1  UNL d   1       0.963  -1.435  -0.929  0.00  0.00     0.020 A 
ATOM      3  C2  UNL d   1       0.423  -0.277  -1.490  0.00  0.00     0.034 A 
ATOM      4  C3  UNL d   1       0.091   0.812  -0.675  0.00  0.00     0.017 A 
ATOM      5  C4  UNL d   1       0.304   0.736   0.706  0.00  0.00     0.017 A 
ATOM      6  C5  UNL d   1       0.846  -0.427   1.263  0.00  0.00     0.034 A 
ATOM      7 Cl   UNL d   1      -0.080   2.037   1.776  0.00  0.00    -0.070 Cl
ATOM      8 Cl1  UNL d   1      -0.573   2.213  -1.437  0.00  0.00    -0.070 Cl
ENDROOT
TORSDOF 0
ENDMDL
