MODEL 1
REMARK minimizedAffinity -4.29703093
REMARK minimizedRMSD -1
REMARK  0 active torsions:
REMARK  status: ('A' for Active; 'I' for Inactive)
ROOT
ATOM      1  C   UNL d   1       0.205  -0.357  -1.755  0.00  0.00     0.020 A 
ATOM      2  C1  UNL d   1       0.309  -0.783  -0.432  0.00  0.00     0.020 A 
ATOM      3  C2  UNL d   1       0.251   0.148   0.608  0.00  0.00     0.034 A 
ATOM      4  C3  UNL d   1       0.089   1.510   0.325  0.00  0.00     0.017 A 
ATOM      5  C4  UNL d   1      -0.015   1.936  -1.004  0.00  0.00     0.017 A 
ATOM      6  C5  UNL d   1       0.044   0.999  -2.041  0.00  0.00     0.034 A 
ATOM      7 Cl   UNL d   1      -0.217   3.598  -1.431  0.00  0.00    -0.070 Cl
ATOM      8 Cl1  UNL d   1       0.025   2.605   1.660  0.00  0.00    -0.070 Cl
ENDROOT
TORSDOF 0
ENDMDL
