MODEL 1
REMARK minimizedAffinity -5.24146128
REMARK minimizedRMSD -1
REMARK  0 active torsions:
REMARK  status: ('A' for Active; 'I' for Inactive)
ROOT
ATOM      1  C   UNL d   1      -0.743   2.858   1.158  0.00  0.00     0.020 A 
ATOM      2  C1  UNL d   1      -0.851   2.776  -0.230  0.00  0.00     0.020 A 
ATOM      3  C2  UNL d   1      -0.314   1.679  -0.908  0.00  0.00     0.034 A 
ATOM      4  C3  UNL d   1       0.332   0.660  -0.199  0.00  0.00     0.017 A 
ATOM      5  C4  UNL d   1       0.440   0.744   1.194  0.00  0.00     0.017 A 
ATOM      6  C5  UNL d   1      -0.099   1.844   1.868  0.00  0.00     0.034 A 
ATOM      7 Cl   UNL d   1       1.224  -0.474   2.138  0.00  0.00    -0.070 Cl
ATOM      8 Cl1  UNL d   1       0.972  -0.666  -1.102  0.00  0.00    -0.070 Cl
ENDROOT
TORSDOF 0
ENDMDL
