MODEL 1
REMARK minimizedAffinity -3.13570333
REMARK minimizedRMSD -1
REMARK  0 active torsions:
REMARK  status: ('A' for Active; 'I' for Inactive)
ROOT
ATOM      1  C   UNL d   1       0.963  -0.796   0.831  0.00  0.00     0.020 A 
ATOM      2  C1  UNL d   1       0.807  -0.889  -0.552  0.00  0.00     0.020 A 
ATOM      3  C2  UNL d   1       0.056   0.070  -1.236  0.00  0.00     0.034 A 
ATOM      4  C3  UNL d   1      -0.541   1.125  -0.537  0.00  0.00     0.017 A 
ATOM      5  C4  UNL d   1      -0.384   1.218   0.850  0.00  0.00     0.017 A 
ATOM      6  C5  UNL d   1       0.369   0.256   1.530  0.00  0.00     0.034 A 
ATOM      7 Cl   UNL d   1      -1.091   2.492   1.780  0.00  0.00    -0.070 Cl
ATOM      8 Cl1  UNL d   1      -1.456   2.275  -1.447  0.00  0.00    -0.070 Cl
ENDROOT
TORSDOF 0
ENDMDL
