MODEL 1
REMARK minimizedAffinity -4.16530848
REMARK minimizedRMSD -1
REMARK  0 active torsions:
REMARK  status: ('A' for Active; 'I' for Inactive)
ROOT
ATOM      1  C   UNL d   1      -1.246   3.285   1.456  0.00  0.00     0.020 A 
ATOM      2  C1  UNL d   1      -0.924   2.064   2.048  0.00  0.00     0.020 A 
ATOM      3  C2  UNL d   1      -0.497   0.996   1.256  0.00  0.00     0.034 A 
ATOM      4  C3  UNL d   1      -0.390   1.146  -0.131  0.00  0.00     0.017 A 
ATOM      5  C4  UNL d   1      -0.713   2.372  -0.724  0.00  0.00     0.017 A 
ATOM      6  C5  UNL d   1      -1.140   3.438   0.073  0.00  0.00     0.034 A 
ATOM      7 Cl   UNL d   1      -0.606   2.633  -2.429  0.00  0.00    -0.070 Cl
ATOM      8 Cl1  UNL d   1       0.145  -0.217  -1.048  0.00  0.00    -0.070 Cl
ENDROOT
TORSDOF 0
ENDMDL
