MODEL 1
REMARK minimizedAffinity -6.1258111
REMARK minimizedRMSD -1
REMARK  0 active torsions:
REMARK  status: ('A' for Active; 'I' for Inactive)
ROOT
ATOM      1  C   UNL d   1      -1.381   2.878   0.076  0.00  0.00     0.020 A 
ATOM      2  C1  UNL d   1      -1.082   3.060   1.425  0.00  0.00     0.020 A 
ATOM      3  C2  UNL d   1      -0.316   2.110   2.105  0.00  0.00     0.034 A 
ATOM      4  C3  UNL d   1       0.153   0.975   1.435  0.00  0.00     0.017 A 
ATOM      5  C4  UNL d   1      -0.148   0.793   0.080  0.00  0.00     0.017 A 
ATOM      6  C5  UNL d   1      -0.915   1.747  -0.595  0.00  0.00     0.034 A 
ATOM      7 Cl   UNL d   1       0.395  -0.583  -0.813  0.00  0.00    -0.070 Cl
ATOM      8 Cl1  UNL d   1       1.095  -0.159   2.337  0.00  0.00    -0.070 Cl
ENDROOT
TORSDOF 0
ENDMDL
