MODEL 1
REMARK minimizedAffinity -4.1110487
REMARK minimizedRMSD -1
REMARK  0 active torsions:
REMARK  status: ('A' for Active; 'I' for Inactive)
ROOT
ATOM      1  C   UNL d   1      -1.258   2.401   1.670  0.00  0.00     0.020 A 
ATOM      2  C1  UNL d   1      -1.802   2.102   0.421  0.00  0.00     0.020 A 
ATOM      3  C2  UNL d   1      -1.274   1.055  -0.338  0.00  0.00     0.034 A 
ATOM      4  C3  UNL d   1      -0.199   0.304   0.152  0.00  0.00     0.017 A 
ATOM      5  C4  UNL d   1       0.346   0.605   1.405  0.00  0.00     0.017 A 
ATOM      6  C5  UNL d   1      -0.187   1.654   2.160  0.00  0.00     0.034 A 
ATOM      7 Cl   UNL d   1       1.672  -0.277   2.075  0.00  0.00    -0.070 Cl
ATOM      8 Cl1  UNL d   1       0.403  -0.977  -0.840  0.00  0.00    -0.070 Cl
ENDROOT
TORSDOF 0
ENDMDL
