MODEL 1
REMARK minimizedAffinity 21.6475906
REMARK minimizedRMSD -1
REMARK  0 active torsions:
REMARK  status: ('A' for Active; 'I' for Inactive)
ROOT
ATOM      1  C   UNL d   1       0.299   2.063  -1.765  0.00  0.00    -0.002 A 
ATOM      2  C1  UNL d   1      -0.993   2.557  -1.665  0.00  0.00     0.010 A 
ATOM      3  C2  UNL d   1      -1.244   3.764  -1.011  0.00  0.00     0.041 A 
ATOM      4  C3  UNL d   1      -0.162   4.475  -0.456  0.00  0.00    -0.075 A 
ATOM      5  S   UNL d   1      -0.229   5.976   0.390  0.00  0.00     0.015 SA
ATOM      6  C4  UNL d   1       1.458   5.998   0.637  0.00  0.00     0.022 A 
ATOM      7  C5  UNL d   1       2.072   4.894   0.095  0.00  0.00     0.026 A 
ATOM      8  C6  UNL d   1       1.149   3.999  -0.544  0.00  0.00    -0.082 A 
ATOM      9  C7  UNL d   1       1.370   2.771  -1.213  0.00  0.00     0.045 A 
ENDROOT
TORSDOF 0
ENDMDL
