MODEL 1
REMARK minimizedAffinity 16.3814449
REMARK minimizedRMSD -1
REMARK  0 active torsions:
REMARK  status: ('A' for Active; 'I' for Inactive)
ROOT
ATOM      1  C   UNL d   1      -1.009  -0.736   6.000  0.00  0.00    -0.002 A 
ATOM      2  C1  UNL d   1      -1.827  -1.692   5.415  0.00  0.00     0.010 A 
ATOM      3  C2  UNL d   1      -1.583  -2.136   4.114  0.00  0.00     0.041 A 
ATOM      4  C3  UNL d   1      -0.492  -1.599   3.404  0.00  0.00    -0.075 A 
ATOM      5  S   UNL d   1      -0.000  -1.993   1.799  0.00  0.00     0.015 SA
ATOM      6  C4  UNL d   1       1.308  -0.902   1.852  0.00  0.00     0.022 A 
ATOM      7  C5  UNL d   1       1.382  -0.244   3.057  0.00  0.00     0.026 A 
ATOM      8  C6  UNL d   1       0.347  -0.636   3.972  0.00  0.00    -0.082 A 
ATOM      9  C7  UNL d   1       0.073  -0.206   5.293  0.00  0.00     0.045 A 
ENDROOT
TORSDOF 0
ENDMDL
