MODEL 1
REMARK minimizedAffinity 20.580431
REMARK minimizedRMSD -1
REMARK  0 active torsions:
REMARK  status: ('A' for Active; 'I' for Inactive)
ROOT
ATOM      1  C   UNL d   1       1.176  -0.220   2.885  0.00  0.00    -0.002 A 
ATOM      2  C1  UNL d   1       0.729   0.096   4.161  0.00  0.00     0.010 A 
ATOM      3  C2  UNL d   1      -0.343  -0.594   4.729  0.00  0.00     0.041 A 
ATOM      4  C3  UNL d   1      -0.964  -1.618   3.987  0.00  0.00    -0.075 A 
ATOM      5  S   UNL d   1      -2.294  -2.599   4.480  0.00  0.00     0.015 SA
ATOM      6  C4  UNL d   1      -2.300  -3.460   3.010  0.00  0.00     0.022 A 
ATOM      7  C5  UNL d   1      -1.319  -3.024   2.152  0.00  0.00     0.026 A 
ATOM      8  C6  UNL d   1      -0.532  -1.955   2.701  0.00  0.00    -0.082 A 
ATOM      9  C7  UNL d   1       0.557  -1.237   2.153  0.00  0.00     0.045 A 
ENDROOT
TORSDOF 0
ENDMDL
