MODEL 1
REMARK minimizedAffinity 20.5452824
REMARK minimizedRMSD -1
REMARK  0 active torsions:
REMARK  status: ('A' for Active; 'I' for Inactive)
ROOT
ATOM      1  C   UNL d   1      -1.394  -1.278   4.629  0.00  0.00    -0.002 A 
ATOM      2  C1  UNL d   1      -1.590  -2.471   3.947  0.00  0.00     0.010 A 
ATOM      3  C2  UNL d   1      -0.879  -2.746   2.777  0.00  0.00     0.041 A 
ATOM      4  C3  UNL d   1       0.043  -1.793   2.300  0.00  0.00    -0.075 A 
ATOM      5  S   UNL d   1       1.026  -1.914   0.890  0.00  0.00     0.015 SA
ATOM      6  C4  UNL d   1       1.730  -0.386   1.159  0.00  0.00     0.022 A 
ATOM      7  C5  UNL d   1       1.238   0.216   2.293  0.00  0.00     0.026 A 
ATOM      8  C6  UNL d   1       0.258  -0.585   2.970  0.00  0.00    -0.082 A 
ATOM      9  C7  UNL d   1      -0.479  -0.336   4.152  0.00  0.00     0.045 A 
ENDROOT
TORSDOF 0
ENDMDL
