MODEL 1
REMARK minimizedAffinity 11.1512194
REMARK minimizedRMSD -1
REMARK  0 active torsions:
REMARK  status: ('A' for Active; 'I' for Inactive)
ROOT
ATOM      1  C   UNL d   1       4.692  -1.344  -0.544  0.00  0.00    -0.002 A 
ATOM      2  C1  UNL d   1       4.551   0.022  -0.347  0.00  0.00     0.010 A 
ATOM      3  C2  UNL d   1       3.479   0.527   0.391  0.00  0.00     0.041 A 
ATOM      4  C3  UNL d   1       2.541  -0.374   0.934  0.00  0.00    -0.075 A 
ATOM      5  S   UNL d   1       1.149   0.016   1.873  0.00  0.00     0.015 SA
ATOM      6  C4  UNL d   1       0.708  -1.623   2.035  0.00  0.00     0.022 A 
ATOM      7  C5  UNL d   1       1.590  -2.460   1.395  0.00  0.00     0.026 A 
ATOM      8  C6  UNL d   1       2.662  -1.754   0.750  0.00  0.00    -0.082 A 
ATOM      9  C7  UNL d   1       3.760  -2.234  -0.004  0.00  0.00     0.045 A 
ENDROOT
TORSDOF 0
ENDMDL
