MODEL 1
REMARK minimizedAffinity 16.4509163
REMARK minimizedRMSD -1
REMARK  0 active torsions:
REMARK  status: ('A' for Active; 'I' for Inactive)
ROOT
ATOM      1  C   UNL d   1       1.341  -3.329   1.610  0.00  0.00    -0.002 A 
ATOM      2  C1  UNL d   1       0.487  -2.285   1.934  0.00  0.00     0.010 A 
ATOM      3  C2  UNL d   1       0.862  -0.961   1.698  0.00  0.00     0.041 A 
ATOM      4  C3  UNL d   1       2.122  -0.702   1.122  0.00  0.00    -0.075 A 
ATOM      5  S   UNL d   1       2.793   0.840   0.741  0.00  0.00     0.015 SA
ATOM      6  C4  UNL d   1       4.229   0.149   0.138  0.00  0.00     0.022 A 
ATOM      7  C5  UNL d   1       4.214  -1.224   0.218  0.00  0.00     0.026 A 
ATOM      8  C6  UNL d   1       2.999  -1.736   0.786  0.00  0.00    -0.082 A 
ATOM      9  C7  UNL d   1       2.590  -3.068   1.039  0.00  0.00     0.045 A 
ENDROOT
TORSDOF 0
ENDMDL
