MODEL 1
REMARK minimizedAffinity 5.47685862
REMARK minimizedRMSD -1
REMARK  0 active torsions:
REMARK  status: ('A' for Active; 'I' for Inactive)
ROOT
ATOM      1  C   UNL d   1      -4.515  -4.105   0.609  0.00  0.00    -0.002 A 
ATOM      2  C1  UNL d   1      -5.132  -5.343   0.496  0.00  0.00     0.010 A 
ATOM      3  C2  UNL d   1      -5.620  -5.999   1.628  0.00  0.00     0.041 A 
ATOM      4  C3  UNL d   1      -5.478  -5.384   2.887  0.00  0.00    -0.075 A 
ATOM      5  S   UNL d   1      -6.000  -6.000   4.410  0.00  0.00     0.015 SA
ATOM      6  C4  UNL d   1      -5.417  -4.634   5.247  0.00  0.00     0.022 A 
ATOM      7  C5  UNL d   1      -4.835  -3.721   4.400  0.00  0.00     0.026 A 
ATOM      8  C6  UNL d   1      -4.861  -4.137   3.026  0.00  0.00    -0.082 A 
ATOM      9  C7  UNL d   1      -4.376  -3.498   1.860  0.00  0.00     0.045 A 
ENDROOT
TORSDOF 0
ENDMDL
