MODEL 1
REMARK minimizedAffinity 20.6718178
REMARK minimizedRMSD -1
REMARK  0 active torsions:
REMARK  status: ('A' for Active; 'I' for Inactive)
ROOT
ATOM      1  C   UNL d   1      -1.085   1.525  -2.719  0.00  0.00    -0.002 A 
ATOM      2  C1  UNL d   1      -2.048   2.107  -3.532  0.00  0.00     0.010 A 
ATOM      3  C2  UNL d   1      -2.074   3.490  -3.723  0.00  0.00     0.041 A 
ATOM      4  C3  UNL d   1      -1.107   4.285  -3.079  0.00  0.00    -0.075 A 
ATOM      5  S   UNL d   1      -0.944   6.000  -3.167  0.00  0.00     0.015 SA
ATOM      6  C4  UNL d   1       0.407   6.000  -2.128  0.00  0.00     0.022 A 
ATOM      7  C5  UNL d   1       0.740   4.732  -1.715  0.00  0.00     0.026 A 
ATOM      8  C6  UNL d   1      -0.127   3.723  -2.256  0.00  0.00    -0.082 A 
ATOM      9  C7  UNL d   1      -0.127   2.318  -2.081  0.00  0.00     0.045 A 
ENDROOT
TORSDOF 0
ENDMDL
