MODEL 1
REMARK minimizedAffinity 13.5192709
REMARK minimizedRMSD -1
REMARK  0 active torsions:
REMARK  status: ('A' for Active; 'I' for Inactive)
ROOT
ATOM      1  C   UNL d   1       5.516  -1.517  -1.689  0.00  0.00    -0.002 A 
ATOM      2  C1  UNL d   1       4.673  -0.598  -2.298  0.00  0.00     0.010 A 
ATOM      3  C2  UNL d   1       4.297  -0.754  -3.633  0.00  0.00     0.041 A 
ATOM      4  C3  UNL d   1       4.787  -1.862  -4.354  0.00  0.00    -0.075 A 
ATOM      5  S   UNL d   1       4.460  -2.258  -6.000  0.00  0.00     0.015 SA
ATOM      6  C4  UNL d   1       5.432  -3.656  -5.934  0.00  0.00     0.022 A 
ATOM      7  C5  UNL d   1       5.999  -3.832  -4.694  0.00  0.00     0.026 A 
ATOM      8  C6  UNL d   1       5.637  -2.801  -3.763  0.00  0.00    -0.082 A 
ATOM      9  C7  UNL d   1       6.000  -2.614  -2.407  0.00  0.00     0.045 A 
ENDROOT
TORSDOF 0
ENDMDL
