MODEL 1
REMARK minimizedAffinity 21.6370754
REMARK minimizedRMSD -1
REMARK  0 active torsions:
REMARK  status: ('A' for Active; 'I' for Inactive)
ROOT
ATOM      1  C   UNL d   1       1.106  -1.851   1.581  0.00  0.00    -0.002 A 
ATOM      2  C1  UNL d   1       1.085  -0.465   1.642  0.00  0.00     0.010 A 
ATOM      3  C2  UNL d   1       1.860   0.297   0.766  0.00  0.00     0.041 A 
ATOM      4  C3  UNL d   1       2.664  -0.364  -0.184  0.00  0.00    -0.075 A 
ATOM      5  S   UNL d   1       3.695   0.362  -1.359  0.00  0.00     0.015 SA
ATOM      6  C4  UNL d   1       4.188  -1.150  -1.971  0.00  0.00     0.022 A 
ATOM      7  C5  UNL d   1       3.590  -2.195  -1.306  0.00  0.00     0.026 A 
ATOM      8  C6  UNL d   1       2.702  -1.759  -0.265  0.00  0.00    -0.082 A 
ATOM      9  C7  UNL d   1       1.905  -2.503   0.638  0.00  0.00     0.045 A 
ENDROOT
TORSDOF 0
ENDMDL
