MODEL 1
REMARK minimizedAffinity 17.3895607
REMARK minimizedRMSD -1
REMARK  0 active torsions:
REMARK  status: ('A' for Active; 'I' for Inactive)
ROOT
ATOM      1  C   UNL d   1       1.506   4.392   0.747  0.00  0.00    -0.002 A 
ATOM      2  C1  UNL d   1       1.130   5.704   0.496  0.00  0.00     0.010 A 
ATOM      3  C2  UNL d   1       0.213   6.000  -0.515  0.00  0.00     0.041 A 
ATOM      4  C3  UNL d   1      -0.327   4.943  -1.275  0.00  0.00    -0.075 A 
ATOM      5  S   UNL d   1      -1.467   5.067  -2.563  0.00  0.00     0.015 SA
ATOM      6  C4  UNL d   1      -1.483   3.380  -2.809  0.00  0.00     0.022 A 
ATOM      7  C5  UNL d   1      -0.645   2.724  -1.939  0.00  0.00     0.026 A 
ATOM      8  C6  UNL d   1       0.035   3.614  -1.040  0.00  0.00    -0.082 A 
ATOM      9  C7  UNL d   1       0.968   3.347  -0.009  0.00  0.00     0.045 A 
ENDROOT
TORSDOF 0
ENDMDL
