MODEL 1
REMARK minimizedAffinity 9.33202553
REMARK minimizedRMSD -1
REMARK  0 active torsions:
REMARK  status: ('A' for Active; 'I' for Inactive)
ROOT
ATOM      1  C   UNL d   1      -3.009   4.907   5.851  0.00  0.00     0.078 C 
ATOM      2  C1  UNL d   1      -3.400   3.587   5.257  0.00  0.00    -0.077 A 
ATOM      3  C2  UNL d   1      -4.128   2.649   6.000  0.00  0.00    -0.001 A 
ATOM      4  C3  UNL d   1      -4.477   1.421   5.437  0.00  0.00     0.003 A 
ATOM      5  C4  UNL d   1      -4.101   1.117   4.130  0.00  0.00    -0.005 A 
ATOM      6  C5  UNL d   1      -3.375   2.043   3.384  0.00  0.00     0.003 A 
ATOM      7  C6  UNL d   1      -3.025   3.273   3.944  0.00  0.00    -0.001 A 
ENDROOT
TORSDOF 0
ENDMDL
