MODEL 1
REMARK minimizedAffinity 8.75591564
REMARK minimizedRMSD -1
REMARK  0 active torsions:
REMARK  status: ('A' for Active; 'I' for Inactive)
ROOT
ATOM      1  C   UNL d   1      -3.873   3.603  -4.394  0.00  0.00     0.078 C 
ATOM      2  C1  UNL d   1      -3.236   2.524  -3.569  0.00  0.00    -0.077 A 
ATOM      3  C2  UNL d   1      -2.014   1.954  -3.946  0.00  0.00    -0.001 A 
ATOM      4  C3  UNL d   1      -1.438   0.944  -3.174  0.00  0.00     0.003 A 
ATOM      5  C4  UNL d   1      -2.077   0.495  -2.021  0.00  0.00    -0.005 A 
ATOM      6  C5  UNL d   1      -3.294   1.054  -1.638  0.00  0.00     0.003 A 
ATOM      7  C6  UNL d   1      -3.872   2.064  -2.409  0.00  0.00    -0.001 A 
ENDROOT
TORSDOF 0
ENDMDL
