MODEL 1
REMARK minimizedAffinity 4.49340963
REMARK minimizedRMSD -1
REMARK  0 active torsions:
REMARK  status: ('A' for Active; 'I' for Inactive)
ROOT
ATOM      1  C   UNL d   1       2.216  -2.603   0.945  0.00  0.00     0.078 C 
ATOM      2  C1  UNL d   1       1.085  -2.205   1.845  0.00  0.00    -0.077 A 
ATOM      3  C2  UNL d   1       0.020  -3.080   2.096  0.00  0.00    -0.001 A 
ATOM      4  C3  UNL d   1      -1.031  -2.692   2.928  0.00  0.00     0.003 A 
ATOM      5  C4  UNL d   1      -1.029  -1.428   3.514  0.00  0.00    -0.005 A 
ATOM      6  C5  UNL d   1       0.024  -0.550   3.268  0.00  0.00     0.003 A 
ATOM      7  C6  UNL d   1       1.076  -0.936   2.437  0.00  0.00    -0.001 A 
ENDROOT
TORSDOF 0
ENDMDL
