MODEL 1
REMARK minimizedAffinity 2.4393971
REMARK minimizedRMSD -1
REMARK  0 active torsions:
REMARK  status: ('A' for Active; 'I' for Inactive)
ROOT
ATOM      1  C   UNL d   1       1.152  -2.195   0.775  0.00  0.00     0.078 C 
ATOM      2  C1  UNL d   1       2.257  -3.208   0.742  0.00  0.00    -0.077 A 
ATOM      3  C2  UNL d   1       1.977  -4.579   0.681  0.00  0.00    -0.001 A 
ATOM      4  C3  UNL d   1       3.015  -5.512   0.661  0.00  0.00     0.003 A 
ATOM      5  C4  UNL d   1       4.340  -5.084   0.703  0.00  0.00    -0.005 A 
ATOM      6  C5  UNL d   1       4.629  -3.722   0.767  0.00  0.00     0.003 A 
ATOM      7  C6  UNL d   1       3.592  -2.788   0.787  0.00  0.00    -0.001 A 
ENDROOT
TORSDOF 0
ENDMDL
