MODEL 1
REMARK minimizedAffinity 11.0092154
REMARK minimizedRMSD -1
REMARK  0 active torsions:
REMARK  status: ('A' for Active; 'I' for Inactive)
ROOT
ATOM      1  C   UNL d   1       4.122  -2.978   2.611  0.00  0.00     0.078 C 
ATOM      2  C1  UNL d   1       4.617  -3.756   3.794  0.00  0.00    -0.077 A 
ATOM      3  C2  UNL d   1       5.157  -3.105   4.910  0.00  0.00    -0.001 A 
ATOM      4  C3  UNL d   1       5.622  -3.841   6.000  0.00  0.00     0.003 A 
ATOM      5  C4  UNL d   1       5.554  -5.233   5.984  0.00  0.00    -0.005 A 
ATOM      6  C5  UNL d   1       5.021  -5.890   4.877  0.00  0.00     0.003 A 
ATOM      7  C6  UNL d   1       4.555  -5.155   3.786  0.00  0.00    -0.001 A 
ENDROOT
TORSDOF 0
ENDMDL
