MODEL 1
REMARK minimizedAffinity 9.60684681
REMARK minimizedRMSD -1
REMARK  0 active torsions:
REMARK  status: ('A' for Active; 'I' for Inactive)
ROOT
ATOM      1  C   UNL d   1       5.542  -1.116   0.456  0.00  0.00     0.078 C 
ATOM      2  C1  UNL d   1       5.694  -0.383  -0.844  0.00  0.00    -0.077 A 
ATOM      3  C2  UNL d   1       5.735  -1.074  -2.061  0.00  0.00    -0.001 A 
ATOM      4  C3  UNL d   1       5.887  -0.379  -3.262  0.00  0.00     0.003 A 
ATOM      5  C4  UNL d   1       6.000   1.009  -3.258  0.00  0.00    -0.005 A 
ATOM      6  C5  UNL d   1       5.962   1.705  -2.051  0.00  0.00     0.003 A 
ATOM      7  C6  UNL d   1       5.811   1.012  -0.849  0.00  0.00    -0.001 A 
ENDROOT
TORSDOF 0
ENDMDL
