MODEL 1
REMARK minimizedAffinity 7.29235744
REMARK minimizedRMSD -1
REMARK  0 active torsions:
REMARK  status: ('A' for Active; 'I' for Inactive)
ROOT
ATOM      1  C   UNL d   1       2.133  -3.578   0.190  0.00  0.00     0.078 C 
ATOM      2  C1  UNL d   1       1.982  -2.400   1.106  0.00  0.00    -0.077 A 
ATOM      3  C2  UNL d   1       3.092  -1.637   1.487  0.00  0.00    -0.001 A 
ATOM      4  C3  UNL d   1       2.939  -0.548   2.347  0.00  0.00     0.003 A 
ATOM      5  C4  UNL d   1       1.676  -0.214   2.834  0.00  0.00    -0.005 A 
ATOM      6  C5  UNL d   1       0.566  -0.969   2.462  0.00  0.00     0.003 A 
ATOM      7  C6  UNL d   1       0.718  -2.058   1.602  0.00  0.00    -0.001 A 
ENDROOT
TORSDOF 0
ENDMDL
