MODEL 1
REMARK minimizedAffinity 1.79048514
REMARK minimizedRMSD -1
REMARK  0 active torsions:
REMARK  status: ('A' for Active; 'I' for Inactive)
ROOT
ATOM      1  C   UNL d   1       5.554  -5.835   5.469  0.00  0.00     0.078 C 
ATOM      2  C1  UNL d   1       5.289  -4.374   5.259  0.00  0.00    -0.077 A 
ATOM      3  C2  UNL d   1       4.347  -3.940   4.318  0.00  0.00    -0.001 A 
ATOM      4  C3  UNL d   1       4.118  -2.577   4.126  0.00  0.00     0.003 A 
ATOM      5  C4  UNL d   1       4.828  -1.636   4.869  0.00  0.00    -0.005 A 
ATOM      6  C5  UNL d   1       5.769  -2.058   5.806  0.00  0.00     0.003 A 
ATOM      7  C6  UNL d   1       5.999  -3.421   6.000  0.00  0.00    -0.001 A 
ENDROOT
TORSDOF 0
ENDMDL
