MODEL 1
REMARK minimizedAffinity 6.20368385
REMARK minimizedRMSD -1
REMARK  1 active torsions:
REMARK  status: ('A' for Active; 'I' for Inactive)
REMARK    1  A    between atoms: C1_2  and  C2_3 
ROOT
ATOM      1  C2  UNL d   1       2.245  -2.484   1.895  0.00  0.00    -0.077 A 
ATOM      2  C3  UNL d   1       3.149  -1.449   1.620  0.00  0.00     0.002 A 
ATOM      3  C4  UNL d   1       3.294  -0.966   0.318  0.00  0.00     0.002 A 
ATOM      4  C5  UNL d   1       2.536  -1.509  -0.717  0.00  0.00    -0.004 A 
ATOM      5  C6  UNL d   1       1.636  -2.540  -0.454  0.00  0.00     0.002 A 
ATOM      6  C7  UNL d   1       1.490  -3.025   0.846  0.00  0.00     0.002 A 
ENDROOT
BRANCH   1   7
ATOM      7  C1  UNL d   1       2.050  -2.973   3.307  0.00  0.00     0.055 C 
ATOM      8  C   UNL d   1       0.675  -2.596   3.839  0.00  0.00     0.019 C 
ENDBRANCH   1   7
TORSDOF 1
ENDMDL
