MODEL 1
REMARK minimizedAffinity 7.31362486
REMARK minimizedRMSD -1
REMARK  1 active torsions:
REMARK  status: ('A' for Active; 'I' for Inactive)
REMARK    1  A    between atoms: C1_2  and  C2_3 
ROOT
ATOM      1  C2  UNL d   1       1.024  -2.635  -0.396  0.00  0.00    -0.077 A 
ATOM      2  C3  UNL d   1       1.191  -2.022  -1.646  0.00  0.00     0.002 A 
ATOM      3  C4  UNL d   1       2.225  -1.107  -1.851  0.00  0.00     0.002 A 
ATOM      4  C5  UNL d   1       3.102  -0.799  -0.813  0.00  0.00    -0.004 A 
ATOM      5  C6  UNL d   1       2.943  -1.402   0.434  0.00  0.00     0.002 A 
ATOM      6  C7  UNL d   1       1.909  -2.316   0.642  0.00  0.00     0.002 A 
ENDROOT
BRANCH   1   7
ATOM      7  C1  UNL d   1      -0.061  -3.659  -0.187  0.00  0.00     0.055 C 
ATOM      8  C   UNL d   1      -1.084  -3.620  -1.313  0.00  0.00     0.019 C 
ENDBRANCH   1   7
TORSDOF 1
ENDMDL
