MODEL 1
REMARK minimizedAffinity 2.89164281
REMARK minimizedRMSD -1
REMARK  1 active torsions:
REMARK  status: ('A' for Active; 'I' for Inactive)
REMARK    1  A    between atoms: C1_2  and  C2_3 
ROOT
ATOM      1  C2  UNL d   1      -2.739  -0.021  -3.694  0.00  0.00    -0.077 A 
ATOM      2  C3  UNL d   1      -3.638  -0.959  -3.166  0.00  0.00     0.002 A 
ATOM      3  C4  UNL d   1      -4.923  -1.082  -3.699  0.00  0.00     0.002 A 
ATOM      4  C5  UNL d   1      -5.319  -0.275  -4.763  0.00  0.00    -0.004 A 
ATOM      5  C6  UNL d   1      -4.433   0.662  -5.293  0.00  0.00     0.002 A 
ATOM      6  C7  UNL d   1      -3.149   0.788  -4.762  0.00  0.00     0.002 A 
ENDROOT
BRANCH   1   7
ATOM      7  C1  UNL d   1      -1.337   0.079  -3.154  0.00  0.00     0.055 C 
ATOM      8  C   UNL d   1      -0.534  -1.176  -3.462  0.00  0.00     0.019 C 
ENDBRANCH   1   7
TORSDOF 1
ENDMDL
