MODEL 1
REMARK minimizedAffinity 0.437482029
REMARK minimizedRMSD -1
REMARK  1 active torsions:
REMARK  status: ('A' for Active; 'I' for Inactive)
REMARK    1  A    between atoms: C1_2  and  C2_3 
ROOT
ATOM      1  C2  UNL d   1       1.685   0.341  -0.179  0.00  0.00    -0.077 A 
ATOM      2  C3  UNL d   1       0.516  -0.381  -0.455  0.00  0.00     0.002 A 
ATOM      3  C4  UNL d   1       0.576  -1.755  -0.698  0.00  0.00     0.002 A 
ATOM      4  C5  UNL d   1       1.801  -2.418  -0.664  0.00  0.00    -0.004 A 
ATOM      5  C6  UNL d   1       2.969  -1.707  -0.392  0.00  0.00     0.002 A 
ATOM      6  C7  UNL d   1       2.912  -0.334  -0.150  0.00  0.00     0.002 A 
ENDROOT
BRANCH   1   7
ATOM      7  C1  UNL d   1       1.617   1.814   0.133  0.00  0.00     0.055 C 
ATOM      8  C   UNL d   1       0.229   2.214   0.612  0.00  0.00     0.019 C 
ENDBRANCH   1   7
TORSDOF 1
ENDMDL
