MODEL 1
REMARK minimizedAffinity -2.61410284
REMARK minimizedRMSD -1
REMARK  1 active torsions:
REMARK  status: ('A' for Active; 'I' for Inactive)
REMARK    1  A    between atoms: N_2  and  C1_3 
ROOT
ATOM      1  C1  UNL d   1      -0.089   0.273   0.223  0.00  0.00     0.143 A 
ATOM      2  C2  UNL d   1       0.238   1.633   0.216  0.00  0.00    -0.057 A 
ATOM      3  C3  UNL d   1       1.237   2.135  -0.625  0.00  0.00     0.033 A 
ATOM      4  C4  UNL d   1       1.951   1.278  -1.457  0.00  0.00    -0.042 A 
ATOM      5  C5  UNL d   1       1.660  -0.082  -1.448  0.00  0.00     0.033 A 
ATOM      6  C6  UNL d   1       0.656  -0.576  -0.610  0.00  0.00    -0.057 A 
ENDROOT
BRANCH   1   7
ATOM      7  N   UNL d   1      -1.005  -0.303   1.108  0.00  0.00    -0.732 N 
ATOM      8  C   UNL d   1      -2.077   0.486   1.675  0.00  0.00     0.284 C 
ATOM      9  H3  UNL d   1      -1.282  -1.240   0.824  0.00  0.00     0.395 HD
ENDBRANCH   1   7
TORSDOF 1
ENDMDL
