MODEL 1
REMARK minimizedAffinity -3.39285564
REMARK minimizedRMSD -1
REMARK  1 active torsions:
REMARK  status: ('A' for Active; 'I' for Inactive)
REMARK    1  A    between atoms: N_2  and  C1_3 
ROOT
ATOM      1  C1  UNL d   1       0.221   0.166   0.367  0.00  0.00     0.143 A 
ATOM      2  C2  UNL d   1       0.536   1.448  -0.096  0.00  0.00    -0.057 A 
ATOM      3  C3  UNL d   1       1.468   1.640  -1.123  0.00  0.00     0.033 A 
ATOM      4  C4  UNL d   1       2.124   0.551  -1.688  0.00  0.00    -0.042 A 
ATOM      5  C5  UNL d   1       1.844  -0.730  -1.227  0.00  0.00     0.033 A 
ATOM      6  C6  UNL d   1       0.908  -0.916  -0.205  0.00  0.00    -0.057 A 
ENDROOT
BRANCH   1   7
ATOM      7  N   UNL d   1      -0.623  -0.084   1.452  0.00  0.00    -0.732 N 
ATOM      8  C   UNL d   1      -2.032   0.237   1.379  0.00  0.00     0.284 C 
ATOM      9  H3  UNL d   1      -0.422  -0.973   1.904  0.00  0.00     0.395 HD
ENDBRANCH   1   7
TORSDOF 1
ENDMDL
