MODEL 1
REMARK minimizedAffinity -5.01251316
REMARK minimizedRMSD -1
REMARK  1 active torsions:
REMARK  status: ('A' for Active; 'I' for Inactive)
REMARK    1  A    between atoms: N_2  and  C1_3 
ROOT
ATOM      1  C1  UNL d   1       0.211  -0.751  -0.217  0.00  0.00     0.143 A 
ATOM      2  C2  UNL d   1       0.680   0.494  -0.649  0.00  0.00    -0.057 A 
ATOM      3  C3  UNL d   1       1.464   0.614  -1.803  0.00  0.00     0.033 A 
ATOM      4  C4  UNL d   1       1.818  -0.517  -2.531  0.00  0.00    -0.042 A 
ATOM      5  C5  UNL d   1       1.384  -1.768  -2.106  0.00  0.00     0.033 A 
ATOM      6  C6  UNL d   1       0.596  -1.880  -0.956  0.00  0.00    -0.057 A 
ENDROOT
BRANCH   1   7
ATOM      7  N   UNL d   1      -0.489  -0.947   0.976  0.00  0.00    -0.732 N 
ATOM      8  C   UNL d   1      -1.811  -0.387   1.155  0.00  0.00     0.284 C 
ATOM      9  H3  UNL d   1      -0.386  -1.893   1.336  0.00  0.00     0.395 HD
ENDBRANCH   1   7
TORSDOF 1
ENDMDL
