MODEL 1
REMARK minimizedAffinity -2.99594307
REMARK minimizedRMSD -1
REMARK  1 active torsions:
REMARK  status: ('A' for Active; 'I' for Inactive)
REMARK    1  A    between atoms: N_2  and  C1_3 
ROOT
ATOM      1  C1  UNL d   1      -0.864   0.225   1.015  0.00  0.00     0.143 A 
ATOM      2  C2  UNL d   1      -0.223  -0.946   0.599  0.00  0.00    -0.057 A 
ATOM      3  C3  UNL d   1       0.895  -0.902  -0.243  0.00  0.00     0.033 A 
ATOM      4  C4  UNL d   1       1.376   0.317  -0.707  0.00  0.00    -0.042 A 
ATOM      5  C5  UNL d   1       0.740   1.493  -0.326  0.00  0.00     0.033 A 
ATOM      6  C6  UNL d   1      -0.373   1.443   0.520  0.00  0.00    -0.057 A 
ENDROOT
BRANCH   1   7
ATOM      7  N   UNL d   1      -2.039   0.243   1.771  0.00  0.00    -0.732 N 
ATOM      8  C   UNL d   1      -3.314   0.519   1.145  0.00  0.00     0.284 C 
ATOM      9  H3  UNL d   1      -2.068  -0.504   2.461  0.00  0.00     0.395 HD
ENDBRANCH   1   7
TORSDOF 1
ENDMDL
