MODEL 1
REMARK minimizedAffinity -2.63109231
REMARK minimizedRMSD -1
REMARK  1 active torsions:
REMARK  status: ('A' for Active; 'I' for Inactive)
REMARK    1  A    between atoms: N_2  and  C1_3 
ROOT
ATOM      1  C1  UNL d   1      -1.333   0.183   1.120  0.00  0.00     0.143 A 
ATOM      2  C2  UNL d   1      -1.641   1.205   2.024  0.00  0.00    -0.057 A 
ATOM      3  C3  UNL d   1      -2.961   1.453   2.418  0.00  0.00     0.033 A 
ATOM      4  C4  UNL d   1      -4.004   0.699   1.890  0.00  0.00    -0.042 A 
ATOM      5  C5  UNL d   1      -3.724  -0.305   0.970  0.00  0.00     0.033 A 
ATOM      6  C6  UNL d   1      -2.403  -0.552   0.586  0.00  0.00    -0.057 A 
ENDROOT
BRANCH   1   7
ATOM      7  N   UNL d   1      -0.051  -0.048   0.614  0.00  0.00    -0.732 N 
ATOM      8  C   UNL d   1       0.696   1.019  -0.016  0.00  0.00     0.284 C 
ATOM      9  H3  UNL d   1       0.506  -0.642   1.224  0.00  0.00     0.395 HD
ENDBRANCH   1   7
TORSDOF 1
ENDMDL
