MODEL 1
REMARK minimizedAffinity -3.75670433
REMARK minimizedRMSD -1
REMARK  1 active torsions:
REMARK  status: ('A' for Active; 'I' for Inactive)
REMARK    1  A    between atoms: N_2  and  C1_3 
ROOT
ATOM      1  C1  UNL d   1       0.360  -0.310  -0.555  0.00  0.00     0.143 A 
ATOM      2  C2  UNL d   1       1.078   0.750  -1.119  0.00  0.00    -0.057 A 
ATOM      3  C3  UNL d   1       2.186   0.519  -1.943  0.00  0.00     0.033 A 
ATOM      4  C4  UNL d   1       2.615  -0.780  -2.194  0.00  0.00    -0.042 A 
ATOM      5  C5  UNL d   1       1.932  -1.848  -1.624  0.00  0.00     0.033 A 
ATOM      6  C6  UNL d   1       0.821  -1.611  -0.807  0.00  0.00    -0.057 A 
ENDROOT
BRANCH   1   7
ATOM      7  N   UNL d   1      -0.690  -0.142   0.351  0.00  0.00    -0.732 N 
ATOM      8  C   UNL d   1      -0.616  -0.713   1.679  0.00  0.00     0.284 C 
ATOM      9  H3  UNL d   1      -1.082   0.796   0.323  0.00  0.00     0.395 HD
ENDBRANCH   1   7
TORSDOF 1
ENDMDL
