MODEL 1
REMARK minimizedAffinity -2.31306171
REMARK minimizedRMSD -1
REMARK  1 active torsions:
REMARK  status: ('A' for Active; 'I' for Inactive)
REMARK    1  A    between atoms: N_2  and  C1_3 
ROOT
ATOM      1  C1  UNL d   1      -1.650   0.282   1.219  0.00  0.00     0.143 A 
ATOM      2  C2  UNL d   1      -2.862  -0.151   0.670  0.00  0.00    -0.057 A 
ATOM      3  C3  UNL d   1      -4.087   0.184   1.260  0.00  0.00     0.033 A 
ATOM      4  C4  UNL d   1      -4.120   0.936   2.429  0.00  0.00    -0.042 A 
ATOM      5  C5  UNL d   1      -2.927   1.355   3.007  0.00  0.00     0.033 A 
ATOM      6  C6  UNL d   1      -1.707   1.023   2.410  0.00  0.00    -0.057 A 
ENDROOT
BRANCH   1   7
ATOM      7  N   UNL d   1      -0.396  -0.101   0.736  0.00  0.00    -0.732 N 
ATOM      8  C   UNL d   1       0.479   0.867   0.110  0.00  0.00     0.284 C 
ATOM      9  H3  UNL d   1       0.079  -0.749   1.359  0.00  0.00     0.395 HD
ENDBRANCH   1   7
TORSDOF 1
ENDMDL
