MODEL 1
REMARK minimizedAffinity 5.52993059
REMARK minimizedRMSD -1
REMARK  1 active torsions:
REMARK  status: ('A' for Active; 'I' for Inactive)
REMARK    1  A    between atoms: N_2  and  C1_3 
ROOT
ATOM      1  C1  UNL d   1       1.436   2.791  -1.367  0.00  0.00     0.143 A 
ATOM      2  C2  UNL d   1       0.843   2.097  -2.428  0.00  0.00    -0.057 A 
ATOM      3  C3  UNL d   1       1.179   0.766  -2.703  0.00  0.00     0.033 A 
ATOM      4  C4  UNL d   1       2.140   0.113  -1.938  0.00  0.00    -0.042 A 
ATOM      5  C5  UNL d   1       2.761   0.791  -0.895  0.00  0.00     0.033 A 
ATOM      6  C6  UNL d   1       2.415   2.118  -0.620  0.00  0.00    -0.057 A 
ENDROOT
BRANCH   1   7
ATOM      7  N   UNL d   1       1.216   4.145  -1.104  0.00  0.00    -0.732 N 
ATOM      8  C   UNL d   1       1.176   4.635   0.257  0.00  0.00     0.284 C 
ATOM      9  H3  UNL d   1       1.715   4.752  -1.750  0.00  0.00     0.395 HD
ENDBRANCH   1   7
TORSDOF 1
ENDMDL
