MODEL 1
REMARK minimizedAffinity -2.36543322
REMARK minimizedRMSD -1
REMARK  1 active torsions:
REMARK  status: ('A' for Active; 'I' for Inactive)
REMARK    1  A    between atoms: N_2  and  C1_3 
ROOT
ATOM      1  C1  UNL d   1       1.203  -0.377  -1.058  0.00  0.00     0.143 A 
ATOM      2  C2  UNL d   1       0.909  -1.698  -0.701  0.00  0.00    -0.057 A 
ATOM      3  C3  UNL d   1       0.116  -1.988   0.416  0.00  0.00     0.033 A 
ATOM      4  C4  UNL d   1      -0.374  -0.961   1.215  0.00  0.00    -0.042 A 
ATOM      5  C5  UNL d   1      -0.074   0.358   0.893  0.00  0.00     0.033 A 
ATOM      6  C6  UNL d   1       0.712   0.642  -0.227  0.00  0.00    -0.057 A 
ENDROOT
BRANCH   1   7
ATOM      7  N   UNL d   1       2.066  -0.027  -2.099  0.00  0.00    -0.732 N 
ATOM      8  C   UNL d   1       3.490  -0.254  -1.984  0.00  0.00     0.284 C 
ATOM      9  H3  UNL d   1       1.682  -0.251  -3.014  0.00  0.00     0.395 HD
ENDBRANCH   1   7
TORSDOF 1
ENDMDL
