MODEL 1
REMARK minimizedAffinity 0.796957374
REMARK minimizedRMSD -1
REMARK  1 active torsions:
REMARK  status: ('A' for Active; 'I' for Inactive)
REMARK    1  A    between atoms: C3_4  and  O_7 
ROOT
ATOM      1  C   UNL d   1       0.011  -0.091  -1.139  0.00  0.00    -0.033 A 
ATOM      2  C1  UNL d   1      -0.422   0.425   0.084  0.00  0.00     0.039 A 
ATOM      3  C2  UNL d   1       0.347   0.239   1.234  0.00  0.00    -0.080 A 
ATOM      4  C3  UNL d   1       1.546  -0.464   1.148  0.00  0.00     0.150 A 
ATOM      5  C4  UNL d   1       1.985  -0.978  -0.067  0.00  0.00    -0.007 A 
ATOM      6  C5  UNL d   1       1.215  -0.791  -1.215  0.00  0.00     0.039 A 
ENDROOT
BRANCH   4   7
ATOM      7  O   UNL d   1       2.328  -0.675   2.245  0.00  0.00    -0.526 OA
ATOM      8  H5  UNL d   1       1.884  -0.289   3.018  0.00  0.00     0.418 HD
ENDBRANCH   4   7
TORSDOF 1
ENDMDL
