MODEL 1
REMARK minimizedAffinity -3.78719807
REMARK minimizedRMSD -1
REMARK  1 active torsions:
REMARK  status: ('A' for Active; 'I' for Inactive)
REMARK    1  A    between atoms: C3_4  and  O_7 
ROOT
ATOM      1  C   UNL d   1      -0.039   0.740   0.767  0.00  0.00    -0.033 A 
ATOM      2  C1  UNL d   1      -1.050   0.100   0.048  0.00  0.00     0.039 A 
ATOM      3  C2  UNL d   1      -2.179  -0.387   0.710  0.00  0.00    -0.080 A 
ATOM      4  C3  UNL d   1      -2.286  -0.226   2.088  0.00  0.00     0.150 A 
ATOM      5  C4  UNL d   1      -1.284   0.414   2.811  0.00  0.00    -0.007 A 
ATOM      6  C5  UNL d   1      -0.156   0.898   2.149  0.00  0.00     0.039 A 
ENDROOT
BRANCH   4   7
ATOM      7  O   UNL d   1      -3.367  -0.688   2.778  0.00  0.00    -0.526 OA
ATOM      8  H5  UNL d   1      -3.963  -1.133   2.154  0.00  0.00     0.418 HD
ENDBRANCH   4   7
TORSDOF 1
ENDMDL
