MODEL 1
REMARK minimizedAffinity -4.61797571
REMARK minimizedRMSD -1
REMARK  1 active torsions:
REMARK  status: ('A' for Active; 'I' for Inactive)
REMARK    1  A    between atoms: C3_4  and  O_7 
ROOT
ATOM      1  C   UNL d   1      -0.765   0.159  -0.176  0.00  0.00    -0.033 A 
ATOM      2  C1  UNL d   1      -1.973   0.249   0.519  0.00  0.00     0.039 A 
ATOM      3  C2  UNL d   1      -1.982   0.643   1.859  0.00  0.00    -0.080 A 
ATOM      4  C3  UNL d   1      -0.779   0.946   2.490  0.00  0.00     0.150 A 
ATOM      5  C4  UNL d   1       0.427   0.863   1.803  0.00  0.00    -0.007 A 
ATOM      6  C5  UNL d   1       0.435   0.468   0.466  0.00  0.00     0.039 A 
ENDROOT
BRANCH   4   7
ATOM      7  O   UNL d   1      -0.737   1.332   3.797  0.00  0.00    -0.526 OA
ATOM      8  H5  UNL d   1      -1.642   1.316   4.151  0.00  0.00     0.418 HD
ENDBRANCH   4   7
TORSDOF 1
ENDMDL
