MODEL 1
REMARK minimizedAffinity -5.05584574
REMARK minimizedRMSD -1
REMARK  1 active torsions:
REMARK  status: ('A' for Active; 'I' for Inactive)
REMARK    1  A    between atoms: C3_4  and  O_7 
ROOT
ATOM      1  C   UNL d   1      -0.171  -0.306  -0.199  0.00  0.00    -0.033 A 
ATOM      2  C1  UNL d   1       0.807   0.353   0.549  0.00  0.00     0.039 A 
ATOM      3  C2  UNL d   1       0.452   1.055   1.702  0.00  0.00    -0.080 A 
ATOM      4  C3  UNL d   1      -0.883   1.090   2.097  0.00  0.00     0.150 A 
ATOM      5  C4  UNL d   1      -1.862   0.434   1.359  0.00  0.00    -0.007 A 
ATOM      6  C5  UNL d   1      -1.506  -0.266   0.207  0.00  0.00     0.039 A 
ENDROOT
BRANCH   4   7
ATOM      7  O   UNL d   1      -1.278   1.767   3.212  0.00  0.00    -0.526 OA
ATOM      8  H5  UNL d   1      -0.499   2.195   3.605  0.00  0.00     0.418 HD
ENDBRANCH   4   7
TORSDOF 1
ENDMDL
