MODEL 1
REMARK minimizedAffinity -4.29138947
REMARK minimizedRMSD -1
REMARK  1 active torsions:
REMARK  status: ('A' for Active; 'I' for Inactive)
REMARK    1  A    between atoms: C3_4  and  O_7 
ROOT
ATOM      1  C   UNL d   1      -0.782  -0.509  -0.425  0.00  0.00    -0.033 A 
ATOM      2  C1  UNL d   1       0.450  -0.201   0.154  0.00  0.00     0.039 A 
ATOM      3  C2  UNL d   1       0.500   0.434   1.397  0.00  0.00    -0.080 A 
ATOM      4  C3  UNL d   1      -0.688   0.752   2.050  0.00  0.00     0.150 A 
ATOM      5  C4  UNL d   1      -1.919   0.444   1.480  0.00  0.00    -0.007 A 
ATOM      6  C5  UNL d   1      -1.967  -0.188   0.239  0.00  0.00     0.039 A 
ENDROOT
BRANCH   4   7
ATOM      7  O   UNL d   1      -0.690   1.375   3.262  0.00  0.00    -0.526 OA
ATOM      8  H5  UNL d   1       0.231   1.552   3.519  0.00  0.00     0.418 HD
ENDBRANCH   4   7
TORSDOF 1
ENDMDL
