MODEL 1
REMARK minimizedAffinity -2.2949636
REMARK minimizedRMSD -1
REMARK  1 active torsions:
REMARK  status: ('A' for Active; 'I' for Inactive)
REMARK    1  A    between atoms: C3_4  and  O_7 
ROOT
ATOM      1  C   UNL d   1       0.713  -0.749  -0.986  0.00  0.00    -0.033 A 
ATOM      2  C1  UNL d   1       1.645  -0.613   0.044  0.00  0.00     0.039 A 
ATOM      3  C2  UNL d   1       1.301   0.069   1.213  0.00  0.00    -0.080 A 
ATOM      4  C3  UNL d   1       0.024   0.608   1.339  0.00  0.00     0.150 A 
ATOM      5  C4  UNL d   1      -0.911   0.472   0.318  0.00  0.00    -0.007 A 
ATOM      6  C5  UNL d   1      -0.566  -0.208  -0.849  0.00  0.00     0.039 A 
ENDROOT
BRANCH   4   7
ATOM      7  O   UNL d   1      -0.356   1.286   2.459  0.00  0.00    -0.526 OA
ATOM      8  H5  UNL d   1       0.401   1.325   3.067  0.00  0.00     0.418 HD
ENDBRANCH   4   7
TORSDOF 1
ENDMDL
