MODEL 1
REMARK minimizedAffinity -3.89802217
REMARK minimizedRMSD -1
REMARK  1 active torsions:
REMARK  status: ('A' for Active; 'I' for Inactive)
REMARK    1  A    between atoms: C3_4  and  O_7 
ROOT
ATOM      1  C   UNL d   1      -0.278  -0.004  -0.394  0.00  0.00    -0.033 A 
ATOM      2  C1  UNL d   1       0.358   0.262   0.821  0.00  0.00     0.039 A 
ATOM      3  C2  UNL d   1       1.571  -0.358   1.127  0.00  0.00    -0.080 A 
ATOM      4  C3  UNL d   1       2.137  -1.240   0.211  0.00  0.00     0.150 A 
ATOM      5  C4  UNL d   1       1.512  -1.506  -1.003  0.00  0.00    -0.007 A 
ATOM      6  C5  UNL d   1       0.300  -0.887  -1.306  0.00  0.00     0.039 A 
ENDROOT
BRANCH   4   7
ATOM      7  O   UNL d   1       3.317  -1.873   0.467  0.00  0.00    -0.526 OA
ATOM      8  H5  UNL d   1       3.619  -1.614   1.354  0.00  0.00     0.418 HD
ENDBRANCH   4   7
TORSDOF 1
ENDMDL
