MODEL 1
REMARK minimizedAffinity -3.96769357
REMARK minimizedRMSD -1
REMARK  1 active torsions:
REMARK  status: ('A' for Active; 'I' for Inactive)
REMARK    1  A    between atoms: C3_4  and  O_7 
ROOT
ATOM      1  C   UNL d   1      -1.124   0.815   2.183  0.00  0.00    -0.033 A 
ATOM      2  C1  UNL d   1      -1.929   0.447   1.102  0.00  0.00     0.039 A 
ATOM      3  C2  UNL d   1      -1.346   0.094  -0.116  0.00  0.00    -0.080 A 
ATOM      4  C3  UNL d   1       0.041   0.111  -0.240  0.00  0.00     0.150 A 
ATOM      5  C4  UNL d   1       0.848   0.472   0.833  0.00  0.00    -0.007 A 
ATOM      6  C5  UNL d   1       0.264   0.826   2.049  0.00  0.00     0.039 A 
ENDROOT
BRANCH   4   7
ATOM      7  O   UNL d   1       0.655  -0.221  -1.411  0.00  0.00    -0.526 OA
ATOM      8  H5  UNL d   1      -0.029  -0.420  -2.072  0.00  0.00     0.418 HD
ENDBRANCH   4   7
TORSDOF 1
ENDMDL
