MODEL 1
REMARK minimizedAffinity -4.99598694
REMARK minimizedRMSD -1
REMARK  1 active torsions:
REMARK  status: ('A' for Active; 'I' for Inactive)
REMARK    1  A    between atoms: C3_4  and  O_7 
ROOT
ATOM      1  C   UNL d   1      -0.816  -0.654  -0.407  0.00  0.00    -0.033 A 
ATOM      2  C1  UNL d   1      -2.050  -0.470   0.220  0.00  0.00     0.039 A 
ATOM      3  C2  UNL d   1      -2.126   0.238   1.421  0.00  0.00    -0.080 A 
ATOM      4  C3  UNL d   1      -0.963   0.756   1.984  0.00  0.00     0.150 A 
ATOM      5  C4  UNL d   1       0.269   0.579   1.363  0.00  0.00    -0.007 A 
ATOM      6  C5  UNL d   1       0.343  -0.129   0.164  0.00  0.00     0.039 A 
ENDROOT
BRANCH   4   7
ATOM      7  O   UNL d   1      -0.987   1.450   3.157  0.00  0.00    -0.526 OA
ATOM      8  H5  UNL d   1      -1.902   1.468   3.485  0.00  0.00     0.418 HD
ENDBRANCH   4   7
TORSDOF 1
ENDMDL
