MODEL 1
REMARK minimizedAffinity -3.07586479
REMARK minimizedRMSD -1
REMARK  2 active torsions:
REMARK  status: ('A' for Active; 'I' for Inactive)
REMARK    1  A    between atoms: C1_2  and  C2_3 
REMARK    2  A    between atoms: C2_3  and  C3_4 
ROOT
ATOM      1  C3  UNL d   1       1.257  -2.904   0.428  0.00  0.00    -0.075 A 
ATOM      2  C4  UNL d   1       2.038  -1.767   0.682  0.00  0.00     0.002 A 
ATOM      3  C5  UNL d   1       1.435  -0.533   0.925  0.00  0.00     0.002 A 
ATOM      4  C6  UNL d   1       0.047  -0.417   0.906  0.00  0.00    -0.004 A 
ATOM      5  C7  UNL d   1      -0.739  -1.536   0.638  0.00  0.00     0.002 A 
ATOM      6  C8  UNL d   1      -0.138  -2.773   0.399  0.00  0.00     0.002 A 
ENDROOT
BRANCH   1   7
ATOM      7  C2  UNL d   1       1.903  -4.248   0.194  0.00  0.00     0.056 C 
BRANCH   7   8
ATOM      8  C1  UNL d   1       3.431  -4.197   0.090  0.00  0.00     0.007 C 
ATOM      9  C   UNL d   1       4.099  -5.529   0.403  0.00  0.00     0.009 C 
ENDBRANCH   7   8
ENDBRANCH   1   7
TORSDOF 2
ENDMDL
