MODEL 1
REMARK minimizedAffinity -6.34300756
REMARK minimizedRMSD -1
REMARK  2 active torsions:
REMARK  status: ('A' for Active; 'I' for Inactive)
REMARK    1  A    between atoms: C1_2  and  C2_3 
REMARK    2  A    between atoms: C2_3  and  C3_4 
ROOT
ATOM      1  C3  UNL d   1       0.758  -1.821   0.388  0.00  0.00    -0.075 A 
ATOM      2  C4  UNL d   1       1.919  -1.035   0.385  0.00  0.00     0.002 A 
ATOM      3  C5  UNL d   1       3.179  -1.631   0.332  0.00  0.00     0.002 A 
ATOM      4  C6  UNL d   1       3.294  -3.019   0.293  0.00  0.00    -0.004 A 
ATOM      5  C7  UNL d   1       2.148  -3.811   0.313  0.00  0.00     0.002 A 
ATOM      6  C8  UNL d   1       0.886  -3.217   0.361  0.00  0.00     0.002 A 
ENDROOT
BRANCH   1   7
ATOM      7  C2  UNL d   1      -0.609  -1.181   0.415  0.00  0.00     0.056 C 
BRANCH   7   8
ATOM      8  C1  UNL d   1      -0.788  -0.139   1.524  0.00  0.00     0.007 C 
ATOM      9  C   UNL d   1      -2.209   0.402   1.615  0.00  0.00     0.009 C 
ENDBRANCH   7   8
ENDBRANCH   1   7
TORSDOF 2
ENDMDL
