MODEL 1
REMARK minimizedAffinity -1.54366648
REMARK minimizedRMSD -1
REMARK  2 active torsions:
REMARK  status: ('A' for Active; 'I' for Inactive)
REMARK    1  A    between atoms: C1_2  and  C2_3 
REMARK    2  A    between atoms: C2_3  and  C3_4 
ROOT
ATOM      1  C3  UNL d   1       1.209  -2.799   0.237  0.00  0.00    -0.075 A 
ATOM      2  C4  UNL d   1       1.818  -1.543   0.093  0.00  0.00     0.002 A 
ATOM      3  C5  UNL d   1       1.180  -0.390   0.552  0.00  0.00     0.002 A 
ATOM      4  C6  UNL d   1      -0.076  -0.476   1.149  0.00  0.00    -0.004 A 
ATOM      5  C7  UNL d   1      -0.697  -1.715   1.282  0.00  0.00     0.002 A 
ATOM      6  C8  UNL d   1      -0.059  -2.871   0.828  0.00  0.00     0.002 A 
ENDROOT
BRANCH   1   7
ATOM      7  C2  UNL d   1       1.907  -4.054  -0.230  0.00  0.00     0.056 C 
BRANCH   7   8
ATOM      8  C1  UNL d   1       3.429  -4.021  -0.060  0.00  0.00     0.007 C 
ATOM      9  C   UNL d   1       4.093  -5.364  -0.333  0.00  0.00     0.009 C 
ENDBRANCH   7   8
ENDBRANCH   1   7
TORSDOF 2
ENDMDL
