MODEL 1
REMARK minimizedAffinity -5.39104891
REMARK minimizedRMSD -1
REMARK  2 active torsions:
REMARK  status: ('A' for Active; 'I' for Inactive)
REMARK    1  A    between atoms: C1_2  and  C2_3 
REMARK    2  A    between atoms: C2_3  and  C3_4 
ROOT
ATOM      1  C3  UNL d   1       1.613  -2.887   0.214  0.00  0.00    -0.075 A 
ATOM      2  C4  UNL d   1       2.239  -1.637   0.101  0.00  0.00     0.002 A 
ATOM      3  C5  UNL d   1       1.541  -0.466   0.397  0.00  0.00     0.002 A 
ATOM      4  C6  UNL d   1       0.209  -0.528   0.798  0.00  0.00    -0.004 A 
ATOM      5  C7  UNL d   1      -0.428  -1.763   0.898  0.00  0.00     0.002 A 
ATOM      6  C8  UNL d   1       0.268  -2.937   0.608  0.00  0.00     0.002 A 
ENDROOT
BRANCH   1   7
ATOM      7  C2  UNL d   1       2.371  -4.160  -0.076  0.00  0.00     0.056 C 
BRANCH   7   8
ATOM      8  C1  UNL d   1       3.880  -3.961  -0.253  0.00  0.00     0.007 C 
ATOM      9  C   UNL d   1       4.692  -5.209   0.068  0.00  0.00     0.009 C 
ENDBRANCH   7   8
ENDBRANCH   1   7
TORSDOF 2
ENDMDL
