MODEL 1
REMARK minimizedAffinity -4.97763872
REMARK minimizedRMSD -1
REMARK  2 active torsions:
REMARK  status: ('A' for Active; 'I' for Inactive)
REMARK    1  A    between atoms: C1_2  and  C2_3 
REMARK    2  A    between atoms: C2_3  and  C3_4 
ROOT
ATOM      1  C3  UNL d   1       1.415  -2.951   0.240  0.00  0.00    -0.075 A 
ATOM      2  C4  UNL d   1       2.091  -1.731   0.099  0.00  0.00     0.002 A 
ATOM      3  C5  UNL d   1       1.493  -0.539   0.511  0.00  0.00     0.002 A 
ATOM      4  C6  UNL d   1       0.212  -0.550   1.057  0.00  0.00    -0.004 A 
ATOM      5  C7  UNL d   1      -0.476  -1.755   1.186  0.00  0.00     0.002 A 
ATOM      6  C8  UNL d   1       0.121  -2.950   0.779  0.00  0.00     0.002 A 
ENDROOT
BRANCH   1   7
ATOM      7  C2  UNL d   1       2.067  -4.248  -0.176  0.00  0.00     0.056 C 
BRANCH   7   8
ATOM      8  C1  UNL d   1       3.590  -4.163  -0.316  0.00  0.00     0.007 C 
ATOM      9  C   UNL d   1       4.297  -5.474   0.004  0.00  0.00     0.009 C 
ENDBRANCH   7   8
ENDBRANCH   1   7
TORSDOF 2
ENDMDL
