MODEL 1
REMARK minimizedAffinity -3.42486
REMARK minimizedRMSD -1
REMARK  2 active torsions:
REMARK  status: ('A' for Active; 'I' for Inactive)
REMARK    1  A    between atoms: C1_2  and  C2_3 
REMARK    2  A    between atoms: C2_3  and  C3_4 
ROOT
ATOM      1  C3  UNL d   1       1.444  -2.476   0.045  0.00  0.00    -0.075 A 
ATOM      2  C4  UNL d   1       2.034  -1.207   0.129  0.00  0.00     0.002 A 
ATOM      3  C5  UNL d   1       1.361  -0.152   0.746  0.00  0.00     0.002 A 
ATOM      4  C6  UNL d   1       0.088  -0.350   1.277  0.00  0.00    -0.004 A 
ATOM      5  C7  UNL d   1      -0.515  -1.602   1.184  0.00  0.00     0.002 A 
ATOM      6  C8  UNL d   1       0.158  -2.660   0.570  0.00  0.00     0.002 A 
ENDROOT
BRANCH   1   7
ATOM      7  C2  UNL d   1       2.179  -3.629  -0.596  0.00  0.00     0.056 C 
BRANCH   7   8
ATOM      8  C1  UNL d   1       3.697  -3.589  -0.395  0.00  0.00     0.007 C 
ATOM      9  C   UNL d   1       4.378  -4.917  -0.698  0.00  0.00     0.009 C 
ENDBRANCH   7   8
ENDBRANCH   1   7
TORSDOF 2
ENDMDL
