MODEL 1
REMARK minimizedAffinity -2.42638516
REMARK minimizedRMSD -1
REMARK  2 active torsions:
REMARK  status: ('A' for Active; 'I' for Inactive)
REMARK    1  A    between atoms: C1_2  and  C2_3 
REMARK    2  A    between atoms: C2_3  and  C3_4 
ROOT
ATOM      1  C3  UNL d   1       1.022  -1.791   0.107  0.00  0.00    -0.075 A 
ATOM      2  C4  UNL d   1       2.188  -1.118   0.502  0.00  0.00     0.002 A 
ATOM      3  C5  UNL d   1       2.109   0.113   1.153  0.00  0.00     0.002 A 
ATOM      4  C6  UNL d   1       0.868   0.692   1.406  0.00  0.00    -0.004 A 
ATOM      5  C7  UNL d   1      -0.296   0.041   1.004  0.00  0.00     0.002 A 
ATOM      6  C8  UNL d   1      -0.220  -1.194   0.357  0.00  0.00     0.002 A 
ENDROOT
BRANCH   1   7
ATOM      7  C2  UNL d   1       1.100  -3.138  -0.571  0.00  0.00     0.056 C 
BRANCH   7   8
ATOM      8  C1  UNL d   1       1.758  -4.228   0.282  0.00  0.00     0.007 C 
ATOM      9  C   UNL d   1       3.116  -4.668  -0.249  0.00  0.00     0.009 C 
ENDBRANCH   7   8
ENDBRANCH   1   7
TORSDOF 2
ENDMDL
