MODEL 1
REMARK minimizedAffinity 0.393197656
REMARK minimizedRMSD -1
REMARK  2 active torsions:
REMARK  status: ('A' for Active; 'I' for Inactive)
REMARK    1  A    between atoms: C1_2  and  C2_3 
REMARK    2  A    between atoms: C2_3  and  C3_4 
ROOT
ATOM      1  C3  UNL d   1       0.799  -2.827   0.353  0.00  0.00    -0.075 A 
ATOM      2  C4  UNL d   1       1.632  -1.905   1.004  0.00  0.00     0.002 A 
ATOM      3  C5  UNL d   1       1.158  -0.636   1.339  0.00  0.00     0.002 A 
ATOM      4  C6  UNL d   1      -0.148  -0.270   1.020  0.00  0.00    -0.004 A 
ATOM      5  C7  UNL d   1      -0.979  -1.172   0.359  0.00  0.00     0.002 A 
ATOM      6  C8  UNL d   1      -0.509  -2.444   0.026  0.00  0.00     0.002 A 
ENDROOT
BRANCH   1   7
ATOM      7  C2  UNL d   1       1.296  -4.212   0.014  0.00  0.00     0.056 C 
BRANCH   7   8
ATOM      8  C1  UNL d   1       2.702  -4.516   0.541  0.00  0.00     0.007 C 
ATOM      9  C   UNL d   1       3.451  -5.540  -0.301  0.00  0.00     0.009 C 
ENDBRANCH   7   8
ENDBRANCH   1   7
TORSDOF 2
ENDMDL
