MODEL 1
REMARK minimizedAffinity -5.40803146
REMARK minimizedRMSD -1
REMARK  2 active torsions:
REMARK  status: ('A' for Active; 'I' for Inactive)
REMARK    1  A    between atoms: C1_2  and  C2_3 
REMARK    2  A    between atoms: C2_3  and  C3_4 
ROOT
ATOM      1  C3  UNL d   1       2.981  -3.104   0.089  0.00  0.00    -0.075 A 
ATOM      2  C4  UNL d   1       1.686  -3.641   0.080  0.00  0.00     0.002 A 
ATOM      3  C5  UNL d   1       0.580  -2.828   0.333  0.00  0.00     0.002 A 
ATOM      4  C6  UNL d   1       0.756  -1.474   0.607  0.00  0.00    -0.004 A 
ATOM      5  C7  UNL d   1       2.040  -0.933   0.634  0.00  0.00     0.002 A 
ATOM      6  C8  UNL d   1       3.147  -1.743   0.378  0.00  0.00     0.002 A 
ENDROOT
BRANCH   1   7
ATOM      7  C2  UNL d   1       4.180  -3.972  -0.212  0.00  0.00     0.056 C 
BRANCH   7   8
ATOM      8  C1  UNL d   1       4.309  -5.196   0.702  0.00  0.00     0.007 C 
ATOM      9  C   UNL d   1       5.674  -5.865   0.618  0.00  0.00     0.009 C 
ENDBRANCH   7   8
ENDBRANCH   1   7
TORSDOF 2
ENDMDL
