MODEL 1
REMARK minimizedAffinity -3.43935966
REMARK minimizedRMSD -1
REMARK  2 active torsions:
REMARK  status: ('A' for Active; 'I' for Inactive)
REMARK    1  A    between atoms: C1_2  and  C2_3 
REMARK    2  A    between atoms: C2_3  and  C3_4 
ROOT
ATOM      1  C3  UNL d   1       0.232  -1.684   0.348  0.00  0.00    -0.075 A 
ATOM      2  C4  UNL d   1       0.273  -3.074   0.163  0.00  0.00     0.002 A 
ATOM      3  C5  UNL d   1       1.495  -3.743   0.091  0.00  0.00     0.002 A 
ATOM      4  C6  UNL d   1       2.689  -3.033   0.192  0.00  0.00    -0.004 A 
ATOM      5  C7  UNL d   1       2.661  -1.650   0.359  0.00  0.00     0.002 A 
ATOM      6  C8  UNL d   1       1.439  -0.978   0.435  0.00  0.00     0.002 A 
ENDROOT
BRANCH   1   7
ATOM      7  C2  UNL d   1      -1.087  -0.957   0.456  0.00  0.00     0.056 C 
BRANCH   7   8
ATOM      8  C1  UNL d   1      -1.091   0.179   1.484  0.00  0.00     0.007 C 
ATOM      9  C   UNL d   1      -2.305   1.090   1.367  0.00  0.00     0.009 C 
ENDBRANCH   7   8
ENDBRANCH   1   7
TORSDOF 2
ENDMDL
