MODEL 1
REMARK minimizedAffinity -3.78313255
REMARK minimizedRMSD -1
REMARK  2 active torsions:
REMARK  status: ('A' for Active; 'I' for Inactive)
REMARK    1  A    between atoms: C1_2  and  C2_3 
REMARK    2  A    between atoms: C2_3  and  C3_4 
ROOT
ATOM      1  C3  UNL d   1      -0.030  -1.700   0.463  0.00  0.00    -0.075 A 
ATOM      2  C4  UNL d   1       1.001  -0.750   0.438  0.00  0.00     0.002 A 
ATOM      3  C5  UNL d   1       2.320  -1.142   0.203  0.00  0.00     0.002 A 
ATOM      4  C6  UNL d   1       2.625  -2.486   0.000  0.00  0.00    -0.004 A 
ATOM      5  C7  UNL d   1       1.611  -3.440   0.040  0.00  0.00     0.002 A 
ATOM      6  C8  UNL d   1       0.290  -3.051   0.271  0.00  0.00     0.002 A 
ENDROOT
BRANCH   1   7
ATOM      7  C2  UNL d   1      -1.462  -1.280   0.688  0.00  0.00     0.056 C 
BRANCH   7   8
ATOM      8  C1  UNL d   1      -1.613   0.098   1.341  0.00  0.00     0.007 C 
ATOM      9  C   UNL d   1      -2.740   0.928   0.739  0.00  0.00     0.009 C 
ENDBRANCH   7   8
ENDBRANCH   1   7
TORSDOF 2
ENDMDL
