MODEL 1
REMARK minimizedAffinity -5.51052284
REMARK minimizedRMSD -1
REMARK  2 active torsions:
REMARK  status: ('A' for Active; 'I' for Inactive)
REMARK    1  A    between atoms: C1_2  and  C2_3 
REMARK    2  A    between atoms: C2_3  and  C3_4 
ROOT
ATOM      1  C3  UNL d   1       1.436  -2.686   0.515  0.00  0.00    -0.075 A 
ATOM      2  C4  UNL d   1       2.147  -1.502   0.759  0.00  0.00     0.002 A 
ATOM      3  C5  UNL d   1       1.473  -0.289   0.901  0.00  0.00     0.002 A 
ATOM      4  C6  UNL d   1       0.085  -0.242   0.791  0.00  0.00    -0.004 A 
ATOM      5  C7  UNL d   1      -0.629  -1.409   0.532  0.00  0.00     0.002 A 
ATOM      6  C8  UNL d   1       0.042  -2.626   0.394  0.00  0.00     0.002 A 
ENDROOT
BRANCH   1   7
ATOM      7  C2  UNL d   1       2.157  -4.008   0.390  0.00  0.00     0.056 C 
BRANCH   7   8
ATOM      8  C1  UNL d   1       3.620  -3.881  -0.047  0.00  0.00     0.007 C 
ATOM      9  C   UNL d   1       4.366  -5.209  -0.040  0.00  0.00     0.009 C 
ENDBRANCH   7   8
ENDBRANCH   1   7
TORSDOF 2
ENDMDL
