MODEL 1
REMARK minimizedAffinity 6.44345951
REMARK minimizedRMSD -1
REMARK  2 active torsions:
REMARK  status: ('A' for Active; 'I' for Inactive)
REMARK    1  A    between atoms: C1_2  and  C2_3 
REMARK    2  A    between atoms: C2_3  and  C3_4 
ROOT
ATOM      1  C3  UNL d   1      -4.849  -4.830   3.318  0.00  0.00    -0.075 A 
ATOM      2  C4  UNL d   1      -4.343  -5.998   3.907  0.00  0.00     0.002 A 
ATOM      3  C5  UNL d   1      -3.936  -6.000   5.241  0.00  0.00     0.002 A 
ATOM      4  C6  UNL d   1      -4.022  -4.834   6.000  0.00  0.00    -0.004 A 
ATOM      5  C7  UNL d   1      -4.508  -3.664   5.421  0.00  0.00     0.002 A 
ATOM      6  C8  UNL d   1      -4.919  -3.661   4.087  0.00  0.00     0.002 A 
ENDROOT
BRANCH   1   7
ATOM      7  C2  UNL d   1      -5.318  -4.830   1.882  0.00  0.00     0.056 C 
BRANCH   7   8
ATOM      8  C1  UNL d   1      -4.222  -4.486   0.868  0.00  0.00     0.007 C 
ATOM      9  C   UNL d   1      -3.804  -3.022   0.908  0.00  0.00     0.009 C 
ENDBRANCH   7   8
ENDBRANCH   1   7
TORSDOF 2
ENDMDL
