MODEL 1
REMARK minimizedAffinity 5.03161812
REMARK minimizedRMSD -1
REMARK  1 active torsions:
REMARK  status: ('A' for Active; 'I' for Inactive)
REMARK    1  A    between atoms: C1_2  and  C2_3 
ROOT
ATOM      1  C2  UNL d   1       3.261   2.658  -1.974  0.00  0.00    -0.076 A 
ATOM      2  C3  UNL d   1       4.078   2.165  -0.942  0.00  0.00     0.004 A 
ATOM      3  C4  UNL d   1       3.525   1.529   0.168  0.00  0.00    -0.003 A 
ATOM      4  C5  UNL d   1       2.146   1.375   0.264  0.00  0.00     0.000 A 
ATOM      5  C6  UNL d   1       1.322   1.842  -0.759  0.00  0.00     0.000 A 
ATOM      6  C7  UNL d   1       1.864   2.471  -1.893  0.00  0.00    -0.073 A 
ATOM      7  C8  UNL d   1       0.928   2.961  -2.964  0.00  0.00     0.078 C 
ENDROOT
BRANCH   1   8
ATOM      8  C1  UNL d   1       3.915   3.363  -3.141  0.00  0.00     0.053 C 
ATOM      9  C   UNL d   1       4.895   4.438  -2.697  0.00  0.00     0.018 C 
ENDBRANCH   1   8
TORSDOF 1
ENDMDL
