MODEL 1
REMARK minimizedAffinity 14.6987896
REMARK minimizedRMSD -1
REMARK  1 active torsions:
REMARK  status: ('A' for Active; 'I' for Inactive)
REMARK    1  A    between atoms: C1_2  and  C2_3 
ROOT
ATOM      1  C2  UNL d   1      -1.017  -4.138  -2.395  0.00  0.00    -0.076 A 
ATOM      2  C3  UNL d   1      -1.150  -5.407  -2.984  0.00  0.00     0.004 A 
ATOM      3  C4  UNL d   1      -2.042  -5.622  -4.033  0.00  0.00    -0.003 A 
ATOM      4  C5  UNL d   1      -2.816  -4.570  -4.511  0.00  0.00     0.000 A 
ATOM      5  C6  UNL d   1      -2.685  -3.300  -3.950  0.00  0.00     0.000 A 
ATOM      6  C7  UNL d   1      -1.778  -3.063  -2.902  0.00  0.00    -0.073 A 
ATOM      7  C8  UNL d   1      -1.682  -1.675  -2.331  0.00  0.00     0.078 C 
ENDROOT
BRANCH   1   8
ATOM      8  C1  UNL d   1      -0.053  -3.971  -1.242  0.00  0.00     0.053 C 
ATOM      9  C   UNL d   1      -0.754  -3.960   0.107  0.00  0.00     0.018 C 
ENDBRANCH   1   8
TORSDOF 1
ENDMDL
