MODEL 1
REMARK minimizedAffinity 14.8203497
REMARK minimizedRMSD -1
REMARK  1 active torsions:
REMARK  status: ('A' for Active; 'I' for Inactive)
REMARK    1  A    between atoms: C1_2  and  C2_3 
ROOT
ATOM      1  C2  UNL d   1       3.547   3.344  -3.479  0.00  0.00    -0.076 A 
ATOM      2  C3  UNL d   1       4.256   3.869  -2.384  0.00  0.00     0.004 A 
ATOM      3  C4  UNL d   1       5.472   4.525  -2.564  0.00  0.00    -0.003 A 
ATOM      4  C5  UNL d   1       6.000   4.668  -3.843  0.00  0.00     0.000 A 
ATOM      5  C6  UNL d   1       5.302   4.169  -4.942  0.00  0.00     0.000 A 
ATOM      6  C7  UNL d   1       4.067   3.519  -4.780  0.00  0.00    -0.073 A 
ATOM      7  C8  UNL d   1       3.360   2.995  -6.000  0.00  0.00     0.078 C 
ENDROOT
BRANCH   1   8
ATOM      8  C1  UNL d   1       2.246   2.619  -3.219  0.00  0.00     0.053 C 
ATOM      9  C   UNL d   1       2.261   1.848  -1.908  0.00  0.00     0.018 C 
ENDBRANCH   1   8
TORSDOF 1
ENDMDL
