MODEL 1
REMARK minimizedAffinity 14.661643
REMARK minimizedRMSD -1
REMARK  1 active torsions:
REMARK  status: ('A' for Active; 'I' for Inactive)
REMARK    1  A    between atoms: C1_2  and  C2_3 
ROOT
ATOM      1  C2  UNL d   1       3.536   3.180  -3.314  0.00  0.00    -0.076 A 
ATOM      2  C3  UNL d   1       4.106   3.698  -2.138  0.00  0.00     0.004 A 
ATOM      3  C4  UNL d   1       5.328   4.367  -2.168  0.00  0.00    -0.003 A 
ATOM      4  C5  UNL d   1       6.000   4.531  -3.375  0.00  0.00     0.000 A 
ATOM      5  C6  UNL d   1       5.440   4.038  -4.554  0.00  0.00     0.000 A 
ATOM      6  C7  UNL d   1       4.201   3.375  -4.543  0.00  0.00    -0.073 A 
ATOM      7  C8  UNL d   1       3.647   2.859  -5.843  0.00  0.00     0.078 C 
ENDROOT
BRANCH   1   8
ATOM      8  C1  UNL d   1       2.222   2.439  -3.216  0.00  0.00     0.053 C 
ATOM      9  C   UNL d   1       2.185   1.469  -2.045  0.00  0.00     0.018 C 
ENDBRANCH   1   8
TORSDOF 1
ENDMDL
