MODEL 1
REMARK minimizedAffinity 8.31451035
REMARK minimizedRMSD -1
REMARK  1 active torsions:
REMARK  status: ('A' for Active; 'I' for Inactive)
REMARK    1  A    between atoms: C1_2  and  C2_3 
ROOT
ATOM      1  C2  UNL d   1      -4.794   0.515   3.283  0.00  0.00    -0.076 A 
ATOM      2  C3  UNL d   1      -5.997   0.644   3.999  0.00  0.00     0.004 A 
ATOM      3  C4  UNL d   1      -6.000   1.070   5.326  0.00  0.00    -0.003 A 
ATOM      4  C5  UNL d   1      -4.800   1.375   5.959  0.00  0.00     0.000 A 
ATOM      5  C6  UNL d   1      -3.598   1.269   5.258  0.00  0.00     0.000 A 
ATOM      6  C7  UNL d   1      -3.579   0.857   3.915  0.00  0.00    -0.073 A 
ATOM      7  C8  UNL d   1      -2.255   0.754   3.210  0.00  0.00     0.078 C 
ENDROOT
BRANCH   1   8
ATOM      8  C1  UNL d   1      -4.851   0.022   1.855  0.00  0.00     0.053 C 
ATOM      9  C   UNL d   1      -5.351   1.086   0.890  0.00  0.00     0.018 C 
ENDBRANCH   1   8
TORSDOF 1
ENDMDL
