MODEL 1
REMARK minimizedAffinity 21.4242325
REMARK minimizedRMSD -1
REMARK  1 active torsions:
REMARK  status: ('A' for Active; 'I' for Inactive)
REMARK    1  A    between atoms: C1_2  and  C2_3 
ROOT
ATOM      1  C2  UNL d   1      -0.454  -1.586   1.929  0.00  0.00    -0.076 A 
ATOM      2  C3  UNL d   1      -0.519  -0.401   2.683  0.00  0.00     0.004 A 
ATOM      3  C4  UNL d   1      -1.633   0.434   2.613  0.00  0.00    -0.003 A 
ATOM      4  C5  UNL d   1      -2.701   0.098   1.788  0.00  0.00     0.000 A 
ATOM      5  C6  UNL d   1      -2.661  -1.083   1.047  0.00  0.00     0.000 A 
ATOM      6  C7  UNL d   1      -1.552  -1.944   1.118  0.00  0.00    -0.073 A 
ATOM      7  C8  UNL d   1      -1.560  -3.201   0.292  0.00  0.00     0.078 C 
ENDROOT
BRANCH   1   8
ATOM      8  C1  UNL d   1       0.791  -2.438   2.025  0.00  0.00     0.053 C 
ATOM      9  C   UNL d   1       1.698  -2.017   3.170  0.00  0.00     0.018 C 
ENDBRANCH   1   8
TORSDOF 1
ENDMDL
