MODEL 1
REMARK minimizedAffinity 13.7835922
REMARK minimizedRMSD -1
REMARK  1 active torsions:
REMARK  status: ('A' for Active; 'I' for Inactive)
REMARK    1  A    between atoms: C1_2  and  C2_3 
ROOT
ATOM      1  C2  UNL d   1      -2.055   0.064   2.935  0.00  0.00    -0.076 A 
ATOM      2  C3  UNL d   1      -0.762  -0.449   2.733  0.00  0.00     0.004 A 
ATOM      3  C4  UNL d   1      -0.531  -1.473   1.816  0.00  0.00    -0.003 A 
ATOM      4  C5  UNL d   1      -1.590  -2.000   1.085  0.00  0.00     0.000 A 
ATOM      5  C6  UNL d   1      -2.876  -1.492   1.259  0.00  0.00     0.000 A 
ATOM      6  C7  UNL d   1      -3.124  -0.448   2.168  0.00  0.00    -0.073 A 
ATOM      7  C8  UNL d   1      -4.532   0.058   2.320  0.00  0.00     0.078 C 
ENDROOT
BRANCH   1   8
ATOM      8  C1  UNL d   1      -2.249   1.156   3.962  0.00  0.00     0.053 C 
ATOM      9  C   UNL d   1      -1.812   0.729   5.355  0.00  0.00     0.018 C 
ENDBRANCH   1   8
TORSDOF 1
ENDMDL
