MODEL 1
REMARK minimizedAffinity 13.6435184
REMARK minimizedRMSD -1
REMARK  1 active torsions:
REMARK  status: ('A' for Active; 'I' for Inactive)
REMARK    1  A    between atoms: C1_2  and  C2_3 
ROOT
ATOM      1  C2  UNL d   1      -3.217  -0.205   1.711  0.00  0.00    -0.076 A 
ATOM      2  C3  UNL d   1      -2.759  -1.178   0.806  0.00  0.00     0.004 A 
ATOM      3  C4  UNL d   1      -1.446  -1.641   0.854  0.00  0.00    -0.003 A 
ATOM      4  C5  UNL d   1      -0.569  -1.140   1.810  0.00  0.00     0.000 A 
ATOM      5  C6  UNL d   1      -1.011  -0.188   2.728  0.00  0.00     0.000 A 
ATOM      6  C7  UNL d   1      -2.337   0.279   2.703  0.00  0.00    -0.073 A 
ATOM      7  C8  UNL d   1      -2.758   1.311   3.712  0.00  0.00     0.078 C 
ENDROOT
BRANCH   1   8
ATOM      8  C1  UNL d   1      -4.645   0.280   1.593  0.00  0.00     0.053 C 
ATOM      9  C   UNL d   1      -4.974   0.786   0.197  0.00  0.00     0.018 C 
ENDBRANCH   1   8
TORSDOF 1
ENDMDL
