MODEL 1
REMARK minimizedAffinity 12.3820047
REMARK minimizedRMSD -1
REMARK  1 active torsions:
REMARK  status: ('A' for Active; 'I' for Inactive)
REMARK    1  A    between atoms: C1_2  and  C2_3 
ROOT
ATOM      1  C2  UNL d   1       0.597  -2.041   2.327  0.00  0.00    -0.076 A 
ATOM      2  C3  UNL d   1       0.860  -3.276   1.710  0.00  0.00     0.004 A 
ATOM      3  C4  UNL d   1      -0.083  -3.878   0.877  0.00  0.00    -0.003 A 
ATOM      4  C5  UNL d   1      -1.303  -3.253   0.647  0.00  0.00     0.000 A 
ATOM      5  C6  UNL d   1      -1.574  -2.018   1.237  0.00  0.00     0.000 A 
ATOM      6  C7  UNL d   1      -0.628  -1.391   2.066  0.00  0.00    -0.073 A 
ATOM      7  C8  UNL d   1      -0.976  -0.063   2.681  0.00  0.00     0.078 C 
ENDROOT
BRANCH   1   8
ATOM      8  C1  UNL d   1       1.646  -1.450   3.241  0.00  0.00     0.053 C 
ATOM      9  C   UNL d   1       3.006  -2.109   3.069  0.00  0.00     0.018 C 
ENDBRANCH   1   8
TORSDOF 1
ENDMDL
