MODEL 1
REMARK minimizedAffinity 9.87418079
REMARK minimizedRMSD -1
REMARK  1 active torsions:
REMARK  status: ('A' for Active; 'I' for Inactive)
REMARK    1  A    between atoms: C1_2  and  C2_3 
ROOT
ATOM      1  C2  UNL d   1      -1.160  -4.564  -3.637  0.00  0.00    -0.076 A 
ATOM      2  C3  UNL d   1      -2.455  -4.629  -4.181  0.00  0.00     0.004 A 
ATOM      3  C4  UNL d   1      -2.706  -5.341  -5.352  0.00  0.00    -0.003 A 
ATOM      4  C5  UNL d   1      -1.667  -6.000  -6.000  0.00  0.00     0.000 A 
ATOM      5  C6  UNL d   1      -0.380  -5.961  -5.465  0.00  0.00     0.000 A 
ATOM      6  C7  UNL d   1      -0.112  -5.262  -4.276  0.00  0.00    -0.073 A 
ATOM      7  C8  UNL d   1       1.296  -5.248  -3.748  0.00  0.00     0.078 C 
ENDROOT
BRANCH   1   8
ATOM      8  C1  UNL d   1      -0.942  -3.755  -2.379  0.00  0.00     0.053 C 
ATOM      9  C   UNL d   1      -1.497  -4.441  -1.141  0.00  0.00     0.018 C 
ENDBRANCH   1   8
TORSDOF 1
ENDMDL
