MODEL 1
REMARK minimizedAffinity 7.42455769
REMARK minimizedRMSD -1
REMARK  1 active torsions:
REMARK  status: ('A' for Active; 'I' for Inactive)
REMARK    1  A    between atoms: C1_2  and  C2_3 
ROOT
ATOM      1  C2  UNL d   1      -5.079  -0.602   3.601  0.00  0.00    -0.076 A 
ATOM      2  C3  UNL d   1      -4.823  -1.255   4.819  0.00  0.00     0.004 A 
ATOM      3  C4  UNL d   1      -4.659  -0.533   6.000  0.00  0.00    -0.003 A 
ATOM      4  C5  UNL d   1      -4.749   0.854   5.982  0.00  0.00     0.000 A 
ATOM      5  C6  UNL d   1      -5.020   1.518   4.786  0.00  0.00     0.000 A 
ATOM      6  C7  UNL d   1      -5.205   0.804   3.590  0.00  0.00    -0.073 A 
ATOM      7  C8  UNL d   1      -5.489   1.571   2.328  0.00  0.00     0.078 C 
ENDROOT
BRANCH   1   8
ATOM      8  C1  UNL d   1      -5.221  -1.435   2.347  0.00  0.00     0.053 C 
ATOM      9  C   UNL d   1      -4.183  -2.544   2.264  0.00  0.00     0.018 C 
ENDBRANCH   1   8
TORSDOF 1
ENDMDL
