MODEL 1
REMARK minimizedAffinity 10.7689285
REMARK minimizedRMSD -1
REMARK  1 active torsions:
REMARK  status: ('A' for Active; 'I' for Inactive)
REMARK    1  A    between atoms: C1_2  and  C2_3 
ROOT
ATOM      1  C2  UNL d   1      -2.149  -1.006   1.641  0.00  0.00    -0.076 A 
ATOM      2  C3  UNL d   1      -3.458  -0.497   1.572  0.00  0.00     0.004 A 
ATOM      3  C4  UNL d   1      -3.884   0.506   2.441  0.00  0.00    -0.003 A 
ATOM      4  C5  UNL d   1      -3.008   1.018   3.392  0.00  0.00     0.000 A 
ATOM      5  C6  UNL d   1      -1.700   0.538   3.463  0.00  0.00     0.000 A 
ATOM      6  C7  UNL d   1      -1.250  -0.462   2.584  0.00  0.00    -0.073 A 
ATOM      7  C8  UNL d   1       0.168  -0.948   2.709  0.00  0.00     0.078 C 
ENDROOT
BRANCH   1   8
ATOM      8  C1  UNL d   1      -1.752  -2.113   0.691  0.00  0.00     0.053 C 
ATOM      9  C   UNL d   1      -2.337  -3.460   1.089  0.00  0.00     0.018 C 
ENDBRANCH   1   8
TORSDOF 1
ENDMDL
