MODEL 1
REMARK minimizedAffinity 6.38989973
REMARK minimizedRMSD -1
REMARK  1 active torsions:
REMARK  status: ('A' for Active; 'I' for Inactive)
REMARK    1  A    between atoms: C1_2  and  C2_3 
ROOT
ATOM      1  C2  UNL d   1       4.054   2.169  -0.488  0.00  0.00    -0.076 A 
ATOM      2  C3  UNL d   1       5.117   3.039  -0.787  0.00  0.00     0.004 A 
ATOM      3  C4  UNL d   1       5.744   3.776   0.217  0.00  0.00    -0.003 A 
ATOM      4  C5  UNL d   1       5.319   3.654   1.535  0.00  0.00     0.000 A 
ATOM      5  C6  UNL d   1       4.277   2.783   1.852  0.00  0.00     0.000 A 
ATOM      6  C7  UNL d   1       3.645   2.021   0.854  0.00  0.00    -0.073 A 
ATOM      7  C8  UNL d   1       2.522   1.101   1.252  0.00  0.00     0.078 C 
ENDROOT
BRANCH   1   8
ATOM      8  C1  UNL d   1       3.394   1.416  -1.621  0.00  0.00     0.053 C 
ATOM      9  C   UNL d   1       2.038   1.996  -1.995  0.00  0.00     0.018 C 
ENDBRANCH   1   8
TORSDOF 1
ENDMDL
