MODEL 1
REMARK minimizedAffinity 14.158886
REMARK minimizedRMSD -1
REMARK  1 active torsions:
REMARK  status: ('A' for Active; 'I' for Inactive)
REMARK    1  A    between atoms: C1_2  and  C2_3 
ROOT
ATOM      1  C2  UNL d   1      -5.639   0.261  -1.073  0.00  0.00    -0.076 A 
ATOM      2  C3  UNL d   1      -5.985  -0.849  -0.282  0.00  0.00     0.004 A 
ATOM      3  C4  UNL d   1      -5.997  -0.762   1.109  0.00  0.00    -0.003 A 
ATOM      4  C5  UNL d   1      -5.663   0.435   1.732  0.00  0.00     0.000 A 
ATOM      5  C6  UNL d   1      -5.335   1.551   0.962  0.00  0.00     0.000 A 
ATOM      6  C7  UNL d   1      -5.334   1.485  -0.441  0.00  0.00    -0.073 A 
ATOM      7  C8  UNL d   1      -4.966   2.718  -1.222  0.00  0.00     0.078 C 
ENDROOT
BRANCH   1   8
ATOM      8  C1  UNL d   1      -5.618   0.100  -2.576  0.00  0.00     0.053 C 
ATOM      9  C   UNL d   1      -5.956  -1.316  -3.016  0.00  0.00     0.018 C 
ENDBRANCH   1   8
TORSDOF 1
ENDMDL
