MODEL 1
REMARK minimizedAffinity 4.32354212
REMARK minimizedRMSD -1
REMARK  0 active torsions:
REMARK  status: ('A' for Active; 'I' for Inactive)
ROOT
ATOM      1  C   UNL d   1      -5.990  -5.990   5.507  0.00  0.00     0.078 C 
ATOM      2  C1  UNL d   1      -5.171  -4.735   5.442  0.00  0.00    -0.077 A 
ATOM      3  C2  UNL d   1      -3.906  -4.730   4.842  0.00  0.00    -0.001 A 
ATOM      4  C3  UNL d   1      -3.151  -3.557   4.798  0.00  0.00     0.003 A 
ATOM      5  C4  UNL d   1      -3.652  -2.381   5.352  0.00  0.00    -0.005 A 
ATOM      6  C5  UNL d   1      -4.909  -2.377   5.953  0.00  0.00     0.003 A 
ATOM      7  C6  UNL d   1      -5.666  -3.549   5.999  0.00  0.00    -0.001 A 
ENDROOT
TORSDOF 0
ENDMDL
