MODEL 1
REMARK minimizedAffinity 2.09853125
REMARK minimizedRMSD -1
REMARK  0 active torsions:
REMARK  status: ('A' for Active; 'I' for Inactive)
ROOT
ATOM      1  C   UNL d   1       0.355   2.730  -1.122  0.00  0.00     0.078 C 
ATOM      2  C1  UNL d   1      -0.567   2.513   0.041  0.00  0.00    -0.077 A 
ATOM      3  C2  UNL d   1      -1.949   2.689  -0.093  0.00  0.00    -0.001 A 
ATOM      4  C3  UNL d   1      -2.795   2.493   1.001  0.00  0.00     0.003 A 
ATOM      5  C4  UNL d   1      -2.267   2.122   2.236  0.00  0.00    -0.005 A 
ATOM      6  C5  UNL d   1      -0.892   1.947   2.379  0.00  0.00     0.003 A 
ATOM      7  C6  UNL d   1      -0.045   2.142   1.286  0.00  0.00    -0.001 A 
ENDROOT
TORSDOF 0
ENDMDL
