MODEL 1
REMARK minimizedAffinity 2.39873815
REMARK minimizedRMSD -1
REMARK  0 active torsions:
REMARK  status: ('A' for Active; 'I' for Inactive)
ROOT
ATOM      1  C   UNL d   1       5.627  -3.755   0.374  0.00  0.00     0.078 C 
ATOM      2  C1  UNL d   1       5.188  -3.682  -1.058  0.00  0.00    -0.077 A 
ATOM      3  C2  UNL d   1       6.000  -3.087  -2.031  0.00  0.00    -0.001 A 
ATOM      4  C3  UNL d   1       5.574  -3.017  -3.359  0.00  0.00     0.003 A 
ATOM      5  C4  UNL d   1       4.334  -3.539  -3.724  0.00  0.00    -0.005 A 
ATOM      6  C5  UNL d   1       3.518  -4.130  -2.762  0.00  0.00     0.003 A 
ATOM      7  C6  UNL d   1       3.942  -4.201  -1.434  0.00  0.00    -0.001 A 
ENDROOT
TORSDOF 0
ENDMDL
