MODEL 1
REMARK minimizedAffinity 7.49624348
REMARK minimizedRMSD -1
REMARK  0 active torsions:
REMARK  status: ('A' for Active; 'I' for Inactive)
ROOT
ATOM      1  C   UNL d   1      -0.008   2.243  -1.233  0.00  0.00     0.078 C 
ATOM      2  C1  UNL d   1      -0.903   2.205  -0.031  0.00  0.00    -0.077 A 
ATOM      3  C2  UNL d   1      -2.255   2.559  -0.126  0.00  0.00    -0.001 A 
ATOM      4  C3  UNL d   1      -3.074   2.529   1.003  0.00  0.00     0.003 A 
ATOM      5  C4  UNL d   1      -2.551   2.147   2.237  0.00  0.00    -0.005 A 
ATOM      6  C5  UNL d   1      -1.207   1.795   2.342  0.00  0.00     0.003 A 
ATOM      7  C6  UNL d   1      -0.386   1.824   1.214  0.00  0.00    -0.001 A 
ENDROOT
TORSDOF 0
ENDMDL
