MODEL 1
REMARK minimizedAffinity 5.11497164
REMARK minimizedRMSD -1
REMARK  0 active torsions:
REMARK  status: ('A' for Active; 'I' for Inactive)
ROOT
ATOM      1  C   UNL d   1       2.335  -4.114  -0.577  0.00  0.00     0.078 C 
ATOM      2  C1  UNL d   1       3.616  -4.083  -1.356  0.00  0.00    -0.077 A 
ATOM      3  C2  UNL d   1       4.817  -3.686  -0.753  0.00  0.00    -0.001 A 
ATOM      4  C3  UNL d   1       6.000  -3.652  -1.493  0.00  0.00     0.003 A 
ATOM      5  C4  UNL d   1       5.995  -4.014  -2.838  0.00  0.00    -0.005 A 
ATOM      6  C5  UNL d   1       4.805  -4.409  -3.447  0.00  0.00     0.003 A 
ATOM      7  C6  UNL d   1       3.621  -4.443  -2.709  0.00  0.00    -0.001 A 
ENDROOT
TORSDOF 0
ENDMDL
