MODEL 1
REMARK minimizedAffinity 4.40489864
REMARK minimizedRMSD -1
REMARK  0 active torsions:
REMARK  status: ('A' for Active; 'I' for Inactive)
ROOT
ATOM      1  C   UNL d   1       2.993  -2.632  -5.072  0.00  0.00     0.078 C 
ATOM      2  C1  UNL d   1       3.866  -3.397  -4.122  0.00  0.00    -0.077 A 
ATOM      3  C2  UNL d   1       3.382  -4.525  -3.448  0.00  0.00    -0.001 A 
ATOM      4  C3  UNL d   1       4.202  -5.222  -2.559  0.00  0.00     0.003 A 
ATOM      5  C4  UNL d   1       5.511  -4.797  -2.335  0.00  0.00    -0.005 A 
ATOM      6  C5  UNL d   1       6.000  -3.675  -2.999  0.00  0.00     0.003 A 
ATOM      7  C6  UNL d   1       5.181  -2.977  -3.889  0.00  0.00    -0.001 A 
ENDROOT
TORSDOF 0
ENDMDL
