MODEL 1
REMARK minimizedAffinity 8.32866096
REMARK minimizedRMSD -1
REMARK  0 active torsions:
REMARK  status: ('A' for Active; 'I' for Inactive)
ROOT
ATOM      1  C   UNL d   1      -1.933  -2.834   4.907  0.00  0.00     0.078 C 
ATOM      2  C1  UNL d   1      -3.349  -3.158   5.280  0.00  0.00    -0.077 A 
ATOM      3  C2  UNL d   1      -4.296  -2.144   5.464  0.00  0.00    -0.001 A 
ATOM      4  C3  UNL d   1      -5.608  -2.460   5.820  0.00  0.00     0.003 A 
ATOM      5  C4  UNL d   1      -5.985  -3.790   5.996  0.00  0.00    -0.005 A 
ATOM      6  C5  UNL d   1      -5.048  -4.806   5.817  0.00  0.00     0.003 A 
ATOM      7  C6  UNL d   1      -3.736  -4.492   5.461  0.00  0.00    -0.001 A 
ENDROOT
TORSDOF 0
ENDMDL
