MODEL 1
REMARK minimizedAffinity 7.2987361
REMARK minimizedRMSD -1
REMARK  0 active torsions:
REMARK  status: ('A' for Active; 'I' for Inactive)
ROOT
ATOM      1  C   UNL d   1       0.583   0.624   2.829  0.00  0.00     0.078 C 
ATOM      2  C1  UNL d   1      -0.590   1.199   2.093  0.00  0.00    -0.077 A 
ATOM      3  C2  UNL d   1      -0.406   2.081   1.021  0.00  0.00    -0.001 A 
ATOM      4  C3  UNL d   1      -1.507   2.617   0.350  0.00  0.00     0.003 A 
ATOM      5  C4  UNL d   1      -2.800   2.277   0.746  0.00  0.00    -0.005 A 
ATOM      6  C5  UNL d   1      -2.992   1.402   1.813  0.00  0.00     0.003 A 
ATOM      7  C6  UNL d   1      -1.892   0.866   2.484  0.00  0.00    -0.001 A 
ENDROOT
TORSDOF 0
ENDMDL
