MODEL 1
REMARK minimizedAffinity 3.06703186
REMARK minimizedRMSD -1
REMARK  0 active torsions:
REMARK  status: ('A' for Active; 'I' for Inactive)
ROOT
ATOM      1  C   UNL d   1      -2.606  -0.016  -2.669  0.00  0.00     0.078 C 
ATOM      2  C1  UNL d   1      -1.229   0.500  -2.374  0.00  0.00    -0.077 A 
ATOM      3  C2  UNL d   1      -0.099  -0.301  -2.577  0.00  0.00    -0.001 A 
ATOM      4  C3  UNL d   1       1.175   0.189  -2.289  0.00  0.00     0.003 A 
ATOM      5  C4  UNL d   1       1.332   1.482  -1.794  0.00  0.00    -0.005 A 
ATOM      6  C5  UNL d   1       0.214   2.287  -1.586  0.00  0.00     0.003 A 
ATOM      7  C6  UNL d   1      -1.062   1.798  -1.874  0.00  0.00    -0.001 A 
ENDROOT
TORSDOF 0
ENDMDL
