MODEL 1
REMARK minimizedAffinity 0.956481457
REMARK minimizedRMSD -1
REMARK  0 active torsions:
REMARK  status: ('A' for Active; 'I' for Inactive)
ROOT
ATOM      1  C   UNL d   1       4.105  -3.740  -3.005  0.00  0.00     0.078 C 
ATOM      2  C1  UNL d   1       4.414  -3.032  -1.720  0.00  0.00    -0.077 A 
ATOM      3  C2  UNL d   1       5.728  -2.943  -1.243  0.00  0.00    -0.001 A 
ATOM      4  C3  UNL d   1       6.000  -2.289  -0.041  0.00  0.00     0.003 A 
ATOM      5  C4  UNL d   1       4.963  -1.719   0.696  0.00  0.00    -0.005 A 
ATOM      6  C5  UNL d   1       3.652  -1.804   0.231  0.00  0.00     0.003 A 
ATOM      7  C6  UNL d   1       3.378  -2.458  -0.972  0.00  0.00    -0.001 A 
ENDROOT
TORSDOF 0
ENDMDL
