MODEL 1
REMARK minimizedAffinity 2.90203881
REMARK minimizedRMSD -1
REMARK  0 active torsions:
REMARK  status: ('A' for Active; 'I' for Inactive)
ROOT
ATOM      1  C   UNL d   1      -2.293   4.816  -3.148  0.00  0.00     0.078 C 
ATOM      2  C1  UNL d   1      -3.559   5.218  -3.844  0.00  0.00    -0.077 A 
ATOM      3  C2  UNL d   1      -3.639   5.236  -5.242  0.00  0.00    -0.001 A 
ATOM      4  C3  UNL d   1      -4.822   5.622  -5.876  0.00  0.00     0.003 A 
ATOM      5  C4  UNL d   1      -5.932   5.994  -5.120  0.00  0.00    -0.005 A 
ATOM      6  C5  UNL d   1      -5.860   5.981  -3.729  0.00  0.00     0.003 A 
ATOM      7  C6  UNL d   1      -4.679   5.596  -3.093  0.00  0.00    -0.001 A 
ENDROOT
TORSDOF 0
ENDMDL
