MODEL 1
REMARK minimizedAffinity 6.71632719
REMARK minimizedRMSD -1
REMARK  0 active torsions:
REMARK  status: ('A' for Active; 'I' for Inactive)
ROOT
ATOM      1  C   UNL d   1      -2.306   0.000  -3.378  0.00  0.00     0.078 C 
ATOM      2  C1  UNL d   1      -0.981   0.662  -3.147  0.00  0.00    -0.077 A 
ATOM      3  C2  UNL d   1       0.099   0.436  -4.010  0.00  0.00    -0.001 A 
ATOM      4  C3  UNL d   1       1.330   1.052  -3.777  0.00  0.00     0.003 A 
ATOM      5  C4  UNL d   1       1.493   1.895  -2.680  0.00  0.00    -0.005 A 
ATOM      6  C5  UNL d   1       0.426   2.124  -1.814  0.00  0.00     0.003 A 
ATOM      7  C6  UNL d   1      -0.806   1.510  -2.046  0.00  0.00    -0.001 A 
ENDROOT
TORSDOF 0
ENDMDL
