MODEL 1
REMARK minimizedAffinity 3.4543581
REMARK minimizedRMSD -1
REMARK  0 active torsions:
REMARK  status: ('A' for Active; 'I' for Inactive)
ROOT
ATOM      1  C   UNL d   1      -0.313   2.021   0.011  0.00  0.00     0.078 C 
ATOM      2  C1  UNL d   1      -0.037   1.405  -1.328  0.00  0.00    -0.077 A 
ATOM      3  C2  UNL d   1       0.870   1.992  -2.219  0.00  0.00    -0.001 A 
ATOM      4  C3  UNL d   1       1.110   1.413  -3.466  0.00  0.00     0.003 A 
ATOM      5  C4  UNL d   1       0.445   0.244  -3.834  0.00  0.00    -0.005 A 
ATOM      6  C5  UNL d   1      -0.461  -0.345  -2.955  0.00  0.00     0.003 A 
ATOM      7  C6  UNL d   1      -0.702   0.232  -1.708  0.00  0.00    -0.001 A 
ENDROOT
TORSDOF 0
ENDMDL
