MODEL 1
REMARK minimizedAffinity 8.00275421
REMARK minimizedRMSD -1
REMARK  0 active torsions:
REMARK  status: ('A' for Active; 'I' for Inactive)
ROOT
ATOM      1  C   UNL d   1      -3.025   0.304  -2.987  0.00  0.00     0.078 C 
ATOM      2  C1  UNL d   1      -1.615   0.488  -2.510  0.00  0.00    -0.077 A 
ATOM      3  C2  UNL d   1      -0.656  -0.516  -2.690  0.00  0.00    -0.001 A 
ATOM      4  C3  UNL d   1       0.650  -0.334  -2.232  0.00  0.00     0.003 A 
ATOM      5  C4  UNL d   1       1.009   0.850  -1.591  0.00  0.00    -0.005 A 
ATOM      6  C5  UNL d   1       0.061   1.854  -1.406  0.00  0.00     0.003 A 
ATOM      7  C6  UNL d   1      -1.246   1.674  -1.862  0.00  0.00    -0.001 A 
ENDROOT
TORSDOF 0
ENDMDL
