MODEL 1
REMARK minimizedAffinity 7.99326372
REMARK minimizedRMSD -1
REMARK  0 active torsions:
REMARK  status: ('A' for Active; 'I' for Inactive)
ROOT
ATOM      1  C   UNL d   1      -1.506  -1.773   4.029  0.00  0.00     0.078 C 
ATOM      2  C1  UNL d   1      -1.172  -0.524   3.269  0.00  0.00    -0.077 A 
ATOM      3  C2  UNL d   1       0.143  -0.250   2.874  0.00  0.00    -0.001 A 
ATOM      4  C3  UNL d   1       0.440   0.921   2.175  0.00  0.00     0.003 A 
ATOM      5  C4  UNL d   1      -0.572   1.828   1.865  0.00  0.00    -0.005 A 
ATOM      6  C5  UNL d   1      -1.883   1.564   2.256  0.00  0.00     0.003 A 
ATOM      7  C6  UNL d   1      -2.183   0.394   2.955  0.00  0.00    -0.001 A 
ENDROOT
TORSDOF 0
ENDMDL
