MODEL 1
REMARK minimizedAffinity 1.03439391
REMARK minimizedRMSD -1
REMARK  0 active torsions:
REMARK  status: ('A' for Active; 'I' for Inactive)
ROOT
ATOM      1  C1  BNZ d   1      -3.492   1.162   0.836  0.00  0.00     0.000 A 
ATOM      2  C2  BNZ d   1      -2.826   0.991   2.021  0.00  0.00     0.000 A 
ATOM      3  C3  BNZ d   1      -2.029  -0.100   2.224  0.00  0.00     0.000 A 
ATOM      4  C4  BNZ d   1      -1.929  -1.038   1.260  0.00  0.00     0.000 A 
ATOM      5  C5  BNZ d   1      -2.601  -0.885   0.064  0.00  0.00     0.000 A 
ATOM      6  C6  BNZ d   1      -3.372   0.234  -0.152  0.00  0.00     0.000 A 
ENDROOT
TORSDOF 0
ENDMDL
