MODEL 1
REMARK minimizedAffinity 2.26481199
REMARK minimizedRMSD -1
REMARK  0 active torsions:
REMARK  status: ('A' for Active; 'I' for Inactive)
ROOT
ATOM      1  C1  BNZ d   1      -1.988  -0.258  -4.827  0.00  0.00     0.000 A 
ATOM      2  C2  BNZ d   1      -0.947   0.619  -4.677  0.00  0.00     0.000 A 
ATOM      3  C3  BNZ d   1       0.317   0.278  -5.069  0.00  0.00     0.000 A 
ATOM      4  C4  BNZ d   1       0.546  -0.953  -5.572  0.00  0.00     0.000 A 
ATOM      5  C5  BNZ d   1      -0.492  -1.851  -5.721  0.00  0.00     0.000 A 
ATOM      6  C6  BNZ d   1      -1.770  -1.490  -5.362  0.00  0.00     0.000 A 
ENDROOT
TORSDOF 0
ENDMDL
