MODEL 1
REMARK minimizedAffinity 4.83020926
REMARK minimizedRMSD -1
REMARK  0 active torsions:
REMARK  status: ('A' for Active; 'I' for Inactive)
ROOT
ATOM      1  C1  BNZ d   1       0.043  -0.457  -5.921  0.00  0.00     0.000 A 
ATOM      2  C2  BNZ d   1      -1.226   0.055  -5.953  0.00  0.00     0.000 A 
ATOM      3  C3  BNZ d   1      -2.181  -0.384  -5.079  0.00  0.00     0.000 A 
ATOM      4  C4  BNZ d   1      -1.877  -1.361  -4.202  0.00  0.00     0.000 A 
ATOM      5  C5  BNZ d   1      -0.604  -1.895  -4.162  0.00  0.00     0.000 A 
ATOM      6  C6  BNZ d   1       0.365  -1.423  -5.018  0.00  0.00     0.000 A 
ENDROOT
TORSDOF 0
ENDMDL
