MODEL 1
REMARK minimizedAffinity -2.25613642
REMARK minimizedRMSD -1
REMARK  0 active torsions:
REMARK  status: ('A' for Active; 'I' for Inactive)
ROOT
ATOM      1  C1  BNZ d   1      -2.014  -1.568   2.618  0.00  0.00     0.000 A 
ATOM      2  C2  BNZ d   1      -0.812  -1.994   3.116  0.00  0.00     0.000 A 
ATOM      3  C3  BNZ d   1       0.329  -1.273   2.902  0.00  0.00     0.000 A 
ATOM      4  C4  BNZ d   1       0.274  -0.151   2.157  0.00  0.00     0.000 A 
ATOM      5  C5  BNZ d   1      -0.929   0.287   1.639  0.00  0.00     0.000 A 
ATOM      6  C6  BNZ d   1      -2.082  -0.420   1.890  0.00  0.00     0.000 A 
ENDROOT
TORSDOF 0
ENDMDL
