MODEL 1
REMARK minimizedAffinity 1.10603833
REMARK minimizedRMSD -1
REMARK  0 active torsions:
REMARK  status: ('A' for Active; 'I' for Inactive)
ROOT
ATOM      1  C1  BNZ d   1      -1.295  -0.401   1.767  0.00  0.00     0.000 A 
ATOM      2  C2  BNZ d   1      -0.100   0.258   1.874  0.00  0.00     0.000 A 
ATOM      3  C3  BNZ d   1       1.022  -0.393   2.305  0.00  0.00     0.000 A 
ATOM      4  C4  BNZ d   1       0.939  -1.690   2.666  0.00  0.00     0.000 A 
ATOM      5  C5  BNZ d   1      -0.261  -2.365   2.572  0.00  0.00     0.000 A 
ATOM      6  C6  BNZ d   1      -1.380  -1.717   2.101  0.00  0.00     0.000 A 
ENDROOT
TORSDOF 0
ENDMDL
