MODEL 1
REMARK minimizedAffinity 0.587435067
REMARK minimizedRMSD -1
REMARK  0 active torsions:
REMARK  status: ('A' for Active; 'I' for Inactive)
ROOT
ATOM      1  C1  BNZ d   1       2.138  -0.489   3.227  0.00  0.00     0.000 A 
ATOM      2  C2  BNZ d   1       1.250  -1.007   2.322  0.00  0.00     0.000 A 
ATOM      3  C3  BNZ d   1       0.268  -1.870   2.721  0.00  0.00     0.000 A 
ATOM      4  C4  BNZ d   1       0.199  -2.245   4.015  0.00  0.00     0.000 A 
ATOM      5  C5  BNZ d   1       1.093  -1.739   4.937  0.00  0.00     0.000 A 
ATOM      6  C6  BNZ d   1       2.056  -0.840   4.540  0.00  0.00     0.000 A 
ENDROOT
TORSDOF 0
ENDMDL
