MODEL 1
REMARK minimizedAffinity -3.52046633
REMARK minimizedRMSD -1
REMARK  0 active torsions:
REMARK  status: ('A' for Active; 'I' for Inactive)
ROOT
ATOM      1  C1  BNZ d   1      -1.899  -0.208   2.028  0.00  0.00     0.000 A 
ATOM      2  C2  BNZ d   1      -0.731   0.507   2.069  0.00  0.00     0.000 A 
ATOM      3  C3  BNZ d   1       0.424  -0.065   2.525  0.00  0.00     0.000 A 
ATOM      4  C4  BNZ d   1       0.401  -1.335   2.976  0.00  0.00     0.000 A 
ATOM      5  C5  BNZ d   1      -0.770  -2.066   2.950  0.00  0.00     0.000 A 
ATOM      6  C6  BNZ d   1      -1.922  -1.500   2.454  0.00  0.00     0.000 A 
ENDROOT
TORSDOF 0
ENDMDL
