MODEL 1
REMARK minimizedAffinity -0.876156509
REMARK minimizedRMSD -1
REMARK  0 active torsions:
REMARK  status: ('A' for Active; 'I' for Inactive)
ROOT
ATOM      1  C1  BNZ d   1       0.451  -0.444   2.590  0.00  0.00     0.000 A 
ATOM      2  C2  BNZ d   1      -0.746  -0.009   2.087  0.00  0.00     0.000 A 
ATOM      3  C3  BNZ d   1      -1.839  -0.830   2.074  0.00  0.00     0.000 A 
ATOM      4  C4  BNZ d   1      -1.724  -2.095   2.528  0.00  0.00     0.000 A 
ATOM      5  C5  BNZ d   1      -0.521  -2.551   3.029  0.00  0.00     0.000 A 
ATOM      6  C6  BNZ d   1       0.567  -1.709   3.076  0.00  0.00     0.000 A 
ENDROOT
TORSDOF 0
ENDMDL
