MODEL 1
REMARK minimizedAffinity -3.20918989
REMARK minimizedRMSD -1
REMARK  0 active torsions:
REMARK  status: ('A' for Active; 'I' for Inactive)
ROOT
ATOM      1  C1  BNZ d   1      -1.584  -1.118   0.625  0.00  0.00     0.000 A 
ATOM      2  C2  BNZ d   1      -0.825  -1.009   1.760  0.00  0.00     0.000 A 
ATOM      3  C3  BNZ d   1      -1.123  -0.077   2.714  0.00  0.00     0.000 A 
ATOM      4  C4  BNZ d   1      -2.152   0.772   2.514  0.00  0.00     0.000 A 
ATOM      5  C5  BNZ d   1      -2.920   0.681   1.370  0.00  0.00     0.000 A 
ATOM      6  C6  BNZ d   1      -2.642  -0.285   0.430  0.00  0.00     0.000 A 
ENDROOT
TORSDOF 0
ENDMDL
