MODEL 1
REMARK minimizedAffinity -5.14402676
REMARK minimizedRMSD -1
REMARK  0 active torsions:
REMARK  status: ('A' for Active; 'I' for Inactive)
ROOT
ATOM      1  N1  IND d   1       1.491  -1.282  -0.301  0.00  0.00    -0.196 N 
ATOM      2  C2  IND d   1       1.011  -1.573  -1.547  0.00  0.00     0.054 A 
ATOM      3  C3  IND d   1      -0.341  -1.579  -1.541  0.00  0.00    -0.031 A 
ATOM      4  C4  IND d   1      -1.970  -1.040   0.379  0.00  0.00     0.051 A 
ATOM      5  C5  IND d   1      -2.003  -0.754   1.715  0.00  0.00    -0.031 A 
ATOM      6  C6  IND d   1      -0.851  -0.624   2.462  0.00  0.00     0.015 A 
ATOM      7  C7  IND d   1       0.385  -0.765   1.895  0.00  0.00    -0.016 A 
ATOM      8  C8  IND d   1       0.423  -1.062   0.540  0.00  0.00    -0.047 A 
ATOM      9  C9  IND d   1      -0.745  -1.237  -0.214  0.00  0.00    -0.096 A 
ATOM     10  HN1 IND d   1       2.321  -1.243  -0.079  0.00  0.00     0.298 HD
ENDROOT
TORSDOF 0
ENDMDL
