MODEL 1
REMARK minimizedAffinity -4.29714918
REMARK minimizedRMSD -1
REMARK  0 active torsions:
REMARK  status: ('A' for Active; 'I' for Inactive)
ROOT
ATOM      1  N1  IND d   1      -0.426  -0.331   1.471  0.00  0.00    -0.196 N 
ATOM      2  C2  IND d   1      -1.756  -0.423   1.172  0.00  0.00     0.054 A 
ATOM      3  C3  IND d   1      -1.938  -1.176   0.064  0.00  0.00    -0.031 A 
ATOM      4  C4  IND d   1      -0.203  -2.438  -1.359  0.00  0.00     0.051 A 
ATOM      5  C5  IND d   1       1.143  -2.625  -1.501  0.00  0.00    -0.031 A 
ATOM      6  C6  IND d   1       2.054  -2.048  -0.639  0.00  0.00     0.015 A 
ATOM      7  C7  IND d   1       1.649  -1.267   0.407  0.00  0.00    -0.016 A 
ATOM      8  C8  IND d   1       0.283  -1.069   0.549  0.00  0.00    -0.047 A 
ATOM      9  C9  IND d   1      -0.643  -1.618  -0.347  0.00  0.00    -0.096 A 
ATOM     10  HN1 IND d   1      -0.088   0.113   2.125  0.00  0.00     0.298 HD
ENDROOT
TORSDOF 0
ENDMDL
