MODEL 1
REMARK minimizedAffinity -2.12843561
REMARK minimizedRMSD -1
REMARK  0 active torsions:
REMARK  status: ('A' for Active; 'I' for Inactive)
ROOT
ATOM      1  N1  IND d   1      -1.565  -1.690   1.760  0.00  0.00    -0.196 N 
ATOM      2  C2  IND d   1      -2.007  -0.407   1.927  0.00  0.00     0.054 A 
ATOM      3  C3  IND d   1      -1.738   0.330   0.826  0.00  0.00    -0.031 A 
ATOM      4  C4  IND d   1      -0.671  -0.391  -1.404  0.00  0.00     0.051 A 
ATOM      5  C5  IND d   1      -0.072  -1.455  -2.017  0.00  0.00    -0.031 A 
ATOM      6  C6  IND d   1       0.061  -2.677  -1.391  0.00  0.00     0.015 A 
ATOM      7  C7  IND d   1      -0.414  -2.885  -0.126  0.00  0.00    -0.016 A 
ATOM      8  C8  IND d   1      -1.016  -1.805   0.502  0.00  0.00    -0.047 A 
ATOM      9  C9  IND d   1      -1.116  -0.550  -0.113  0.00  0.00    -0.096 A 
ATOM     10  HN1 IND d   1      -1.620  -2.319   2.344  0.00  0.00     0.298 HD
ENDROOT
TORSDOF 0
ENDMDL
