MODEL 1
REMARK minimizedAffinity -5.69106865
REMARK minimizedRMSD -1
REMARK  0 active torsions:
REMARK  status: ('A' for Active; 'I' for Inactive)
ROOT
ATOM      1  N1  IND d   1       0.515  -1.182   0.010  0.00  0.00    -0.196 N 
ATOM      2  C2  IND d   1       0.139  -1.488  -1.269  0.00  0.00     0.054 A 
ATOM      3  C3  IND d   1      -1.166  -1.191  -1.459  0.00  0.00    -0.031 A 
ATOM      4  C4  IND d   1      -2.848  -0.101   0.156  0.00  0.00     0.051 A 
ATOM      5  C5  IND d   1      -2.980   0.325   1.448  0.00  0.00    -0.031 A 
ATOM      6  C6  IND d   1      -1.932   0.272   2.344  0.00  0.00     0.015 A 
ATOM      7  C7  IND d   1      -0.704  -0.201   1.976  0.00  0.00    -0.016 A 
ATOM      8  C8  IND d   1      -0.568  -0.641   0.667  0.00  0.00    -0.047 A 
ATOM      9  C9  IND d   1      -1.640  -0.629  -0.234  0.00  0.00    -0.096 A 
ATOM     10  HN1 IND d   1       1.296  -1.306   0.346  0.00  0.00     0.298 HD
ENDROOT
TORSDOF 0
ENDMDL
