MODEL 1
REMARK minimizedAffinity -2.56224251
REMARK minimizedRMSD -1
REMARK  0 active torsions:
REMARK  status: ('A' for Active; 'I' for Inactive)
ROOT
ATOM      1  N1  IND d   1      -2.381  -0.854   0.120  0.00  0.00    -0.196 N 
ATOM      2  C2  IND d   1      -3.186  -0.146   0.968  0.00  0.00     0.054 A 
ATOM      3  C3  IND d   1      -2.531   0.130   2.118  0.00  0.00    -0.031 A 
ATOM      4  C4  IND d   1      -0.100  -0.397   2.782  0.00  0.00     0.051 A 
ATOM      5  C5  IND d   1       1.015  -1.060   2.351  0.00  0.00    -0.031 A 
ATOM      6  C6  IND d   1       1.056  -1.699   1.129  0.00  0.00     0.015 A 
ATOM      7  C7  IND d   1      -0.017  -1.689   0.283  0.00  0.00    -0.016 A 
ATOM      8  C8  IND d   1      -1.153  -1.023   0.720  0.00  0.00    -0.047 A 
ATOM      9  C9  IND d   1      -1.215  -0.409   1.978  0.00  0.00    -0.096 A 
ATOM     10  HN1 IND d   1      -2.605  -1.146  -0.657  0.00  0.00     0.298 HD
ENDROOT
TORSDOF 0
ENDMDL
