MODEL 1
REMARK minimizedAffinity -2.70301366
REMARK minimizedRMSD -1
REMARK  0 active torsions:
REMARK  status: ('A' for Active; 'I' for Inactive)
ROOT
ATOM      1  N1  IND d   1       0.531  -1.165   1.459  0.00  0.00    -0.196 N 
ATOM      2  C2  IND d   1       0.741  -1.063   2.806  0.00  0.00     0.054 A 
ATOM      3  C3  IND d   1      -0.355  -0.558   3.416  0.00  0.00    -0.031 A 
ATOM      4  C4  IND d   1      -2.640   0.074   2.412  0.00  0.00     0.051 A 
ATOM      5  C5  IND d   1      -3.298   0.190   1.219  0.00  0.00    -0.031 A 
ATOM      6  C6  IND d   1      -2.702  -0.150   0.022  0.00  0.00     0.015 A 
ATOM      7  C7  IND d   1      -1.424  -0.631  -0.027  0.00  0.00    -0.016 A 
ATOM      8  C8  IND d   1      -0.750  -0.743   1.181  0.00  0.00    -0.047 A 
ATOM      9  C9  IND d   1      -1.335  -0.359   2.395  0.00  0.00    -0.096 A 
ATOM     10  HN1 IND d   1       1.103  -1.446   0.882  0.00  0.00     0.298 HD
ENDROOT
TORSDOF 0
ENDMDL
