MODEL 1
REMARK minimizedAffinity -2.5328598
REMARK minimizedRMSD -1
REMARK  0 active torsions:
REMARK  status: ('A' for Active; 'I' for Inactive)
ROOT
ATOM      1  C   UNL d   1      -0.561  -0.879  -4.717  0.00  0.00     0.077 C 
ATOM      2  C1  UNL d   1       0.396  -0.431  -3.653  0.00  0.00    -0.074 A 
ATOM      3  C2  UNL d   1       1.638   0.117  -3.988  0.00  0.00    -0.005 A 
ATOM      4  C3  UNL d   1       2.514   0.539  -2.987  0.00  0.00     0.006 A 
ATOM      5  C4  UNL d   1       2.157   0.417  -1.644  0.00  0.00    -0.005 A 
ATOM      6  C5  UNL d   1       0.919  -0.128  -1.290  0.00  0.00    -0.074 A 
ATOM      7  C6  UNL d   1       0.516  -0.257   0.149  0.00  0.00     0.077 C 
ATOM      8  C7  UNL d   1       0.042  -0.543  -2.301  0.00  0.00    -0.001 A 
ENDROOT
TORSDOF 0
ENDMDL
