MODEL 1
REMARK minimizedAffinity -3.46485019
REMARK minimizedRMSD -1
REMARK  0 active torsions:
REMARK  status: ('A' for Active; 'I' for Inactive)
ROOT
ATOM      1  C   UNL d   1      -3.417  -1.309   2.771  0.00  0.00     0.077 C 
ATOM      2  C1  UNL d   1      -2.256  -0.522   2.240  0.00  0.00    -0.074 A 
ATOM      3  C2  UNL d   1      -1.457   0.246   3.094  0.00  0.00    -0.005 A 
ATOM      4  C3  UNL d   1      -0.374   0.964   2.587  0.00  0.00     0.006 A 
ATOM      5  C4  UNL d   1      -0.080   0.922   1.224  0.00  0.00    -0.005 A 
ATOM      6  C5  UNL d   1      -0.866   0.159   0.355  0.00  0.00    -0.074 A 
ATOM      7  C6  UNL d   1      -0.558   0.095  -1.111  0.00  0.00     0.077 C 
ATOM      8  C7  UNL d   1      -1.948  -0.566   0.873  0.00  0.00    -0.001 A 
ENDROOT
TORSDOF 0
ENDMDL
