MODEL 1
REMARK minimizedAffinity -4.79621649
REMARK minimizedRMSD -1
REMARK  0 active torsions:
REMARK  status: ('A' for Active; 'I' for Inactive)
ROOT
ATOM      1  C   UNL d   1      -1.004   1.676   3.320  0.00  0.00     0.077 C 
ATOM      2  C1  UNL d   1      -1.055   0.927   2.022  0.00  0.00    -0.074 A 
ATOM      3  C2  UNL d   1      -2.239   0.323   1.587  0.00  0.00    -0.005 A 
ATOM      4  C3  UNL d   1      -2.274  -0.363   0.373  0.00  0.00     0.006 A 
ATOM      5  C4  UNL d   1      -1.127  -0.452  -0.417  0.00  0.00    -0.005 A 
ATOM      6  C5  UNL d   1       0.066   0.146   0.002  0.00  0.00    -0.074 A 
ATOM      7  C6  UNL d   1       1.305   0.069  -0.840  0.00  0.00     0.077 C 
ATOM      8  C7  UNL d   1       0.091   0.840   1.219  0.00  0.00    -0.001 A 
ENDROOT
TORSDOF 0
ENDMDL
