MODEL 1
REMARK minimizedAffinity -4.32610559
REMARK minimizedRMSD -1
REMARK  0 active torsions:
REMARK  status: ('A' for Active; 'I' for Inactive)
ROOT
ATOM      1  C   UNL d   1       0.618  -0.332  -1.486  0.00  0.00     0.077 C 
ATOM      2  C1  UNL d   1      -0.303  -0.023  -0.343  0.00  0.00    -0.074 A 
ATOM      3  C2  UNL d   1      -1.682  -0.221  -0.458  0.00  0.00    -0.005 A 
ATOM      4  C3  UNL d   1      -2.525   0.063   0.617  0.00  0.00     0.006 A 
ATOM      5  C4  UNL d   1      -1.998   0.547   1.815  0.00  0.00    -0.005 A 
ATOM      6  C5  UNL d   1      -0.621   0.750   1.948  0.00  0.00    -0.074 A 
ATOM      7  C6  UNL d   1      -0.036   1.261   3.232  0.00  0.00     0.077 C 
ATOM      8  C7  UNL d   1       0.220   0.457   0.866  0.00  0.00    -0.001 A 
ENDROOT
TORSDOF 0
ENDMDL
