MODEL 1
REMARK minimizedAffinity -4.64272738
REMARK minimizedRMSD -1
REMARK  0 active torsions:
REMARK  status: ('A' for Active; 'I' for Inactive)
ROOT
ATOM      1  C   UNL d   1       1.297  -1.175  -1.187  0.00  0.00     0.077 C 
ATOM      2  C1  UNL d   1       0.164  -0.618  -0.378  0.00  0.00    -0.074 A 
ATOM      3  C2  UNL d   1      -1.162  -0.779  -0.793  0.00  0.00    -0.005 A 
ATOM      4  C3  UNL d   1      -2.207  -0.264  -0.025  0.00  0.00     0.006 A 
ATOM      5  C4  UNL d   1      -1.936   0.416   1.163  0.00  0.00    -0.005 A 
ATOM      6  C5  UNL d   1      -0.617   0.585   1.594  0.00  0.00    -0.074 A 
ATOM      7  C6  UNL d   1      -0.309   1.305   2.874  0.00  0.00     0.077 C 
ATOM      8  C7  UNL d   1       0.427   0.059   0.821  0.00  0.00    -0.001 A 
ENDROOT
TORSDOF 0
ENDMDL
