MODEL 1
REMARK minimizedAffinity -3.70932436
REMARK minimizedRMSD -1
REMARK  0 active torsions:
REMARK  status: ('A' for Active; 'I' for Inactive)
ROOT
ATOM      1  C   UNL d   1       0.452  -0.771  -2.759  0.00  0.00     0.077 C 
ATOM      2  C1  UNL d   1       0.940  -0.680  -1.344  0.00  0.00    -0.074 A 
ATOM      3  C2  UNL d   1       1.916  -1.558  -0.863  0.00  0.00    -0.005 A 
ATOM      4  C3  UNL d   1       2.367  -1.456   0.453  0.00  0.00     0.006 A 
ATOM      5  C4  UNL d   1       1.847  -0.476   1.300  0.00  0.00    -0.005 A 
ATOM      6  C5  UNL d   1       0.871   0.411   0.836  0.00  0.00    -0.074 A 
ATOM      7  C6  UNL d   1       0.308   1.476   1.730  0.00  0.00     0.077 C 
ATOM      8  C7  UNL d   1       0.428   0.306  -0.489  0.00  0.00    -0.001 A 
ENDROOT
TORSDOF 0
ENDMDL
