MODEL 1
REMARK minimizedAffinity -4.37243223
REMARK minimizedRMSD -1
REMARK  0 active torsions:
REMARK  status: ('A' for Active; 'I' for Inactive)
ROOT
ATOM      1  C   UNL d   1       0.330  -0.200  -0.730  0.00  0.00     0.077 C 
ATOM      2  C1  UNL d   1      -0.137   0.359   0.580  0.00  0.00    -0.074 A 
ATOM      3  C2  UNL d   1       0.467   1.492   1.135  0.00  0.00    -0.005 A 
ATOM      4  C3  UNL d   1       0.015   2.006   2.350  0.00  0.00     0.006 A 
ATOM      5  C4  UNL d   1      -1.044   1.394   3.022  0.00  0.00    -0.005 A 
ATOM      6  C5  UNL d   1      -1.661   0.262   2.482  0.00  0.00    -0.074 A 
ATOM      7  C6  UNL d   1      -2.807  -0.402   3.186  0.00  0.00     0.077 C 
ATOM      8  C7  UNL d   1      -1.206  -0.245   1.257  0.00  0.00    -0.001 A 
ENDROOT
TORSDOF 0
ENDMDL
