MODEL 1
REMARK minimizedAffinity -3.67992067
REMARK minimizedRMSD -1
REMARK  0 active torsions:
REMARK  status: ('A' for Active; 'I' for Inactive)
ROOT
ATOM      1  C   UNL d   1      -0.819   1.543   1.954  0.00  0.00     0.077 C 
ATOM      2  C1  UNL d   1       0.114   0.636   1.208  0.00  0.00    -0.074 A 
ATOM      3  C2  UNL d   1       1.273   0.141   1.814  0.00  0.00    -0.005 A 
ATOM      4  C3  UNL d   1       2.127  -0.708   1.110  0.00  0.00     0.006 A 
ATOM      5  C4  UNL d   1       1.830  -1.071  -0.204  0.00  0.00    -0.005 A 
ATOM      6  C5  UNL d   1       0.675  -0.587  -0.826  0.00  0.00    -0.074 A 
ATOM      7  C6  UNL d   1       0.337  -0.975  -2.235  0.00  0.00     0.077 C 
ATOM      8  C7  UNL d   1      -0.181   0.261  -0.110  0.00  0.00    -0.001 A 
ENDROOT
TORSDOF 0
ENDMDL
