MODEL 1
REMARK minimizedAffinity -5.14408302
REMARK minimizedRMSD -1
REMARK  0 active torsions:
REMARK  status: ('A' for Active; 'I' for Inactive)
ROOT
ATOM      1  C   UNL d   1      -0.379   1.453   2.904  0.00  0.00     0.077 C 
ATOM      2  C1  UNL d   1      -0.839   0.483   1.857  0.00  0.00    -0.074 A 
ATOM      3  C2  UNL d   1      -2.074  -0.164   1.969  0.00  0.00    -0.005 A 
ATOM      4  C3  UNL d   1      -2.492  -1.056   0.982  0.00  0.00     0.006 A 
ATOM      5  C4  UNL d   1      -1.682  -1.310  -0.125  0.00  0.00    -0.005 A 
ATOM      6  C5  UNL d   1      -0.444  -0.672  -0.254  0.00  0.00    -0.074 A 
ATOM      7  C6  UNL d   1       0.435  -0.927  -1.443  0.00  0.00     0.077 C 
ATOM      8  C7  UNL d   1      -0.034   0.228   0.738  0.00  0.00    -0.001 A 
ENDROOT
TORSDOF 0
ENDMDL
