MODEL 1
REMARK minimizedAffinity -3.22974467
REMARK minimizedRMSD -1
REMARK  0 active torsions:
REMARK  status: ('A' for Active; 'I' for Inactive)
ROOT
ATOM      1  C   UNL d   1      -1.350   0.733  -5.739  0.00  0.00     0.077 C 
ATOM      2  C1  UNL d   1      -0.284   0.832  -4.689  0.00  0.00    -0.074 A 
ATOM      3  C2  UNL d   1       0.635   1.887  -4.695  0.00  0.00    -0.005 A 
ATOM      4  C3  UNL d   1       1.615   1.971  -3.707  0.00  0.00     0.006 A 
ATOM      5  C4  UNL d   1       1.687   1.003  -2.704  0.00  0.00    -0.005 A 
ATOM      6  C5  UNL d   1       0.777  -0.058  -2.681  0.00  0.00    -0.074 A 
ATOM      7  C6  UNL d   1       0.834  -1.101  -1.605  0.00  0.00     0.077 C 
ATOM      8  C7  UNL d   1      -0.210  -0.132  -3.674  0.00  0.00    -0.001 A 
ENDROOT
TORSDOF 0
ENDMDL
