MODEL 1
REMARK minimizedAffinity -0.486198634
REMARK minimizedRMSD -1
REMARK  0 active torsions:
REMARK  status: ('A' for Active; 'I' for Inactive)
ROOT
ATOM      1  C4' PXY d   1      -0.012   0.034  -1.833  0.00  0.00     0.077 C 
ATOM      2  C1' PXY d   1      -4.224   3.733  -3.242  0.00  0.00     0.077 C 
ATOM      3  C1  PXY d   1      -3.128   2.756  -2.866  0.00  0.00    -0.082 A 
ATOM      4  C2  PXY d   1      -1.869   3.162  -2.842  0.00  0.00     0.003 A 
ATOM      5  C3  PXY d   1      -0.862   2.283  -2.535  0.00  0.00     0.003 A 
ATOM      6  C4  PXY d   1      -1.152   0.988  -2.197  0.00  0.00    -0.082 A 
ATOM      7  C5  PXY d   1      -2.435   0.569  -2.209  0.00  0.00     0.003 A 
ATOM      8  C6  PXY d   1      -3.438   1.466  -2.563  0.00  0.00     0.003 A 
ENDROOT
TORSDOF 0
ENDMDL
