MODEL 1
REMARK minimizedAffinity -1.5466646
REMARK minimizedRMSD -1
REMARK  0 active torsions:
REMARK  status: ('A' for Active; 'I' for Inactive)
ROOT
ATOM      1  C4' PXY d   1       1.573   0.055   3.199  0.00  0.00     0.077 C 
ATOM      2  C1' PXY d   1       1.077  -0.764  -2.502  0.00  0.00     0.077 C 
ATOM      3  C1  PXY d   1       1.196  -0.541  -1.007  0.00  0.00    -0.082 A 
ATOM      4  C2  PXY d   1       2.369  -0.695  -0.415  0.00  0.00     0.003 A 
ATOM      5  C3  PXY d   1       2.488  -0.529   0.941  0.00  0.00     0.003 A 
ATOM      6  C4  PXY d   1       1.407  -0.150   1.690  0.00  0.00    -0.082 A 
ATOM      7  C5  PXY d   1       0.209   0.019   1.092  0.00  0.00     0.003 A 
ATOM      8  C6  PXY d   1       0.100  -0.194  -0.280  0.00  0.00     0.003 A 
ENDROOT
TORSDOF 0
ENDMDL
