MODEL 1
REMARK minimizedAffinity -4.19861555
REMARK minimizedRMSD -1
REMARK  0 active torsions:
REMARK  status: ('A' for Active; 'I' for Inactive)
ROOT
ATOM      1  C4' PXY d   1      -0.159  -0.186  -2.118  0.00  0.00     0.077 C 
ATOM      2  C1' PXY d   1       1.745  -0.774   3.308  0.00  0.00     0.077 C 
ATOM      3  C1  PXY d   1       1.258  -0.618   1.881  0.00  0.00    -0.082 A 
ATOM      4  C2  PXY d   1       0.021  -0.207   1.653  0.00  0.00     0.003 A 
ATOM      5  C3  PXY d   1      -0.446  -0.092   0.369  0.00  0.00     0.003 A 
ATOM      6  C4  PXY d   1       0.378  -0.348  -0.694  0.00  0.00    -0.082 A 
ATOM      7  C5  PXY d   1       1.645  -0.757  -0.470  0.00  0.00     0.003 A 
ATOM      8  C6  PXY d   1       2.087  -0.908   0.841  0.00  0.00     0.003 A 
ENDROOT
TORSDOF 0
ENDMDL
