MODEL 1
REMARK minimizedAffinity -3.07819843
REMARK minimizedRMSD -1
REMARK  0 active torsions:
REMARK  status: ('A' for Active; 'I' for Inactive)
ROOT
ATOM      1  C4' PXY d   1      -0.417   1.229  -2.119  0.00  0.00     0.077 C 
ATOM      2  C1' PXY d   1       0.780  -1.063   3.051  0.00  0.00     0.077 C 
ATOM      3  C1  PXY d   1       0.479  -0.458   1.694  0.00  0.00    -0.082 A 
ATOM      4  C2  PXY d   1      -0.762  -0.111   1.394  0.00  0.00     0.003 A 
ATOM      5  C3  PXY d   1      -1.058   0.408   0.159  0.00  0.00     0.003 A 
ATOM      6  C4  PXY d   1      -0.065   0.624  -0.758  0.00  0.00    -0.082 A 
ATOM      7  C5  PXY d   1       1.206   0.282  -0.455  0.00  0.00     0.003 A 
ATOM      8  C6  PXY d   1       1.479  -0.282   0.788  0.00  0.00     0.003 A 
ENDROOT
TORSDOF 0
ENDMDL
