MODEL 1
REMARK minimizedAffinity -5.19387817
REMARK minimizedRMSD -1
REMARK  0 active torsions:
REMARK  status: ('A' for Active; 'I' for Inactive)
ROOT
ATOM      1  C4' PXY d   1      -2.608  -1.492  -1.007  0.00  0.00     0.077 C 
ATOM      2  C1' PXY d   1       1.540   0.001   2.732  0.00  0.00     0.077 C 
ATOM      3  C1  PXY d   1       0.458  -0.383   1.742  0.00  0.00    -0.082 A 
ATOM      4  C2  PXY d   1      -0.717  -0.799   2.186  0.00  0.00     0.003 A 
ATOM      5  C3  PXY d   1      -1.696  -1.180   1.305  0.00  0.00     0.003 A 
ATOM      6  C4  PXY d   1      -1.489  -1.085  -0.045  0.00  0.00    -0.082 A 
ATOM      7  C5  PXY d   1      -0.297  -0.651  -0.506  0.00  0.00     0.003 A 
ATOM      8  C6  PXY d   1       0.698  -0.308   0.405  0.00  0.00     0.003 A 
ENDROOT
TORSDOF 0
ENDMDL
