MODEL 1
REMARK minimizedAffinity 3.1544559
REMARK minimizedRMSD -1
REMARK  0 active torsions:
REMARK  status: ('A' for Active; 'I' for Inactive)
ROOT
ATOM      1  C4' PXY d   1       0.361  -2.154   3.018  0.00  0.00     0.077 C 
ATOM      2  C1' PXY d   1       0.165   1.053  -1.787  0.00  0.00     0.077 C 
ATOM      3  C1  PXY d   1       0.227   0.205  -0.532  0.00  0.00    -0.082 A 
ATOM      4  C2  PXY d   1      -0.867   0.024   0.189  0.00  0.00     0.003 A 
ATOM      5  C3  PXY d   1      -0.822  -0.713   1.345  0.00  0.00     0.003 A 
ATOM      6  C4  PXY d   1       0.343  -1.314   1.738  0.00  0.00    -0.082 A 
ATOM      7  C5  PXY d   1       1.462  -1.143   1.002  0.00  0.00     0.003 A 
ATOM      8  C6  PXY d   1       1.404  -0.357  -0.145  0.00  0.00     0.003 A 
ENDROOT
TORSDOF 0
ENDMDL
