MODEL 1
REMARK minimizedAffinity -0.273946613
REMARK minimizedRMSD -1
REMARK  0 active torsions:
REMARK  status: ('A' for Active; 'I' for Inactive)
ROOT
ATOM      1  N1  IND d   1       2.738   5.706  -5.623  0.00  0.00    -0.196 N 
ATOM      2  C2  IND d   1       1.503   5.244  -5.260  0.00  0.00     0.054 A 
ATOM      3  C3  IND d   1       1.534   3.903  -5.089  0.00  0.00    -0.031 A 
ATOM      4  C4  IND d   1       3.524   2.279  -5.253  0.00  0.00     0.051 A 
ATOM      5  C5  IND d   1       4.847   2.227  -5.593  0.00  0.00    -0.031 A 
ATOM      6  C6  IND d   1       5.549   3.355  -5.964  0.00  0.00     0.015 A 
ATOM      7  C7  IND d   1       4.955   4.584  -6.000  0.00  0.00    -0.016 A 
ATOM      8  C8  IND d   1       3.610   4.640  -5.663  0.00  0.00    -0.047 A 
ATOM      9  C9  IND d   1       2.881   3.492  -5.326  0.00  0.00    -0.096 A 
ATOM     10  HN1 IND d   1       2.936   6.524  -5.798  0.00  0.00     0.298 HD
ENDROOT
TORSDOF 0
ENDMDL
