MODEL 1
REMARK minimizedAffinity 2.8138113
REMARK minimizedRMSD -1
REMARK  0 active torsions:
REMARK  status: ('A' for Active; 'I' for Inactive)
ROOT
ATOM      1  N1  IND d   1       2.116   4.765  -5.994  0.00  0.00    -0.196 N 
ATOM      2  C2  IND d   1       1.109   4.016  -5.452  0.00  0.00     0.054 A 
ATOM      3  C3  IND d   1       1.618   2.946  -4.800  0.00  0.00    -0.031 A 
ATOM      4  C4  IND d   1       4.075   2.286  -4.409  0.00  0.00     0.051 A 
ATOM      5  C5  IND d   1       5.352   2.641  -4.742  0.00  0.00    -0.031 A 
ATOM      6  C6  IND d   1       5.621   3.747  -5.523  0.00  0.00     0.015 A 
ATOM      7  C7  IND d   1       4.619   4.548  -5.992  0.00  0.00    -0.016 A 
ATOM      8  C8  IND d   1       3.321   4.186  -5.662  0.00  0.00    -0.047 A 
ATOM      9  C9  IND d   1       3.040   3.041  -4.906  0.00  0.00    -0.096 A 
ATOM     10  HN1 IND d   1       2.014   5.478  -6.463  0.00  0.00     0.298 HD
ENDROOT
TORSDOF 0
ENDMDL
