MODEL 1
REMARK minimizedAffinity -2.43740487
REMARK minimizedRMSD -1
REMARK  0 active torsions:
REMARK  status: ('A' for Active; 'I' for Inactive)
ROOT
ATOM      1  N1  IND d   1       2.079   5.992  -5.793  0.00  0.00    -0.196 N 
ATOM      2  C2  IND d   1       0.906   5.312  -5.623  0.00  0.00     0.054 A 
ATOM      3  C3  IND d   1       1.138   3.981  -5.569  0.00  0.00    -0.031 A 
ATOM      4  C4  IND d   1       3.373   2.706  -5.635  0.00  0.00     0.051 A 
ATOM      5  C5  IND d   1       4.715   2.893  -5.816  0.00  0.00    -0.031 A 
ATOM      6  C6  IND d   1       5.258   4.149  -5.999  0.00  0.00     0.015 A 
ATOM      7  C7  IND d   1       4.477   5.270  -5.998  0.00  0.00    -0.016 A 
ATOM      8  C8  IND d   1       3.113   5.083  -5.821  0.00  0.00    -0.047 A 
ATOM      9  C9  IND d   1       2.552   3.808  -5.677  0.00  0.00    -0.096 A 
ATOM     10  HN1 IND d   1       2.158   6.845  -5.870  0.00  0.00     0.298 HD
ENDROOT
TORSDOF 0
ENDMDL
