MODEL 1
REMARK minimizedAffinity -2.14688969
REMARK minimizedRMSD -1
REMARK  0 active torsions:
REMARK  status: ('A' for Active; 'I' for Inactive)
ROOT
ATOM      1  N1  IND d   1       1.868   3.855  -5.941  0.00  0.00    -0.196 N 
ATOM      2  C2  IND d   1       1.440   5.152  -5.998  0.00  0.00     0.054 A 
ATOM      3  C3  IND d   1       2.496   5.996  -5.993  0.00  0.00    -0.031 A 
ATOM      4  C4  IND d   1       5.015   5.464  -5.998  0.00  0.00     0.051 A 
ATOM      5  C5  IND d   1       5.896   4.423  -5.913  0.00  0.00    -0.031 A 
ATOM      6  C6  IND d   1       5.471   3.112  -5.834  0.00  0.00     0.015 A 
ATOM      7  C7  IND d   1       4.143   2.792  -5.849  0.00  0.00    -0.016 A 
ATOM      8  C8  IND d   1       3.245   3.847  -5.928  0.00  0.00    -0.047 A 
ATOM      9  C9  IND d   1       3.670   5.182  -5.965  0.00  0.00    -0.096 A 
ATOM     10  HN1 IND d   1       1.361   3.160  -5.917  0.00  0.00     0.298 HD
ENDROOT
TORSDOF 0
ENDMDL
