MODEL 1
REMARK minimizedAffinity -2.12516761
REMARK minimizedRMSD -1
REMARK  0 active torsions:
REMARK  status: ('A' for Active; 'I' for Inactive)
ROOT
ATOM      1  N1  IND d   1       1.880   5.393  -5.998  0.00  0.00    -0.196 N 
ATOM      2  C2  IND d   1       0.752   4.657  -5.765  0.00  0.00     0.054 A 
ATOM      3  C3  IND d   1       1.079   3.389  -5.427  0.00  0.00    -0.031 A 
ATOM      4  C4  IND d   1       3.403   2.332  -5.097  0.00  0.00     0.051 A 
ATOM      5  C5  IND d   1       4.737   2.600  -5.231  0.00  0.00    -0.031 A 
ATOM      6  C6  IND d   1       5.196   3.838  -5.633  0.00  0.00     0.015 A 
ATOM      7  C7  IND d   1       4.334   4.862  -5.906  0.00  0.00    -0.016 A 
ATOM      8  C8  IND d   1       2.979   4.592  -5.778  0.00  0.00    -0.047 A 
ATOM      9  C9  IND d   1       2.506   3.326  -5.412  0.00  0.00    -0.096 A 
ATOM     10  HN1 IND d   1       1.899   6.217  -6.241  0.00  0.00     0.298 HD
ENDROOT
TORSDOF 0
ENDMDL
