MODEL 1
REMARK minimizedAffinity -4.9166131
REMARK minimizedRMSD -1
REMARK  0 active torsions:
REMARK  status: ('A' for Active; 'I' for Inactive)
ROOT
ATOM      1  N1  IND d   1       1.678   5.967  -5.954  0.00  0.00    -0.196 N 
ATOM      2  C2  IND d   1       0.521   5.442  -5.451  0.00  0.00     0.054 A 
ATOM      3  C3  IND d   1       0.759   4.241  -4.880  0.00  0.00    -0.031 A 
ATOM      4  C4  IND d   1       2.988   2.992  -4.566  0.00  0.00     0.051 A 
ATOM      5  C5  IND d   1       4.314   3.056  -4.891  0.00  0.00    -0.031 A 
ATOM      6  C6  IND d   1       4.840   4.117  -5.599  0.00  0.00     0.015 A 
ATOM      7  C7  IND d   1       4.059   5.164  -6.000  0.00  0.00    -0.016 A 
ATOM      8  C8  IND d   1       2.711   5.098  -5.678  0.00  0.00    -0.047 A 
ATOM      9  C9  IND d   1       2.163   4.003  -4.997  0.00  0.00    -0.096 A 
ATOM     10  HN1 IND d   1       1.750   6.715  -6.373  0.00  0.00     0.298 HD
ENDROOT
TORSDOF 0
ENDMDL
