MODEL 1
REMARK minimizedAffinity 6.53397894
REMARK minimizedRMSD -1
REMARK  0 active torsions:
REMARK  status: ('A' for Active; 'I' for Inactive)
ROOT
ATOM      1  N1  IND d   1       3.014   1.403  -5.999  0.00  0.00    -0.196 N 
ATOM      2  C2  IND d   1       4.380   1.454  -5.994  0.00  0.00     0.054 A 
ATOM      3  C3  IND d   1       4.803   2.738  -5.998  0.00  0.00    -0.031 A 
ATOM      4  C4  IND d   1       3.429   4.913  -5.912  0.00  0.00     0.051 A 
ATOM      5  C5  IND d   1       2.144   5.377  -5.941  0.00  0.00    -0.031 A 
ATOM      6  C6  IND d   1       1.061   4.523  -5.990  0.00  0.00     0.015 A 
ATOM      7  C7  IND d   1       1.224   3.166  -5.999  0.00  0.00    -0.016 A 
ATOM      8  C8  IND d   1       2.528   2.692  -5.977  0.00  0.00    -0.047 A 
ATOM      9  C9  IND d   1       3.631   3.554  -5.970  0.00  0.00    -0.096 A 
ATOM     10  HN1 IND d   1       2.539   0.687  -6.015  0.00  0.00     0.298 HD
ENDROOT
TORSDOF 0
ENDMDL
