MODEL 1
REMARK minimizedAffinity -2.84998155
REMARK minimizedRMSD -1
REMARK  0 active torsions:
REMARK  status: ('A' for Active; 'I' for Inactive)
ROOT
ATOM      1  N1  IND d   1       1.673   3.400  -5.626  0.00  0.00    -0.196 N 
ATOM      2  C2  IND d   1       0.968   4.571  -5.642  0.00  0.00     0.054 A 
ATOM      3  C3  IND d   1       1.808   5.625  -5.743  0.00  0.00    -0.031 A 
ATOM      4  C4  IND d   1       4.370   5.656  -5.998  0.00  0.00     0.051 A 
ATOM      5  C5  IND d   1       5.462   4.835  -6.000  0.00  0.00    -0.031 A 
ATOM      6  C6  IND d   1       5.345   3.465  -5.877  0.00  0.00     0.015 A 
ATOM      7  C7  IND d   1       4.124   2.863  -5.760  0.00  0.00    -0.016 A 
ATOM      8  C8  IND d   1       3.013   3.694  -5.750  0.00  0.00    -0.047 A 
ATOM      9  C9  IND d   1       3.129   5.088  -5.831  0.00  0.00    -0.096 A 
ATOM     10  HN1 IND d   1       1.337   2.613  -5.551  0.00  0.00     0.298 HD
ENDROOT
TORSDOF 0
ENDMDL
