MODEL 1
REMARK minimizedAffinity 0.660635889
REMARK minimizedRMSD -1
REMARK  0 active torsions:
REMARK  status: ('A' for Active; 'I' for Inactive)
ROOT
ATOM      1  N1  IND d   1       1.213   2.988  -5.986  0.00  0.00    -0.196 N 
ATOM      2  C2  IND d   1       0.568   4.193  -5.964  0.00  0.00     0.054 A 
ATOM      3  C3  IND d   1       1.463   5.205  -5.927  0.00  0.00    -0.031 A 
ATOM      4  C4  IND d   1       4.035   5.118  -5.999  0.00  0.00     0.051 A 
ATOM      5  C5  IND d   1       5.084   4.242  -5.986  0.00  0.00    -0.031 A 
ATOM      6  C6  IND d   1       4.892   2.875  -5.975  0.00  0.00     0.015 A 
ATOM      7  C7  IND d   1       3.639   2.332  -5.988  0.00  0.00    -0.016 A 
ATOM      8  C8  IND d   1       2.572   3.218  -5.994  0.00  0.00    -0.047 A 
ATOM      9  C9  IND d   1       2.760   4.606  -5.962  0.00  0.00    -0.096 A 
ATOM     10  HN1 IND d   1       0.835   2.216  -5.994  0.00  0.00     0.298 HD
ENDROOT
TORSDOF 0
ENDMDL
