MODEL 1
REMARK minimizedAffinity -2.66650224
REMARK minimizedRMSD -1
REMARK  0 active torsions:
REMARK  status: ('A' for Active; 'I' for Inactive)
ROOT
ATOM      1  N1  IND d   1       1.137   3.774  -5.203  0.00  0.00    -0.196 N 
ATOM      2  C2  IND d   1       0.745   5.008  -5.643  0.00  0.00     0.054 A 
ATOM      3  C3  IND d   1       1.823   5.749  -5.985  0.00  0.00    -0.031 A 
ATOM      4  C4  IND d   1       4.315   5.103  -5.999  0.00  0.00     0.051 A 
ATOM      5  C5  IND d   1       5.168   4.095  -5.648  0.00  0.00    -0.031 A 
ATOM      6  C6  IND d   1       4.712   2.903  -5.123  0.00  0.00     0.015 A 
ATOM      7  C7  IND d   1       3.378   2.670  -4.939  0.00  0.00    -0.016 A 
ATOM      8  C8  IND d   1       2.509   3.694  -5.288  0.00  0.00    -0.047 A 
ATOM      9  C9  IND d   1       2.969   4.921  -5.781  0.00  0.00    -0.096 A 
ATOM     10  HN1 IND d   1       0.614   3.152  -4.922  0.00  0.00     0.298 HD
ENDROOT
TORSDOF 0
ENDMDL
