MODEL 1
REMARK minimizedAffinity -3.3923111
REMARK minimizedRMSD -1
REMARK  0 active torsions:
REMARK  status: ('A' for Active; 'I' for Inactive)
ROOT
ATOM      1  N1  IND d   1       1.125   3.375  -5.466  0.00  0.00    -0.196 N 
ATOM      2  C2  IND d   1       0.574   4.586  -5.779  0.00  0.00     0.054 A 
ATOM      3  C3  IND d   1       1.543   5.502  -5.999  0.00  0.00    -0.031 A 
ATOM      4  C4  IND d   1       4.101   5.208  -6.000  0.00  0.00     0.051 A 
ATOM      5  C5  IND d   1       5.080   4.293  -5.734  0.00  0.00    -0.031 A 
ATOM      6  C6  IND d   1       4.785   2.998  -5.360  0.00  0.00     0.015 A 
ATOM      7  C7  IND d   1       3.494   2.565  -5.248  0.00  0.00    -0.016 A 
ATOM      8  C8  IND d   1       2.497   3.494  -5.511  0.00  0.00    -0.047 A 
ATOM      9  C9  IND d   1       2.790   4.821  -5.850  0.00  0.00    -0.096 A 
ATOM     10  HN1 IND d   1       0.689   2.660  -5.273  0.00  0.00     0.298 HD
ENDROOT
TORSDOF 0
ENDMDL
