MODEL 1
REMARK minimizedAffinity -1.79635954
REMARK minimizedRMSD -1
REMARK  0 active torsions:
REMARK  status: ('A' for Active; 'I' for Inactive)
ROOT
ATOM      1  N1  IND d   1       5.859   2.178  -5.980  0.00  0.00    -0.196 N 
ATOM      2  C2  IND d   1       5.005   1.110  -5.999  0.00  0.00     0.054 A 
ATOM      3  C3  IND d   1       3.721   1.534  -5.970  0.00  0.00    -0.031 A 
ATOM      4  C4  IND d   1       2.790   3.934  -5.992  0.00  0.00     0.051 A 
ATOM      5  C5  IND d   1       3.182   5.242  -5.938  0.00  0.00    -0.031 A 
ATOM      6  C6  IND d   1       4.513   5.603  -5.897  0.00  0.00     0.015 A 
ATOM      7  C7  IND d   1       5.506   4.666  -5.920  0.00  0.00    -0.016 A 
ATOM      8  C8  IND d   1       5.112   3.336  -5.968  0.00  0.00    -0.047 A 
ATOM      9  C9  IND d   1       3.762   2.962  -5.967  0.00  0.00    -0.096 A 
ATOM     10  HN1 IND d   1       6.717   2.134  -5.976  0.00  0.00     0.298 HD
ENDROOT
TORSDOF 0
ENDMDL
