MODEL 1
REMARK minimizedAffinity 0.742194474
REMARK minimizedRMSD -1
REMARK  0 active torsions:
REMARK  status: ('A' for Active; 'I' for Inactive)
ROOT
ATOM      1  N1  IND d   1       5.262   2.350  -6.000  0.00  0.00    -0.196 N 
ATOM      2  C2  IND d   1       4.276   1.403  -5.984  0.00  0.00     0.054 A 
ATOM      3  C3  IND d   1       3.059   1.991  -5.943  0.00  0.00    -0.031 A 
ATOM      4  C4  IND d   1       2.449   4.492  -5.999  0.00  0.00     0.051 A 
ATOM      5  C5  IND d   1       3.009   5.738  -5.978  0.00  0.00    -0.031 A 
ATOM      6  C6  IND d   1       4.377   5.923  -5.965  0.00  0.00     0.015 A 
ATOM      7  C7  IND d   1       5.239   4.863  -5.985  0.00  0.00    -0.016 A 
ATOM      8  C8  IND d   1       4.673   3.596  -6.000  0.00  0.00    -0.047 A 
ATOM      9  C9  IND d   1       3.286   3.402  -5.970  0.00  0.00    -0.096 A 
ATOM     10  HN1 IND d   1       6.107   2.194  -6.008  0.00  0.00     0.298 HD
ENDROOT
TORSDOF 0
ENDMDL
