MODEL 1
REMARK minimizedAffinity -2.1897862
REMARK minimizedRMSD -1
REMARK  0 active torsions:
REMARK  status: ('A' for Active; 'I' for Inactive)
ROOT
ATOM      1  N1  IND d   1       4.756   5.967  -5.908  0.00  0.00    -0.196 N 
ATOM      2  C2  IND d   1       5.999   5.403  -5.981  0.00  0.00     0.054 A 
ATOM      3  C3  IND d   1       5.904   4.054  -5.992  0.00  0.00    -0.031 A 
ATOM      4  C4  IND d   1       3.805   2.563  -6.000  0.00  0.00     0.051 A 
ATOM      5  C5  IND d   1       2.443   2.620  -5.904  0.00  0.00    -0.031 A 
ATOM      6  C6  IND d   1       1.769   3.819  -5.806  0.00  0.00     0.015 A 
ATOM      7  C7  IND d   1       2.433   5.013  -5.811  0.00  0.00    -0.016 A 
ATOM      8  C8  IND d   1       3.817   4.959  -5.901  0.00  0.00    -0.047 A 
ATOM      9  C9  IND d   1       4.510   3.743  -5.958  0.00  0.00    -0.096 A 
ATOM     10  HN1 IND d   1       4.589   6.809  -5.873  0.00  0.00     0.298 HD
ENDROOT
TORSDOF 0
ENDMDL
