MODEL 1
REMARK minimizedAffinity -2.61293983
REMARK minimizedRMSD -1
REMARK  0 active torsions:
REMARK  status: ('A' for Active; 'I' for Inactive)
ROOT
ATOM      1  N1  IND d   1       4.425   1.877  -6.000  0.00  0.00    -0.196 N 
ATOM      2  C2  IND d   1       5.639   2.238  -5.486  0.00  0.00     0.054 A 
ATOM      3  C3  IND d   1       5.550   3.437  -4.868  0.00  0.00    -0.031 A 
ATOM      4  C4  IND d   1       3.490   4.935  -4.493  0.00  0.00     0.051 A 
ATOM      5  C5  IND d   1       2.166   5.045  -4.811  0.00  0.00    -0.031 A 
ATOM      6  C6  IND d   1       1.512   4.083  -5.554  0.00  0.00     0.015 A 
ATOM      7  C7  IND d   1       2.160   2.965  -5.999  0.00  0.00    -0.016 A 
ATOM      8  C8  IND d   1       3.507   2.854  -5.684  0.00  0.00    -0.047 A 
ATOM      9  C9  IND d   1       4.185   3.848  -4.967  0.00  0.00    -0.096 A 
ATOM     10  HN1 IND d   1       4.262   1.160  -6.446  0.00  0.00     0.298 HD
ENDROOT
TORSDOF 0
ENDMDL
