MODEL 1
REMARK minimizedAffinity 1.43401539
REMARK minimizedRMSD -1
REMARK  0 active torsions:
REMARK  status: ('A' for Active; 'I' for Inactive)
ROOT
ATOM      1  N1  IND d   1       5.828   2.267   0.940  0.00  0.00    -0.196 N 
ATOM      2  C2  IND d   1       5.210   3.462   0.695  0.00  0.00     0.054 A 
ATOM      3  C3  IND d   1       3.890   3.374   0.973  0.00  0.00    -0.031 A 
ATOM      4  C4  IND d   1       2.549   1.399   1.937  0.00  0.00     0.051 A 
ATOM      5  C5  IND d   1       2.672   0.084   2.290  0.00  0.00    -0.031 A 
ATOM      6  C6  IND d   1       3.877  -0.583   2.211  0.00  0.00     0.015 A 
ATOM      7  C7  IND d   1       5.013   0.046   1.786  0.00  0.00    -0.016 A 
ATOM      8  C8  IND d   1       4.891   1.379   1.421  0.00  0.00    -0.047 A 
ATOM      9  C9  IND d   1       3.662   2.050   1.458  0.00  0.00    -0.096 A 
ATOM     10  HN1 IND d   1       6.662   2.099   0.815  0.00  0.00     0.298 HD
ENDROOT
TORSDOF 0
ENDMDL
