MODEL 1
REMARK minimizedAffinity -3.19221115
REMARK minimizedRMSD -1
REMARK  1 active torsions:
REMARK  status: ('A' for Active; 'I' for Inactive)
REMARK    1  A    between atoms: C1_2  and  C2_3 
ROOT
ATOM      1  C2  UNL d   1       0.219  -0.441  -0.548  0.00  0.00    -0.081 A 
ATOM      2  C3  UNL d   1      -0.124   0.821  -1.049  0.00  0.00     0.006 A 
ATOM      3  C4  UNL d   1      -0.897   1.700  -0.287  0.00  0.00     0.002 A 
ATOM      4  C5  UNL d   1      -1.334   1.335   0.991  0.00  0.00    -0.080 A 
ATOM      5  C6  UNL d   1      -2.140   2.281   1.831  0.00  0.00     0.076 C 
ATOM      6  C7  UNL d   1      -1.007   0.068   1.485  0.00  0.00     0.002 A 
ATOM      7  C8  UNL d   1      -0.234  -0.811   0.723  0.00  0.00     0.006 A 
ENDROOT
BRANCH   1   8
ATOM      8  C1  UNL d   1       1.107  -1.365  -1.340  0.00  0.00     0.054 C 
ATOM      9  C   UNL d   1       0.288  -2.311  -2.207  0.00  0.00     0.018 C 
ENDBRANCH   1   8
TORSDOF 1
ENDMDL
