MODEL 1
REMARK minimizedAffinity -4.5694747
REMARK minimizedRMSD -1
REMARK  1 active torsions:
REMARK  status: ('A' for Active; 'I' for Inactive)
REMARK    1  A    between atoms: C1_2  and  C2_3 
ROOT
ATOM      1  C2  UNL d   1       0.381  -1.744  -0.792  0.00  0.00    -0.081 A 
ATOM      2  C3  UNL d   1      -0.943  -1.785  -0.337  0.00  0.00     0.006 A 
ATOM      3  C4  UNL d   1      -1.459  -0.742   0.436  0.00  0.00     0.002 A 
ATOM      4  C5  UNL d   1      -0.664   0.362   0.760  0.00  0.00    -0.080 A 
ATOM      5  C6  UNL d   1      -1.215   1.502   1.563  0.00  0.00     0.076 C 
ATOM      6  C7  UNL d   1       0.664   0.395   0.320  0.00  0.00     0.002 A 
ATOM      7  C8  UNL d   1       1.181  -0.648  -0.452  0.00  0.00     0.006 A 
ENDROOT
BRANCH   1   8
ATOM      8  C1  UNL d   1       0.921  -2.836  -1.679  0.00  0.00     0.054 C 
ATOM      9  C   UNL d   1      -0.204  -3.668  -2.279  0.00  0.00     0.018 C 
ENDBRANCH   1   8
TORSDOF 1
ENDMDL
