MODEL 1
REMARK minimizedAffinity -3.94599819
REMARK minimizedRMSD -1
REMARK  1 active torsions:
REMARK  status: ('A' for Active; 'I' for Inactive)
REMARK    1  A    between atoms: C1_2  and  C2_3 
ROOT
ATOM      1  C2  UNL d   1      -0.303   2.651  -0.112  0.00  0.00    -0.081 A 
ATOM      2  C3  UNL d   1      -0.912   1.565   0.528  0.00  0.00     0.006 A 
ATOM      3  C4  UNL d   1      -0.495   0.259   0.258  0.00  0.00     0.002 A 
ATOM      4  C5  UNL d   1       0.541   0.019  -0.651  0.00  0.00    -0.080 A 
ATOM      5  C6  UNL d   1       1.019  -1.376  -0.928  0.00  0.00     0.076 C 
ATOM      6  C7  UNL d   1       1.137   1.103  -1.304  0.00  0.00     0.002 A 
ATOM      7  C8  UNL d   1       0.721   2.408  -1.035  0.00  0.00     0.006 A 
ENDROOT
BRANCH   1   8
ATOM      8  C1  UNL d   1      -0.707   4.064   0.225  0.00  0.00     0.054 C 
ATOM      9  C   UNL d   1      -1.816   4.089   1.267  0.00  0.00     0.018 C 
ENDBRANCH   1   8
TORSDOF 1
ENDMDL
