MODEL 1
REMARK minimizedAffinity -5.31534195
REMARK minimizedRMSD -1
REMARK  1 active torsions:
REMARK  status: ('A' for Active; 'I' for Inactive)
REMARK    1  A    between atoms: C1_2  and  C2_3 
ROOT
ATOM      1  C2  UNL d   1      -0.871   2.540   0.126  0.00  0.00    -0.081 A 
ATOM      2  C3  UNL d   1      -1.364   2.303   1.415  0.00  0.00     0.006 A 
ATOM      3  C4  UNL d   1      -1.088   1.100   2.068  0.00  0.00     0.002 A 
ATOM      4  C5  UNL d   1      -0.309   0.118   1.448  0.00  0.00    -0.080 A 
ATOM      5  C6  UNL d   1       0.020  -1.166   2.150  0.00  0.00     0.076 C 
ATOM      6  C7  UNL d   1       0.169   0.347   0.153  0.00  0.00     0.002 A 
ATOM      7  C8  UNL d   1      -0.107   1.550  -0.501  0.00  0.00     0.006 A 
ENDROOT
BRANCH   1   8
ATOM      8  C1  UNL d   1      -1.113   3.863  -0.556  0.00  0.00     0.054 C 
ATOM      9  C   UNL d   1      -0.762   3.795  -2.035  0.00  0.00     0.018 C 
ENDBRANCH   1   8
TORSDOF 1
ENDMDL
