MODEL 1
REMARK minimizedAffinity -3.96277928
REMARK minimizedRMSD -1
REMARK  1 active torsions:
REMARK  status: ('A' for Active; 'I' for Inactive)
REMARK    1  A    between atoms: C1_2  and  C2_3 
ROOT
ATOM      1  C2  UNL d   1      -0.125   1.576  -0.022  0.00  0.00    -0.081 A 
ATOM      2  C3  UNL d   1      -1.227   1.820   0.807  0.00  0.00     0.006 A 
ATOM      3  C4  UNL d   1      -1.540   0.941   1.846  0.00  0.00     0.002 A 
ATOM      4  C5  UNL d   1      -0.753  -0.192   2.078  0.00  0.00    -0.080 A 
ATOM      5  C6  UNL d   1      -1.061  -1.128   3.209  0.00  0.00     0.076 C 
ATOM      6  C7  UNL d   1       0.337  -0.446   1.239  0.00  0.00     0.002 A 
ATOM      7  C8  UNL d   1       0.651   0.433   0.200  0.00  0.00     0.006 A 
ENDROOT
BRANCH   1   8
ATOM      8  C1  UNL d   1       0.253   2.557  -1.103  0.00  0.00     0.054 C 
ATOM      9  C   UNL d   1       1.605   2.214  -1.713  0.00  0.00     0.018 C 
ENDBRANCH   1   8
TORSDOF 1
ENDMDL
