MODEL 1
REMARK minimizedAffinity -4.57039499
REMARK minimizedRMSD -1
REMARK  1 active torsions:
REMARK  status: ('A' for Active; 'I' for Inactive)
REMARK    1  A    between atoms: C1_2  and  C2_3 
ROOT
ATOM      1  C2  UNL d   1      -0.692   2.110   0.066  0.00  0.00    -0.081 A 
ATOM      2  C3  UNL d   1      -1.070   2.248   1.408  0.00  0.00     0.006 A 
ATOM      3  C4  UNL d   1      -0.861   1.206   2.313  0.00  0.00     0.002 A 
ATOM      4  C5  UNL d   1      -0.265   0.011   1.895  0.00  0.00    -0.080 A 
ATOM      5  C6  UNL d   1      -0.007  -1.105   2.864  0.00  0.00     0.076 C 
ATOM      6  C7  UNL d   1       0.096  -0.134   0.551  0.00  0.00     0.002 A 
ATOM      7  C8  UNL d   1      -0.113   0.908  -0.355  0.00  0.00     0.006 A 
ENDROOT
BRANCH   1   8
ATOM      8  C1  UNL d   1      -0.857   3.256  -0.898  0.00  0.00     0.054 C 
ATOM      9  C   UNL d   1       0.488   3.728  -1.432  0.00  0.00     0.018 C 
ENDBRANCH   1   8
TORSDOF 1
ENDMDL
