MODEL 1
REMARK minimizedAffinity -2.30698061
REMARK minimizedRMSD -1
REMARK  1 active torsions:
REMARK  status: ('A' for Active; 'I' for Inactive)
REMARK    1  A    between atoms: C1_2  and  C2_3 
ROOT
ATOM      1  C2  UNL d   1      -0.679   0.355   0.720  0.00  0.00    -0.081 A 
ATOM      2  C3  UNL d   1       0.720   0.345   0.779  0.00  0.00     0.006 A 
ATOM      3  C4  UNL d   1       1.455  -0.550  -0.003  0.00  0.00     0.002 A 
ATOM      4  C5  UNL d   1       0.804  -1.443  -0.861  0.00  0.00    -0.080 A 
ATOM      5  C6  UNL d   1       1.582  -2.387  -1.728  0.00  0.00     0.076 C 
ATOM      6  C7  UNL d   1      -0.594  -1.444  -0.907  0.00  0.00     0.002 A 
ATOM      7  C8  UNL d   1      -1.330  -0.551  -0.125  0.00  0.00     0.006 A 
ENDROOT
BRANCH   1   8
ATOM      8  C1  UNL d   1      -1.472   1.362   1.513  0.00  0.00     0.054 C 
ATOM      9  C   UNL d   1      -0.976   2.779   1.263  0.00  0.00     0.018 C 
ENDBRANCH   1   8
TORSDOF 1
ENDMDL
