MODEL 1
REMARK minimizedAffinity -3.21825361
REMARK minimizedRMSD -1
REMARK  1 active torsions:
REMARK  status: ('A' for Active; 'I' for Inactive)
REMARK    1  A    between atoms: C1_2  and  C2_3 
ROOT
ATOM      1  C2  UNL d   1       0.274  -0.357   0.078  0.00  0.00    -0.081 A 
ATOM      2  C3  UNL d   1      -0.047  -0.239   1.436  0.00  0.00     0.006 A 
ATOM      3  C4  UNL d   1      -0.829   0.827   1.889  0.00  0.00     0.002 A 
ATOM      4  C5  UNL d   1      -1.309   1.786   0.991  0.00  0.00    -0.080 A 
ATOM      5  C6  UNL d   1      -2.175   2.918   1.459  0.00  0.00     0.076 C 
ATOM      6  C7  UNL d   1      -0.974   1.678  -0.363  0.00  0.00     0.002 A 
ATOM      7  C8  UNL d   1      -0.191   0.613  -0.816  0.00  0.00     0.006 A 
ENDROOT
BRANCH   1   8
ATOM      8  C1  UNL d   1       1.063  -1.540  -0.422  0.00  0.00     0.054 C 
ATOM      9  C   UNL d   1       0.513  -2.051  -1.746  0.00  0.00     0.018 C 
ENDBRANCH   1   8
TORSDOF 1
ENDMDL
