MODEL 1
REMARK minimizedAffinity -4.19767237
REMARK minimizedRMSD -1
REMARK  1 active torsions:
REMARK  status: ('A' for Active; 'I' for Inactive)
REMARK    1  A    between atoms: C1_2  and  C2_3 
ROOT
ATOM      1  C2  UNL d   1       0.409  -0.456  -0.563  0.00  0.00    -0.081 A 
ATOM      2  C3  UNL d   1       0.437   0.815  -1.148  0.00  0.00     0.006 A 
ATOM      3  C4  UNL d   1      -0.062   1.923  -0.459  0.00  0.00     0.002 A 
ATOM      4  C5  UNL d   1      -0.590   1.779   0.829  0.00  0.00    -0.080 A 
ATOM      5  C6  UNL d   1      -1.101   2.965   1.592  0.00  0.00     0.076 C 
ATOM      6  C7  UNL d   1      -0.633   0.506   1.407  0.00  0.00     0.002 A 
ATOM      7  C8  UNL d   1      -0.135  -0.602   0.718  0.00  0.00     0.006 A 
ENDROOT
BRANCH   1   8
ATOM      8  C1  UNL d   1       1.006  -1.642  -1.277  0.00  0.00     0.054 C 
ATOM      9  C   UNL d   1       0.037  -2.215  -2.302  0.00  0.00     0.018 C 
ENDBRANCH   1   8
TORSDOF 1
ENDMDL
