MODEL 1
REMARK minimizedAffinity 4.61156082
REMARK minimizedRMSD -1
REMARK  0 active torsions:
REMARK  status: ('A' for Active; 'I' for Inactive)
ROOT
ATOM      1  N1  IND d   1       5.194   2.764   1.916  0.00  0.00    -0.196 N 
ATOM      2  C2  IND d   1       5.625   3.873   1.242  0.00  0.00     0.054 A 
ATOM      3  C3  IND d   1       4.620   4.394   0.503  0.00  0.00    -0.031 A 
ATOM      4  C4  IND d   1       2.162   3.652   0.329  0.00  0.00     0.051 A 
ATOM      5  C5  IND d   1       1.303   2.668   0.732  0.00  0.00    -0.031 A 
ATOM      6  C6  IND d   1       1.704   1.647   1.569  0.00  0.00     0.015 A 
ATOM      7  C7  IND d   1       2.982   1.578   2.046  0.00  0.00    -0.016 A 
ATOM      8  C8  IND d   1       3.859   2.571   1.633  0.00  0.00    -0.047 A 
ATOM      9  C9  IND d   1       3.469   3.586   0.750  0.00  0.00    -0.096 A 
ATOM     10  HN1 IND d   1       5.675   2.270   2.430  0.00  0.00     0.298 HD
ENDROOT
TORSDOF 0
ENDMDL
