MODEL 1
REMARK minimizedAffinity 3.70384336
REMARK minimizedRMSD -1
REMARK  0 active torsions:
REMARK  status: ('A' for Active; 'I' for Inactive)
ROOT
ATOM      1  N1  IND d   1       5.996  -3.415  -4.384  0.00  0.00    -0.196 N 
ATOM      2  C2  IND d   1       5.746  -2.975  -3.114  0.00  0.00     0.054 A 
ATOM      3  C3  IND d   1       4.599  -3.515  -2.646  0.00  0.00    -0.031 A 
ATOM      4  C4  IND d   1       3.025  -5.225  -3.754  0.00  0.00     0.051 A 
ATOM      5  C5  IND d   1       2.817  -5.895  -4.927  0.00  0.00    -0.031 A 
ATOM      6  C6  IND d   1       3.677  -5.773  -5.999  0.00  0.00     0.015 A 
ATOM      7  C7  IND d   1       4.788  -4.981  -5.934  0.00  0.00    -0.016 A 
ATOM      8  C8  IND d   1       4.999  -4.293  -4.748  0.00  0.00    -0.047 A 
ATOM      9  C9  IND d   1       4.107  -4.380  -3.671  0.00  0.00    -0.096 A 
ATOM     10  HN1 IND d   1       6.664  -3.183  -4.873  0.00  0.00     0.298 HD
ENDROOT
TORSDOF 0
ENDMDL
