MODEL 1
REMARK minimizedAffinity 19.632534
REMARK minimizedRMSD -1
REMARK  0 active torsions:
REMARK  status: ('A' for Active; 'I' for Inactive)
ROOT
ATOM      1  N1  IND d   1      -1.876  -3.281  -1.896  0.00  0.00    -0.196 N 
ATOM      2  C2  IND d   1      -1.588  -4.614  -1.803  0.00  0.00     0.054 A 
ATOM      3  C3  IND d   1      -1.272  -4.939  -0.529  0.00  0.00    -0.031 A 
ATOM      4  C4  IND d   1      -1.262  -3.464   1.581  0.00  0.00     0.051 A 
ATOM      5  C5  IND d   1      -1.420  -2.170   1.991  0.00  0.00    -0.031 A 
ATOM      6  C6  IND d   1      -1.747  -1.160   1.110  0.00  0.00     0.015 A 
ATOM      7  C7  IND d   1      -1.941  -1.410  -0.219  0.00  0.00    -0.016 A 
ATOM      8  C8  IND d   1      -1.774  -2.722  -0.641  0.00  0.00    -0.047 A 
ATOM      9  C9  IND d   1      -1.400  -3.743   0.242  0.00  0.00    -0.096 A 
ATOM     10  HN1 IND d   1      -2.085  -2.862  -2.617  0.00  0.00     0.298 HD
ENDROOT
TORSDOF 0
ENDMDL
