MODEL 1
REMARK minimizedAffinity 16.6121082
REMARK minimizedRMSD -1
REMARK  0 active torsions:
REMARK  status: ('A' for Active; 'I' for Inactive)
ROOT
ATOM      1  N1  IND d   1       2.250  -5.355  -3.816  0.00  0.00    -0.196 N 
ATOM      2  C2  IND d   1       1.900  -5.999  -4.969  0.00  0.00     0.054 A 
ATOM      3  C3  IND d   1       2.661  -5.567  -5.999  0.00  0.00    -0.031 A 
ATOM      4  C4  IND d   1       4.608  -3.883  -6.000  0.00  0.00     0.051 A 
ATOM      5  C5  IND d   1       5.274  -3.005  -5.191  0.00  0.00    -0.031 A 
ATOM      6  C6  IND d   1       4.961  -2.866  -3.854  0.00  0.00     0.015 A 
ATOM      7  C7  IND d   1       3.974  -3.610  -3.272  0.00  0.00    -0.016 A 
ATOM      8  C8  IND d   1       3.291  -4.496  -4.092  0.00  0.00    -0.047 A 
ATOM      9  C9  IND d   1       3.576  -4.612  -5.459  0.00  0.00    -0.096 A 
ATOM     10  HN1 IND d   1       1.882  -5.467  -3.047  0.00  0.00     0.298 HD
ENDROOT
TORSDOF 0
ENDMDL
