MODEL 1
REMARK minimizedAffinity 13.4139757
REMARK minimizedRMSD -1
REMARK  0 active torsions:
REMARK  status: ('A' for Active; 'I' for Inactive)
ROOT
ATOM      1  N1  IND d   1       2.581   2.667   0.498  0.00  0.00    -0.196 N 
ATOM      2  C2  IND d   1       2.704   1.699   1.454  0.00  0.00     0.054 A 
ATOM      3  C3  IND d   1       3.403   2.168   2.512  0.00  0.00    -0.031 A 
ATOM      4  C4  IND d   1       4.352   4.525   2.929  0.00  0.00     0.051 A 
ATOM      5  C5  IND d   1       4.521   5.740   2.327  0.00  0.00    -0.031 A 
ATOM      6  C6  IND d   1       4.040   5.999   1.060  0.00  0.00     0.015 A 
ATOM      7  C7  IND d   1       3.359   5.052   0.349  0.00  0.00    -0.016 A 
ATOM      8  C8  IND d   1       3.192   3.815   0.954  0.00  0.00    -0.047 A 
ATOM      9  C9  IND d   1       3.714   3.532   2.223  0.00  0.00    -0.096 A 
ATOM     10  HN1 IND d   1       2.188   2.576  -0.262  0.00  0.00     0.298 HD
ENDROOT
TORSDOF 0
ENDMDL
