MODEL 1
REMARK minimizedAffinity 9.37566948
REMARK minimizedRMSD -1
REMARK  0 active torsions:
REMARK  status: ('A' for Active; 'I' for Inactive)
ROOT
ATOM      1  N1  IND d   1       2.860  -5.735  -4.534  0.00  0.00    -0.196 N 
ATOM      2  C2  IND d   1       3.313  -5.998  -5.797  0.00  0.00     0.054 A 
ATOM      3  C3  IND d   1       4.527  -5.433  -5.988  0.00  0.00    -0.031 A 
ATOM      4  C4  IND d   1       5.998  -4.120  -4.334  0.00  0.00     0.051 A 
ATOM      5  C5  IND d   1       5.995  -3.593  -3.073  0.00  0.00    -0.031 A 
ATOM      6  C6  IND d   1       4.926  -3.759  -2.216  0.00  0.00     0.015 A 
ATOM      7  C7  IND d   1       3.821  -4.471  -2.586  0.00  0.00    -0.016 A 
ATOM      8  C8  IND d   1       3.817  -5.001  -3.869  0.00  0.00    -0.047 A 
ATOM      9  C9  IND d   1       4.881  -4.800  -4.758  0.00  0.00    -0.096 A 
ATOM     10  HN1 IND d   1       2.104  -5.986  -4.210  0.00  0.00     0.298 HD
ENDROOT
TORSDOF 0
ENDMDL
