MODEL 1
REMARK minimizedAffinity 10.0390272
REMARK minimizedRMSD -1
REMARK  0 active torsions:
REMARK  status: ('A' for Active; 'I' for Inactive)
ROOT
ATOM      1  N1  IND d   1       3.923  -4.721  -2.347  0.00  0.00    -0.196 N 
ATOM      2  C2  IND d   1       2.991  -5.296  -1.529  0.00  0.00     0.054 A 
ATOM      3  C3  IND d   1       1.995  -5.842  -2.262  0.00  0.00    -0.031 A 
ATOM      4  C4  IND d   1       1.742  -6.000  -4.819  0.00  0.00     0.051 A 
ATOM      5  C5  IND d   1       2.322  -5.588  -5.986  0.00  0.00    -0.031 A 
ATOM      6  C6  IND d   1       3.491  -4.854  -6.000  0.00  0.00     0.015 A 
ATOM      7  C7  IND d   1       4.131  -4.512  -4.843  0.00  0.00    -0.016 A 
ATOM      8  C8  IND d   1       3.541  -4.922  -3.656  0.00  0.00    -0.047 A 
ATOM      9  C9  IND d   1       2.333  -5.631  -3.633  0.00  0.00    -0.096 A 
ATOM     10  HN1 IND d   1       4.628  -4.303  -2.088  0.00  0.00     0.298 HD
ENDROOT
TORSDOF 0
ENDMDL
