MODEL 1
REMARK minimizedAffinity 6.03721809
REMARK minimizedRMSD -1
REMARK  0 active torsions:
REMARK  status: ('A' for Active; 'I' for Inactive)
ROOT
ATOM      1  N1  IND d   1      -3.893   2.399  -4.208  0.00  0.00    -0.196 N 
ATOM      2  C2  IND d   1      -4.877   2.257  -5.146  0.00  0.00     0.054 A 
ATOM      3  C3  IND d   1      -4.910   3.335  -5.961  0.00  0.00    -0.031 A 
ATOM      4  C4  IND d   1      -3.377   5.403  -6.000  0.00  0.00     0.051 A 
ATOM      5  C5  IND d   1      -2.355   6.000  -5.315  0.00  0.00    -0.031 A 
ATOM      6  C6  IND d   1      -1.781   5.413  -4.206  0.00  0.00     0.015 A 
ATOM      7  C7  IND d   1      -2.200   4.198  -3.745  0.00  0.00    -0.016 A 
ATOM      8  C8  IND d   1      -3.242   3.592  -4.433  0.00  0.00    -0.047 A 
ATOM      9  C9  IND d   1      -3.858   4.202  -5.534  0.00  0.00    -0.096 A 
ATOM     10  HN1 IND d   1      -3.710   1.837  -3.583  0.00  0.00     0.298 HD
ENDROOT
TORSDOF 0
ENDMDL
