MODEL 1
REMARK minimizedAffinity 0.68887502
REMARK minimizedRMSD -1
REMARK  0 active torsions:
REMARK  status: ('A' for Active; 'I' for Inactive)
ROOT
ATOM      1  N1  IND d   1       2.002   2.680   2.259  0.00  0.00    -0.196 N 
ATOM      2  C2  IND d   1       0.892   2.350   1.534  0.00  0.00     0.054 A 
ATOM      3  C3  IND d   1       1.226   2.112   0.245  0.00  0.00    -0.031 A 
ATOM      4  C4  IND d   1       3.546   2.107  -0.869  0.00  0.00     0.051 A 
ATOM      5  C5  IND d   1       4.861   2.384  -0.620  0.00  0.00    -0.031 A 
ATOM      6  C6  IND d   1       5.300   2.779   0.627  0.00  0.00     0.015 A 
ATOM      7  C7  IND d   1       4.437   2.902   1.680  0.00  0.00    -0.016 A 
ATOM      8  C8  IND d   1       3.100   2.628   1.429  0.00  0.00    -0.047 A 
ATOM      9  C9  IND d   1       2.643   2.268   0.155  0.00  0.00    -0.096 A 
ATOM     10  HN1 IND d   1       2.013   2.886   3.094  0.00  0.00     0.298 HD
ENDROOT
TORSDOF 0
ENDMDL
