MODEL 1
REMARK minimizedAffinity -2.34218979
REMARK minimizedRMSD -1
REMARK  0 active torsions:
REMARK  status: ('A' for Active; 'I' for Inactive)
ROOT
ATOM      1  N1  IND d   1       2.357  -5.809  -4.814  0.00  0.00    -0.196 N 
ATOM      2  C2  IND d   1       3.010  -5.999  -6.000  0.00  0.00     0.054 A 
ATOM      3  C3  IND d   1       4.313  -5.660  -5.879  0.00  0.00    -0.031 A 
ATOM      4  C4  IND d   1       5.611  -4.866  -3.803  0.00  0.00     0.051 A 
ATOM      5  C5  IND d   1       5.436  -4.505  -2.496  0.00  0.00    -0.031 A 
ATOM      6  C6  IND d   1       4.202  -4.564  -1.882  0.00  0.00     0.015 A 
ATOM      7  C7  IND d   1       3.093  -4.999  -2.552  0.00  0.00    -0.016 A 
ATOM      8  C8  IND d   1       3.266  -5.360  -3.881  0.00  0.00    -0.047 A 
ATOM      9  C9  IND d   1       4.507  -5.261  -4.521  0.00  0.00    -0.096 A 
ATOM     10  HN1 IND d   1       1.520  -5.946  -4.674  0.00  0.00     0.298 HD
ENDROOT
TORSDOF 0
ENDMDL
