MODEL 1
REMARK minimizedAffinity 8.71312809
REMARK minimizedRMSD -1
REMARK  0 active torsions:
REMARK  status: ('A' for Active; 'I' for Inactive)
ROOT
ATOM      1  N1  IND d   1      -1.885  -5.998   0.837  0.00  0.00    -0.196 N 
ATOM      2  C2  IND d   1      -1.899  -5.153  -0.238  0.00  0.00     0.054 A 
ATOM      3  C3  IND d   1      -1.053  -4.119  -0.034  0.00  0.00    -0.031 A 
ATOM      4  C4  IND d   1       0.530  -3.666   1.945  0.00  0.00     0.051 A 
ATOM      5  C5  IND d   1       0.870  -4.138   3.182  0.00  0.00    -0.031 A 
ATOM      6  C6  IND d   1       0.300  -5.278   3.710  0.00  0.00     0.015 A 
ATOM      7  C7  IND d   1      -0.627  -5.999   3.012  0.00  0.00    -0.016 A 
ATOM      8  C8  IND d   1      -0.981  -5.519   1.759  0.00  0.00    -0.047 A 
ATOM      9  C9  IND d   1      -0.437  -4.339   1.236  0.00  0.00    -0.096 A 
ATOM     10  HN1 IND d   1      -2.361  -6.710   0.922  0.00  0.00     0.298 HD
ENDROOT
TORSDOF 0
ENDMDL
