MODEL 1
REMARK minimizedAffinity 13.2171078
REMARK minimizedRMSD -1
REMARK  0 active torsions:
REMARK  status: ('A' for Active; 'I' for Inactive)
ROOT
ATOM      1  N1  IND d   1      -1.124  -3.580  -1.704  0.00  0.00    -0.196 N 
ATOM      2  C2  IND d   1      -2.011  -3.393  -2.727  0.00  0.00     0.054 A 
ATOM      3  C3  IND d   1      -3.235  -3.849  -2.378  0.00  0.00    -0.031 A 
ATOM      4  C4  IND d   1      -4.033  -4.845  -0.143  0.00  0.00     0.051 A 
ATOM      5  C5  IND d   1      -3.577  -5.248   1.081  0.00  0.00    -0.031 A 
ATOM      6  C6  IND d   1      -2.254  -5.110   1.448  0.00  0.00     0.015 A 
ATOM      7  C7  IND d   1      -1.336  -4.551   0.604  0.00  0.00    -0.016 A 
ATOM      8  C8  IND d   1      -1.794  -4.148  -0.642  0.00  0.00    -0.047 A 
ATOM      9  C9  IND d   1      -3.127  -4.324  -1.035  0.00  0.00    -0.096 A 
ATOM     10  HN1 IND d   1      -0.289  -3.377  -1.721  0.00  0.00     0.298 HD
ENDROOT
TORSDOF 0
ENDMDL
