MODEL 1
REMARK minimizedAffinity 12.9418116
REMARK minimizedRMSD -1
REMARK  0 active torsions:
REMARK  status: ('A' for Active; 'I' for Inactive)
ROOT
ATOM      1  N1  IND d   1       1.426  -4.126   2.223  0.00  0.00    -0.196 N 
ATOM      2  C2  IND d   1       2.440  -4.229   1.312  0.00  0.00     0.054 A 
ATOM      3  C3  IND d   1       1.946  -4.204   0.054  0.00  0.00    -0.031 A 
ATOM      4  C4  IND d   1      -0.482  -3.898  -0.745  0.00  0.00     0.051 A 
ATOM      5  C5  IND d   1      -1.764  -3.799  -0.282  0.00  0.00    -0.031 A 
ATOM      6  C6  IND d   1      -2.054  -3.802   1.068  0.00  0.00     0.015 A 
ATOM      7  C7  IND d   1      -1.067  -3.892   2.008  0.00  0.00    -0.016 A 
ATOM      8  C8  IND d   1       0.235  -3.999   1.541  0.00  0.00    -0.047 A 
ATOM      9  C9  IND d   1       0.532  -4.040   0.173  0.00  0.00    -0.096 A 
ATOM     10  HN1 IND d   1       1.516  -4.138   3.078  0.00  0.00     0.298 HD
ENDROOT
TORSDOF 0
ENDMDL
