MODEL 1
REMARK minimizedAffinity 12.6193886
REMARK minimizedRMSD -1
REMARK  0 active torsions:
REMARK  status: ('A' for Active; 'I' for Inactive)
ROOT
ATOM      1  N1  IND d   1       1.823   1.819   1.898  0.00  0.00    -0.196 N 
ATOM      2  C2  IND d   1       3.011   2.143   1.305  0.00  0.00     0.054 A 
ATOM      3  C3  IND d   1       2.794   2.872   0.187  0.00  0.00    -0.031 A 
ATOM      4  C4  IND d   1       0.579   3.736  -0.799  0.00  0.00     0.051 A 
ATOM      5  C5  IND d   1      -0.776   3.666  -0.629  0.00  0.00    -0.031 A 
ATOM      6  C6  IND d   1      -1.344   2.965   0.414  0.00  0.00     0.015 A 
ATOM      7  C7  IND d   1      -0.576   2.314   1.338  0.00  0.00    -0.016 A 
ATOM      8  C8  IND d   1       0.799   2.377   1.165  0.00  0.00    -0.047 A 
ATOM      9  C9  IND d   1       1.381   3.051   0.083  0.00  0.00    -0.096 A 
ATOM     10  HN1 IND d   1       1.731   1.346   2.610  0.00  0.00     0.298 HD
ENDROOT
TORSDOF 0
ENDMDL
