MODEL 1
REMARK minimizedAffinity 4.82662868
REMARK minimizedRMSD -1
REMARK  0 active torsions:
REMARK  status: ('A' for Active; 'I' for Inactive)
ROOT
ATOM      1  N1  IND d   1       2.649  -0.180   0.487  0.00  0.00    -0.196 N 
ATOM      2  C2  IND d   1       2.432   1.161   0.633  0.00  0.00     0.054 A 
ATOM      3  C3  IND d   1       1.924   1.683  -0.506  0.00  0.00    -0.031 A 
ATOM      4  C4  IND d   1       1.271   0.499  -2.697  0.00  0.00     0.051 A 
ATOM      5  C5  IND d   1       1.317  -0.717  -3.319  0.00  0.00    -0.031 A 
ATOM      6  C6  IND d   1       1.816  -1.839  -2.691  0.00  0.00     0.015 A 
ATOM      7  C7  IND d   1       2.280  -1.790  -1.407  0.00  0.00    -0.016 A 
ATOM      8  C8  IND d   1       2.242  -0.555  -0.774  0.00  0.00    -0.047 A 
ATOM      9  C9  IND d   1       1.776   0.596  -1.422  0.00  0.00    -0.096 A 
ATOM     10  HN1 IND d   1       2.983  -0.703   1.083  0.00  0.00     0.298 HD
ENDROOT
TORSDOF 0
ENDMDL
