MODEL 1
REMARK minimizedAffinity 3.75136328
REMARK minimizedRMSD -1
REMARK  0 active torsions:
REMARK  status: ('A' for Active; 'I' for Inactive)
ROOT
ATOM      1  N1  IND d   1       2.929   0.239   0.600  0.00  0.00    -0.196 N 
ATOM      2  C2  IND d   1       2.925   1.591   0.804  0.00  0.00     0.054 A 
ATOM      3  C3  IND d   1       2.529   2.235  -0.317  0.00  0.00    -0.031 A 
ATOM      4  C4  IND d   1       1.744   1.265  -2.569  0.00  0.00     0.051 A 
ATOM      5  C5  IND d   1       1.609   0.086  -3.245  0.00  0.00    -0.031 A 
ATOM      6  C6  IND d   1       1.912  -1.128  -2.662  0.00  0.00     0.015 A 
ATOM      7  C7  IND d   1       2.351  -1.208  -1.371  0.00  0.00    -0.016 A 
ATOM      8  C8  IND d   1       2.495  -0.012  -0.683  0.00  0.00    -0.047 A 
ATOM      9  C9  IND d   1       2.230   1.226  -1.283  0.00  0.00    -0.096 A 
ATOM     10  HN1 IND d   1       3.164  -0.355   1.176  0.00  0.00     0.298 HD
ENDROOT
TORSDOF 0
ENDMDL
