MODEL 1
REMARK minimizedAffinity 9.53779602
REMARK minimizedRMSD -1
REMARK  0 active torsions:
REMARK  status: ('A' for Active; 'I' for Inactive)
ROOT
ATOM      1  C   UNL d   1      -1.946  -3.648   3.519  0.00  0.00     0.124 A 
ATOM      2  C1  UNL d   1      -2.800  -2.897   4.314  0.00  0.00     0.062 A 
ATOM      3  C2  UNL d   1      -3.016  -1.551   4.033  0.00  0.00     0.162 A 
ATOM      4  C3  UNL d   1      -2.377  -0.947   2.950  0.00  0.00    -0.034 A 
ATOM      5  C4  UNL d   1      -1.519  -1.709   2.155  0.00  0.00     0.162 A 
ATOM      6  C5  UNL d   1      -1.306  -3.054   2.441  0.00  0.00     0.062 A 
ATOM      7  F   UNL d   1      -0.481  -3.778   1.671  0.00  0.00    -0.097 F 
ATOM      8  F1  UNL d   1      -0.888  -1.160   1.106  0.00  0.00    -0.096 F 
ATOM      9  I   UNL d   1      -2.697   1.065   2.526  0.00  0.00    -0.060 I 
ATOM     10  F2  UNL d   1      -3.847  -0.849   4.819  0.00  0.00    -0.096 F 
ATOM     11  F3  UNL d   1      -3.419  -3.469   5.358  0.00  0.00    -0.097 F 
ATOM     12  F4  UNL d   1      -1.740  -4.943   3.793  0.00  0.00    -0.092 F 
ENDROOT
TORSDOF 0
ENDMDL
