MODEL 1
REMARK minimizedAffinity 13.758194
REMARK minimizedRMSD -1
REMARK  0 active torsions:
REMARK  status: ('A' for Active; 'I' for Inactive)
ROOT
ATOM      1  C   UNL d   1      -1.330   5.977  -1.276  0.00  0.00     0.124 A 
ATOM      2  C1  UNL d   1      -2.319   5.987  -2.249  0.00  0.00     0.062 A 
ATOM      3  C2  UNL d   1      -1.975   5.990  -3.598  0.00  0.00     0.162 A 
ATOM      4  C3  UNL d   1      -0.634   5.981  -3.982  0.00  0.00    -0.034 A 
ATOM      5  C4  UNL d   1       0.356   5.972  -2.998  0.00  0.00     0.162 A 
ATOM      6  C5  UNL d   1       0.007   5.970  -1.651  0.00  0.00     0.062 A 
ATOM      7  F   UNL d   1       0.964   5.960  -0.713  0.00  0.00    -0.097 F 
ATOM      8  F1  UNL d   1       1.655   5.964  -3.332  0.00  0.00    -0.096 F 
ATOM      9  I   UNL d   1      -0.115   5.985  -5.998  0.00  0.00    -0.060 I 
ATOM     10  F2  UNL d   1      -2.952   5.999  -4.517  0.00  0.00    -0.096 F 
ATOM     11  F3  UNL d   1      -3.611   5.995  -1.890  0.00  0.00    -0.097 F 
ATOM     12  F4  UNL d   1      -1.664   5.976   0.020  0.00  0.00    -0.092 F 
ENDROOT
TORSDOF 0
ENDMDL
