MODEL 1
REMARK minimizedAffinity 4.51735544
REMARK minimizedRMSD -1
REMARK  0 active torsions:
REMARK  status: ('A' for Active; 'I' for Inactive)
ROOT
ATOM      1  C   UNL d   1      -3.196   5.991  -2.112  0.00  0.00     0.124 A 
ATOM      2  C1  UNL d   1      -3.400   5.993  -3.485  0.00  0.00     0.062 A 
ATOM      3  C2  UNL d   1      -2.312   5.992  -4.353  0.00  0.00     0.162 A 
ATOM      4  C3  UNL d   1      -1.010   5.989  -3.851  0.00  0.00    -0.034 A 
ATOM      5  C4  UNL d   1      -0.814   5.988  -2.469  0.00  0.00     0.162 A 
ATOM      6  C5  UNL d   1      -1.904   5.989  -1.605  0.00  0.00     0.062 A 
ATOM      7  F   UNL d   1      -1.706   5.987  -0.279  0.00  0.00    -0.097 F 
ATOM      8  F1  UNL d   1       0.424   5.985  -1.953  0.00  0.00    -0.096 F 
ATOM      9  I   UNL d   1       0.618   5.988  -5.147  0.00  0.00    -0.060 I 
ATOM     10  F2  UNL d   1      -2.538   5.994  -5.675  0.00  0.00    -0.096 F 
ATOM     11  F3  UNL d   1      -4.647   5.996  -3.976  0.00  0.00    -0.097 F 
ATOM     12  F4  UNL d   1      -4.245   5.992  -1.278  0.00  0.00    -0.092 F 
ENDROOT
TORSDOF 0
ENDMDL
