MODEL 1
REMARK minimizedAffinity 2.82792401
REMARK minimizedRMSD -1
REMARK  0 active torsions:
REMARK  status: ('A' for Active; 'I' for Inactive)
ROOT
ATOM      1  C   UNL d   1      -0.365   5.963  -3.637  0.00  0.00     0.124 A 
ATOM      2  C1  UNL d   1      -1.039   5.959  -2.423  0.00  0.00     0.062 A 
ATOM      3  C2  UNL d   1      -2.431   5.964  -2.395  0.00  0.00     0.162 A 
ATOM      4  C3  UNL d   1      -3.159   5.973  -3.585  0.00  0.00    -0.034 A 
ATOM      5  C4  UNL d   1      -2.474   5.978  -4.802  0.00  0.00     0.162 A 
ATOM      6  C5  UNL d   1      -1.083   5.972  -4.824  0.00  0.00     0.062 A 
ATOM      7  F   UNL d   1      -0.434   5.976  -5.998  0.00  0.00    -0.097 F 
ATOM      8  F1  UNL d   1      -3.143   5.985  -5.964  0.00  0.00    -0.096 F 
ATOM      9  I   UNL d   1      -5.240   5.980  -3.547  0.00  0.00    -0.060 I 
ATOM     10  F2  UNL d   1      -3.055   5.960  -1.208  0.00  0.00    -0.096 F 
ATOM     11  F3  UNL d   1      -0.348   5.951  -1.275  0.00  0.00    -0.097 F 
ATOM     12  F4  UNL d   1       0.974   5.959  -3.661  0.00  0.00    -0.092 F 
ENDROOT
TORSDOF 0
ENDMDL
