MODEL 1
REMARK minimizedAffinity 11.7806568
REMARK minimizedRMSD -1
REMARK  0 active torsions:
REMARK  status: ('A' for Active; 'I' for Inactive)
ROOT
ATOM      1  C   UNL d   1      -2.156   5.971  -4.059  0.00  0.00     0.124 A 
ATOM      2  C1  UNL d   1      -3.323   5.985  -3.309  0.00  0.00     0.062 A 
ATOM      3  C2  UNL d   1      -3.262   5.981  -1.918  0.00  0.00     0.162 A 
ATOM      4  C3  UNL d   1      -2.028   5.966  -1.268  0.00  0.00    -0.034 A 
ATOM      5  C4  UNL d   1      -0.858   5.951  -2.029  0.00  0.00     0.162 A 
ATOM      6  C5  UNL d   1      -0.924   5.955  -3.418  0.00  0.00     0.062 A 
ATOM      7  F   UNL d   1       0.205   5.942  -4.141  0.00  0.00    -0.097 F 
ATOM      8  F1  UNL d   1       0.345   5.936  -1.436  0.00  0.00    -0.096 F 
ATOM      9  I   UNL d   1      -1.933   5.961   0.811  0.00  0.00    -0.060 I 
ATOM     10  F2  UNL d   1      -4.407   5.994  -1.219  0.00  0.00    -0.096 F 
ATOM     11  F3  UNL d   1      -4.514   6.000  -3.925  0.00  0.00    -0.097 F 
ATOM     12  F4  UNL d   1      -2.217   5.973  -5.396  0.00  0.00    -0.092 F 
ENDROOT
TORSDOF 0
ENDMDL
