MODEL 1
REMARK minimizedAffinity 24.6551933
REMARK minimizedRMSD -1
REMARK  0 active torsions:
REMARK  status: ('A' for Active; 'I' for Inactive)
ROOT
ATOM      1  C   UNL d   1      -4.422  -3.508  -3.091  0.00  0.00     0.124 A 
ATOM      2  C1  UNL d   1      -4.500  -3.640  -1.712  0.00  0.00     0.062 A 
ATOM      3  C2  UNL d   1      -3.652  -2.904  -0.890  0.00  0.00     0.162 A 
ATOM      4  C3  UNL d   1      -2.719  -2.027  -1.445  0.00  0.00    -0.034 A 
ATOM      5  C4  UNL d   1      -2.647  -1.900  -2.833  0.00  0.00     0.162 A 
ATOM      6  C5  UNL d   1      -3.497  -2.638  -3.651  0.00  0.00     0.062 A 
ATOM      7  F   UNL d   1      -3.421  -2.509  -4.983  0.00  0.00    -0.097 F 
ATOM      8  F1  UNL d   1      -1.762  -1.067  -3.400  0.00  0.00    -0.096 F 
ATOM      9  I   UNL d   1      -1.450  -0.924  -0.219  0.00  0.00    -0.060 I 
ATOM     10  F2  UNL d   1      -3.748  -3.051   0.440  0.00  0.00    -0.096 F 
ATOM     11  F3  UNL d   1      -5.393  -4.480  -1.169  0.00  0.00    -0.097 F 
ATOM     12  F4  UNL d   1      -5.239  -4.218  -3.880  0.00  0.00    -0.092 F 
ENDROOT
TORSDOF 0
ENDMDL
