MODEL 1
REMARK minimizedAffinity 15.9118395
REMARK minimizedRMSD -1
REMARK  0 active torsions:
REMARK  status: ('A' for Active; 'I' for Inactive)
ROOT
ATOM      1  C   UNL d   1      -4.396  -3.503  -2.790  0.00  0.00     0.124 A 
ATOM      2  C1  UNL d   1      -3.465  -2.701  -3.434  0.00  0.00     0.062 A 
ATOM      3  C2  UNL d   1      -2.809  -1.691  -2.737  0.00  0.00     0.162 A 
ATOM      4  C3  UNL d   1      -3.081  -1.478  -1.386  0.00  0.00    -0.034 A 
ATOM      5  C4  UNL d   1      -4.019  -2.288  -0.744  0.00  0.00     0.162 A 
ATOM      6  C5  UNL d   1      -4.672  -3.296  -1.446  0.00  0.00     0.062 A 
ATOM      7  F   UNL d   1      -5.571  -4.071  -0.821  0.00  0.00    -0.097 F 
ATOM      8  F1  UNL d   1      -4.305  -2.111   0.554  0.00  0.00    -0.096 F 
ATOM      9  I   UNL d   1      -2.102   0.032  -0.339  0.00  0.00    -0.060 I 
ATOM     10  F2  UNL d   1      -1.914  -0.930  -3.385  0.00  0.00    -0.096 F 
ATOM     11  F3  UNL d   1      -3.197  -2.898  -4.733  0.00  0.00    -0.097 F 
ATOM     12  F4  UNL d   1      -5.026  -4.474  -3.464  0.00  0.00    -0.092 F 
ENDROOT
TORSDOF 0
ENDMDL
