MODEL 1
REMARK minimizedAffinity 8.02695942
REMARK minimizedRMSD -1
REMARK  0 active torsions:
REMARK  status: ('A' for Active; 'I' for Inactive)
ROOT
ATOM      1  C   UNL d   1      -1.193   5.970  -4.591  0.00  0.00     0.124 A 
ATOM      2  C1  UNL d   1      -0.630   5.966  -3.323  0.00  0.00     0.062 A 
ATOM      3  C2  UNL d   1      -1.445   5.973  -2.195  0.00  0.00     0.162 A 
ATOM      4  C3  UNL d   1      -2.833   5.983  -2.330  0.00  0.00    -0.034 A 
ATOM      5  C4  UNL d   1      -3.393   5.988  -3.609  0.00  0.00     0.162 A 
ATOM      6  C5  UNL d   1      -2.574   5.981  -4.733  0.00  0.00     0.062 A 
ATOM      7  F   UNL d   1      -3.120   5.985  -5.958  0.00  0.00    -0.097 F 
ATOM      8  F1  UNL d   1      -4.724   5.998  -3.775  0.00  0.00    -0.096 F 
ATOM      9  I   UNL d   1      -4.055   5.994  -0.645  0.00  0.00    -0.060 I 
ATOM     10  F2  UNL d   1      -0.873   5.969  -0.982  0.00  0.00    -0.096 F 
ATOM     11  F3  UNL d   1       0.704   5.956  -3.184  0.00  0.00    -0.097 F 
ATOM     12  F4  UNL d   1      -0.407   5.964  -5.675  0.00  0.00    -0.092 F 
ENDROOT
TORSDOF 0
ENDMDL
