MODEL 1
REMARK minimizedAffinity 14.0544729
REMARK minimizedRMSD -1
REMARK  0 active torsions:
REMARK  status: ('A' for Active; 'I' for Inactive)
ROOT
ATOM      1  C   UNL d   1      -2.471   6.000  -1.710  0.00  0.00     0.124 A 
ATOM      2  C1  UNL d   1      -1.093   6.000  -1.545  0.00  0.00     0.062 A 
ATOM      3  C2  UNL d   1      -0.255   5.999  -2.657  0.00  0.00     0.162 A 
ATOM      4  C3  UNL d   1      -0.793   6.000  -3.944  0.00  0.00    -0.034 A 
ATOM      5  C4  UNL d   1      -2.180   5.999  -4.102  0.00  0.00     0.162 A 
ATOM      6  C5  UNL d   1      -3.013   5.999  -2.988  0.00  0.00     0.062 A 
ATOM      7  F   UNL d   1      -4.344   5.999  -3.149  0.00  0.00    -0.097 F 
ATOM      8  F1  UNL d   1      -2.730   6.000  -5.325  0.00  0.00    -0.096 F 
ATOM      9  I   UNL d   1       0.457   5.999  -5.608  0.00  0.00    -0.060 I 
ATOM     10  F2  UNL d   1       1.073   5.999  -2.467  0.00  0.00    -0.096 F 
ATOM     11  F3  UNL d   1      -0.566   5.999  -0.312  0.00  0.00    -0.097 F 
ATOM     12  F4  UNL d   1      -3.275   5.999  -0.639  0.00  0.00    -0.092 F 
ENDROOT
TORSDOF 0
ENDMDL
