MODEL 1
REMARK minimizedAffinity -1.30080283
REMARK minimizedRMSD -1
REMARK  0 active torsions:
REMARK  status: ('A' for Active; 'I' for Inactive)
ROOT
ATOM      1  C   UNL d   1      -0.736   1.217   1.181  0.00  0.00     0.124 A 
ATOM      2  C1  UNL d   1       0.280   1.575   0.306  0.00  0.00     0.062 A 
ATOM      3  C2  UNL d   1       1.611   1.468   0.698  0.00  0.00     0.162 A 
ATOM      4  C3  UNL d   1       1.934   0.998   1.971  0.00  0.00    -0.034 A 
ATOM      5  C4  UNL d   1       0.907   0.640   2.845  0.00  0.00     0.162 A 
ATOM      6  C5  UNL d   1      -0.422   0.750   2.449  0.00  0.00     0.062 A 
ATOM      7  F   UNL d   1      -1.403   0.403   3.296  0.00  0.00    -0.097 F 
ATOM      8  F1  UNL d   1       1.182   0.185   4.077  0.00  0.00    -0.096 F 
ATOM      9  I   UNL d   1       3.924   0.836   2.560  0.00  0.00    -0.060 I 
ATOM     10  F2  UNL d   1       2.572   1.821  -0.168  0.00  0.00    -0.096 F 
ATOM     11  F3  UNL d   1      -0.021   2.028  -0.920  0.00  0.00    -0.097 F 
ATOM     12  F4  UNL d   1      -2.017   1.323   0.802  0.00  0.00    -0.092 F 
ENDROOT
TORSDOF 0
ENDMDL
