MODEL 1
REMARK minimizedAffinity 4.13540411
REMARK minimizedRMSD -1
REMARK  0 active torsions:
REMARK  status: ('A' for Active; 'I' for Inactive)
ROOT
ATOM      1  C   UNL d   1      -3.147   5.770  -2.964  0.00  0.00     0.124 A 
ATOM      2  C1  UNL d   1      -2.151   5.820  -1.998  0.00  0.00     0.062 A 
ATOM      3  C2  UNL d   1      -0.813   5.885  -2.376  0.00  0.00     0.162 A 
ATOM      4  C3  UNL d   1      -0.462   5.900  -3.726  0.00  0.00    -0.034 A 
ATOM      5  C4  UNL d   1      -1.470   5.848  -4.691  0.00  0.00     0.162 A 
ATOM      6  C5  UNL d   1      -2.806   5.784  -4.308  0.00  0.00     0.062 A 
ATOM      7  F   UNL d   1      -3.767   5.735  -5.243  0.00  0.00    -0.097 F 
ATOM      8  F1  UNL d   1      -1.168   5.861  -5.998  0.00  0.00    -0.096 F 
ATOM      9  I   UNL d   1       1.537   5.996  -4.294  0.00  0.00    -0.060 I 
ATOM     10  F2  UNL d   1       0.129   5.932  -1.421  0.00  0.00    -0.096 F 
ATOM     11  F3  UNL d   1      -2.478   5.806  -0.698  0.00  0.00    -0.097 F 
ATOM     12  F4  UNL d   1      -4.434   5.707  -2.597  0.00  0.00    -0.092 F 
ENDROOT
TORSDOF 0
ENDMDL
