MODEL 1
REMARK minimizedAffinity 3.2573576
REMARK minimizedRMSD -1
REMARK  0 active torsions:
REMARK  status: ('A' for Active; 'I' for Inactive)
ROOT
ATOM      1  C   UNL d   1      -3.125   5.995  -2.393  0.00  0.00     0.124 A 
ATOM      2  C1  UNL d   1      -3.196   5.994  -3.779  0.00  0.00     0.062 A 
ATOM      3  C2  UNL d   1      -2.031   5.995  -4.540  0.00  0.00     0.162 A 
ATOM      4  C3  UNL d   1      -0.783   5.996  -3.917  0.00  0.00    -0.034 A 
ATOM      5  C4  UNL d   1      -0.719   5.998  -2.522  0.00  0.00     0.162 A 
ATOM      6  C5  UNL d   1      -1.887   5.997  -1.766  0.00  0.00     0.062 A 
ATOM      7  F   UNL d   1      -1.815   5.997  -0.427  0.00  0.00    -0.097 F 
ATOM      8  F1  UNL d   1       0.464   5.999  -1.891  0.00  0.00    -0.096 F 
ATOM      9  I   UNL d   1       0.961   5.999  -5.052  0.00  0.00    -0.060 I 
ATOM     10  F2  UNL d   1      -2.131   5.995  -5.878  0.00  0.00    -0.096 F 
ATOM     11  F3  UNL d   1      -4.391   5.993  -4.387  0.00  0.00    -0.097 F 
ATOM     12  F4  UNL d   1      -4.247   5.994  -1.663  0.00  0.00    -0.092 F 
ENDROOT
TORSDOF 0
ENDMDL
