MODEL 1
REMARK minimizedAffinity 17.244318
REMARK minimizedRMSD -1
REMARK  0 active torsions:
REMARK  status: ('A' for Active; 'I' for Inactive)
ROOT
ATOM      1  C   UNL d   1      -3.855  -1.713  -1.275  0.00  0.00     0.124 A 
ATOM      2  C1  UNL d   1      -3.788  -2.280  -2.540  0.00  0.00     0.062 A 
ATOM      3  C2  UNL d   1      -2.816  -1.862  -3.445  0.00  0.00     0.162 A 
ATOM      4  C3  UNL d   1      -1.902  -0.871  -3.087  0.00  0.00    -0.034 A 
ATOM      5  C4  UNL d   1      -1.976  -0.304  -1.813  0.00  0.00     0.162 A 
ATOM      6  C5  UNL d   1      -2.949  -0.726  -0.913  0.00  0.00     0.062 A 
ATOM      7  F   UNL d   1      -3.012  -0.177   0.309  0.00  0.00    -0.097 F 
ATOM      8  F1  UNL d   1      -1.113   0.651  -1.436  0.00  0.00    -0.096 F 
ATOM      9  I   UNL d   1      -0.448  -0.242  -4.436  0.00  0.00    -0.060 I 
ATOM     10  F2  UNL d   1      -2.775  -2.427  -4.660  0.00  0.00    -0.096 F 
ATOM     11  F3  UNL d   1      -4.662  -3.233  -2.893  0.00  0.00    -0.097 F 
ATOM     12  F4  UNL d   1      -4.791  -2.117  -0.407  0.00  0.00    -0.092 F 
ENDROOT
TORSDOF 0
ENDMDL
