MODEL 1
REMARK minimizedAffinity 5.59509897
REMARK minimizedRMSD -1
REMARK  0 active torsions:
REMARK  status: ('A' for Active; 'I' for Inactive)
ROOT
ATOM      1  C   UNL d   1      -2.342   5.985  -2.373  0.00  0.00     0.124 A 
ATOM      2  C1  UNL d   1      -2.768   5.981  -3.694  0.00  0.00     0.062 A 
ATOM      3  C2  UNL d   1      -1.838   5.982  -4.729  0.00  0.00     0.162 A 
ATOM      4  C3  UNL d   1      -0.471   5.987  -4.448  0.00  0.00    -0.034 A 
ATOM      5  C4  UNL d   1      -0.051   5.993  -3.116  0.00  0.00     0.162 A 
ATOM      6  C5  UNL d   1      -0.984   5.991  -2.085  0.00  0.00     0.062 A 
ATOM      7  F   UNL d   1      -0.571   5.995  -0.810  0.00  0.00    -0.097 F 
ATOM      8  F1  UNL d   1       1.255   5.997  -2.810  0.00  0.00    -0.096 F 
ATOM      9  I   UNL d   1       0.923   5.990  -5.993  0.00  0.00    -0.060 I 
ATOM     10  F2  UNL d   1      -2.277   5.978  -5.996  0.00  0.00    -0.096 F 
ATOM     11  F3  UNL d   1      -4.079   5.976  -3.974  0.00  0.00    -0.097 F 
ATOM     12  F4  UNL d   1      -3.239   5.984  -1.379  0.00  0.00    -0.092 F 
ENDROOT
TORSDOF 0
ENDMDL
