MODEL 1
REMARK minimizedAffinity 7.51748896
REMARK minimizedRMSD -1
REMARK  0 active torsions:
REMARK  status: ('A' for Active; 'I' for Inactive)
ROOT
ATOM      1  C   UNL d   1       2.629   3.211  -2.857  0.00  0.00     0.124 A 
ATOM      2  C1  UNL d   1       3.983   2.991  -3.065  0.00  0.00     0.062 A 
ATOM      3  C2  UNL d   1       4.692   3.786  -3.961  0.00  0.00     0.162 A 
ATOM      4  C3  UNL d   1       4.047   4.809  -4.656  0.00  0.00    -0.034 A 
ATOM      5  C4  UNL d   1       2.685   5.024  -4.442  0.00  0.00     0.162 A 
ATOM      6  C5  UNL d   1       1.981   4.227  -3.545  0.00  0.00     0.062 A 
ATOM      7  F   UNL d   1       0.672   4.441  -3.345  0.00  0.00    -0.097 F 
ATOM      8  F1  UNL d   1       2.034   5.999  -5.093  0.00  0.00    -0.096 F 
ATOM      9  I   UNL d   1       5.103   6.000  -5.997  0.00  0.00    -0.060 I 
ATOM     10  F2  UNL d   1       6.000   3.550  -4.143  0.00  0.00    -0.096 F 
ATOM     11  F3  UNL d   1       4.611   2.009  -2.402  0.00  0.00    -0.097 F 
ATOM     12  F4  UNL d   1       1.949   2.444  -1.995  0.00  0.00    -0.092 F 
ENDROOT
TORSDOF 0
ENDMDL
