MODEL 1
REMARK minimizedAffinity 5.21115255
REMARK minimizedRMSD -1
REMARK  0 active torsions:
REMARK  status: ('A' for Active; 'I' for Inactive)
ROOT
ATOM      1  C   UNL d   1      -3.158   5.997  -2.476  0.00  0.00     0.124 A 
ATOM      2  C1  UNL d   1      -1.895   5.996  -1.901  0.00  0.00     0.062 A 
ATOM      3  C2  UNL d   1      -0.760   5.996  -2.706  0.00  0.00     0.162 A 
ATOM      4  C3  UNL d   1      -0.882   5.997  -4.096  0.00  0.00    -0.034 A 
ATOM      5  C4  UNL d   1      -2.156   5.996  -4.667  0.00  0.00     0.162 A 
ATOM      6  C5  UNL d   1      -3.288   5.997  -3.858  0.00  0.00     0.062 A 
ATOM      7  F   UNL d   1      -4.508   5.998  -4.415  0.00  0.00    -0.097 F 
ATOM      8  F1  UNL d   1      -2.310   5.997  -5.999  0.00  0.00    -0.096 F 
ATOM      9  I   UNL d   1       0.813   5.996  -5.303  0.00  0.00    -0.060 I 
ATOM     10  F2  UNL d   1       0.448   5.995  -2.124  0.00  0.00    -0.096 F 
ATOM     11  F3  UNL d   1      -1.767   5.995  -0.566  0.00  0.00    -0.097 F 
ATOM     12  F4  UNL d   1      -4.249   5.997  -1.699  0.00  0.00    -0.092 F 
ENDROOT
TORSDOF 0
ENDMDL
