MODEL 1
REMARK minimizedAffinity -4.19207191
REMARK minimizedRMSD -1
REMARK  1 active torsions:
REMARK  status: ('A' for Active; 'I' for Inactive)
REMARK    1  A    between atoms: C1_2  and  C2_3 
ROOT
ATOM      1  C2  UNL d   1       0.781   0.371   0.441  0.00  0.00    -0.077 A 
ATOM      2  C3  UNL d   1       0.266   1.160  -0.596  0.00  0.00     0.002 A 
ATOM      3  C4  UNL d   1      -1.039   0.962  -1.053  0.00  0.00     0.002 A 
ATOM      4  C5  UNL d   1      -1.839  -0.020  -0.475  0.00  0.00    -0.004 A 
ATOM      5  C6  UNL d   1      -1.335  -0.812   0.557  0.00  0.00     0.002 A 
ATOM      6  C7  UNL d   1      -0.031  -0.616   1.013  0.00  0.00     0.002 A 
ENDROOT
BRANCH   1   7
ATOM      7  C1  UNL d   1       2.171   0.616   0.968  0.00  0.00     0.055 C 
ATOM      8  C   UNL d   1       3.145  -0.443   0.473  0.00  0.00     0.019 C 
ENDBRANCH   1   7
TORSDOF 1
ENDMDL
