MODEL 1
REMARK minimizedAffinity -5.90288496
REMARK minimizedRMSD -1
REMARK  1 active torsions:
REMARK  status: ('A' for Active; 'I' for Inactive)
REMARK    1  A    between atoms: C1_2  and  C2_3 
ROOT
ATOM      1  C2  UNL d   1      -0.093  -0.145   0.425  0.00  0.00    -0.077 A 
ATOM      2  C3  UNL d   1       0.589   1.066   0.242  0.00  0.00     0.002 A 
ATOM      3  C4  UNL d   1       1.975   1.126   0.400  0.00  0.00     0.002 A 
ATOM      4  C5  UNL d   1       2.690  -0.022   0.736  0.00  0.00    -0.004 A 
ATOM      5  C6  UNL d   1       2.020  -1.230   0.922  0.00  0.00     0.002 A 
ATOM      6  C7  UNL d   1       0.635  -1.292   0.766  0.00  0.00     0.002 A 
ENDROOT
BRANCH   1   7
ATOM      7  C1  UNL d   1      -1.582  -0.222   0.207  0.00  0.00     0.055 C 
ATOM      8  C   UNL d   1      -1.965   0.273  -1.180  0.00  0.00     0.019 C 
ENDBRANCH   1   7
TORSDOF 1
ENDMDL
