MODEL 1
REMARK minimizedAffinity -2.92266536
REMARK minimizedRMSD -1
REMARK  1 active torsions:
REMARK  status: ('A' for Active; 'I' for Inactive)
REMARK    1  A    between atoms: C1_2  and  C2_3 
ROOT
ATOM      1  C2  UNL d   1       2.019  -0.134   0.220  0.00  0.00    -0.077 A 
ATOM      2  C3  UNL d   1       1.078  -1.150   0.005  0.00  0.00     0.002 A 
ATOM      3  C4  UNL d   1      -0.273  -0.839  -0.158  0.00  0.00     0.002 A 
ATOM      4  C5  UNL d   1      -0.694   0.488  -0.112  0.00  0.00    -0.004 A 
ATOM      5  C6  UNL d   1       0.234   1.507   0.103  0.00  0.00     0.002 A 
ATOM      6  C7  UNL d   1       1.585   1.197   0.267  0.00  0.00     0.002 A 
ENDROOT
BRANCH   1   7
ATOM      7  C1  UNL d   1       3.484  -0.463   0.347  0.00  0.00     0.055 C 
ATOM      8  C   UNL d   1       3.752  -1.334   1.565  0.00  0.00     0.019 C 
ENDBRANCH   1   7
TORSDOF 1
ENDMDL
