MODEL 1
REMARK minimizedAffinity -4.44336748
REMARK minimizedRMSD -1
REMARK  1 active torsions:
REMARK  status: ('A' for Active; 'I' for Inactive)
REMARK    1  A    between atoms: C1_2  and  C2_3 
ROOT
ATOM      1  C2  UNL d   1       0.205  -0.123   0.288  0.00  0.00    -0.077 A 
ATOM      2  C3  UNL d   1       0.753   1.167   0.330  0.00  0.00     0.002 A 
ATOM      3  C4  UNL d   1       2.134   1.344   0.424  0.00  0.00     0.002 A 
ATOM      4  C5  UNL d   1       2.979   0.237   0.472  0.00  0.00    -0.004 A 
ATOM      5  C6  UNL d   1       2.443  -1.050   0.433  0.00  0.00     0.002 A 
ATOM      6  C7  UNL d   1       1.063  -1.229   0.340  0.00  0.00     0.002 A 
ENDROOT
BRANCH   1   7
ATOM      7  C1  UNL d   1      -1.282  -0.316   0.137  0.00  0.00     0.055 C 
ATOM      8  C   UNL d   1      -1.788   0.279  -1.169  0.00  0.00     0.019 C 
ENDBRANCH   1   7
TORSDOF 1
ENDMDL
