MODEL 1
REMARK minimizedAffinity -4.77183056
REMARK minimizedRMSD -1
REMARK  1 active torsions:
REMARK  status: ('A' for Active; 'I' for Inactive)
REMARK    1  A    between atoms: C1_2  and  C2_3 
ROOT
ATOM      1  C2  UNL d   1      -0.049   0.104   0.093  0.00  0.00    -0.077 A 
ATOM      2  C3  UNL d   1       0.738  -1.036   0.306  0.00  0.00     0.002 A 
ATOM      3  C4  UNL d   1       2.110  -0.914   0.532  0.00  0.00     0.002 A 
ATOM      4  C5  UNL d   1       2.706   0.345   0.551  0.00  0.00    -0.004 A 
ATOM      5  C6  UNL d   1       1.932   1.485   0.338  0.00  0.00     0.002 A 
ATOM      6  C7  UNL d   1       0.560   1.365   0.111  0.00  0.00     0.002 A 
ENDROOT
BRANCH   1   7
ATOM      7  C1  UNL d   1      -1.538  -0.021  -0.102  0.00  0.00     0.055 C 
ATOM      8  C   UNL d   1      -1.944   0.355  -1.519  0.00  0.00     0.019 C 
ENDBRANCH   1   7
TORSDOF 1
ENDMDL
