MODEL 1
REMARK minimizedAffinity -3.87442946
REMARK minimizedRMSD -1
REMARK  1 active torsions:
REMARK  status: ('A' for Active; 'I' for Inactive)
REMARK    1  A    between atoms: C1_2  and  C2_3 
ROOT
ATOM      1  C2  UNL d   1       1.590  -0.281   0.345  0.00  0.00    -0.077 A 
ATOM      2  C3  UNL d   1       1.075   0.946  -0.096  0.00  0.00     0.002 A 
ATOM      3  C4  UNL d   1      -0.281   1.074  -0.403  0.00  0.00     0.002 A 
ATOM      4  C5  UNL d   1      -1.134  -0.020  -0.268  0.00  0.00    -0.004 A 
ATOM      5  C6  UNL d   1      -0.631  -1.245   0.168  0.00  0.00     0.002 A 
ATOM      6  C7  UNL d   1       0.724  -1.375   0.474  0.00  0.00     0.002 A 
ENDROOT
BRANCH   1   7
ATOM      7  C1  UNL d   1       3.042  -0.408   0.724  0.00  0.00     0.055 C 
ATOM      8  C   UNL d   1       3.364   0.411   1.966  0.00  0.00     0.019 C 
ENDBRANCH   1   7
TORSDOF 1
ENDMDL
