MODEL 1
REMARK minimizedAffinity -4.66866159
REMARK minimizedRMSD -1
REMARK  1 active torsions:
REMARK  status: ('A' for Active; 'I' for Inactive)
REMARK    1  A    between atoms: C1_2  and  C2_3 
ROOT
ATOM      1  C2  UNL d   1       0.361   0.144   0.234  0.00  0.00    -0.077 A 
ATOM      2  C3  UNL d   1       0.881  -1.053   0.747  0.00  0.00     0.002 A 
ATOM      3  C4  UNL d   1       2.243  -1.166   1.034  0.00  0.00     0.002 A 
ATOM      4  C5  UNL d   1       3.095  -0.085   0.816  0.00  0.00    -0.004 A 
ATOM      5  C6  UNL d   1       2.588   1.109   0.305  0.00  0.00     0.002 A 
ATOM      6  C7  UNL d   1       1.227   1.223   0.016  0.00  0.00     0.002 A 
ENDROOT
BRANCH   1   7
ATOM      7  C1  UNL d   1      -1.115   0.284  -0.030  0.00  0.00     0.055 C 
ATOM      8  C   UNL d   1      -1.430   0.128  -1.510  0.00  0.00     0.019 C 
ENDBRANCH   1   7
TORSDOF 1
ENDMDL
