MODEL 1
REMARK minimizedAffinity -5.2089572
REMARK minimizedRMSD -1
REMARK  1 active torsions:
REMARK  status: ('A' for Active; 'I' for Inactive)
REMARK    1  A    between atoms: C1_2  and  C2_3 
ROOT
ATOM      1  C2  UNL d   1       0.862  -0.149   0.504  0.00  0.00    -0.077 A 
ATOM      2  C3  UNL d   1       0.382  -1.384   0.963  0.00  0.00     0.002 A 
ATOM      3  C4  UNL d   1       1.196  -2.216   1.733  0.00  0.00     0.002 A 
ATOM      4  C5  UNL d   1       2.493  -1.821   2.055  0.00  0.00    -0.004 A 
ATOM      5  C6  UNL d   1       2.981  -0.596   1.602  0.00  0.00     0.002 A 
ATOM      6  C7  UNL d   1       2.168   0.237   0.831  0.00  0.00     0.002 A 
ENDROOT
BRANCH   1   7
ATOM      7  C1  UNL d   1      -0.031   0.772  -0.285  0.00  0.00     0.055 C 
ATOM      8  C   UNL d   1      -1.322   0.076  -0.693  0.00  0.00     0.019 C 
ENDBRANCH   1   7
TORSDOF 1
ENDMDL
