MODEL 1
REMARK minimizedAffinity -3.42318749
REMARK minimizedRMSD -1
REMARK  0 active torsions:
REMARK  status: ('A' for Active; 'I' for Inactive)
ROOT
ATOM      1  C2' OXE d   1      -0.736   1.392  -0.440  0.00  0.00     0.078 C 
ATOM      2  C1' OXE d   1      -1.275  -0.708   1.342  0.00  0.00     0.078 C 
ATOM      3  C1  OXE d   1       0.089  -0.663   0.700  0.00  0.00    -0.078 A 
ATOM      4  C2  OXE d   1       0.328   0.342  -0.206  0.00  0.00    -0.078 A 
ATOM      5  C3  OXE d   1       1.588   0.462  -0.786  0.00  0.00     0.003 A 
ATOM      6  C4  OXE d   1       2.563  -0.520  -0.572  0.00  0.00    -0.002 A 
ATOM      7  C5  OXE d   1       2.326  -1.574   0.317  0.00  0.00    -0.002 A 
ATOM      8  C6  OXE d   1       1.112  -1.636   0.993  0.00  0.00     0.003 A 
ENDROOT
TORSDOF 0
ENDMDL
