MODEL 1
REMARK minimizedAffinity -3.95810628
REMARK minimizedRMSD -1
REMARK  0 active torsions:
REMARK  status: ('A' for Active; 'I' for Inactive)
ROOT
ATOM      1  C2' OXE d   1      -0.260   0.826  -0.788  0.00  0.00     0.078 C 
ATOM      2  C1' OXE d   1       2.409   0.121  -1.297  0.00  0.00     0.078 C 
ATOM      3  C1  OXE d   1       1.753  -0.452  -0.066  0.00  0.00    -0.078 A 
ATOM      4  C2  OXE d   1       0.461  -0.065   0.200  0.00  0.00    -0.078 A 
ATOM      5  C3  OXE d   1      -0.209  -0.607   1.293  0.00  0.00     0.003 A 
ATOM      6  C4  OXE d   1       0.468  -1.422   2.208  0.00  0.00    -0.002 A 
ATOM      7  C5  OXE d   1       1.796  -1.796   1.977  0.00  0.00    -0.002 A 
ATOM      8  C6  OXE d   1       2.438  -1.356   0.825  0.00  0.00     0.003 A 
ENDROOT
TORSDOF 0
ENDMDL
