MODEL 1
REMARK minimizedAffinity -0.904879928
REMARK minimizedRMSD -1
REMARK  0 active torsions:
REMARK  status: ('A' for Active; 'I' for Inactive)
ROOT
ATOM      1  C2' OXE d   1      -1.465  -0.233   0.673  0.00  0.00     0.078 C 
ATOM      2  C1' OXE d   1       0.742   1.262  -0.208  0.00  0.00     0.078 C 
ATOM      3  C1  OXE d   1      -0.476   1.214  -1.097  0.00  0.00    -0.078 A 
ATOM      4  C2  OXE d   1      -1.533   0.442  -0.680  0.00  0.00    -0.078 A 
ATOM      5  C3  OXE d   1      -2.702   0.407  -1.436  0.00  0.00     0.003 A 
ATOM      6  C4  OXE d   1      -2.753   1.026  -2.690  0.00  0.00    -0.002 A 
ATOM      7  C5  OXE d   1      -1.672   1.784  -3.152  0.00  0.00    -0.002 A 
ATOM      8  C6  OXE d   1      -0.544   1.923  -2.351  0.00  0.00     0.003 A 
ENDROOT
TORSDOF 0
ENDMDL
