MODEL 1
REMARK minimizedAffinity -3.52352095
REMARK minimizedRMSD -1
REMARK  0 active torsions:
REMARK  status: ('A' for Active; 'I' for Inactive)
ROOT
ATOM      1  C2' OXE d   1       2.032  -1.722   1.409  0.00  0.00     0.078 C 
ATOM      2  C1' OXE d   1       2.685   0.345  -0.374  0.00  0.00     0.078 C 
ATOM      3  C1  OXE d   1       1.273   0.292   0.154  0.00  0.00    -0.078 A 
ATOM      4  C2  OXE d   1       0.950  -0.750   0.990  0.00  0.00    -0.078 A 
ATOM      5  C3  OXE d   1      -0.323  -0.816   1.549  0.00  0.00     0.003 A 
ATOM      6  C4  OXE d   1      -1.321   0.081   1.148  0.00  0.00    -0.002 A 
ATOM      7  C5  OXE d   1      -1.023   1.127   0.267  0.00  0.00    -0.002 A 
ATOM      8  C6  OXE d   1       0.277   1.271  -0.205  0.00  0.00     0.003 A 
ENDROOT
TORSDOF 0
ENDMDL
