MODEL 1
REMARK minimizedAffinity -3.42035151
REMARK minimizedRMSD -1
REMARK  0 active torsions:
REMARK  status: ('A' for Active; 'I' for Inactive)
ROOT
ATOM      1  C2' OXE d   1      -1.916   1.636   0.786  0.00  0.00     0.078 C 
ATOM      2  C1' OXE d   1      -0.044  -0.300  -0.007  0.00  0.00     0.078 C 
ATOM      3  C1  OXE d   1      -0.889   0.342  -1.079  0.00  0.00    -0.078 A 
ATOM      4  C2  OXE d   1      -1.835   1.254  -0.677  0.00  0.00    -0.078 A 
ATOM      5  C3  OXE d   1      -2.604   1.915  -1.630  0.00  0.00     0.003 A 
ATOM      6  C4  OXE d   1      -2.529   1.548  -2.979  0.00  0.00    -0.002 A 
ATOM      7  C5  OXE d   1      -1.600   0.593  -3.405  0.00  0.00    -0.002 A 
ATOM      8  C6  OXE d   1      -0.745   0.012  -2.475  0.00  0.00     0.003 A 
ENDROOT
TORSDOF 0
ENDMDL
