MODEL 1
REMARK minimizedAffinity -2.39337969
REMARK minimizedRMSD -1
REMARK  0 active torsions:
REMARK  status: ('A' for Active; 'I' for Inactive)
ROOT
ATOM      1  C2' OXE d   1      -1.102  -1.054   1.543  0.00  0.00     0.078 C 
ATOM      2  C1' OXE d   1      -0.676   0.796  -0.526  0.00  0.00     0.078 C 
ATOM      3  C1  OXE d   1       0.532   0.121   0.075  0.00  0.00    -0.078 A 
ATOM      4  C2  OXE d   1       0.318  -0.748   1.118  0.00  0.00    -0.078 A 
ATOM      5  C3  OXE d   1       1.393  -1.438   1.671  0.00  0.00     0.003 A 
ATOM      6  C4  OXE d   1       2.704  -1.141   1.279  0.00  0.00    -0.002 A 
ATOM      7  C5  OXE d   1       2.947  -0.230   0.246  0.00  0.00    -0.002 A 
ATOM      8  C6  OXE d   1       1.872   0.376  -0.395  0.00  0.00     0.003 A 
ENDROOT
TORSDOF 0
ENDMDL
