MODEL 1
REMARK minimizedAffinity -3.36451292
REMARK minimizedRMSD -1
REMARK  0 active torsions:
REMARK  status: ('A' for Active; 'I' for Inactive)
ROOT
ATOM      1  C2' OXE d   1      -0.497  -0.664   0.312  0.00  0.00     0.078 C 
ATOM      2  C1' OXE d   1       1.207   1.379  -0.586  0.00  0.00     0.078 C 
ATOM      3  C1  OXE d   1      -0.229   1.407  -1.047  0.00  0.00    -0.078 A 
ATOM      4  C2  OXE d   1      -1.043   0.377  -0.641  0.00  0.00    -0.078 A 
ATOM      5  C3  OXE d   1      -2.390   0.384  -0.993  0.00  0.00     0.003 A 
ATOM      6  C4  OXE d   1      -2.885   1.345  -1.882  0.00  0.00    -0.002 A 
ATOM      7  C5  OXE d   1      -2.062   2.380  -2.340  0.00  0.00    -0.002 A 
ATOM      8  C6  OXE d   1      -0.746   2.449  -1.899  0.00  0.00     0.003 A 
ENDROOT
TORSDOF 0
ENDMDL
