MODEL 1
REMARK minimizedAffinity -3.81138992
REMARK minimizedRMSD -1
REMARK  0 active torsions:
REMARK  status: ('A' for Active; 'I' for Inactive)
ROOT
ATOM      1  C2' OXE d   1      -1.131  -1.266  -1.506  0.00  0.00     0.078 C 
ATOM      2  C1' OXE d   1       0.306   0.486   0.150  0.00  0.00     0.078 C 
ATOM      3  C1  OXE d   1      -0.661   1.087  -0.839  0.00  0.00    -0.078 A 
ATOM      4  C2  OXE d   1      -1.326   0.225  -1.677  0.00  0.00    -0.078 A 
ATOM      5  C3  OXE d   1      -2.271   0.723  -2.570  0.00  0.00     0.003 A 
ATOM      6  C4  OXE d   1      -2.437   2.104  -2.729  0.00  0.00    -0.002 A 
ATOM      7  C5  OXE d   1      -1.741   3.001  -1.912  0.00  0.00    -0.002 A 
ATOM      8  C6  OXE d   1      -0.883   2.509  -0.935  0.00  0.00     0.003 A 
ENDROOT
TORSDOF 0
ENDMDL
