MODEL 1
REMARK minimizedAffinity -4.58841276
REMARK minimizedRMSD -1
REMARK  0 active torsions:
REMARK  status: ('A' for Active; 'I' for Inactive)
ROOT
ATOM      1  C2' OXE d   1      -0.120   1.285  -0.825  0.00  0.00     0.078 C 
ATOM      2  C1' OXE d   1       2.626   0.779  -1.113  0.00  0.00     0.078 C 
ATOM      3  C1  OXE d   1       1.831  -0.141  -0.220  0.00  0.00    -0.078 A 
ATOM      4  C2  OXE d   1       0.497   0.142  -0.048  0.00  0.00    -0.078 A 
ATOM      5  C3  OXE d   1      -0.294  -0.707   0.721  0.00  0.00     0.003 A 
ATOM      6  C4  OXE d   1       0.288  -1.756   1.444  0.00  0.00    -0.002 A 
ATOM      7  C5  OXE d   1       1.652  -2.037   1.314  0.00  0.00    -0.002 A 
ATOM      8  C6  OXE d   1       2.427  -1.267   0.455  0.00  0.00     0.003 A 
ENDROOT
TORSDOF 0
ENDMDL
