MODEL 1
REMARK minimizedAffinity -3.75701213
REMARK minimizedRMSD -1
REMARK  0 active torsions:
REMARK  status: ('A' for Active; 'I' for Inactive)
ROOT
ATOM      1  C2' OXE d   1       3.334   0.126  -0.383  0.00  0.00     0.078 C 
ATOM      2  C1' OXE d   1       2.137  -1.929   1.107  0.00  0.00     0.078 C 
ATOM      3  C1  OXE d   1       1.287  -0.737   0.744  0.00  0.00    -0.078 A 
ATOM      4  C2  OXE d   1       1.894   0.285   0.055  0.00  0.00    -0.078 A 
ATOM      5  C3  OXE d   1       1.142   1.383  -0.352  0.00  0.00     0.003 A 
ATOM      6  C4  OXE d   1      -0.187   1.527   0.065  0.00  0.00    -0.002 A 
ATOM      7  C5  OXE d   1      -0.813   0.515   0.802  0.00  0.00    -0.002 A 
ATOM      8  C6  OXE d   1      -0.104  -0.640   1.112  0.00  0.00     0.003 A 
ENDROOT
TORSDOF 0
ENDMDL
