MODEL 1
REMARK minimizedAffinity -2.1204679
REMARK minimizedRMSD -1
REMARK  0 active torsions:
REMARK  status: ('A' for Active; 'I' for Inactive)
ROOT
ATOM      1  C2' OXE d   1       1.718  -2.025   2.006  0.00  0.00     0.078 C 
ATOM      2  C1' OXE d   1      -0.858  -0.911   2.059  0.00  0.00     0.078 C 
ATOM      3  C1  OXE d   1       0.146  -0.316   1.104  0.00  0.00    -0.078 A 
ATOM      4  C2  OXE d   1       1.417  -0.837   1.118  0.00  0.00    -0.078 A 
ATOM      5  C3  OXE d   1       2.367  -0.361   0.218  0.00  0.00     0.003 A 
ATOM      6  C4  OXE d   1       2.084   0.745  -0.593  0.00  0.00    -0.002 A 
ATOM      7  C5  OXE d   1       0.807   1.316  -0.594  0.00  0.00    -0.002 A 
ATOM      8  C6  OXE d   1      -0.184   0.771   0.216  0.00  0.00     0.003 A 
ENDROOT
TORSDOF 0
ENDMDL
