MODEL 1
REMARK minimizedAffinity -0.852316558
REMARK minimizedRMSD -1
REMARK  0 active torsions:
REMARK  status: ('A' for Active; 'I' for Inactive)
ROOT
ATOM      1  C2' OXE d   1      -3.391  -0.062  -2.237  0.00  0.00     0.078 C 
ATOM      2  C1' OXE d   1      -1.586   1.931  -3.041  0.00  0.00     0.078 C 
ATOM      3  C1  OXE d   1      -1.242   1.124  -1.814  0.00  0.00    -0.078 A 
ATOM      4  C2  OXE d   1      -2.154   0.183  -1.401  0.00  0.00    -0.078 A 
ATOM      5  C3  OXE d   1      -1.861  -0.626  -0.307  0.00  0.00     0.003 A 
ATOM      6  C4  OXE d   1      -0.719  -0.386   0.467  0.00  0.00    -0.002 A 
ATOM      7  C5  OXE d   1       0.203   0.594   0.086  0.00  0.00    -0.002 A 
ATOM      8  C6  OXE d   1      -0.022   1.328  -1.073  0.00  0.00     0.003 A 
ENDROOT
TORSDOF 0
ENDMDL
