MODEL 1
REMARK minimizedAffinity -2.32922459
REMARK minimizedRMSD -1
REMARK  0 active torsions:
REMARK  status: ('A' for Active; 'I' for Inactive)
ROOT
ATOM      1  C2' OXE d   1      -2.319  -0.631   0.811  0.00  0.00     0.078 C 
ATOM      2  C1' OXE d   1       0.053   0.722   0.160  0.00  0.00     0.078 C 
ATOM      3  C1  OXE d   1      -1.066   0.736  -0.852  0.00  0.00    -0.078 A 
ATOM      4  C2  OXE d   1      -2.205   0.033  -0.544  0.00  0.00    -0.078 A 
ATOM      5  C3  OXE d   1      -3.288   0.058  -1.418  0.00  0.00     0.003 A 
ATOM      6  C4  OXE d   1      -3.171   0.666  -2.674  0.00  0.00    -0.002 A 
ATOM      7  C5  OXE d   1      -2.005   1.354  -3.024  0.00  0.00    -0.002 A 
ATOM      8  C6  OXE d   1      -0.961   1.435  -2.109  0.00  0.00     0.003 A 
ENDROOT
TORSDOF 0
ENDMDL
