MODEL 1
REMARK minimizedAffinity -2.2909503
REMARK minimizedRMSD -1
REMARK  0 active torsions:
REMARK  status: ('A' for Active; 'I' for Inactive)
ROOT
ATOM      1  C2' OXE d   1      -2.845  -0.467   1.573  0.00  0.00     0.078 C 
ATOM      2  C1' OXE d   1      -4.360  -0.375  -0.789  0.00  0.00     0.078 C 
ATOM      3  C1  OXE d   1      -3.044   0.361  -0.768  0.00  0.00    -0.078 A 
ATOM      4  C2  OXE d   1      -2.331   0.350   0.407  0.00  0.00    -0.078 A 
ATOM      5  C3  OXE d   1      -1.085   0.967   0.463  0.00  0.00     0.003 A 
ATOM      6  C4  OXE d   1      -0.622   1.729  -0.617  0.00  0.00    -0.002 A 
ATOM      7  C5  OXE d   1      -1.351   1.787  -1.809  0.00  0.00    -0.002 A 
ATOM      8  C6  OXE d   1      -2.541   1.075  -1.916  0.00  0.00     0.003 A 
ENDROOT
TORSDOF 0
ENDMDL
