MODEL 1
REMARK minimizedAffinity -5.39568329
REMARK minimizedRMSD -1
REMARK  0 active torsions:
REMARK  status: ('A' for Active; 'I' for Inactive)
ROOT
ATOM      1  C2' OXE d   1      -0.773   1.007  -0.004  0.00  0.00     0.078 C 
ATOM      2  C1' OXE d   1      -1.563  -0.631   2.135  0.00  0.00     0.078 C 
ATOM      3  C1  OXE d   1      -0.285  -0.981   1.415  0.00  0.00    -0.078 A 
ATOM      4  C2  OXE d   1       0.070  -0.202   0.341  0.00  0.00    -0.078 A 
ATOM      5  C3  OXE d   1       1.268  -0.448  -0.324  0.00  0.00     0.003 A 
ATOM      6  C4  OXE d   1       2.037  -1.574  -0.006  0.00  0.00    -0.002 A 
ATOM      7  C5  OXE d   1       1.673  -2.404   1.060  0.00  0.00    -0.002 A 
ATOM      8  C6  OXE d   1       0.540  -2.098   1.806  0.00  0.00     0.003 A 
ENDROOT
TORSDOF 0
ENDMDL
