MODEL 1
REMARK minimizedAffinity -4.4942832
REMARK minimizedRMSD -1
REMARK  0 active torsions:
REMARK  status: ('A' for Active; 'I' for Inactive)
ROOT
ATOM      1  C1  DEN d   1      -2.493  -3.902  -4.955  0.00  0.00     0.130 A 
ATOM      2  C2  DEN d   1      -3.013  -5.213  -5.335  0.00  0.00    -0.031 A 
ATOM      3  C3  DEN d   1      -4.473  -5.091  -5.515  0.00  0.00     0.027 A 
ATOM      4  C4  DEN d   1      -5.973  -3.010  -5.250  0.00  0.00     0.027 A 
ATOM      5  C5  DEN d   1      -5.987  -1.670  -4.929  0.00  0.00    -0.003 A 
ATOM      6  C6  DEN d   1      -4.853  -0.994  -4.564  0.00  0.00     0.001 A 
ATOM      7  C7  DEN d   1      -3.648  -1.646  -4.555  0.00  0.00     0.017 A 
ATOM      8  C8  DEN d   1      -3.626  -2.998  -4.870  0.00  0.00    -0.094 A 
ATOM      9  C9  DEN d   1      -4.782  -3.661  -5.248  0.00  0.00    -0.072 A 
ENDROOT
TORSDOF 0
ENDMDL
