MODEL 1
REMARK minimizedAffinity -3.39268637
REMARK minimizedRMSD -1
REMARK  0 active torsions:
REMARK  status: ('A' for Active; 'I' for Inactive)
ROOT
ATOM      1  C1  DEN d   1      -2.675  -5.964  -4.470  0.00  0.00     0.130 A 
ATOM      2  C2  DEN d   1      -1.445  -5.986  -5.257  0.00  0.00    -0.031 A 
ATOM      3  C3  DEN d   1      -1.355  -4.712  -5.998  0.00  0.00     0.027 A 
ATOM      4  C4  DEN d   1      -2.989  -2.716  -6.000  0.00  0.00     0.027 A 
ATOM      5  C5  DEN d   1      -4.180  -2.240  -5.496  0.00  0.00    -0.003 A 
ATOM      6  C6  DEN d   1      -4.962  -2.978  -4.649  0.00  0.00     0.001 A 
ATOM      7  C7  DEN d   1      -4.541  -4.217  -4.244  0.00  0.00     0.017 A 
ATOM      8  C8  DEN d   1      -3.346  -4.708  -4.753  0.00  0.00    -0.094 A 
ATOM      9  C9  DEN d   1      -2.563  -3.941  -5.599  0.00  0.00    -0.072 A 
ENDROOT
TORSDOF 0
ENDMDL
