MODEL 1
REMARK minimizedAffinity -0.592781246
REMARK minimizedRMSD -1
REMARK  0 active torsions:
REMARK  status: ('A' for Active; 'I' for Inactive)
ROOT
ATOM      1  C1  DEN d   1      -2.037  -5.966  -5.997  0.00  0.00     0.130 A 
ATOM      2  C2  DEN d   1      -0.846  -5.597  -5.237  0.00  0.00    -0.031 A 
ATOM      3  C3  DEN d   1      -1.211  -4.498  -4.321  0.00  0.00     0.027 A 
ATOM      4  C4  DEN d   1      -3.495  -3.341  -4.004  0.00  0.00     0.027 A 
ATOM      5  C5  DEN d   1      -4.803  -3.302  -4.434  0.00  0.00    -0.003 A 
ATOM      6  C6  DEN d   1      -5.268  -4.118  -5.430  0.00  0.00     0.001 A 
ATOM      7  C7  DEN d   1      -4.430  -5.040  -5.999  0.00  0.00     0.017 A 
ATOM      8  C8  DEN d   1      -3.108  -5.081  -5.576  0.00  0.00    -0.094 A 
ATOM      9  C9  DEN d   1      -2.660  -4.255  -4.559  0.00  0.00    -0.072 A 
ENDROOT
TORSDOF 0
ENDMDL
