MODEL 1
REMARK minimizedAffinity -2.52401948
REMARK minimizedRMSD -1
REMARK  0 active torsions:
REMARK  status: ('A' for Active; 'I' for Inactive)
ROOT
ATOM      1  C1  DEN d   1      -2.426  -4.635  -5.979  0.00  0.00     0.130 A 
ATOM      2  C2  DEN d   1      -2.737  -5.990  -5.532  0.00  0.00    -0.031 A 
ATOM      3  C3  DEN d   1      -4.124  -5.996  -5.023  0.00  0.00     0.027 A 
ATOM      4  C4  DEN d   1      -5.811  -4.050  -4.888  0.00  0.00     0.027 A 
ATOM      5  C5  DEN d   1      -5.999  -2.709  -5.136  0.00  0.00    -0.003 A 
ATOM      6  C6  DEN d   1      -5.007  -1.914  -5.647  0.00  0.00     0.001 A 
ATOM      7  C7  DEN d   1      -3.795  -2.465  -5.968  0.00  0.00     0.017 A 
ATOM      8  C8  DEN d   1      -3.595  -3.815  -5.714  0.00  0.00    -0.094 A 
ATOM      9  C9  DEN d   1      -4.614  -4.604  -5.208  0.00  0.00    -0.072 A 
ENDROOT
TORSDOF 0
ENDMDL
