MODEL 1
REMARK minimizedAffinity -2.5387764
REMARK minimizedRMSD -1
REMARK  0 active torsions:
REMARK  status: ('A' for Active; 'I' for Inactive)
ROOT
ATOM      1  C1  DEN d   1      -5.998  -2.183  -3.749  0.00  0.00     0.130 A 
ATOM      2  C2  DEN d   1      -6.000  -1.303  -4.915  0.00  0.00    -0.031 A 
ATOM      3  C3  DEN d   1      -5.264  -1.982  -6.000  0.00  0.00     0.027 A 
ATOM      4  C4  DEN d   1      -4.131  -4.300  -5.989  0.00  0.00     0.027 A 
ATOM      5  C5  DEN d   1      -3.855  -5.410  -5.223  0.00  0.00    -0.003 A 
ATOM      6  C6  DEN d   1      -4.241  -5.508  -3.913  0.00  0.00     0.001 A 
ATOM      7  C7  DEN d   1      -4.965  -4.495  -3.341  0.00  0.00     0.017 A 
ATOM      8  C8  DEN d   1      -5.241  -3.369  -4.105  0.00  0.00    -0.094 A 
ATOM      9  C9  DEN d   1      -4.853  -3.294  -5.432  0.00  0.00    -0.072 A 
ENDROOT
TORSDOF 0
ENDMDL
