MODEL 1
REMARK minimizedAffinity -4.00361538
REMARK minimizedRMSD -1
REMARK  0 active torsions:
REMARK  status: ('A' for Active; 'I' for Inactive)
ROOT
ATOM      1  C1  DEN d   1      -2.527  -4.597  -5.107  0.00  0.00     0.130 A 
ATOM      2  C2  DEN d   1      -2.995  -5.972  -5.257  0.00  0.00    -0.031 A 
ATOM      3  C3  DEN d   1      -4.423  -5.930  -5.630  0.00  0.00     0.027 A 
ATOM      4  C4  DEN d   1      -5.945  -3.880  -5.993  0.00  0.00     0.027 A 
ATOM      5  C5  DEN d   1      -6.000  -2.504  -5.969  0.00  0.00    -0.003 A 
ATOM      6  C6  DEN d   1      -4.919  -1.736  -5.625  0.00  0.00     0.001 A 
ATOM      7  C7  DEN d   1      -3.723  -2.339  -5.336  0.00  0.00     0.017 A 
ATOM      8  C8  DEN d   1      -3.662  -3.726  -5.351  0.00  0.00    -0.094 A 
ATOM      9  C9  DEN d   1      -4.763  -4.484  -5.713  0.00  0.00    -0.072 A 
ENDROOT
TORSDOF 0
ENDMDL
