MODEL 1
REMARK minimizedAffinity 5.6586175
REMARK minimizedRMSD -1
REMARK  0 active torsions:
REMARK  status: ('A' for Active; 'I' for Inactive)
ROOT
ATOM      1  C1  DEN d   1      -1.570  -5.155  -6.000  0.00  0.00     0.130 A 
ATOM      2  C2  DEN d   1      -0.965  -6.000  -4.974  0.00  0.00    -0.031 A 
ATOM      3  C3  DEN d   1      -1.820  -5.941  -3.771  0.00  0.00     0.027 A 
ATOM      4  C4  DEN d   1      -4.014  -4.637  -3.402  0.00  0.00     0.027 A 
ATOM      5  C5  DEN d   1      -4.916  -3.772  -3.981  0.00  0.00    -0.003 A 
ATOM      6  C6  DEN d   1      -4.750  -3.284  -5.250  0.00  0.00     0.001 A 
ATOM      7  C7  DEN d   1      -3.680  -3.695  -6.000  0.00  0.00     0.017 A 
ATOM      8  C8  DEN d   1      -2.762  -4.561  -5.421  0.00  0.00    -0.094 A 
ATOM      9  C9  DEN d   1      -2.954  -5.052  -4.141  0.00  0.00    -0.072 A 
ENDROOT
TORSDOF 0
ENDMDL
