MODEL 1
REMARK minimizedAffinity -0.906195104
REMARK minimizedRMSD -1
REMARK  0 active torsions:
REMARK  status: ('A' for Active; 'I' for Inactive)
ROOT
ATOM      1  C1  DEN d   1      -3.804  -2.635  -3.839  0.00  0.00     0.130 A 
ATOM      2  C2  DEN d   1      -5.252  -2.648  -4.031  0.00  0.00    -0.031 A 
ATOM      3  C3  DEN d   1      -5.591  -3.815  -4.870  0.00  0.00     0.027 A 
ATOM      4  C4  DEN d   1      -4.023  -5.597  -5.879  0.00  0.00     0.027 A 
ATOM      5  C5  DEN d   1      -2.711  -6.000  -6.000  0.00  0.00    -0.003 A 
ATOM      6  C6  DEN d   1      -1.677  -5.296  -5.442  0.00  0.00     0.001 A 
ATOM      7  C7  DEN d   1      -1.942  -4.176  -4.699  0.00  0.00     0.017 A 
ATOM      8  C8  DEN d   1      -3.261  -3.760  -4.579  0.00  0.00    -0.094 A 
ATOM      9  C9  DEN d   1      -4.294  -4.492  -5.140  0.00  0.00    -0.072 A 
ENDROOT
TORSDOF 0
ENDMDL
