MODEL 1
REMARK minimizedAffinity -0.448423088
REMARK minimizedRMSD -1
REMARK  0 active torsions:
REMARK  status: ('A' for Active; 'I' for Inactive)
ROOT
ATOM      1  C1  DEN d   1      -2.856  -6.000  -4.126  0.00  0.00     0.130 A 
ATOM      2  C2  DEN d   1      -2.260  -5.376  -2.947  0.00  0.00    -0.031 A 
ATOM      3  C3  DEN d   1      -3.051  -4.173  -2.618  0.00  0.00     0.027 A 
ATOM      4  C4  DEN d   1      -5.131  -3.223  -3.810  0.00  0.00     0.027 A 
ATOM      5  C5  DEN d   1      -6.000  -3.400  -4.864  0.00  0.00    -0.003 A 
ATOM      6  C6  DEN d   1      -5.862  -4.428  -5.759  0.00  0.00     0.001 A 
ATOM      7  C7  DEN d   1      -4.859  -5.346  -5.589  0.00  0.00     0.017 A 
ATOM      8  C8  DEN d   1      -3.975  -5.169  -4.533  0.00  0.00    -0.094 A 
ATOM      9  C9  DEN d   1      -4.138  -4.131  -3.632  0.00  0.00    -0.072 A 
ENDROOT
TORSDOF 0
ENDMDL
