MODEL 1
REMARK minimizedAffinity -0.9237203
REMARK minimizedRMSD -1
REMARK  0 active torsions:
REMARK  status: ('A' for Active; 'I' for Inactive)
ROOT
ATOM      1  C1  DEN d   1      -4.817  -2.627  -3.756  0.00  0.00     0.130 A 
ATOM      2  C2  DEN d   1      -5.694  -2.475  -4.913  0.00  0.00    -0.031 A 
ATOM      3  C3  DEN d   1      -5.168  -3.326  -5.999  0.00  0.00     0.027 A 
ATOM      4  C4  DEN d   1      -3.095  -4.861  -6.000  0.00  0.00     0.027 A 
ATOM      5  C5  DEN d   1      -2.031  -5.310  -5.249  0.00  0.00    -0.003 A 
ATOM      6  C6  DEN d   1      -1.803  -4.875  -3.971  0.00  0.00     0.001 A 
ATOM      7  C7  DEN d   1      -2.678  -3.996  -3.387  0.00  0.00     0.017 A 
ATOM      8  C8  DEN d   1      -3.749  -3.533  -4.140  0.00  0.00    -0.094 A 
ATOM      9  C9  DEN d   1      -3.968  -3.994  -5.427  0.00  0.00    -0.072 A 
ENDROOT
TORSDOF 0
ENDMDL
