MODEL 1
REMARK minimizedAffinity -4.20285034
REMARK minimizedRMSD -1
REMARK  0 active torsions:
REMARK  status: ('A' for Active; 'I' for Inactive)
ROOT
ATOM      1  C1  DEN d   1      -3.836  -5.997  -5.091  0.00  0.00     0.130 A 
ATOM      2  C2  DEN d   1      -2.430  -5.886  -5.470  0.00  0.00    -0.031 A 
ATOM      3  C3  DEN d   1      -2.140  -4.463  -5.737  0.00  0.00     0.027 A 
ATOM      4  C4  DEN d   1      -3.722  -2.431  -5.597  0.00  0.00     0.027 A 
ATOM      5  C5  DEN d   1      -5.011  -2.028  -5.329  0.00  0.00    -0.003 A 
ATOM      6  C6  DEN d   1      -6.000  -2.917  -4.998  0.00  0.00     0.001 A 
ATOM      7  C7  DEN d   1      -5.704  -4.250  -4.883  0.00  0.00     0.017 A 
ATOM      8  C8  DEN d   1      -4.407  -4.664  -5.159  0.00  0.00    -0.094 A 
ATOM      9  C9  DEN d   1      -3.419  -3.748  -5.480  0.00  0.00    -0.072 A 
ENDROOT
TORSDOF 0
ENDMDL
