MODEL 1
REMARK minimizedAffinity 7.40799284
REMARK minimizedRMSD -1
REMARK  0 active torsions:
REMARK  status: ('A' for Active; 'I' for Inactive)
ROOT
ATOM      1  C1  DEN d   1      -4.936  -3.764  -6.000  0.00  0.00     0.130 A 
ATOM      2  C2  DEN d   1      -5.999  -4.745  -5.804  0.00  0.00    -0.031 A 
ATOM      3  C3  DEN d   1      -5.603  -5.631  -4.691  0.00  0.00     0.027 A 
ATOM      4  C4  DEN d   1      -3.460  -5.577  -3.258  0.00  0.00     0.027 A 
ATOM      5  C5  DEN d   1      -2.259  -4.933  -3.058  0.00  0.00    -0.003 A 
ATOM      6  C6  DEN d   1      -1.854  -3.884  -3.840  0.00  0.00     0.001 A 
ATOM      7  C7  DEN d   1      -2.678  -3.419  -4.831  0.00  0.00     0.017 A 
ATOM      8  C8  DEN d   1      -3.887  -4.068  -5.043  0.00  0.00    -0.094 A 
ATOM      9  C9  DEN d   1      -4.283  -5.119  -4.234  0.00  0.00    -0.072 A 
ENDROOT
TORSDOF 0
ENDMDL
