MODEL 1
REMARK minimizedAffinity -1.53072393
REMARK minimizedRMSD -1
REMARK  0 active torsions:
REMARK  status: ('A' for Active; 'I' for Inactive)
ROOT
ATOM      1  C1  DEN d   1      -1.955  -4.432  -3.137  0.00  0.00     0.130 A 
ATOM      2  C2  DEN d   1      -0.817  -5.240  -3.566  0.00  0.00    -0.031 A 
ATOM      3  C3  DEN d   1      -1.222  -6.000  -4.766  0.00  0.00     0.027 A 
ATOM      4  C4  DEN d   1      -3.488  -6.000  -5.997  0.00  0.00     0.027 A 
ATOM      5  C5  DEN d   1      -4.765  -5.483  -5.999  0.00  0.00    -0.003 A 
ATOM      6  C6  DEN d   1      -5.201  -4.612  -5.036  0.00  0.00     0.001 A 
ATOM      7  C7  DEN d   1      -4.340  -4.198  -4.055  0.00  0.00     0.017 A 
ATOM      8  C8  DEN d   1      -3.054  -4.721  -4.042  0.00  0.00    -0.094 A 
ATOM      9  C9  DEN d   1      -2.627  -5.590  -5.032  0.00  0.00    -0.072 A 
ENDROOT
TORSDOF 0
ENDMDL
