MODEL 1
REMARK minimizedAffinity -5.01233292
REMARK minimizedRMSD -1
REMARK  0 active torsions:
REMARK  status: ('A' for Active; 'I' for Inactive)
ROOT
ATOM      1  C1  DEN d   1      -3.646  -3.675  -6.000  0.00  0.00     0.130 A 
ATOM      2  C2  DEN d   1      -4.508  -3.157  -4.942  0.00  0.00    -0.031 A 
ATOM      3  C3  DEN d   1      -4.014  -3.681  -3.652  0.00  0.00     0.027 A 
ATOM      4  C4  DEN d   1      -2.006  -5.232  -3.194  0.00  0.00     0.027 A 
ATOM      5  C5  DEN d   1      -0.980  -5.943  -3.777  0.00  0.00    -0.003 A 
ATOM      6  C6  DEN d   1      -0.793  -5.975  -5.134  0.00  0.00     0.001 A 
ATOM      7  C7  DEN d   1      -1.618  -5.246  -5.950  0.00  0.00     0.017 A 
ATOM      8  C8  DEN d   1      -2.659  -4.533  -5.370  0.00  0.00    -0.094 A 
ATOM      9  C9  DEN d   1      -2.823  -4.503  -3.995  0.00  0.00    -0.072 A 
ENDROOT
TORSDOF 0
ENDMDL
